MODEL 1
REMARK VINA RESULT:     -11.5      0.000      0.000
REMARK SMILES C[NH2+][C@@]1(C(=O)OCCOCCOC(=O)c2ccc(-c3c4nc(c(-c5cc(S(=O)(=O)[O-])ccc5F)c5ccc([nH]5)c(-c5cc(S(=O)(=O)[O-])ccc5F)c5nc(c(-c6cc(S(=O)(=O)[O-])ccc6F)c6ccc3[nH]6)C=C5)C=C4)cc2)CCC[C@@H](Oc2cc(F)cc(F)c2)C1
REMARK SMILES IDX 10 1 9 2 8 3 7 4 6 5 4 6 5 7 3 8 78 9 91 10 79 11 81 12
REMARK SMILES IDX 80 13 2 14 1 15 82 18 83 19 84 20 90 21 85 22 88 23 86 24
REMARK SMILES IDX 87 25 89 26 11 27 12 28 13 29 14 30 15 31 16 32 77 33 17 34
REMARK SMILES IDX 76 35 18 36 19 37 20 38 70 39 21 40 75 41 69 42 71 43 22 44
REMARK SMILES IDX 74 45 68 46 67 47 23 49 55 50 35 51 54 52 36 53 39 54 53 55
REMARK SMILES IDX 72 56 37 57 38 58 52 60 73 61 40 62 24 63 25 64 33 65 26 66
REMARK SMILES IDX 32 67 34 68 31 69 27 70 28 71 29 72 30 73 56 74 57 75 65 76
REMARK SMILES IDX 58 77 64 78 66 79 63 80 59 81 60 82 61 83 62 84 41 85 42 86
REMARK SMILES IDX 50 87 43 88 49 89 51 90 48 91 44 92 45 93 46 94 47 95
REMARK H PARENT 2 16 2 17 71 48 39 59
REMARK Flexibility Score: inf
ROOT
ATOM      1  C   UNL A   1      37.095  19.892  24.929  1.00  0.00     0.202 C 
ENDROOT
BRANCH   1   2
ATOM      2  O   UNL A   1      36.726  21.211  25.326  1.00  0.00    -0.374 OA
BRANCH   2   3
ATOM      3  C   UNL A   1      37.142  22.289  24.489  1.00  0.00     0.202 C 
BRANCH   3   4
ATOM      4  C   UNL A   1      36.285  22.579  23.254  1.00  0.00     0.261 C 
BRANCH   4   5
ATOM      5  O   UNL A   1      34.874  22.473  23.534  1.00  0.00    -0.459 OA
BRANCH   5   6
ATOM      6  C   UNL A   1      34.213  23.658  23.617  1.00  0.00     0.368 C 
ATOM      7  O   UNL A   1      34.568  24.677  23.028  1.00  0.00    -0.245 OA
BRANCH   6   8
ATOM      8  C   UNL A   1      32.940  23.607  24.542  1.00  0.00     0.197 C 
ATOM      9  C   UNL A   1      33.422  23.967  25.965  1.00  0.00     0.081 C 
ATOM     10  C   UNL A   1      32.171  22.266  24.563  1.00  0.00     0.126 C 
ATOM     11  C   UNL A   1      34.172  22.816  26.642  1.00  0.00     0.011 C 
ATOM     12  C   UNL A   1      32.818  21.114  25.346  1.00  0.00     0.180 C 
ATOM     13  C   UNL A   1      33.311  21.558  26.728  1.00  0.00     0.046 C 
BRANCH   8  14
ATOM     14  N   UNL A   1      32.051  24.676  23.978  1.00  0.00    -0.334 N 
ATOM     15  C   UNL A   1      30.635  24.651  24.273  1.00  0.00     0.331 C 
ATOM     16  H   UNL A   1      32.410  25.569  24.316  1.00  0.00     0.347 HD
ATOM     17  H   UNL A   1      32.090  24.514  22.972  1.00  0.00     0.347 HD
ENDBRANCH   8  14
BRANCH  12  18
ATOM     18  O   UNL A   1      31.983  19.927  25.376  1.00  0.00    -0.490 OA
BRANCH  18  19
ATOM     19  C   UNL A   1      32.551  18.749  24.978  1.00  0.00     0.125 A 
ATOM     20  C   UNL A   1      33.039  18.641  23.677  1.00  0.00     0.085 A 
ATOM     21  C   UNL A   1      32.528  17.624  25.801  1.00  0.00     0.085 A 
ATOM     22  C   UNL A   1      33.583  17.431  23.248  1.00  0.00     0.129 A 
ATOM     23  C   UNL A   1      33.100  16.434  25.360  1.00  0.00     0.129 A 
ATOM     24  F   UNL A   1      34.063  17.327  22.001  1.00  0.00    -0.207 F 
ATOM     25  C   UNL A   1      33.637  16.327  24.087  1.00  0.00     0.078 A 
ATOM     26  F   UNL A   1      33.128  15.375  26.181  1.00  0.00    -0.207 F 
ENDBRANCH  18  19
ENDBRANCH  12  18
ENDBRANCH   6   8
ENDBRANCH   5   6
ENDBRANCH   4   5
ENDBRANCH   3   4
ENDBRANCH   2   3
ENDBRANCH   1   2
BRANCH   1  27
ATOM     27  C   UNL A   1      38.590  19.544  24.935  1.00  0.00     0.261 C 
BRANCH  27  28
ATOM     28  O   UNL A   1      39.172  19.600  26.250  1.00  0.00    -0.460 OA
BRANCH  28  29
ATOM     29  C   UNL A   1      40.487  19.932  26.266  1.00  0.00     0.338 C 
ATOM     30  O   UNL A   1      41.405  19.304  25.755  1.00  0.00    -0.246 OA
BRANCH  29  31
ATOM     31  C   UNL A   1      40.675  21.286  26.820  1.00  0.00     0.060 A 
ATOM     32  C   UNL A   1      40.087  22.352  26.126  1.00  0.00     0.016 A 
ATOM     33  C   UNL A   1      41.480  21.527  27.936  1.00  0.00     0.016 A 
ATOM     34  C   UNL A   1      40.344  23.665  26.511  1.00  0.00     0.010 A 
ATOM     35  C   UNL A   1      41.747  22.850  28.313  1.00  0.00     0.010 A 
ATOM     36  C   UNL A   1      41.211  23.925  27.579  1.00  0.00    -0.014 A 
BRANCH  36  37
ATOM     37  C   UNL A   1      41.676  25.316  27.813  1.00  0.00     0.031 A 
ATOM     38  C   UNL A   1      43.045  25.715  27.332  1.00  0.00     0.074 A 
ATOM     39  C   UNL A   1      40.872  26.224  28.395  1.00  0.00     0.049 A 
ATOM     40  N   UNL A   1      43.664  26.863  27.440  1.00  0.00    -0.248 NA
ATOM     41  C   UNL A   1      43.820  24.676  26.637  1.00  0.00     0.031 C 
ATOM     42  C   UNL A   1      39.507  25.971  28.852  1.00  0.00     0.029 A 
ATOM     43  N   UNL A   1      41.090  27.545  28.699  1.00  0.00    -0.354 N 
ATOM     44  C   UNL A   1      44.899  26.687  26.825  1.00  0.00     0.074 A 
ATOM     45  C   UNL A   1      44.956  25.309  26.384  1.00  0.00     0.031 C 
ATOM     46  C   UNL A   1      39.013  27.099  29.391  1.00  0.00     0.029 A 
ATOM     47  C   UNL A   1      40.035  28.142  29.350  1.00  0.00     0.049 A 
ATOM     48  H   UNL A   1      41.922  28.020  28.474  1.00  0.00     0.167 HD
ATOM     49  C   UNL A   1      45.890  27.594  26.635  1.00  0.00     0.034 A 
ATOM     50  C   UNL A   1      39.920  29.381  29.873  1.00  0.00     0.034 A 
ATOM     51  C   UNL A   1      45.826  28.961  27.094  1.00  0.00     0.049 A 
ATOM     52  C   UNL A   1      41.073  30.346  29.734  1.00  0.00     0.074 A 
ATOM     53  C   UNL A   1      46.771  29.963  26.953  1.00  0.00     0.029 A 
ATOM     54  N   UNL A   1      44.763  29.516  27.795  1.00  0.00    -0.354 N 
ATOM     55  N   UNL A   1      42.235  30.168  29.149  1.00  0.00    -0.248 NA
ATOM     56  C   UNL A   1      40.893  31.682  30.319  1.00  0.00     0.031 C 
ATOM     57  C   UNL A   1      46.311  31.099  27.629  1.00  0.00     0.029 A 
ATOM     58  C   UNL A   1      45.044  30.834  28.124  1.00  0.00     0.049 A 
ATOM     59  H   UNL A   1      43.932  29.042  28.026  1.00  0.00     0.167 HD
ATOM     60  C   UNL A   1      42.912  31.380  29.270  1.00  0.00     0.074 A 
ATOM     61  C   UNL A   1      42.021  32.283  29.972  1.00  0.00     0.031 C 
ATOM     62  C   UNL A   1      44.152  31.720  28.836  1.00  0.00     0.034 A 
BRANCH  49  63
ATOM     63  C   UNL A   1      47.145  27.113  25.947  1.00  0.00     0.023 A 
ATOM     64  C   UNL A   1      48.159  26.434  26.645  1.00  0.00     0.031 A 
ATOM     65  C   UNL A   1      47.345  27.366  24.578  1.00  0.00     0.131 A 
ATOM     66  C   UNL A   1      49.354  26.095  25.990  1.00  0.00     0.055 A 
ATOM     67  C   UNL A   1      48.503  26.956  23.914  1.00  0.00     0.041 A 
ATOM     68  F   UNL A   1      46.422  28.031  23.864  1.00  0.00    -0.206 F 
ATOM     69  C   UNL A   1      49.522  26.330  24.624  1.00  0.00     0.022 A 
BRANCH  66  70
ATOM     70  S   UNL A   1      50.739  25.472  26.981  1.00  0.00     0.124 S 
ATOM     71  O   UNL A   1      50.085  24.452  27.795  1.00  0.00    -0.237 OA
ATOM     72  O   UNL A   1      51.662  24.983  25.962  1.00  0.00    -0.237 OA
ATOM     73  O   UNL A   1      51.191  26.651  27.717  1.00  0.00    -0.744 OA
ENDBRANCH  66  70
ENDBRANCH  49  63
BRANCH  50  74
ATOM     74  C   UNL A   1      38.691  29.770  30.621  1.00  0.00     0.023 A 
ATOM     75  C   UNL A   1      37.699  30.571  30.034  1.00  0.00     0.031 A 
ATOM     76  C   UNL A   1      38.518  29.389  31.965  1.00  0.00     0.131 A 
ATOM     77  C   UNL A   1      36.603  31.001  30.798  1.00  0.00     0.055 A 
ATOM     78  C   UNL A   1      37.401  29.776  32.706  1.00  0.00     0.041 A 
ATOM     79  F   UNL A   1      39.437  28.624  32.576  1.00  0.00    -0.206 F 
ATOM     80  C   UNL A   1      36.441  30.598  32.126  1.00  0.00     0.022 A 
BRANCH  77  81
ATOM     81  S   UNL A   1      35.429  32.169  30.057  1.00  0.00     0.124 S 
ATOM     82  O   UNL A   1      34.466  32.348  31.138  1.00  0.00    -0.237 OA
ATOM     83  O   UNL A   1      36.286  33.314  29.765  1.00  0.00    -0.237 OA
ATOM     84  O   UNL A   1      34.930  31.453  28.886  1.00  0.00    -0.744 OA
ENDBRANCH  77  81
ENDBRANCH  50  74
BRANCH  62  85
ATOM     85  C   UNL A   1      44.599  33.143  29.070  1.00  0.00     0.023 A 
ATOM     86  C   UNL A   1      44.135  34.207  28.277  1.00  0.00     0.031 A 
ATOM     87  C   UNL A   1      45.511  33.436  30.101  1.00  0.00     0.131 A 
ATOM     88  C   UNL A   1      44.625  35.505  28.491  1.00  0.00     0.055 A 
ATOM     89  C   UNL A   1      45.950  34.738  30.347  1.00  0.00     0.041 A 
ATOM     90  F   UNL A   1      45.987  32.459  30.889  1.00  0.00    -0.206 F 
ATOM     91  C   UNL A   1      45.517  35.779  29.531  1.00  0.00     0.022 A 
BRANCH  88  92
ATOM     92  S   UNL A   1      44.152  36.819  27.333  1.00  0.00     0.124 S 
ATOM     93  O   UNL A   1      45.450  37.282  26.852  1.00  0.00    -0.237 OA
ATOM     94  O   UNL A   1      43.332  36.100  26.364  1.00  0.00    -0.237 OA
ATOM     95  O   UNL A   1      43.426  37.771  28.172  1.00  0.00    -0.744 OA
ENDBRANCH  88  92
ENDBRANCH  62  85
ENDBRANCH  36  37
ENDBRANCH  29  31
ENDBRANCH  28  29
ENDBRANCH  27  28
ENDBRANCH   1  27
TORSDOF 20
ENDMDL
MODEL 2
REMARK VINA RESULT:     -11.3      5.703     11.226
REMARK SMILES C[NH2+][C@@]1(C(=O)OCCOCCOC(=O)c2ccc(-c3c4nc(c(-c5cc(S(=O)(=O)[O-])ccc5F)c5ccc([nH]5)c(-c5cc(S(=O)(=O)[O-])ccc5F)c5nc(c(-c6cc(S(=O)(=O)[O-])ccc6F)c6ccc3[nH]6)C=C5)C=C4)cc2)CCC[C@@H](Oc2cc(F)cc(F)c2)C1
REMARK SMILES IDX 10 1 9 2 8 3 7 4 6 5 4 6 5 7 3 8 78 9 91 10 79 11 81 12
REMARK SMILES IDX 80 13 2 14 1 15 82 18 83 19 84 20 90 21 85 22 88 23 86 24
REMARK SMILES IDX 87 25 89 26 11 27 12 28 13 29 14 30 15 31 16 32 77 33 17 34
REMARK SMILES IDX 76 35 18 36 19 37 20 38 70 39 21 40 75 41 69 42 71 43 22 44
REMARK SMILES IDX 74 45 68 46 67 47 23 49 55 50 35 51 54 52 36 53 39 54 53 55
REMARK SMILES IDX 72 56 37 57 38 58 52 60 73 61 40 62 24 63 25 64 33 65 26 66
REMARK SMILES IDX 32 67 34 68 31 69 27 70 28 71 29 72 30 73 56 74 57 75 65 76
REMARK SMILES IDX 58 77 64 78 66 79 63 80 59 81 60 82 61 83 62 84 41 85 42 86
REMARK SMILES IDX 50 87 43 88 49 89 51 90 48 91 44 92 45 93 46 94 47 95
REMARK H PARENT 2 16 2 17 71 48 39 59
REMARK Flexibility Score: inf
ROOT
ATOM      1  C   UNL A   1      31.887  31.292  26.412  1.00  0.00     0.202 C 
ENDROOT
BRANCH   1   2
ATOM      2  O   UNL A   1      32.539  30.214  27.078  1.00  0.00    -0.374 OA
BRANCH   2   3
ATOM      3  C   UNL A   1      33.275  29.293  26.275  1.00  0.00     0.202 C 
BRANCH   3   4
ATOM      4  C   UNL A   1      33.299  27.834  26.739  1.00  0.00     0.261 C 
BRANCH   4   5
ATOM      5  O   UNL A   1      32.655  26.952  25.798  1.00  0.00    -0.459 OA
BRANCH   5   6
ATOM      6  C   UNL A   1      31.333  26.733  26.025  1.00  0.00     0.368 C 
ATOM      7  O   UNL A   1      30.740  27.134  27.023  1.00  0.00    -0.245 OA
BRANCH   6   8
ATOM      8  C   UNL A   1      30.624  25.911  24.884  1.00  0.00     0.197 C 
ATOM      9  C   UNL A   1      31.744  25.424  23.938  1.00  0.00     0.081 C 
ATOM     10  C   UNL A   1      29.539  26.665  24.081  1.00  0.00     0.126 C 
ATOM     11  C   UNL A   1      32.282  26.540  23.037  1.00  0.00     0.011 C 
ATOM     12  C   UNL A   1      30.033  27.703  23.062  1.00  0.00     0.180 C 
ATOM     13  C   UNL A   1      31.173  27.163  22.192  1.00  0.00     0.046 C 
BRANCH   8  14
ATOM     14  N   UNL A   1      29.988  24.767  25.616  1.00  0.00    -0.334 N 
ATOM     15  C   UNL A   1      30.823  23.707  26.139  1.00  0.00     0.331 C 
ATOM     16  H   UNL A   1      29.482  25.165  26.407  1.00  0.00     0.347 HD
ATOM     17  H   UNL A   1      29.432  24.303  24.899  1.00  0.00     0.347 HD
ENDBRANCH   8  14
BRANCH  12  18
ATOM     18  O   UNL A   1      28.947  28.295  22.303  1.00  0.00    -0.490 OA
BRANCH  18  19
ATOM     19  C   UNL A   1      28.785  29.650  22.389  1.00  0.00     0.125 A 
ATOM     20  C   UNL A   1      28.197  30.328  21.322  1.00  0.00     0.085 A 
ATOM     21  C   UNL A   1      29.316  30.373  23.457  1.00  0.00     0.085 A 
ATOM     22  C   UNL A   1      28.064  31.714  21.383  1.00  0.00     0.129 A 
ATOM     23  C   UNL A   1      29.148  31.753  23.507  1.00  0.00     0.129 A 
ATOM     24  F   UNL A   1      27.489  32.368  20.364  1.00  0.00    -0.207 F 
ATOM     25  C   UNL A   1      28.518  32.436  22.478  1.00  0.00     0.078 A 
ATOM     26  F   UNL A   1      29.607  32.433  24.567  1.00  0.00    -0.207 F 
ENDBRANCH  18  19
ENDBRANCH  12  18
ENDBRANCH   6   8
ENDBRANCH   5   6
ENDBRANCH   4   5
ENDBRANCH   3   4
ENDBRANCH   2   3
ENDBRANCH   1   2
BRANCH   1  27
ATOM     27  C   UNL A   1      31.733  32.611  27.183  1.00  0.00     0.261 C 
BRANCH  27  28
ATOM     28  O   UNL A   1      32.861  33.490  27.018  1.00  0.00    -0.460 OA
BRANCH  28  29
ATOM     29  C   UNL A   1      33.435  33.889  28.180  1.00  0.00     0.338 C 
ATOM     30  O   UNL A   1      32.957  34.658  29.004  1.00  0.00    -0.246 OA
BRANCH  29  31
ATOM     31  C   UNL A   1      34.661  33.114  28.447  1.00  0.00     0.060 A 
ATOM     32  C   UNL A   1      34.503  31.820  28.963  1.00  0.00     0.016 A 
ATOM     33  C   UNL A   1      35.935  33.661  28.288  1.00  0.00     0.016 A 
ATOM     34  C   UNL A   1      35.616  31.089  29.373  1.00  0.00     0.010 A 
ATOM     35  C   UNL A   1      37.052  32.929  28.713  1.00  0.00     0.010 A 
ATOM     36  C   UNL A   1      36.894  31.655  29.291  1.00  0.00    -0.014 A 
BRANCH  36  37
ATOM     37  C   UNL A   1      38.031  30.975  29.964  1.00  0.00     0.031 A 
ATOM     38  C   UNL A   1      38.321  31.298  31.405  1.00  0.00     0.074 A 
ATOM     39  C   UNL A   1      38.759  30.046  29.319  1.00  0.00     0.049 A 
ATOM     40  N   UNL A   1      39.267  30.842  32.186  1.00  0.00    -0.248 NA
ATOM     41  C   UNL A   1      37.422  32.268  32.049  1.00  0.00     0.031 C 
ATOM     42  C   UNL A   1      38.538  29.610  27.941  1.00  0.00     0.029 A 
ATOM     43  N   UNL A   1      39.832  29.301  29.740  1.00  0.00    -0.354 N 
ATOM     44  C   UNL A   1      39.077  31.466  33.415  1.00  0.00     0.074 A 
ATOM     45  C   UNL A   1      37.951  32.363  33.260  1.00  0.00     0.031 C 
ATOM     46  C   UNL A   1      39.457  28.680  27.626  1.00  0.00     0.029 A 
ATOM     47  C   UNL A   1      40.352  28.482  28.765  1.00  0.00     0.049 A 
ATOM     48  H   UNL A   1      40.196  29.350  30.653  1.00  0.00     0.167 HD
ATOM     49  C   UNL A   1      39.770  31.298  34.569  1.00  0.00     0.034 A 
ATOM     50  C   UNL A   1      41.439  27.684  28.783  1.00  0.00     0.034 A 
ATOM     51  C   UNL A   1      40.901  30.411  34.703  1.00  0.00     0.049 A 
ATOM     52  C   UNL A   1      42.254  27.583  30.050  1.00  0.00     0.074 A 
ATOM     53  C   UNL A   1      41.674  30.164  35.826  1.00  0.00     0.029 A 
ATOM     54  N   UNL A   1      41.432  29.637  33.680  1.00  0.00    -0.354 N 
ATOM     55  N   UNL A   1      42.064  28.177  31.206  1.00  0.00    -0.248 NA
ATOM     56  C   UNL A   1      43.426  26.697  30.017  1.00  0.00     0.031 C 
ATOM     57  C   UNL A   1      42.711  29.296  35.463  1.00  0.00     0.029 A 
ATOM     58  C   UNL A   1      42.541  28.938  34.135  1.00  0.00     0.049 A 
ATOM     59  H   UNL A   1      41.073  29.590  32.764  1.00  0.00     0.167 HD
ATOM     60  C   UNL A   1      43.075  27.712  32.044  1.00  0.00     0.074 A 
ATOM     61  C   UNL A   1      43.863  26.779  31.264  1.00  0.00     0.031 C 
ATOM     62  C   UNL A   1      43.326  28.021  33.342  1.00  0.00     0.034 A 
BRANCH  49  63
ATOM     63  C   UNL A   1      39.352  32.133  35.754  1.00  0.00     0.023 A 
ATOM     64  C   UNL A   1      39.941  33.380  36.028  1.00  0.00     0.031 A 
ATOM     65  C   UNL A   1      38.371  31.660  36.644  1.00  0.00     0.131 A 
ATOM     66  C   UNL A   1      39.596  34.077  37.197  1.00  0.00     0.055 A 
ATOM     67  C   UNL A   1      37.976  32.394  37.765  1.00  0.00     0.041 A 
ATOM     68  F   UNL A   1      37.790  30.466  36.449  1.00  0.00    -0.206 F 
ATOM     69  C   UNL A   1      38.600  33.603  38.054  1.00  0.00     0.022 A 
BRANCH  66  70
ATOM     70  S   UNL A   1      40.568  35.538  37.655  1.00  0.00     0.124 S 
ATOM     71  O   UNL A   1      40.708  35.359  39.098  1.00  0.00    -0.237 OA
ATOM     72  O   UNL A   1      41.784  35.367  36.868  1.00  0.00    -0.237 OA
ATOM     73  O   UNL A   1      39.717  36.655  37.254  1.00  0.00    -0.744 OA
ENDBRANCH  66  70
ENDBRANCH  49  63
BRANCH  50  74
ATOM     74  C   UNL A   1      41.857  26.952  27.553  1.00  0.00     0.023 A 
ATOM     75  C   UNL A   1      41.698  25.562  27.438  1.00  0.00     0.031 A 
ATOM     76  C   UNL A   1      42.477  27.633  26.489  1.00  0.00     0.131 A 
ATOM     77  C   UNL A   1      42.192  24.892  26.308  1.00  0.00     0.055 A 
ATOM     78  C   UNL A   1      42.921  26.970  25.345  1.00  0.00     0.041 A 
ATOM     79  F   UNL A   1      42.656  28.963  26.547  1.00  0.00    -0.206 F 
ATOM     80  C   UNL A   1      42.791  25.589  25.255  1.00  0.00     0.022 A 
BRANCH  77  81
ATOM     81  S   UNL A   1      42.119  23.080  26.269  1.00  0.00     0.124 S 
ATOM     82  O   UNL A   1      40.689  22.837  26.430  1.00  0.00    -0.237 OA
ATOM     83  O   UNL A   1      42.676  22.784  24.953  1.00  0.00    -0.237 OA
ATOM     84  O   UNL A   1      42.953  22.681  27.401  1.00  0.00    -0.744 OA
ENDBRANCH  77  81
ENDBRANCH  50  74
BRANCH  62  85
ATOM     85  C   UNL A   1      44.477  27.307  34.010  1.00  0.00     0.023 A 
ATOM     86  C   UNL A   1      44.324  26.039  34.598  1.00  0.00     0.031 A 
ATOM     87  C   UNL A   1      45.746  27.912  34.065  1.00  0.00     0.131 A 
ATOM     88  C   UNL A   1      45.405  25.441  35.263  1.00  0.00     0.055 A 
ATOM     89  C   UNL A   1      46.834  27.285  34.676  1.00  0.00     0.041 A 
ATOM     90  F   UNL A   1      45.950  29.122  33.520  1.00  0.00    -0.206 F 
ATOM     91  C   UNL A   1      46.663  26.048  35.291  1.00  0.00     0.022 A 
BRANCH  88  92
ATOM     92  S   UNL A   1      45.126  23.895  36.171  1.00  0.00     0.124 S 
ATOM     93  O   UNL A   1      46.347  23.149  35.883  1.00  0.00    -0.237 OA
ATOM     94  O   UNL A   1      44.973  24.363  37.545  1.00  0.00    -0.237 OA
ATOM     95  O   UNL A   1      43.911  23.355  35.563  1.00  0.00    -0.744 OA
ENDBRANCH  88  92
ENDBRANCH  62  85
ENDBRANCH  36  37
ENDBRANCH  29  31
ENDBRANCH  28  29
ENDBRANCH  27  28
ENDBRANCH   1  27
TORSDOF 20
ENDMDL
MODEL 3
REMARK VINA RESULT:     -11.3      4.870      7.817
REMARK SMILES C[NH2+][C@@]1(C(=O)OCCOCCOC(=O)c2ccc(-c3c4nc(c(-c5cc(S(=O)(=O)[O-])ccc5F)c5ccc([nH]5)c(-c5cc(S(=O)(=O)[O-])ccc5F)c5nc(c(-c6cc(S(=O)(=O)[O-])ccc6F)c6ccc3[nH]6)C=C5)C=C4)cc2)CCC[C@@H](Oc2cc(F)cc(F)c2)C1
REMARK SMILES IDX 10 1 9 2 8 3 7 4 6 5 4 6 5 7 3 8 78 9 91 10 79 11 81 12
REMARK SMILES IDX 80 13 2 14 1 15 82 18 83 19 84 20 90 21 85 22 88 23 86 24
REMARK SMILES IDX 87 25 89 26 11 27 12 28 13 29 14 30 15 31 16 32 77 33 17 34
REMARK SMILES IDX 76 35 18 36 19 37 20 38 70 39 21 40 75 41 69 42 71 43 22 44
REMARK SMILES IDX 74 45 68 46 67 47 23 49 55 50 35 51 54 52 36 53 39 54 53 55
REMARK SMILES IDX 72 56 37 57 38 58 52 60 73 61 40 62 24 63 25 64 33 65 26 66
REMARK SMILES IDX 32 67 34 68 31 69 27 70 28 71 29 72 30 73 56 74 57 75 65 76
REMARK SMILES IDX 58 77 64 78 66 79 63 80 59 81 60 82 61 83 62 84 41 85 42 86
REMARK SMILES IDX 50 87 43 88 49 89 51 90 48 91 44 92 45 93 46 94 47 95
REMARK H PARENT 2 16 2 17 71 48 39 59
REMARK Flexibility Score: inf
ROOT
ATOM      1  C   UNL A   1      31.592  29.181  25.326  1.00  0.00     0.202 C 
ENDROOT
BRANCH   1   2
ATOM      2  O   UNL A   1      31.500  28.950  23.922  1.00  0.00    -0.374 OA
BRANCH   2   3
ATOM      3  C   UNL A   1      30.283  28.394  23.425  1.00  0.00     0.202 C 
BRANCH   3   4
ATOM      4  C   UNL A   1      30.277  26.892  23.130  1.00  0.00     0.261 C 
BRANCH   4   5
ATOM      5  O   UNL A   1      29.940  26.110  24.294  1.00  0.00    -0.459 OA
BRANCH   5   6
ATOM      6  C   UNL A   1      30.486  24.866  24.331  1.00  0.00     0.368 C 
ATOM      7  O   UNL A   1      30.579  24.136  23.346  1.00  0.00    -0.245 OA
BRANCH   6   8
ATOM      8  C   UNL A   1      30.993  24.440  25.759  1.00  0.00     0.197 C 
ATOM      9  C   UNL A   1      31.768  25.651  26.324  1.00  0.00     0.081 C 
ATOM     10  C   UNL A   1      31.874  23.171  25.815  1.00  0.00     0.126 C 
ATOM     11  C   UNL A   1      33.154  25.812  25.691  1.00  0.00     0.011 C 
ATOM     12  C   UNL A   1      33.319  23.314  25.316  1.00  0.00     0.180 C 
ATOM     13  C   UNL A   1      34.007  24.560  25.882  1.00  0.00     0.046 C 
BRANCH   8  14
ATOM     14  N   UNL A   1      29.726  24.195  26.525  1.00  0.00    -0.334 N 
ATOM     15  C   UNL A   1      29.564  22.954  27.250  1.00  0.00     0.331 C 
ATOM     16  H   UNL A   1      29.639  24.951  27.204  1.00  0.00     0.347 HD
ATOM     17  H   UNL A   1      29.013  24.144  25.798  1.00  0.00     0.347 HD
ENDBRANCH   8  14
BRANCH  12  18
ATOM     18  O   UNL A   1      34.086  22.093  25.485  1.00  0.00    -0.490 OA
BRANCH  18  19
ATOM     19  C   UNL A   1      33.542  20.936  25.001  1.00  0.00     0.125 A 
ATOM     20  C   UNL A   1      33.122  20.892  23.673  1.00  0.00     0.085 A 
ATOM     21  C   UNL A   1      33.281  19.856  25.843  1.00  0.00     0.085 A 
ATOM     22  C   UNL A   1      32.529  19.731  23.181  1.00  0.00     0.129 A 
ATOM     23  C   UNL A   1      32.710  18.698  25.323  1.00  0.00     0.129 A 
ATOM     24  F   UNL A   1      32.134  19.682  21.901  1.00  0.00    -0.207 F 
ATOM     25  C   UNL A   1      32.336  18.620  23.990  1.00  0.00     0.078 A 
ATOM     26  F   UNL A   1      32.519  17.642  26.125  1.00  0.00    -0.207 F 
ENDBRANCH  18  19
ENDBRANCH  12  18
ENDBRANCH   6   8
ENDBRANCH   5   6
ENDBRANCH   4   5
ENDBRANCH   3   4
ENDBRANCH   2   3
ENDBRANCH   1   2
BRANCH   1  27
ATOM     27  C   UNL A   1      31.778  30.631  25.793  1.00  0.00     0.261 C 
BRANCH  27  28
ATOM     28  O   UNL A   1      32.355  30.726  27.108  1.00  0.00    -0.460 OA
BRANCH  28  29
ATOM     29  C   UNL A   1      33.122  31.827  27.305  1.00  0.00     0.338 C 
ATOM     30  O   UNL A   1      32.749  32.993  27.269  1.00  0.00    -0.246 OA
BRANCH  29  31
ATOM     31  C   UNL A   1      34.466  31.447  27.778  1.00  0.00     0.060 A 
ATOM     32  C   UNL A   1      34.685  30.094  28.071  1.00  0.00     0.016 A 
ATOM     33  C   UNL A   1      35.463  32.393  28.021  1.00  0.00     0.016 A 
ATOM     34  C   UNL A   1      35.882  29.689  28.657  1.00  0.00     0.010 A 
ATOM     35  C   UNL A   1      36.661  31.985  28.623  1.00  0.00     0.010 A 
ATOM     36  C   UNL A   1      36.860  30.638  28.978  1.00  0.00    -0.014 A 
BRANCH  36  37
ATOM     37  C   UNL A   1      38.009  30.234  29.828  1.00  0.00     0.031 A 
ATOM     38  C   UNL A   1      39.011  29.254  29.279  1.00  0.00     0.074 A 
ATOM     39  C   UNL A   1      38.188  30.770  31.049  1.00  0.00     0.049 A 
ATOM     40  N   UNL A   1      40.077  28.748  29.844  1.00  0.00    -0.248 NA
ATOM     41  C   UNL A   1      38.776  28.782  27.906  1.00  0.00     0.031 C 
ATOM     42  C   UNL A   1      37.315  31.769  31.665  1.00  0.00     0.029 A 
ATOM     43  N   UNL A   1      39.164  30.551  31.987  1.00  0.00    -0.354 N 
ATOM     44  C   UNL A   1      40.642  27.900  28.897  1.00  0.00     0.074 A 
ATOM     45  C   UNL A   1      39.776  27.930  27.737  1.00  0.00     0.031 C 
ATOM     46  C   UNL A   1      37.791  32.066  32.887  1.00  0.00     0.029 A 
ATOM     47  C   UNL A   1      38.978  31.256  33.153  1.00  0.00     0.049 A 
ATOM     48  H   UNL A   1      39.926  29.944  31.841  1.00  0.00     0.167 HD
ATOM     49  C   UNL A   1      41.785  27.173  28.982  1.00  0.00     0.034 A 
ATOM     50  C   UNL A   1      39.672  31.231  34.310  1.00  0.00     0.034 A 
ATOM     51  C   UNL A   1      42.630  27.140  30.151  1.00  0.00     0.049 A 
ATOM     52  C   UNL A   1      40.887  30.341  34.418  1.00  0.00     0.074 A 
ATOM     53  C   UNL A   1      43.809  26.439  30.344  1.00  0.00     0.029 A 
ATOM     54  N   UNL A   1      42.381  27.827  31.333  1.00  0.00    -0.354 N 
ATOM     55  N   UNL A   1      41.412  29.544  33.515  1.00  0.00    -0.248 NA
ATOM     56  C   UNL A   1      41.608  30.354  35.698  1.00  0.00     0.031 C 
ATOM     57  C   UNL A   1      44.234  26.647  31.661  1.00  0.00     0.029 A 
ATOM     58  C   UNL A   1      43.364  27.540  32.269  1.00  0.00     0.049 A 
ATOM     59  H   UNL A   1      41.617  28.430  31.485  1.00  0.00     0.167 HD
ATOM     60  C   UNL A   1      42.541  28.986  34.110  1.00  0.00     0.074 A 
ATOM     61  C   UNL A   1      42.627  29.548  35.443  1.00  0.00     0.031 C 
ATOM     62  C   UNL A   1      43.431  28.096  33.600  1.00  0.00     0.034 A 
BRANCH  49  63
ATOM     63  C   UNL A   1      42.147  26.314  27.795  1.00  0.00     0.023 A 
ATOM     64  C   UNL A   1      41.860  24.938  27.759  1.00  0.00     0.031 A 
ATOM     65  C   UNL A   1      42.821  26.874  26.694  1.00  0.00     0.131 A 
ATOM     66  C   UNL A   1      42.306  24.157  26.681  1.00  0.00     0.055 A 
ATOM     67  C   UNL A   1      43.193  26.106  25.589  1.00  0.00     0.041 A 
ATOM     68  F   UNL A   1      43.143  28.177  26.682  1.00  0.00    -0.206 F 
ATOM     69  C   UNL A   1      42.949  24.737  25.585  1.00  0.00     0.022 A 
BRANCH  66  70
ATOM     70  S   UNL A   1      42.160  22.353  26.798  1.00  0.00     0.124 S 
ATOM     71  O   UNL A   1      43.530  21.928  26.528  1.00  0.00    -0.237 OA
ATOM     72  O   UNL A   1      41.688  22.163  28.165  1.00  0.00    -0.237 OA
ATOM     73  O   UNL A   1      41.195  22.019  25.752  1.00  0.00    -0.744 OA
ENDBRANCH  66  70
ENDBRANCH  49  63
BRANCH  50  74
ATOM     74  C   UNL A   1      39.213  32.032  35.481  1.00  0.00     0.023 A 
ATOM     75  C   UNL A   1      38.539  31.434  36.557  1.00  0.00     0.031 A 
ATOM     76  C   UNL A   1      39.395  33.427  35.511  1.00  0.00     0.131 A 
ATOM     77  C   UNL A   1      38.033  32.232  37.596  1.00  0.00     0.055 A 
ATOM     78  C   UNL A   1      38.937  34.210  36.571  1.00  0.00     0.041 A 
ATOM     79  F   UNL A   1      40.032  34.050  34.507  1.00  0.00    -0.206 F 
ATOM     80  C   UNL A   1      38.239  33.614  37.616  1.00  0.00     0.022 A 
BRANCH  77  81
ATOM     81  S   UNL A   1      37.025  31.448  38.884  1.00  0.00     0.124 S 
ATOM     82  O   UNL A   1      35.828  32.282  38.874  1.00  0.00    -0.237 OA
ATOM     83  O   UNL A   1      36.868  30.094  38.362  1.00  0.00    -0.237 OA
ATOM     84  O   UNL A   1      37.855  31.560  40.082  1.00  0.00    -0.744 OA
ENDBRANCH  77  81
ENDBRANCH  50  74
BRANCH  62  85
ATOM     85  C   UNL A   1      44.599  27.711  34.476  1.00  0.00     0.023 A 
ATOM     86  C   UNL A   1      44.556  26.587  35.319  1.00  0.00     0.031 A 
ATOM     87  C   UNL A   1      45.770  28.490  34.473  1.00  0.00     0.131 A 
ATOM     88  C   UNL A   1      45.641  26.303  36.163  1.00  0.00     0.055 A 
ATOM     89  C   UNL A   1      46.870  28.169  35.271  1.00  0.00     0.041 A 
ATOM     90  F   UNL A   1      45.866  29.576  33.689  1.00  0.00    -0.206 F 
ATOM     91  C   UNL A   1      46.804  27.077  36.132  1.00  0.00     0.022 A 
BRANCH  88  92
ATOM     92  S   UNL A   1      45.481  24.958  37.370  1.00  0.00     0.124 S 
ATOM     93  O   UNL A   1      46.657  25.161  38.209  1.00  0.00    -0.237 OA
ATOM     94  O   UNL A   1      44.194  25.250  37.993  1.00  0.00    -0.237 OA
ATOM     95  O   UNL A   1      45.508  23.751  36.545  1.00  0.00    -0.744 OA
ENDBRANCH  88  92
ENDBRANCH  62  85
ENDBRANCH  36  37
ENDBRANCH  29  31
ENDBRANCH  28  29
ENDBRANCH  27  28
ENDBRANCH   1  27
TORSDOF 20
ENDMDL
