MODEL 1
REMARK VINA RESULT:     -11.2      0.000      0.000
REMARK SMILES C[C@H](NC(=O)N1CC[C@H](C(=O)OCCOCCOC(=O)c2ccc(-c3c4nc(c(-c5cc(S(=O)(=O)[O-])ccc5F)c5ccc([nH]5)c(-c5cc(S(=O)(=O)[O-])ccc5F)c5nc(c(-c6cc(S(=O)(=O)[O-])ccc6F)c6ccc3[nH]6)C=C5)C=C4)cc2)[C@H]1C)c1ccsc1
REMARK SMILES IDX 15 1 14 2 13 3 12 4 10 5 11 6 9 7 6 8 7 9 84 10 8 11 85 12
REMARK SMILES IDX 4 13 3 14 5 16 2 17 1 18 86 19 87 20 90 21 88 22 89 23 16 24
REMARK SMILES IDX 17 25 18 26 19 27 20 28 21 29 22 30 83 31 23 32 82 33 24 34
REMARK SMILES IDX 25 35 26 36 76 37 27 38 81 39 75 40 77 41 28 42 80 43 74 44
REMARK SMILES IDX 73 45 29 47 61 48 41 49 60 50 42 51 45 52 59 53 78 54 43 55
REMARK SMILES IDX 44 56 58 58 79 59 46 60 30 61 31 62 39 63 32 64 38 65 40 66
REMARK SMILES IDX 37 67 33 68 34 69 35 70 36 71 62 72 63 73 71 74 64 75 70 76
REMARK SMILES IDX 72 77 69 78 65 79 66 80 67 81 68 82 47 83 48 84 56 85 49 86
REMARK SMILES IDX 55 87 57 88 54 89 50 90 51 91 52 92 53 93
REMARK H PARENT 3 15 77 46 45 57
REMARK Flexibility Score: inf
ROOT
ATOM      1  O   UNL A   1      32.143  30.319  27.030  1.00  0.00    -0.374 OA
ENDROOT
BRANCH   1   2
ATOM      2  C   UNL A   1      31.833  28.969  26.675  1.00  0.00     0.202 C 
BRANCH   2   3
ATOM      3  C   UNL A   1      32.985  28.171  26.056  1.00  0.00     0.261 C 
BRANCH   3   4
ATOM      4  O   UNL A   1      32.512  27.420  24.924  1.00  0.00    -0.463 OA
BRANCH   4   5
ATOM      5  C   UNL A   1      32.202  26.114  25.146  1.00  0.00     0.311 C 
ATOM      6  O   UNL A   1      31.217  25.712  25.746  1.00  0.00    -0.252 OA
BRANCH   5   7
ATOM      7  C   UNL A   1      33.240  25.223  24.492  1.00  0.00     0.123 C 
ATOM      8  N   UNL A   1      33.120  22.866  24.979  1.00  0.00    -0.321 N 
ATOM      9  C   UNL A   1      33.796  23.541  26.077  1.00  0.00     0.122 C 
ATOM     10  C   UNL A   1      32.605  23.888  24.060  1.00  0.00     0.098 C 
ATOM     11  C   UNL A   1      34.337  24.820  25.472  1.00  0.00     0.039 C 
ATOM     12  C   UNL A   1      32.938  23.577  22.605  1.00  0.00     0.032 C 
BRANCH   8  13
ATOM     13  C   UNL A   1      32.290  21.838  25.335  1.00  0.00     0.318 C 
ATOM     14  N   UNL A   1      32.690  20.570  25.119  1.00  0.00    -0.331 N 
ATOM     15  H   UNL A   1      32.037  19.915  25.457  1.00  0.00     0.165 HD
ATOM     16  O   UNL A   1      31.207  22.020  25.889  1.00  0.00    -0.249 OA
BRANCH  14  17
ATOM     17  C   UNL A   1      33.844  19.926  24.511  1.00  0.00     0.112 C 
ATOM     18  C   UNL A   1      35.246  20.278  25.001  1.00  0.00     0.036 C 
BRANCH  17  19
ATOM     19  C   UNL A   1      33.631  18.432  24.640  1.00  0.00    -0.015 A 
ATOM     20  C   UNL A   1      34.413  17.439  23.959  1.00  0.00     0.017 A 
ATOM     21  C   UNL A   1      32.707  17.834  25.480  1.00  0.00     0.070 A 
ATOM     22  C   UNL A   1      34.091  16.157  24.345  1.00  0.00     0.065 A 
ATOM     23  S   UNL A   1      32.819  16.129  25.485  1.00  0.00    -0.152 S 
ENDBRANCH  17  19
ENDBRANCH  14  17
ENDBRANCH   8  13
ENDBRANCH   5   7
ENDBRANCH   4   5
ENDBRANCH   3   4
ENDBRANCH   2   3
ENDBRANCH   1   2
BRANCH   1  24
ATOM     24  C   UNL A   1      31.492  31.339  26.273  1.00  0.00     0.202 C 
BRANCH  24  25
ATOM     25  C   UNL A   1      31.507  32.746  26.874  1.00  0.00     0.261 C 
BRANCH  25  26
ATOM     26  O   UNL A   1      32.810  33.341  26.752  1.00  0.00    -0.460 OA
BRANCH  26  27
ATOM     27  C   UNL A   1      33.319  33.813  27.916  1.00  0.00     0.338 C 
ATOM     28  O   UNL A   1      32.784  34.586  28.689  1.00  0.00    -0.246 OA
BRANCH  27  29
ATOM     29  C   UNL A   1      34.563  33.089  28.239  1.00  0.00     0.060 A 
ATOM     30  C   UNL A   1      34.435  31.755  28.644  1.00  0.00     0.016 A 
ATOM     31  C   UNL A   1      35.817  33.706  28.200  1.00  0.00     0.016 A 
ATOM     32  C   UNL A   1      35.555  31.044  29.065  1.00  0.00     0.010 A 
ATOM     33  C   UNL A   1      36.938  32.995  28.637  1.00  0.00     0.010 A 
ATOM     34  C   UNL A   1      36.804  31.675  29.107  1.00  0.00    -0.014 A 
BRANCH  34  35
ATOM     35  C   UNL A   1      37.922  31.007  29.814  1.00  0.00     0.031 A 
ATOM     36  C   UNL A   1      38.193  31.388  31.244  1.00  0.00     0.074 A 
ATOM     37  C   UNL A   1      38.644  30.047  29.211  1.00  0.00     0.049 A 
ATOM     38  N   UNL A   1      39.125  30.961  32.055  1.00  0.00    -0.248 NA
ATOM     39  C   UNL A   1      37.290  32.387  31.835  1.00  0.00     0.031 C 
ATOM     40  C   UNL A   1      38.430  29.562  27.849  1.00  0.00     0.029 A 
ATOM     41  N   UNL A   1      39.707  29.311  29.668  1.00  0.00    -0.354 N 
ATOM     42  C   UNL A   1      38.922  31.639  33.253  1.00  0.00     0.074 A 
ATOM     43  C   UNL A   1      37.803  32.532  33.047  1.00  0.00     0.031 C 
ATOM     44  C   UNL A   1      39.343  28.612  27.577  1.00  0.00     0.029 A 
ATOM     45  C   UNL A   1      40.227  28.451  28.729  1.00  0.00     0.049 A 
ATOM     46  H   UNL A   1      40.064  29.389  30.583  1.00  0.00     0.167 HD
ATOM     47  C   UNL A   1      39.603  31.519  34.419  1.00  0.00     0.034 A 
ATOM     48  C   UNL A   1      41.308  27.648  28.788  1.00  0.00     0.034 A 
ATOM     49  C   UNL A   1      40.726  30.632  34.600  1.00  0.00     0.049 A 
ATOM     50  C   UNL A   1      42.109  27.600  30.068  1.00  0.00     0.074 A 
ATOM     51  C   UNL A   1      41.488  30.423  35.735  1.00  0.00     0.029 A 
ATOM     52  N   UNL A   1      41.259  29.814  33.609  1.00  0.00    -0.354 N 
ATOM     53  N   UNL A   1      41.908  28.244  31.195  1.00  0.00    -0.248 NA
ATOM     54  C   UNL A   1      43.279  26.711  30.084  1.00  0.00     0.031 C 
ATOM     55  C   UNL A   1      42.521  29.537  35.414  1.00  0.00     0.029 A 
ATOM     56  C   UNL A   1      42.359  29.128  34.098  1.00  0.00     0.049 A 
ATOM     57  H   UNL A   1      40.905  29.734  32.695  1.00  0.00     0.167 HD
ATOM     58  C   UNL A   1      42.909  27.814  32.063  1.00  0.00     0.074 A 
ATOM     59  C   UNL A   1      43.702  26.847  31.332  1.00  0.00     0.031 C 
ATOM     60  C   UNL A   1      43.147  28.177  33.350  1.00  0.00     0.034 A 
BRANCH  47  61
ATOM     61  C   UNL A   1      39.184  32.414  35.561  1.00  0.00     0.023 A 
ATOM     62  C   UNL A   1      39.632  33.742  35.667  1.00  0.00     0.031 A 
ATOM     63  C   UNL A   1      38.351  31.917  36.579  1.00  0.00     0.131 A 
ATOM     64  C   UNL A   1      39.304  34.503  36.801  1.00  0.00     0.055 A 
ATOM     65  C   UNL A   1      37.964  32.705  37.664  1.00  0.00     0.041 A 
ATOM     66  F   UNL A   1      37.912  30.649  36.545  1.00  0.00    -0.206 F 
ATOM     67  C   UNL A   1      38.453  34.002  37.788  1.00  0.00     0.022 A 
BRANCH  64  68
ATOM     68  S   UNL A   1      40.123  36.104  37.038  1.00  0.00     0.124 S 
ATOM     69  O   UNL A   1      39.895  36.746  35.746  1.00  0.00    -0.237 OA
ATOM     70  O   UNL A   1      39.393  36.667  38.168  1.00  0.00    -0.237 OA
ATOM     71  O   UNL A   1      41.512  35.743  37.310  1.00  0.00    -0.744 OA
ENDBRANCH  64  68
ENDBRANCH  47  61
BRANCH  48  72
ATOM     72  C   UNL A   1      41.730  26.860  27.595  1.00  0.00     0.023 A 
ATOM     73  C   UNL A   1      41.474  25.483  27.501  1.00  0.00     0.031 A 
ATOM     74  C   UNL A   1      42.446  27.469  26.549  1.00  0.00     0.131 A 
ATOM     75  C   UNL A   1      41.969  24.753  26.409  1.00  0.00     0.055 A 
ATOM     76  C   UNL A   1      42.891  26.748  25.439  1.00  0.00     0.041 A 
ATOM     77  F   UNL A   1      42.721  28.783  26.588  1.00  0.00    -0.206 F 
ATOM     78  C   UNL A   1      42.663  25.378  25.371  1.00  0.00     0.022 A 
BRANCH  75  79
ATOM     79  S   UNL A   1      41.763  22.950  26.404  1.00  0.00     0.124 S 
ATOM     80  O   UNL A   1      42.354  22.580  27.685  1.00  0.00    -0.237 OA
ATOM     81  O   UNL A   1      40.314  22.812  26.302  1.00  0.00    -0.237 OA
ATOM     82  O   UNL A   1      42.513  22.526  25.224  1.00  0.00    -0.744 OA
ENDBRANCH  75  79
ENDBRANCH  48  72
BRANCH  60  83
ATOM     83  C   UNL A   1      44.290  27.488  34.057  1.00  0.00     0.023 A 
ATOM     84  C   UNL A   1      44.124  26.247  34.696  1.00  0.00     0.031 A 
ATOM     85  C   UNL A   1      45.560  28.089  34.094  1.00  0.00     0.131 A 
ATOM     86  C   UNL A   1      45.199  25.671  35.391  1.00  0.00     0.055 A 
ATOM     87  C   UNL A   1      46.642  27.483  34.735  1.00  0.00     0.041 A 
ATOM     88  F   UNL A   1      45.774  29.275  33.501  1.00  0.00    -0.206 F 
ATOM     89  C   UNL A   1      46.461  26.272  35.399  1.00  0.00     0.022 A 
BRANCH  86  90
ATOM     90  S   UNL A   1      44.906  24.167  36.359  1.00  0.00     0.124 S 
ATOM     91  O   UNL A   1      46.214  23.518  36.315  1.00  0.00    -0.237 OA
ATOM     92  O   UNL A   1      44.505  24.702  37.656  1.00  0.00    -0.237 OA
ATOM     93  O   UNL A   1      43.850  23.481  35.618  1.00  0.00    -0.744 OA
ENDBRANCH  86  90
ENDBRANCH  60  83
ENDBRANCH  34  35
ENDBRANCH  27  29
ENDBRANCH  26  27
ENDBRANCH  25  26
ENDBRANCH  24  25
ENDBRANCH   1  24
TORSDOF 20
ENDMDL
MODEL 2
REMARK VINA RESULT:     -10.8      1.975      2.465
REMARK SMILES C[C@H](NC(=O)N1CC[C@H](C(=O)OCCOCCOC(=O)c2ccc(-c3c4nc(c(-c5cc(S(=O)(=O)[O-])ccc5F)c5ccc([nH]5)c(-c5cc(S(=O)(=O)[O-])ccc5F)c5nc(c(-c6cc(S(=O)(=O)[O-])ccc6F)c6ccc3[nH]6)C=C5)C=C4)cc2)[C@H]1C)c1ccsc1
REMARK SMILES IDX 15 1 14 2 13 3 12 4 10 5 11 6 9 7 6 8 7 9 84 10 8 11 85 12
REMARK SMILES IDX 4 13 3 14 5 16 2 17 1 18 86 19 87 20 90 21 88 22 89 23 16 24
REMARK SMILES IDX 17 25 18 26 19 27 20 28 21 29 22 30 83 31 23 32 82 33 24 34
REMARK SMILES IDX 25 35 26 36 76 37 27 38 81 39 75 40 77 41 28 42 80 43 74 44
REMARK SMILES IDX 73 45 29 47 61 48 41 49 60 50 42 51 45 52 59 53 78 54 43 55
REMARK SMILES IDX 44 56 58 58 79 59 46 60 30 61 31 62 39 63 32 64 38 65 40 66
REMARK SMILES IDX 37 67 33 68 34 69 35 70 36 71 62 72 63 73 71 74 64 75 70 76
REMARK SMILES IDX 72 77 69 78 65 79 66 80 67 81 68 82 47 83 48 84 56 85 49 86
REMARK SMILES IDX 55 87 57 88 54 89 50 90 51 91 52 92 53 93
REMARK H PARENT 3 15 77 46 45 57
REMARK Flexibility Score: inf
ROOT
ATOM      1  O   UNL A   1      31.685  30.604  27.077  1.00  0.00    -0.374 OA
ENDROOT
BRANCH   1   2
ATOM      2  C   UNL A   1      31.959  29.455  26.272  1.00  0.00     0.202 C 
BRANCH   2   3
ATOM      3  C   UNL A   1      31.985  29.703  24.760  1.00  0.00     0.261 C 
BRANCH   3   4
ATOM      4  O   UNL A   1      30.805  29.149  24.149  1.00  0.00    -0.463 OA
BRANCH   4   5
ATOM      5  C   UNL A   1      30.960  27.974  23.482  1.00  0.00     0.311 C 
ATOM      6  O   UNL A   1      30.956  27.842  22.268  1.00  0.00    -0.252 OA
BRANCH   5   7
ATOM      7  C   UNL A   1      31.193  26.850  24.473  1.00  0.00     0.123 C 
ATOM      8  N   UNL A   1      32.081  24.788  23.598  1.00  0.00    -0.321 N 
ATOM      9  C   UNL A   1      30.647  24.825  23.353  1.00  0.00     0.122 C 
ATOM     10  C   UNL A   1      32.490  26.093  24.130  1.00  0.00     0.098 C 
ATOM     11  C   UNL A   1      30.102  25.788  24.389  1.00  0.00     0.039 C 
ATOM     12  C   UNL A   1      33.380  25.961  25.362  1.00  0.00     0.032 C 
BRANCH   8  13
ATOM     13  C   UNL A   1      32.838  24.227  22.605  1.00  0.00     0.318 C 
ATOM     14  N   UNL A   1      33.370  23.005  22.800  1.00  0.00    -0.331 N 
ATOM     15  H   UNL A   1      33.852  22.682  22.004  1.00  0.00     0.165 HD
ATOM     16  O   UNL A   1      33.017  24.774  21.518  1.00  0.00    -0.249 OA
BRANCH  14  17
ATOM     17  C   UNL A   1      33.412  22.043  23.890  1.00  0.00     0.112 C 
ATOM     18  C   UNL A   1      32.699  20.703  23.737  1.00  0.00     0.036 C 
BRANCH  17  19
ATOM     19  C   UNL A   1      34.873  21.797  24.202  1.00  0.00    -0.015 A 
ATOM     20  C   UNL A   1      35.939  22.699  23.866  1.00  0.00     0.017 A 
ATOM     21  C   UNL A   1      35.360  20.710  24.910  1.00  0.00     0.070 A 
ATOM     22  C   UNL A   1      37.154  22.292  24.370  1.00  0.00     0.065 A 
ATOM     23  S   UNL A   1      37.040  20.806  25.203  1.00  0.00    -0.152 S 
ENDBRANCH  17  19
ENDBRANCH  14  17
ENDBRANCH   8  13
ENDBRANCH   5   7
ENDBRANCH   4   5
ENDBRANCH   3   4
ENDBRANCH   2   3
ENDBRANCH   1   2
BRANCH   1  24
ATOM     24  C   UNL A   1      31.269  31.780  26.383  1.00  0.00     0.202 C 
BRANCH  24  25
ATOM     25  C   UNL A   1      31.780  33.113  26.935  1.00  0.00     0.261 C 
BRANCH  25  26
ATOM     26  O   UNL A   1      33.217  33.140  26.957  1.00  0.00    -0.460 OA
BRANCH  26  27
ATOM     27  C   UNL A   1      33.748  33.578  28.125  1.00  0.00     0.338 C 
ATOM     28  O   UNL A   1      33.231  34.334  28.926  1.00  0.00    -0.246 OA
BRANCH  27  29
ATOM     29  C   UNL A   1      34.993  32.839  28.408  1.00  0.00     0.060 A 
ATOM     30  C   UNL A   1      34.861  31.504  28.812  1.00  0.00     0.016 A 
ATOM     31  C   UNL A   1      36.251  33.440  28.334  1.00  0.00     0.016 A 
ATOM     32  C   UNL A   1      35.984  30.779  29.197  1.00  0.00     0.010 A 
ATOM     33  C   UNL A   1      37.377  32.714  28.734  1.00  0.00     0.010 A 
ATOM     34  C   UNL A   1      37.241  31.394  29.204  1.00  0.00    -0.014 A 
BRANCH  34  35
ATOM     35  C   UNL A   1      38.372  30.711  29.875  1.00  0.00     0.031 A 
ATOM     36  C   UNL A   1      38.688  31.081  31.298  1.00  0.00     0.074 A 
ATOM     37  C   UNL A   1      39.066  29.746  29.246  1.00  0.00     0.049 A 
ATOM     38  N   UNL A   1      39.639  30.640  32.080  1.00  0.00    -0.248 NA
ATOM     39  C   UNL A   1      37.814  32.087  31.920  1.00  0.00     0.031 C 
ATOM     40  C   UNL A   1      38.806  29.270  27.889  1.00  0.00     0.029 A 
ATOM     41  N   UNL A   1      40.133  28.996  29.669  1.00  0.00    -0.354 N 
ATOM     42  C   UNL A   1      39.478  31.314  33.286  1.00  0.00     0.074 A 
ATOM     43  C   UNL A   1      38.363  32.221  33.117  1.00  0.00     0.031 C 
ATOM     44  C   UNL A   1      39.700  28.312  27.586  1.00  0.00     0.029 A 
ATOM     45  C   UNL A   1      40.615  28.135  28.711  1.00  0.00     0.049 A 
ATOM     46  H   UNL A   1      40.517  29.065  30.573  1.00  0.00     0.167 HD
ATOM     47  C   UNL A   1      40.192  31.181  34.431  1.00  0.00     0.034 A 
ATOM     48  C   UNL A   1      41.688  27.320  28.735  1.00  0.00     0.034 A 
ATOM     49  C   UNL A   1      41.310  30.281  34.575  1.00  0.00     0.049 A 
ATOM     50  C   UNL A   1      42.527  27.257  29.990  1.00  0.00     0.074 A 
ATOM     51  C   UNL A   1      42.101  30.058  35.687  1.00  0.00     0.029 A 
ATOM     52  N   UNL A   1      41.804  29.462  33.566  1.00  0.00    -0.354 N 
ATOM     53  N   UNL A   1      42.365  27.898  31.126  1.00  0.00    -0.248 NA
ATOM     54  C   UNL A   1      43.686  26.355  29.969  1.00  0.00     0.031 C 
ATOM     55  C   UNL A   1      43.115  29.162  35.332  1.00  0.00     0.029 A 
ATOM     56  C   UNL A   1      42.910  28.761  34.019  1.00  0.00     0.049 A 
ATOM     57  H   UNL A   1      41.422  29.390  32.662  1.00  0.00     0.167 HD
ATOM     58  C   UNL A   1      43.386  27.451  31.962  1.00  0.00     0.074 A 
ATOM     59  C   UNL A   1      44.147  26.480  31.204  1.00  0.00     0.031 C 
ATOM     60  C   UNL A   1      43.665  27.806  33.244  1.00  0.00     0.034 A 
BRANCH  47  61
ATOM     61  C   UNL A   1      39.815  32.075  35.589  1.00  0.00     0.023 A 
ATOM     62  C   UNL A   1      38.924  31.655  36.592  1.00  0.00     0.031 A 
ATOM     63  C   UNL A   1      40.327  33.382  35.668  1.00  0.00     0.131 A 
ATOM     64  C   UNL A   1      38.519  32.555  37.590  1.00  0.00     0.055 A 
ATOM     65  C   UNL A   1      39.980  34.247  36.707  1.00  0.00     0.041 A 
ATOM     66  F   UNL A   1      41.161  33.848  34.725  1.00  0.00    -0.206 F 
ATOM     67  C   UNL A   1      39.060  33.841  37.668  1.00  0.00     0.022 A 
BRANCH  64  68
ATOM     68  S   UNL A   1      37.167  32.072  38.698  1.00  0.00     0.124 S 
ATOM     69  O   UNL A   1      36.063  32.882  38.188  1.00  0.00    -0.237 OA
ATOM     70  O   UNL A   1      37.067  30.636  38.467  1.00  0.00    -0.237 OA
ATOM     71  O   UNL A   1      37.653  32.459  40.022  1.00  0.00    -0.744 OA
ENDBRANCH  64  68
ENDBRANCH  47  61
BRANCH  48  72
ATOM     72  C   UNL A   1      42.067  26.533  27.526  1.00  0.00     0.023 A 
ATOM     73  C   UNL A   1      41.757  25.169  27.416  1.00  0.00     0.031 A 
ATOM     74  C   UNL A   1      42.796  27.129  26.481  1.00  0.00     0.131 A 
ATOM     75  C   UNL A   1      42.211  24.436  26.309  1.00  0.00     0.055 A 
ATOM     76  C   UNL A   1      43.201  26.408  25.357  1.00  0.00     0.041 A 
ATOM     77  F   UNL A   1      43.122  28.431  26.535  1.00  0.00    -0.206 F 
ATOM     78  C   UNL A   1      42.919  25.049  25.272  1.00  0.00     0.022 A 
BRANCH  75  79
ATOM     79  S   UNL A   1      41.935  22.643  26.280  1.00  0.00     0.124 S 
ATOM     80  O   UNL A   1      40.478  22.568  26.261  1.00  0.00    -0.237 OA
ATOM     81  O   UNL A   1      42.614  22.253  25.049  1.00  0.00    -0.237 OA
ATOM     82  O   UNL A   1      42.569  22.181  27.513  1.00  0.00    -0.744 OA
ENDBRANCH  75  79
ENDBRANCH  48  72
BRANCH  60  83
ATOM     83  C   UNL A   1      44.820  27.101  33.914  1.00  0.00     0.023 A 
ATOM     84  C   UNL A   1      44.666  25.845  34.526  1.00  0.00     0.031 A 
ATOM     85  C   UNL A   1      46.091  27.701  33.943  1.00  0.00     0.131 A 
ATOM     86  C   UNL A   1      45.753  25.253  35.188  1.00  0.00     0.055 A 
ATOM     87  C   UNL A   1      47.184  27.080  34.550  1.00  0.00     0.041 A 
ATOM     88  F   UNL A   1      46.294  28.901  33.375  1.00  0.00    -0.206 F 
ATOM     89  C   UNL A   1      47.015  25.854  35.189  1.00  0.00     0.022 A 
BRANCH  86  90
ATOM     90  S   UNL A   1      45.477  23.725  36.125  1.00  0.00     0.124 S 
ATOM     91  O   UNL A   1      46.782  23.076  36.037  1.00  0.00    -0.237 OA
ATOM     92  O   UNL A   1      45.105  24.230  37.443  1.00  0.00    -0.237 OA
ATOM     93  O   UNL A   1      44.404  23.060  35.390  1.00  0.00    -0.744 OA
ENDBRANCH  86  90
ENDBRANCH  60  83
ENDBRANCH  34  35
ENDBRANCH  27  29
ENDBRANCH  26  27
ENDBRANCH  25  26
ENDBRANCH  24  25
ENDBRANCH   1  24
TORSDOF 20
ENDMDL
MODEL 3
REMARK VINA RESULT:     -10.8      4.855     10.624
REMARK SMILES C[C@H](NC(=O)N1CC[C@H](C(=O)OCCOCCOC(=O)c2ccc(-c3c4nc(c(-c5cc(S(=O)(=O)[O-])ccc5F)c5ccc([nH]5)c(-c5cc(S(=O)(=O)[O-])ccc5F)c5nc(c(-c6cc(S(=O)(=O)[O-])ccc6F)c6ccc3[nH]6)C=C5)C=C4)cc2)[C@H]1C)c1ccsc1
REMARK SMILES IDX 15 1 14 2 13 3 12 4 10 5 11 6 9 7 6 8 7 9 84 10 8 11 85 12
REMARK SMILES IDX 4 13 3 14 5 16 2 17 1 18 86 19 87 20 90 21 88 22 89 23 16 24
REMARK SMILES IDX 17 25 18 26 19 27 20 28 21 29 22 30 83 31 23 32 82 33 24 34
REMARK SMILES IDX 25 35 26 36 76 37 27 38 81 39 75 40 77 41 28 42 80 43 74 44
REMARK SMILES IDX 73 45 29 47 61 48 41 49 60 50 42 51 45 52 59 53 78 54 43 55
REMARK SMILES IDX 44 56 58 58 79 59 46 60 30 61 31 62 39 63 32 64 38 65 40 66
REMARK SMILES IDX 37 67 33 68 34 69 35 70 36 71 62 72 63 73 71 74 64 75 70 76
REMARK SMILES IDX 72 77 69 78 65 79 66 80 67 81 68 82 47 83 48 84 56 85 49 86
REMARK SMILES IDX 55 87 57 88 54 89 50 90 51 91 52 92 53 93
REMARK H PARENT 3 15 77 46 45 57
REMARK Flexibility Score: inf
ROOT
ATOM      1  O   UNL A   1      37.599  21.263  25.286  1.00  0.00    -0.374 OA
ENDROOT
BRANCH   1   2
ATOM      2  C   UNL A   1      36.342  21.818  24.888  1.00  0.00     0.202 C 
BRANCH   2   3
ATOM      3  C   UNL A   1      35.146  20.864  24.978  1.00  0.00     0.261 C 
BRANCH   3   4
ATOM      4  O   UNL A   1      33.998  21.560  25.496  1.00  0.00    -0.463 OA
BRANCH   4   5
ATOM      5  C   UNL A   1      32.794  20.947  25.342  1.00  0.00     0.311 C 
ATOM      6  O   UNL A   1      32.572  19.762  25.536  1.00  0.00    -0.252 OA
BRANCH   5   7
ATOM      7  C   UNL A   1      31.748  21.969  24.940  1.00  0.00     0.123 C 
ATOM      8  N   UNL A   1      32.177  24.264  25.536  1.00  0.00    -0.321 N 
ATOM      9  C   UNL A   1      31.641  23.567  26.696  1.00  0.00     0.122 C 
ATOM     10  C   UNL A   1      32.424  23.275  24.480  1.00  0.00     0.098 C 
ATOM     11  C   UNL A   1      30.883  22.387  26.124  1.00  0.00     0.039 C 
ATOM     12  C   UNL A   1      31.873  23.722  23.130  1.00  0.00     0.032 C 
BRANCH   8  13
ATOM     13  C   UNL A   1      33.151  25.189  25.797  1.00  0.00     0.318 C 
ATOM     14  N   UNL A   1      32.792  26.408  26.242  1.00  0.00    -0.331 N 
ATOM     15  H   UNL A   1      33.574  26.973  26.442  1.00  0.00     0.165 HD
ATOM     16  O   UNL A   1      34.350  24.940  25.687  1.00  0.00    -0.249 OA
BRANCH  14  17
ATOM     17  C   UNL A   1      31.539  27.102  26.499  1.00  0.00     0.112 C 
ATOM     18  C   UNL A   1      31.495  28.204  27.554  1.00  0.00     0.036 C 
BRANCH  17  19
ATOM     19  C   UNL A   1      31.066  27.661  25.174  1.00  0.00    -0.015 A 
ATOM     20  C   UNL A   1      31.413  28.960  24.670  1.00  0.00     0.017 A 
ATOM     21  C   UNL A   1      30.299  26.968  24.251  1.00  0.00     0.070 A 
ATOM     22  C   UNL A   1      30.949  29.171  23.391  1.00  0.00     0.065 A 
ATOM     23  S   UNL A   1      30.054  27.841  22.803  1.00  0.00    -0.152 S 
ENDBRANCH  17  19
ENDBRANCH  14  17
ENDBRANCH   8  13
ENDBRANCH   5   7
ENDBRANCH   4   5
ENDBRANCH   3   4
ENDBRANCH   2   3
ENDBRANCH   1   2
BRANCH   1  24
ATOM     24  C   UNL A   1      37.821  19.892  24.956  1.00  0.00     0.202 C 
BRANCH  24  25
ATOM     25  C   UNL A   1      39.166  19.299  25.380  1.00  0.00     0.261 C 
BRANCH  25  26
ATOM     26  O   UNL A   1      39.639  19.917  26.589  1.00  0.00    -0.460 OA
BRANCH  26  27
ATOM     27  C   UNL A   1      40.940  20.296  26.549  1.00  0.00     0.338 C 
ATOM     28  O   UNL A   1      41.863  19.691  26.036  1.00  0.00    -0.246 OA
BRANCH  27  29
ATOM     29  C   UNL A   1      41.065  21.679  27.047  1.00  0.00     0.060 A 
ATOM     30  C   UNL A   1      40.515  22.692  26.252  1.00  0.00     0.016 A 
ATOM     31  C   UNL A   1      41.745  21.989  28.228  1.00  0.00     0.016 A 
ATOM     32  C   UNL A   1      40.688  24.027  26.606  1.00  0.00     0.010 A 
ATOM     33  C   UNL A   1      41.930  23.330  28.574  1.00  0.00     0.010 A 
ATOM     34  C   UNL A   1      41.436  24.353  27.744  1.00  0.00    -0.014 A 
BRANCH  34  35
ATOM     35  C   UNL A   1      41.848  25.761  27.952  1.00  0.00     0.031 A 
ATOM     36  C   UNL A   1      43.189  26.198  27.431  1.00  0.00     0.074 A 
ATOM     37  C   UNL A   1      41.023  26.641  28.546  1.00  0.00     0.049 A 
ATOM     38  N   UNL A   1      43.774  27.365  27.515  1.00  0.00    -0.248 NA
ATOM     39  C   UNL A   1      43.977  25.178  26.722  1.00  0.00     0.031 C 
ATOM     40  C   UNL A   1      39.680  26.337  29.037  1.00  0.00     0.029 A 
ATOM     41  N   UNL A   1      41.197  27.969  28.839  1.00  0.00    -0.354 N 
ATOM     42  C   UNL A   1      44.998  27.221  26.869  1.00  0.00     0.074 A 
ATOM     43  C   UNL A   1      45.086  25.843  26.436  1.00  0.00     0.031 C 
ATOM     44  C   UNL A   1      39.154  27.449  29.581  1.00  0.00     0.029 A 
ATOM     45  C   UNL A   1      40.136  28.530  29.511  1.00  0.00     0.049 A 
ATOM     46  H   UNL A   1      42.005  28.475  28.591  1.00  0.00     0.167 HD
ATOM     47  C   UNL A   1      45.956  28.155  26.654  1.00  0.00     0.034 A 
ATOM     48  C   UNL A   1      39.990  29.764  30.031  1.00  0.00     0.034 A 
ATOM     49  C   UNL A   1      45.855  29.521  27.107  1.00  0.00     0.049 A 
ATOM     50  C   UNL A   1      41.110  30.763  29.861  1.00  0.00     0.074 A 
ATOM     51  C   UNL A   1      46.759  30.555  26.940  1.00  0.00     0.029 A 
ATOM     52  N   UNL A   1      44.788  30.040  27.832  1.00  0.00    -0.354 N 
ATOM     53  N   UNL A   1      42.263  30.617  29.248  1.00  0.00    -0.248 NA
ATOM     54  C   UNL A   1      40.905  32.096  30.445  1.00  0.00     0.031 C 
ATOM     55  C   UNL A   1      46.274  31.675  27.624  1.00  0.00     0.029 A 
ATOM     56  C   UNL A   1      45.028  31.367  28.150  1.00  0.00     0.049 A 
ATOM     57  H   UNL A   1      43.980  29.537  28.081  1.00  0.00     0.167 HD
ATOM     58  C   UNL A   1      42.905  31.849  29.348  1.00  0.00     0.074 A 
ATOM     59  C   UNL A   1      42.006  32.727  30.068  1.00  0.00     0.031 C 
ATOM     60  C   UNL A   1      44.125  32.224  28.881  1.00  0.00     0.034 A 
BRANCH  47  61
ATOM     61  C   UNL A   1      47.214  27.707  25.947  1.00  0.00     0.023 A 
ATOM     62  C   UNL A   1      47.413  27.929  24.574  1.00  0.00     0.031 A 
ATOM     63  C   UNL A   1      48.211  27.013  26.655  1.00  0.00     0.131 A 
ATOM     64  C   UNL A   1      48.548  27.400  23.937  1.00  0.00     0.055 A 
ATOM     65  C   UNL A   1      49.375  26.558  26.031  1.00  0.00     0.041 A 
ATOM     66  F   UNL A   1      48.064  26.749  27.962  1.00  0.00    -0.206 F 
ATOM     67  C   UNL A   1      49.541  26.738  24.661  1.00  0.00     0.022 A 
BRANCH  64  68
ATOM     68  S   UNL A   1      48.636  27.464  22.126  1.00  0.00     0.124 S 
ATOM     69  O   UNL A   1      48.653  26.045  21.782  1.00  0.00    -0.237 OA
ATOM     70  O   UNL A   1      47.422  28.193  21.777  1.00  0.00    -0.237 OA
ATOM     71  O   UNL A   1      49.886  28.176  21.869  1.00  0.00    -0.744 OA
ENDBRANCH  64  68
ENDBRANCH  47  61
BRANCH  48  72
ATOM     72  C   UNL A   1      38.764  30.119  30.803  1.00  0.00     0.023 A 
ATOM     73  C   UNL A   1      37.725  30.863  30.222  1.00  0.00     0.031 A 
ATOM     74  C   UNL A   1      38.639  29.760  32.157  1.00  0.00     0.131 A 
ATOM     75  C   UNL A   1      36.629  31.261  31.003  1.00  0.00     0.055 A 
ATOM     76  C   UNL A   1      37.522  30.114  32.916  1.00  0.00     0.041 A 
ATOM     77  F   UNL A   1      39.604  29.051  32.764  1.00  0.00    -0.206 F 
ATOM     78  C   UNL A   1      36.514  30.880  32.342  1.00  0.00     0.022 A 
BRANCH  75  79
ATOM     79  S   UNL A   1      35.388  32.359  30.264  1.00  0.00     0.124 S 
ATOM     80  O   UNL A   1      36.184  33.542  29.958  1.00  0.00    -0.237 OA
ATOM     81  O   UNL A   1      34.935  31.576  29.119  1.00  0.00    -0.237 OA
ATOM     82  O   UNL A   1      34.404  32.527  31.331  1.00  0.00    -0.744 OA
ENDBRANCH  75  79
ENDBRANCH  48  72
BRANCH  60  83
ATOM     83  C   UNL A   1      44.531  33.662  29.101  1.00  0.00     0.023 A 
ATOM     84  C   UNL A   1      45.265  34.059  30.231  1.00  0.00     0.031 A 
ATOM     85  C   UNL A   1      44.172  34.646  28.164  1.00  0.00     0.131 A 
ATOM     86  C   UNL A   1      45.570  35.416  30.424  1.00  0.00     0.055 A 
ATOM     87  C   UNL A   1      44.530  35.985  28.330  1.00  0.00     0.041 A 
ATOM     88  F   UNL A   1      43.470  34.322  27.066  1.00  0.00    -0.206 F 
ATOM     89  C   UNL A   1      45.223  36.378  29.472  1.00  0.00     0.022 A 
BRANCH  86  90
ATOM     90  S   UNL A   1      46.352  35.921  31.980  1.00  0.00     0.124 S 
ATOM     91  O   UNL A   1      45.799  37.259  32.176  1.00  0.00    -0.237 OA
ATOM     92  O   UNL A   1      45.889  34.898  32.911  1.00  0.00    -0.237 OA
ATOM     93  O   UNL A   1      47.781  35.881  31.676  1.00  0.00    -0.744 OA
ENDBRANCH  86  90
ENDBRANCH  60  83
ENDBRANCH  34  35
ENDBRANCH  27  29
ENDBRANCH  26  27
ENDBRANCH  25  26
ENDBRANCH  24  25
ENDBRANCH   1  24
TORSDOF 20
ENDMDL
