MODEL 1
REMARK VINA RESULT:     -10.2      0.000      0.000
REMARK SMILES C[C@@H](C(=O)OCCOCCOC(=O)c1ccc(-c2c3nc(c(-c4cc(S(=O)(=O)[O-])ccc4F)c4ccc([nH]4)c(-c4cc(S(=O)(=O)[O-])ccc4F)c4nc(c(-c5cc(S(=O)(=O)[O-])ccc5F)c5ccc2[nH]5)C=C4)C=C3)cc1)c1ccc2c(c1)[nH]c1ccc(Cl)cc12
REMARK SMILES IDX 9 1 8 2 7 3 6 4 5 5 3 6 4 7 2 8 1 9 77 10 78 11 82 12 79 13
REMARK SMILES IDX 81 14 80 15 83 16 90 17 84 18 89 20 85 21 87 22 86 23 88 24
REMARK SMILES IDX 10 25 11 26 12 27 13 28 14 29 15 30 76 31 16 32 75 33 17 34
REMARK SMILES IDX 18 35 19 36 69 37 20 38 74 39 68 40 70 41 21 42 73 43 67 44
REMARK SMILES IDX 66 45 22 47 54 48 34 49 53 50 35 51 38 52 52 53 71 54 36 55
REMARK SMILES IDX 37 56 51 58 72 59 39 60 23 61 24 62 32 63 25 64 31 65 33 66
REMARK SMILES IDX 30 67 26 68 27 69 28 70 29 71 55 72 56 73 64 74 57 75 63 76
REMARK SMILES IDX 65 77 62 78 58 79 59 80 60 81 61 82 40 83 41 84 49 85 42 86
REMARK SMILES IDX 48 87 50 88 47 89 43 90 44 91 45 92 46 93
REMARK H PARENT 83 19 70 46 38 57
REMARK Flexibility Score: inf
ROOT
ATOM      1  C   UNL A   1      32.925  34.893  28.429  1.00  0.00     0.202 C 
ENDROOT
BRANCH   1   2
ATOM      2  O   UNL A   1      32.559  34.898  29.805  1.00  0.00    -0.374 OA
BRANCH   2   3
ATOM      3  C   UNL A   1      32.796  36.098  30.546  1.00  0.00     0.202 C 
BRANCH   3   4
ATOM      4  C   UNL A   1      32.812  35.967  32.070  1.00  0.00     0.261 C 
BRANCH   4   5
ATOM      5  O   UNL A   1      33.547  34.796  32.476  1.00  0.00    -0.463 OA
BRANCH   5   6
ATOM      6  C   UNL A   1      34.898  34.940  32.542  1.00  0.00     0.313 C 
ATOM      7  O   UNL A   1      35.463  35.863  33.119  1.00  0.00    -0.252 OA
BRANCH   6   8
ATOM      8  C   UNL A   1      35.636  33.837  31.768  1.00  0.00     0.126 C 
ATOM      9  C   UNL A   1      35.085  32.418  31.932  1.00  0.00     0.025 C 
BRANCH   8  10
ATOM     10  C   UNL A   1      37.134  33.904  32.072  1.00  0.00    -0.032 A 
ATOM     11  C   UNL A   1      37.626  34.041  33.381  1.00  0.00     0.005 A 
ATOM     12  C   UNL A   1      38.022  33.971  30.990  1.00  0.00     0.031 A 
ATOM     13  C   UNL A   1      38.991  34.262  33.627  1.00  0.00     0.011 A 
ATOM     14  C   UNL A   1      39.367  34.241  31.254  1.00  0.00     0.047 A 
ATOM     15  C   UNL A   1      39.878  34.390  32.540  1.00  0.00     0.007 A 
ATOM     16  N   UNL A   1      40.398  34.457  30.376  1.00  0.00    -0.355 N 
ATOM     17  C   UNL A   1      41.273  34.700  32.409  1.00  0.00     0.009 A 
ATOM     18  C   UNL A   1      41.551  34.787  31.043  1.00  0.00     0.047 A 
ATOM     19  H   UNL A   1      40.322  34.387  29.396  1.00  0.00     0.167 HD
ATOM     20  C   UNL A   1      42.315  34.958  33.323  1.00  0.00     0.031 A 
ATOM     21  C   UNL A   1      42.800  35.163  30.539  1.00  0.00     0.028 A 
ATOM     22  C   UNL A   1      43.575  35.318  32.830  1.00  0.00     0.041 A 
ATOM     23  C   UNL A   1      43.811  35.434  31.462  1.00  0.00     0.022 A 
ATOM     24  Cl  UNL A   1      44.859  35.635  33.935  1.00  0.00    -0.084 Cl
ENDBRANCH   8  10
ENDBRANCH   6   8
ENDBRANCH   5   6
ENDBRANCH   4   5
ENDBRANCH   3   4
ENDBRANCH   2   3
ENDBRANCH   1   2
BRANCH   1  25
ATOM     25  C   UNL A   1      34.110  34.008  28.017  1.00  0.00     0.261 C 
BRANCH  25  26
ATOM     26  O   UNL A   1      34.167  32.769  28.740  1.00  0.00    -0.460 OA
BRANCH  26  27
ATOM     27  C   UNL A   1      34.287  31.673  27.949  1.00  0.00     0.338 C 
ATOM     28  O   UNL A   1      33.528  31.333  27.051  1.00  0.00    -0.246 OA
BRANCH  27  29
ATOM     29  C   UNL A   1      35.583  31.008  28.179  1.00  0.00     0.060 A 
ATOM     30  C   UNL A   1      35.549  29.665  28.580  1.00  0.00     0.016 A 
ATOM     31  C   UNL A   1      36.798  31.687  28.080  1.00  0.00     0.016 A 
ATOM     32  C   UNL A   1      36.725  29.014  28.942  1.00  0.00     0.010 A 
ATOM     33  C   UNL A   1      37.980  31.033  28.452  1.00  0.00     0.010 A 
ATOM     34  C   UNL A   1      37.943  29.705  28.921  1.00  0.00    -0.014 A 
BRANCH  34  35
ATOM     35  C   UNL A   1      39.137  29.084  29.547  1.00  0.00     0.031 A 
ATOM     36  C   UNL A   1      39.570  29.557  30.909  1.00  0.00     0.074 A 
ATOM     37  C   UNL A   1      39.790  28.078  28.938  1.00  0.00     0.049 A 
ATOM     38  N   UNL A   1      40.581  29.168  31.642  1.00  0.00    -0.248 NA
ATOM     39  C   UNL A   1      38.751  30.613  31.525  1.00  0.00     0.031 C 
ATOM     40  C   UNL A   1      39.428  27.500  27.644  1.00  0.00     0.029 A 
ATOM     41  N   UNL A   1      40.893  27.363  29.329  1.00  0.00    -0.354 N 
ATOM     42  C   UNL A   1      40.523  29.932  32.803  1.00  0.00     0.074 A 
ATOM     43  C   UNL A   1      39.399  30.832  32.658  1.00  0.00     0.031 C 
ATOM     44  C   UNL A   1      40.298  26.519  27.348  1.00  0.00     0.029 A 
ATOM     45  C   UNL A   1      41.298  26.424  28.409  1.00  0.00     0.049 A 
ATOM     46  H   UNL A   1      41.352  27.507  30.188  1.00  0.00     0.167 HD
ATOM     47  C   UNL A   1      41.329  29.881  33.893  1.00  0.00     0.034 A 
ATOM     48  C   UNL A   1      42.366  25.600  28.414  1.00  0.00     0.034 A 
ATOM     49  C   UNL A   1      42.450  28.981  34.019  1.00  0.00     0.049 A 
ATOM     50  C   UNL A   1      43.302  25.626  29.599  1.00  0.00     0.074 A 
ATOM     51  C   UNL A   1      43.320  28.832  35.085  1.00  0.00     0.029 A 
ATOM     52  N   UNL A   1      42.866  28.086  33.041  1.00  0.00    -0.354 N 
ATOM     53  N   UNL A   1      43.232  26.346  30.695  1.00  0.00    -0.248 NA
ATOM     54  C   UNL A   1      44.458  24.720  29.549  1.00  0.00     0.031 C 
ATOM     55  C   UNL A   1      44.304  27.905  34.722  1.00  0.00     0.029 A 
ATOM     56  C   UNL A   1      44.002  27.413  33.463  1.00  0.00     0.049 A 
ATOM     57  H   UNL A   1      42.420  27.951  32.174  1.00  0.00     0.167 HD
ATOM     58  C   UNL A   1      44.316  25.955  31.478  1.00  0.00     0.074 A 
ATOM     59  C   UNL A   1      45.014  24.928  30.733  1.00  0.00     0.031 C 
ATOM     60  C   UNL A   1      44.696  26.398  32.704  1.00  0.00     0.034 A 
BRANCH  47  61
ATOM     61  C   UNL A   1      41.058  30.866  35.004  1.00  0.00     0.023 A 
ATOM     62  C   UNL A   1      39.888  30.807  35.783  1.00  0.00     0.031 A 
ATOM     63  C   UNL A   1      41.974  31.899  35.272  1.00  0.00     0.131 A 
ATOM     64  C   UNL A   1      39.634  31.801  36.742  1.00  0.00     0.055 A 
ATOM     65  C   UNL A   1      41.751  32.839  36.279  1.00  0.00     0.041 A 
ATOM     66  F   UNL A   1      43.097  32.020  34.546  1.00  0.00    -0.206 F 
ATOM     67  C   UNL A   1      40.570  32.803  37.011  1.00  0.00     0.022 A 
BRANCH  64  68
ATOM     68  S   UNL A   1      38.002  31.849  37.532  1.00  0.00     0.124 S 
ATOM     69  O   UNL A   1      37.616  30.441  37.499  1.00  0.00    -0.237 OA
ATOM     70  O   UNL A   1      38.306  32.398  38.848  1.00  0.00    -0.237 OA
ATOM     71  O   UNL A   1      37.222  32.721  36.657  1.00  0.00    -0.744 OA
ENDBRANCH  64  68
ENDBRANCH  47  61
BRANCH  48  72
ATOM     72  C   UNL A   1      42.642  24.709  27.250  1.00  0.00     0.023 A 
ATOM     73  C   UNL A   1      42.160  23.391  27.213  1.00  0.00     0.031 A 
ATOM     74  C   UNL A   1      43.446  25.147  26.183  1.00  0.00     0.131 A 
ATOM     75  C   UNL A   1      42.525  22.543  26.154  1.00  0.00     0.055 A 
ATOM     76  C   UNL A   1      43.763  24.317  25.106  1.00  0.00     0.041 A 
ATOM     77  F   UNL A   1      43.936  26.398  26.169  1.00  0.00    -0.206 F 
ATOM     78  C   UNL A   1      43.313  23.001  25.095  1.00  0.00     0.022 A 
BRANCH  75  79
ATOM     79  S   UNL A   1      42.031  20.799  26.228  1.00  0.00     0.124 S 
ATOM     80  O   UNL A   1      42.333  20.463  27.614  1.00  0.00    -0.237 OA
ATOM     81  O   UNL A   1      40.616  20.872  25.877  1.00  0.00    -0.237 OA
ATOM     82  O   UNL A   1      42.885  20.161  25.229  1.00  0.00    -0.744 OA
ENDBRANCH  75  79
ENDBRANCH  48  72
BRANCH  60  83
ATOM     83  C   UNL A   1      45.897  25.734  33.334  1.00  0.00     0.023 A 
ATOM     84  C   UNL A   1      45.784  24.544  34.076  1.00  0.00     0.031 A 
ATOM     85  C   UNL A   1      47.174  26.307  33.196  1.00  0.00     0.131 A 
ATOM     86  C   UNL A   1      46.917  23.997  34.697  1.00  0.00     0.055 A 
ATOM     87  C   UNL A   1      48.308  25.724  33.764  1.00  0.00     0.041 A 
ATOM     88  F   UNL A   1      47.341  27.442  32.500  1.00  0.00    -0.206 F 
ATOM     89  C   UNL A   1      48.181  24.570  34.533  1.00  0.00     0.022 A 
BRANCH  86  90
ATOM     90  S   UNL A   1      46.704  22.576  35.803  1.00  0.00     0.124 S 
ATOM     91  O   UNL A   1      47.527  22.954  36.947  1.00  0.00    -0.237 OA
ATOM     92  O   UNL A   1      45.262  22.570  36.030  1.00  0.00    -0.237 OA
ATOM     93  O   UNL A   1      47.211  21.451  35.019  1.00  0.00    -0.744 OA
ENDBRANCH  86  90
ENDBRANCH  60  83
ENDBRANCH  34  35
ENDBRANCH  27  29
ENDBRANCH  26  27
ENDBRANCH  25  26
ENDBRANCH   1  25
TORSDOF 18
ENDMDL
MODEL 2
REMARK VINA RESULT:     -10.1      1.925      2.321
REMARK SMILES C[C@@H](C(=O)OCCOCCOC(=O)c1ccc(-c2c3nc(c(-c4cc(S(=O)(=O)[O-])ccc4F)c4ccc([nH]4)c(-c4cc(S(=O)(=O)[O-])ccc4F)c4nc(c(-c5cc(S(=O)(=O)[O-])ccc5F)c5ccc2[nH]5)C=C4)C=C3)cc1)c1ccc2c(c1)[nH]c1ccc(Cl)cc12
REMARK SMILES IDX 9 1 8 2 7 3 6 4 5 5 3 6 4 7 2 8 1 9 77 10 78 11 82 12 79 13
REMARK SMILES IDX 81 14 80 15 83 16 90 17 84 18 89 20 85 21 87 22 86 23 88 24
REMARK SMILES IDX 10 25 11 26 12 27 13 28 14 29 15 30 76 31 16 32 75 33 17 34
REMARK SMILES IDX 18 35 19 36 69 37 20 38 74 39 68 40 70 41 21 42 73 43 67 44
REMARK SMILES IDX 66 45 22 47 54 48 34 49 53 50 35 51 38 52 52 53 71 54 36 55
REMARK SMILES IDX 37 56 51 58 72 59 39 60 23 61 24 62 32 63 25 64 31 65 33 66
REMARK SMILES IDX 30 67 26 68 27 69 28 70 29 71 55 72 56 73 64 74 57 75 63 76
REMARK SMILES IDX 65 77 62 78 58 79 59 80 60 81 61 82 40 83 41 84 49 85 42 86
REMARK SMILES IDX 48 87 50 88 47 89 43 90 44 91 45 92 46 93
REMARK H PARENT 83 19 70 46 38 57
REMARK Flexibility Score: inf
ROOT
ATOM      1  C   UNL A   1      34.078  34.509  27.974  1.00  0.00     0.202 C 
ENDROOT
BRANCH   1   2
ATOM      2  O   UNL A   1      34.244  35.475  29.006  1.00  0.00    -0.374 OA
BRANCH   2   3
ATOM      3  C   UNL A   1      33.075  35.887  29.718  1.00  0.00     0.202 C 
BRANCH   3   4
ATOM      4  C   UNL A   1      33.120  35.752  31.242  1.00  0.00     0.261 C 
BRANCH   4   5
ATOM      5  O   UNL A   1      33.740  34.510  31.627  1.00  0.00    -0.463 OA
BRANCH   5   6
ATOM      6  C   UNL A   1      34.941  34.620  32.259  1.00  0.00     0.313 C 
ATOM      7  O   UNL A   1      35.278  35.592  32.926  1.00  0.00    -0.252 OA
BRANCH   6   8
ATOM      8  C   UNL A   1      35.846  33.407  31.999  1.00  0.00     0.126 C 
ATOM      9  C   UNL A   1      36.098  32.489  33.199  1.00  0.00     0.025 C 
BRANCH   8  10
ATOM     10  C   UNL A   1      37.152  33.864  31.348  1.00  0.00    -0.032 A 
ATOM     11  C   UNL A   1      37.328  33.883  29.955  1.00  0.00     0.005 A 
ATOM     12  C   UNL A   1      38.245  34.132  32.185  1.00  0.00     0.031 A 
ATOM     13  C   UNL A   1      38.581  34.149  29.381  1.00  0.00     0.011 A 
ATOM     14  C   UNL A   1      39.493  34.345  31.595  1.00  0.00     0.047 A 
ATOM     15  C   UNL A   1      39.695  34.361  30.218  1.00  0.00     0.007 A 
ATOM     16  N   UNL A   1      40.716  34.521  32.190  1.00  0.00    -0.355 N 
ATOM     17  C   UNL A   1      41.097  34.562  29.998  1.00  0.00     0.009 A 
ATOM     18  C   UNL A   1      41.712  34.603  31.250  1.00  0.00     0.047 A 
ATOM     19  H   UNL A   1      40.861  34.579  33.163  1.00  0.00     0.167 HD
ATOM     20  C   UNL A   1      41.909  34.669  28.849  1.00  0.00     0.031 A 
ATOM     21  C   UNL A   1      43.097  34.699  31.421  1.00  0.00     0.028 A 
ATOM     22  C   UNL A   1      43.295  34.782  29.007  1.00  0.00     0.041 A 
ATOM     23  C   UNL A   1      43.882  34.782  30.270  1.00  0.00     0.022 A 
ATOM     24  Cl  UNL A   1      44.300  34.915  27.612  1.00  0.00    -0.084 Cl
ENDBRANCH   8  10
ENDBRANCH   6   8
ENDBRANCH   5   6
ENDBRANCH   4   5
ENDBRANCH   3   4
ENDBRANCH   2   3
ENDBRANCH   1   2
BRANCH   1  25
ATOM     25  C   UNL A   1      33.996  33.034  28.392  1.00  0.00     0.261 C 
BRANCH  25  26
ATOM     26  O   UNL A   1      34.438  32.131  27.367  1.00  0.00    -0.460 OA
BRANCH  26  27
ATOM     27  C   UNL A   1      34.454  30.829  27.747  1.00  0.00     0.338 C 
ATOM     28  O   UNL A   1      33.647  29.964  27.430  1.00  0.00    -0.246 OA
BRANCH  27  29
ATOM     29  C   UNL A   1      35.702  30.514  28.467  1.00  0.00     0.060 A 
ATOM     30  C   UNL A   1      36.905  30.894  27.856  1.00  0.00     0.016 A 
ATOM     31  C   UNL A   1      35.711  29.802  29.668  1.00  0.00     0.016 A 
ATOM     32  C   UNL A   1      38.122  30.513  28.413  1.00  0.00     0.010 A 
ATOM     33  C   UNL A   1      36.938  29.413  30.223  1.00  0.00     0.010 A 
ATOM     34  C   UNL A   1      38.146  29.734  29.576  1.00  0.00    -0.014 A 
BRANCH  34  35
ATOM     35  C   UNL A   1      39.429  29.125  30.011  1.00  0.00     0.031 A 
ATOM     36  C   UNL A   1      40.114  29.672  31.235  1.00  0.00     0.074 A 
ATOM     37  C   UNL A   1      39.945  28.067  29.360  1.00  0.00     0.049 A 
ATOM     38  N   UNL A   1      41.239  29.305  31.792  1.00  0.00    -0.248 NA
ATOM     39  C   UNL A   1      39.436  30.784  31.920  1.00  0.00     0.031 C 
ATOM     40  C   UNL A   1      39.342  27.418  28.196  1.00  0.00     0.029 A 
ATOM     41  N   UNL A   1      41.092  27.351  29.587  1.00  0.00    -0.354 N 
ATOM     42  C   UNL A   1      41.407  30.142  32.890  1.00  0.00     0.074 A 
ATOM     43  C   UNL A   1      40.287  31.058  32.897  1.00  0.00     0.031 C 
ATOM     44  C   UNL A   1      40.129  26.399  27.810  1.00  0.00     0.029 A 
ATOM     45  C   UNL A   1      41.308  26.347  28.672  1.00  0.00     0.049 A 
ATOM     46  H   UNL A   1      41.705  27.538  30.334  1.00  0.00     0.167 HD
ATOM     47  C   UNL A   1      42.401  30.140  33.814  1.00  0.00     0.034 A 
ATOM     48  C   UNL A   1      42.348  25.499  28.534  1.00  0.00     0.034 A 
ATOM     49  C   UNL A   1      43.515  29.223  33.790  1.00  0.00     0.049 A 
ATOM     50  C   UNL A   1      43.489  25.577  29.520  1.00  0.00     0.074 A 
ATOM     51  C   UNL A   1      44.566  29.121  34.684  1.00  0.00     0.029 A 
ATOM     52  N   UNL A   1      43.731  28.259  32.813  1.00  0.00    -0.354 N 
ATOM     53  N   UNL A   1      43.632  26.366  30.560  1.00  0.00    -0.248 NA
ATOM     54  C   UNL A   1      44.604  24.642  29.319  1.00  0.00     0.031 C 
ATOM     55  C   UNL A   1      45.454  28.149  34.208  1.00  0.00     0.029 A 
ATOM     56  C   UNL A   1      44.918  27.586  33.061  1.00  0.00     0.049 A 
ATOM     57  H   UNL A   1      43.129  28.080  32.055  1.00  0.00     0.167 HD
ATOM     58  C   UNL A   1      44.839  25.999  31.153  1.00  0.00     0.074 A 
ATOM     59  C   UNL A   1      45.374  24.910  30.363  1.00  0.00     0.031 C 
ATOM     60  C   UNL A   1      45.446  26.509  32.256  1.00  0.00     0.034 A 
BRANCH  47  61
ATOM     61  C   UNL A   1      42.353  31.200  34.888  1.00  0.00     0.023 A 
ATOM     62  C   UNL A   1      42.667  32.545  34.621  1.00  0.00     0.031 A 
ATOM     63  C   UNL A   1      42.014  30.853  36.208  1.00  0.00     0.131 A 
ATOM     64  C   UNL A   1      42.702  33.477  35.671  1.00  0.00     0.055 A 
ATOM     65  C   UNL A   1      41.976  31.801  37.232  1.00  0.00     0.041 A 
ATOM     66  F   UNL A   1      41.728  29.581  36.527  1.00  0.00    -0.206 F 
ATOM     67  C   UNL A   1      42.335  33.118  36.970  1.00  0.00     0.022 A 
BRANCH  64  68
ATOM     68  S   UNL A   1      43.370  35.131  35.342  1.00  0.00     0.124 S 
ATOM     69  O   UNL A   1      43.598  35.632  36.694  1.00  0.00    -0.237 OA
ATOM     70  O   UNL A   1      44.564  34.838  34.557  1.00  0.00    -0.237 OA
ATOM     71  O   UNL A   1      42.292  35.797  34.612  1.00  0.00    -0.744 OA
ENDBRANCH  64  68
ENDBRANCH  47  61
BRANCH  48  72
ATOM     72  C   UNL A   1      42.391  24.530  27.401  1.00  0.00     0.023 A 
ATOM     73  C   UNL A   1      41.617  23.360  27.414  1.00  0.00     0.031 A 
ATOM     74  C   UNL A   1      43.259  24.734  26.312  1.00  0.00     0.131 A 
ATOM     75  C   UNL A   1      41.759  22.415  26.384  1.00  0.00     0.055 A 
ATOM     76  C   UNL A   1      43.358  23.817  25.264  1.00  0.00     0.041 A 
ATOM     77  F   UNL A   1      44.025  25.835  26.250  1.00  0.00    -0.206 F 
ATOM     78  C   UNL A   1      42.615  22.642  25.304  1.00  0.00     0.022 A 
BRANCH  75  79
ATOM     79  S   UNL A   1      40.875  20.837  26.524  1.00  0.00     0.124 S 
ATOM     80  O   UNL A   1      40.912  20.603  27.963  1.00  0.00    -0.237 OA
ATOM     81  O   UNL A   1      39.571  21.171  25.961  1.00  0.00    -0.237 OA
ATOM     82  O   UNL A   1      41.682  19.923  25.720  1.00  0.00    -0.744 OA
ENDBRANCH  75  79
ENDBRANCH  48  72
BRANCH  60  83
ATOM     83  C   UNL A   1      46.735  25.857  32.695  1.00  0.00     0.023 A 
ATOM     84  C   UNL A   1      46.752  24.788  33.610  1.00  0.00     0.031 A 
ATOM     85  C   UNL A   1      47.966  26.319  32.197  1.00  0.00     0.131 A 
ATOM     86  C   UNL A   1      47.977  24.256  34.039  1.00  0.00     0.055 A 
ATOM     87  C   UNL A   1      49.178  25.745  32.580  1.00  0.00     0.041 A 
ATOM     88  F   UNL A   1      48.009  27.337  31.323  1.00  0.00    -0.206 F 
ATOM     89  C   UNL A   1      49.190  24.716  33.518  1.00  0.00     0.022 A 
BRANCH  86  90
ATOM     90  S   UNL A   1      47.973  23.013  35.361  1.00  0.00     0.124 S 
ATOM     91  O   UNL A   1      46.566  22.985  35.747  1.00  0.00    -0.237 OA
ATOM     92  O   UNL A   1      48.469  21.825  34.674  1.00  0.00    -0.237 OA
ATOM     93  O   UNL A   1      48.880  23.573  36.362  1.00  0.00    -0.744 OA
ENDBRANCH  86  90
ENDBRANCH  60  83
ENDBRANCH  34  35
ENDBRANCH  27  29
ENDBRANCH  26  27
ENDBRANCH  25  26
ENDBRANCH   1  25
TORSDOF 18
ENDMDL
MODEL 3
REMARK VINA RESULT:     -10.0      4.770      7.838
REMARK SMILES C[C@@H](C(=O)OCCOCCOC(=O)c1ccc(-c2c3nc(c(-c4cc(S(=O)(=O)[O-])ccc4F)c4ccc([nH]4)c(-c4cc(S(=O)(=O)[O-])ccc4F)c4nc(c(-c5cc(S(=O)(=O)[O-])ccc5F)c5ccc2[nH]5)C=C4)C=C3)cc1)c1ccc2c(c1)[nH]c1ccc(Cl)cc12
REMARK SMILES IDX 9 1 8 2 7 3 6 4 5 5 3 6 4 7 2 8 1 9 77 10 78 11 82 12 79 13
REMARK SMILES IDX 81 14 80 15 83 16 90 17 84 18 89 20 85 21 87 22 86 23 88 24
REMARK SMILES IDX 10 25 11 26 12 27 13 28 14 29 15 30 76 31 16 32 75 33 17 34
REMARK SMILES IDX 18 35 19 36 69 37 20 38 74 39 68 40 70 41 21 42 73 43 67 44
REMARK SMILES IDX 66 45 22 47 54 48 34 49 53 50 35 51 38 52 52 53 71 54 36 55
REMARK SMILES IDX 37 56 51 58 72 59 39 60 23 61 24 62 32 63 25 64 31 65 33 66
REMARK SMILES IDX 30 67 26 68 27 69 28 70 29 71 55 72 56 73 64 74 57 75 63 76
REMARK SMILES IDX 65 77 62 78 58 79 59 80 60 81 61 82 40 83 41 84 49 85 42 86
REMARK SMILES IDX 48 87 50 88 47 89 43 90 44 91 45 92 46 93
REMARK H PARENT 83 19 70 46 38 57
REMARK Flexibility Score: inf
ROOT
ATOM      1  C   UNL A   1      31.030  31.737  25.941  1.00  0.00     0.202 C 
ENDROOT
BRANCH   1   2
ATOM      2  O   UNL A   1      31.416  30.375  25.789  1.00  0.00    -0.374 OA
BRANCH   2   3
ATOM      3  C   UNL A   1      32.792  30.052  26.002  1.00  0.00     0.202 C 
BRANCH   3   4
ATOM      4  C   UNL A   1      33.400  29.002  25.069  1.00  0.00     0.261 C 
BRANCH   4   5
ATOM      5  O   UNL A   1      32.400  28.055  24.644  1.00  0.00    -0.463 OA
BRANCH   5   6
ATOM      6  C   UNL A   1      32.227  27.944  23.299  1.00  0.00     0.313 C 
ATOM      7  O   UNL A   1      32.899  28.546  22.468  1.00  0.00    -0.252 OA
BRANCH   6   8
ATOM      8  C   UNL A   1      31.059  27.013  22.941  1.00  0.00     0.126 C 
ATOM      9  C   UNL A   1      29.746  27.266  23.687  1.00  0.00     0.025 C 
BRANCH   8  10
ATOM     10  C   UNL A   1      31.504  25.555  23.054  1.00  0.00    -0.032 A 
ATOM     11  C   UNL A   1      30.585  24.494  23.128  1.00  0.00     0.005 A 
ATOM     12  C   UNL A   1      32.871  25.297  23.232  1.00  0.00     0.031 A 
ATOM     13  C   UNL A   1      31.006  23.181  23.394  1.00  0.00     0.011 A 
ATOM     14  C   UNL A   1      33.262  23.993  23.545  1.00  0.00     0.047 A 
ATOM     15  C   UNL A   1      32.372  22.927  23.632  1.00  0.00     0.007 A 
ATOM     16  N   UNL A   1      34.507  23.512  23.864  1.00  0.00    -0.355 N 
ATOM     17  C   UNL A   1      33.129  21.770  24.012  1.00  0.00     0.009 A 
ATOM     18  C   UNL A   1      34.449  22.184  24.201  1.00  0.00     0.047 A 
ATOM     19  H   UNL A   1      35.332  24.050  23.854  1.00  0.00     0.167 HD
ATOM     20  C   UNL A   1      32.809  20.419  24.256  1.00  0.00     0.031 A 
ATOM     21  C   UNL A   1      35.459  21.334  24.664  1.00  0.00     0.028 A 
ATOM     22  C   UNL A   1      33.815  19.554  24.703  1.00  0.00     0.041 A 
ATOM     23  C   UNL A   1      35.115  20.006  24.919  1.00  0.00     0.022 A 
ATOM     24  Cl  UNL A   1      33.438  17.899  25.005  1.00  0.00    -0.084 Cl
ENDBRANCH   8  10
ENDBRANCH   6   8
ENDBRANCH   5   6
ENDBRANCH   4   5
ENDBRANCH   3   4
ENDBRANCH   2   3
ENDBRANCH   1   2
BRANCH   1  25
ATOM     25  C   UNL A   1      31.539  32.481  27.183  1.00  0.00     0.261 C 
BRANCH  25  26
ATOM     26  O   UNL A   1      32.673  33.320  26.913  1.00  0.00    -0.460 OA
BRANCH  26  27
ATOM     27  C   UNL A   1      33.265  33.823  28.026  1.00  0.00     0.338 C 
ATOM     28  O   UNL A   1      32.791  34.650  28.795  1.00  0.00    -0.246 OA
BRANCH  27  29
ATOM     29  C   UNL A   1      34.517  33.102  28.319  1.00  0.00     0.060 A 
ATOM     30  C   UNL A   1      34.401  31.778  28.765  1.00  0.00     0.016 A 
ATOM     31  C   UNL A   1      35.768  33.715  28.236  1.00  0.00     0.016 A 
ATOM     32  C   UNL A   1      35.531  31.081  29.186  1.00  0.00     0.010 A 
ATOM     33  C   UNL A   1      36.903  33.015  28.667  1.00  0.00     0.010 A 
ATOM     34  C   UNL A   1      36.782  31.709  29.179  1.00  0.00    -0.014 A 
BRANCH  34  35
ATOM     35  C   UNL A   1      37.924  31.050  29.864  1.00  0.00     0.031 A 
ATOM     36  C   UNL A   1      38.218  31.414  31.295  1.00  0.00     0.074 A 
ATOM     37  C   UNL A   1      38.650  30.105  29.240  1.00  0.00     0.049 A 
ATOM     38  N   UNL A   1      39.162  30.975  32.087  1.00  0.00    -0.248 NA
ATOM     39  C   UNL A   1      37.325  32.405  31.914  1.00  0.00     0.031 C 
ATOM     40  C   UNL A   1      38.422  29.633  27.875  1.00  0.00     0.029 A 
ATOM     41  N   UNL A   1      39.723  29.371  29.675  1.00  0.00    -0.354 N 
ATOM     42  C   UNL A   1      38.981  31.639  33.295  1.00  0.00     0.074 A 
ATOM     43  C   UNL A   1      37.859  32.537  33.118  1.00  0.00     0.031 C 
ATOM     44  C   UNL A   1      39.333  28.688  27.583  1.00  0.00     0.029 A 
ATOM     45  C   UNL A   1      40.231  28.516  28.724  1.00  0.00     0.049 A 
ATOM     46  H   UNL A   1      40.097  29.449  30.582  1.00  0.00     0.167 HD
ATOM     47  C   UNL A   1      39.682  31.507  34.449  1.00  0.00     0.034 A 
ATOM     48  C   UNL A   1      41.309  27.706  28.764  1.00  0.00     0.034 A 
ATOM     49  C   UNL A   1      40.803  30.612  34.608  1.00  0.00     0.049 A 
ATOM     50  C   UNL A   1      42.129  27.644  30.030  1.00  0.00     0.074 A 
ATOM     51  C   UNL A   1      41.571  30.385  35.737  1.00  0.00     0.029 A 
ATOM     52  N   UNL A   1      41.325  29.806  33.605  1.00  0.00    -0.354 N 
ATOM     53  N   UNL A   1      41.942  28.270  31.170  1.00  0.00    -0.248 NA
ATOM     54  C   UNL A   1      43.300  26.757  30.018  1.00  0.00     0.031 C 
ATOM     55  C   UNL A   1      42.601  29.501  35.395  1.00  0.00     0.029 A 
ATOM     56  C   UNL A   1      42.429  29.111  34.076  1.00  0.00     0.049 A 
ATOM     57  H   UNL A   1      40.965  29.738  32.691  1.00  0.00     0.167 HD
ATOM     58  C   UNL A   1      42.955  27.827  32.018  1.00  0.00     0.074 A 
ATOM     59  C   UNL A   1      43.739  26.872  31.263  1.00  0.00     0.031 C 
ATOM     60  C   UNL A   1      43.210  28.170  33.307  1.00  0.00     0.034 A 
BRANCH  47  61
ATOM     61  C   UNL A   1      39.289  32.394  35.606  1.00  0.00     0.023 A 
ATOM     62  C   UNL A   1      39.696  33.738  35.685  1.00  0.00     0.031 A 
ATOM     63  C   UNL A   1      38.517  31.878  36.663  1.00  0.00     0.131 A 
ATOM     64  C   UNL A   1      39.387  34.497  36.825  1.00  0.00     0.055 A 
ATOM     65  C   UNL A   1      38.148  32.661  37.757  1.00  0.00     0.041 A 
ATOM     66  F   UNL A   1      38.120  30.595  36.654  1.00  0.00    -0.206 F 
ATOM     67  C   UNL A   1      38.595  33.975  37.850  1.00  0.00     0.022 A 
BRANCH  64  68
ATOM     68  S   UNL A   1      40.152  36.131  37.014  1.00  0.00     0.124 S 
ATOM     69  O   UNL A   1      39.388  36.688  38.127  1.00  0.00    -0.237 OA
ATOM     70  O   UNL A   1      41.543  35.796  37.297  1.00  0.00    -0.237 OA
ATOM     71  O   UNL A   1      39.915  36.772  35.723  1.00  0.00    -0.744 OA
ENDBRANCH  64  68
ENDBRANCH  47  61
BRANCH  48  72
ATOM     72  C   UNL A   1      41.709  26.918  27.563  1.00  0.00     0.023 A 
ATOM     73  C   UNL A   1      41.481  25.534  27.491  1.00  0.00     0.031 A 
ATOM     74  C   UNL A   1      42.383  27.531  26.491  1.00  0.00     0.131 A 
ATOM     75  C   UNL A   1      41.965  24.802  26.394  1.00  0.00     0.055 A 
ATOM     76  C   UNL A   1      42.815  26.807  25.378  1.00  0.00     0.041 A 
ATOM     77  F   UNL A   1      42.629  28.851  26.509  1.00  0.00    -0.206 F 
ATOM     78  C   UNL A   1      42.619  25.431  25.333  1.00  0.00     0.022 A 
BRANCH  75  79
ATOM     79  S   UNL A   1      41.808  22.995  26.420  1.00  0.00     0.124 S 
ATOM     80  O   UNL A   1      42.456  22.623  25.168  1.00  0.00    -0.237 OA
ATOM     81  O   UNL A   1      42.524  22.647  27.643  1.00  0.00    -0.237 OA
ATOM     82  O   UNL A   1      40.363  22.780  26.464  1.00  0.00    -0.744 OA
ENDBRANCH  75  79
ENDBRANCH  48  72
BRANCH  60  83
ATOM     83  C   UNL A   1      44.358  27.469  33.992  1.00  0.00     0.023 A 
ATOM     84  C   UNL A   1      44.168  26.297  34.746  1.00  0.00     0.031 A 
ATOM     85  C   UNL A   1      45.661  27.989  33.896  1.00  0.00     0.131 A 
ATOM     86  C   UNL A   1      45.254  25.715  35.419  1.00  0.00     0.055 A 
ATOM     87  C   UNL A   1      46.748  27.371  34.516  1.00  0.00     0.041 A 
ATOM     88  F   UNL A   1      45.901  29.105  33.190  1.00  0.00    -0.206 F 
ATOM     89  C   UNL A   1      46.545  26.235  35.295  1.00  0.00     0.022 A 
BRANCH  86  90
ATOM     90  S   UNL A   1      44.942  24.321  36.536  1.00  0.00     0.124 S 
ATOM     91  O   UNL A   1      46.286  23.998  37.003  1.00  0.00    -0.237 OA
ATOM     92  O   UNL A   1      44.046  24.909  37.527  1.00  0.00    -0.237 OA
ATOM     93  O   UNL A   1      44.329  23.316  35.668  1.00  0.00    -0.744 OA
ENDBRANCH  86  90
ENDBRANCH  60  83
ENDBRANCH  34  35
ENDBRANCH  27  29
ENDBRANCH  26  27
ENDBRANCH  25  26
ENDBRANCH   1  25
TORSDOF 18
ENDMDL
