MODEL 1
REMARK VINA RESULT:     -11.3      0.000      0.000
REMARK SMILES C=C(C(=O)OCCOCCOC(=O)c1ccc(-c2c3nc(c(-c4cc(S(=O)(=O)[O-])ccc4F)c4ccc([nH]4)c(-c4cc(S(=O)(=O)[O-])ccc4F)c4nc(c(-c5cc(S(=O)(=O)[O-])ccc5F)c5ccc2[nH]5)C=C4)C=C3)cc1)[C@@H]1CC[C@]2(C)C[C@@H](O)CC(=C)[C@H]2C1
REMARK SMILES IDX 9 1 8 2 7 3 6 4 5 5 3 6 4 7 2 8 1 9 77 10 78 11 89 12 79 13
REMARK SMILES IDX 88 14 80 15 86 16 81 17 82 18 85 19 87 20 83 21 84 22 10 24
REMARK SMILES IDX 11 25 12 26 13 27 14 28 15 29 76 30 16 31 75 32 17 33 18 34
REMARK SMILES IDX 19 35 69 36 20 37 74 38 68 39 70 40 21 41 73 42 67 43 66 44
REMARK SMILES IDX 22 46 54 47 34 48 53 49 35 50 38 51 52 52 71 53 36 54 37 55
REMARK SMILES IDX 51 57 72 58 39 59 23 60 24 61 32 62 25 63 31 64 33 65 30 66
REMARK SMILES IDX 26 67 27 68 28 69 29 70 55 71 56 72 64 73 57 74 63 75 65 76
REMARK SMILES IDX 62 77 58 78 59 79 60 80 61 81 40 82 41 83 49 84 42 85 48 86
REMARK SMILES IDX 50 87 47 88 43 89 44 90 45 91 46 92
REMARK H PARENT 84 23 70 45 38 56
REMARK Flexibility Score: inf
ROOT
ATOM      1  C   UNL A   1      31.937  28.550  27.218  1.00  0.00     0.202 C 
ENDROOT
BRANCH   1   2
ATOM      2  O   UNL A   1      31.987  27.600  26.161  1.00  0.00    -0.374 OA
BRANCH   2   3
ATOM      3  C   UNL A   1      33.204  26.861  26.018  1.00  0.00     0.202 C 
BRANCH   3   4
ATOM      4  C   UNL A   1      34.017  27.155  24.754  1.00  0.00     0.261 C 
BRANCH   4   5
ATOM      5  O   UNL A   1      33.147  27.742  23.775  1.00  0.00    -0.460 OA
BRANCH   5   6
ATOM      6  C   UNL A   1      32.988  27.051  22.619  1.00  0.00     0.333 C 
ATOM      7  O   UNL A   1      33.720  27.104  21.647  1.00  0.00    -0.247 OA
BRANCH   6   8
ATOM      8  C   UNL A   1      31.829  26.117  22.763  1.00  0.00     0.033 C 
ATOM      9  C   UNL A   1      30.631  26.705  22.962  1.00  0.00     0.020 C 
BRANCH   8  10
ATOM     10  C   UNL A   1      32.009  24.608  22.562  1.00  0.00     0.026 C 
ATOM     11  C   UNL A   1      31.042  23.736  23.410  1.00  0.00     0.009 C 
ATOM     12  C   UNL A   1      33.443  24.027  22.691  1.00  0.00     0.017 C 
ATOM     13  C   UNL A   1      31.514  23.450  24.842  1.00  0.00     0.008 C 
ATOM     14  C   UNL A   1      33.897  23.839  24.155  1.00  0.00     0.021 C 
ATOM     15  C   UNL A   1      32.953  22.873  24.932  1.00  0.00    -0.024 C 
ATOM     16  C   UNL A   1      35.347  23.449  24.387  1.00  0.00    -0.071 C 
ATOM     17  C   UNL A   1      32.961  21.444  24.334  1.00  0.00     0.012 C 
ATOM     18  C   UNL A   1      33.361  22.763  26.439  1.00  0.00     0.039 C 
ATOM     19  C   UNL A   1      35.750  23.551  25.845  1.00  0.00     0.062 C 
ATOM     20  C   UNL A   1      36.218  23.067  23.442  1.00  0.00     0.008 C 
ATOM     21  C   UNL A   1      34.869  22.659  26.732  1.00  0.00     0.119 C 
BRANCH  21  22
ATOM     22  O   UNL A   1      35.284  21.294  26.633  1.00  0.00    -0.393 OA
ATOM     23  H   UNL A   1      36.189  21.255  26.289  1.00  0.00     0.210 HD
ENDBRANCH  21  22
ENDBRANCH   8  10
ENDBRANCH   6   8
ENDBRANCH   5   6
ENDBRANCH   4   5
ENDBRANCH   3   4
ENDBRANCH   2   3
ENDBRANCH   1   2
BRANCH   1  24
ATOM     24  C   UNL A   1      32.111  30.031  26.886  1.00  0.00     0.261 C 
BRANCH  24  25
ATOM     25  O   UNL A   1      33.472  30.376  26.676  1.00  0.00    -0.460 OA
BRANCH  25  26
ATOM     26  C   UNL A   1      33.880  31.445  27.404  1.00  0.00     0.338 C 
ATOM     27  O   UNL A   1      33.248  32.452  27.671  1.00  0.00    -0.246 OA
BRANCH  26  28
ATOM     28  C   UNL A   1      35.171  31.085  28.000  1.00  0.00     0.060 A 
ATOM     29  C   UNL A   1      35.346  29.765  28.432  1.00  0.00     0.016 A 
ATOM     30  C   UNL A   1      36.212  32.014  28.059  1.00  0.00     0.016 A 
ATOM     31  C   UNL A   1      36.579  29.365  28.932  1.00  0.00     0.010 A 
ATOM     32  C   UNL A   1      37.440  31.618  28.571  1.00  0.00     0.010 A 
ATOM     33  C   UNL A   1      37.620  30.298  29.020  1.00  0.00    -0.014 A 
BRANCH  33  34
ATOM     34  C   UNL A   1      38.873  29.948  29.712  1.00  0.00     0.031 A 
ATOM     35  C   UNL A   1      39.712  28.854  29.126  1.00  0.00     0.074 A 
ATOM     36  C   UNL A   1      39.202  30.562  30.862  1.00  0.00     0.049 A 
ATOM     37  N   UNL A   1      40.773  28.273  29.616  1.00  0.00    -0.248 NA
ATOM     38  C   UNL A   1      39.287  28.332  27.814  1.00  0.00     0.031 C 
ATOM     39  C   UNL A   1      38.447  31.653  31.482  1.00  0.00     0.029 A 
ATOM     40  N   UNL A   1      40.239  30.336  31.728  1.00  0.00    -0.354 N 
ATOM     41  C   UNL A   1      41.131  27.305  28.687  1.00  0.00     0.074 A 
ATOM     42  C   UNL A   1      40.167  27.364  27.611  1.00  0.00     0.031 C 
ATOM     43  C   UNL A   1      39.031  31.979  32.648  1.00  0.00     0.029 A 
ATOM     44  C   UNL A   1      40.169  31.090  32.876  1.00  0.00     0.049 A 
ATOM     45  H   UNL A   1      40.965  29.696  31.546  1.00  0.00     0.167 HD
ATOM     46  C   UNL A   1      42.174  26.444  28.740  1.00  0.00     0.034 A 
ATOM     47  C   UNL A   1      40.914  31.029  33.998  1.00  0.00     0.034 A 
ATOM     48  C   UNL A   1      43.111  26.413  29.832  1.00  0.00     0.049 A 
ATOM     49  C   UNL A   1      42.032  30.012  34.056  1.00  0.00     0.074 A 
ATOM     50  C   UNL A   1      44.244  25.633  29.971  1.00  0.00     0.029 A 
ATOM     51  N   UNL A   1      43.011  27.185  30.983  1.00  0.00    -0.354 N 
ATOM     52  N   UNL A   1      42.402  29.141  33.143  1.00  0.00    -0.248 NA
ATOM     53  C   UNL A   1      42.830  29.968  35.286  1.00  0.00     0.031 C 
ATOM     54  C   UNL A   1      44.780  25.871  31.239  1.00  0.00     0.029 A 
ATOM     55  C   UNL A   1      44.031  26.860  31.860  1.00  0.00     0.049 A 
ATOM     56  H   UNL A   1      42.317  27.861  31.151  1.00  0.00     0.167 HD
ATOM     57  C   UNL A   1      43.493  28.465  33.684  1.00  0.00     0.074 A 
ATOM     58  C   UNL A   1      43.732  29.045  34.990  1.00  0.00     0.031 C 
ATOM     59  C   UNL A   1      44.233  27.455  33.159  1.00  0.00     0.034 A 
BRANCH  46  60
ATOM     60  C   UNL A   1      42.316  25.437  27.630  1.00  0.00     0.023 A 
ATOM     61  C   UNL A   1      41.618  24.217  27.634  1.00  0.00     0.031 A 
ATOM     62  C   UNL A   1      43.161  25.711  26.541  1.00  0.00     0.131 A 
ATOM     63  C   UNL A   1      41.808  23.300  26.590  1.00  0.00     0.055 A 
ATOM     64  C   UNL A   1      43.296  24.824  25.472  1.00  0.00     0.041 A 
ATOM     65  F   UNL A   1      43.875  26.848  26.500  1.00  0.00    -0.206 F 
ATOM     66  C   UNL A   1      42.623  23.607  25.496  1.00  0.00     0.022 A 
BRANCH  63  67
ATOM     67  S   UNL A   1      41.050  21.658  26.720  1.00  0.00     0.124 S 
ATOM     68  O   UNL A   1      39.853  21.820  25.898  1.00  0.00    -0.237 OA
ATOM     69  O   UNL A   1      42.085  20.787  26.176  1.00  0.00    -0.237 OA
ATOM     70  O   UNL A   1      40.798  21.509  28.152  1.00  0.00    -0.744 OA
ENDBRANCH  63  67
ENDBRANCH  46  60
BRANCH  47  71
ATOM     71  C   UNL A   1      40.600  31.888  35.178  1.00  0.00     0.023 A 
ATOM     72  C   UNL A   1      39.578  31.542  36.075  1.00  0.00     0.031 A 
ATOM     73  C   UNL A   1      41.262  33.113  35.380  1.00  0.00     0.131 A 
ATOM     74  C   UNL A   1      39.202  32.437  37.090  1.00  0.00     0.055 A 
ATOM     75  C   UNL A   1      40.929  33.970  36.431  1.00  0.00     0.041 A 
ATOM     76  F   UNL A   1      42.245  33.500  34.552  1.00  0.00    -0.206 F 
ATOM     77  C   UNL A   1      39.880  33.643  37.282  1.00  0.00     0.022 A 
BRANCH  74  78
ATOM     78  S   UNL A   1      37.727  32.059  38.075  1.00  0.00     0.124 S 
ATOM     79  O   UNL A   1      36.794  33.081  37.616  1.00  0.00    -0.237 OA
ATOM     80  O   UNL A   1      37.433  30.690  37.664  1.00  0.00    -0.237 OA
ATOM     81  O   UNL A   1      38.191  32.210  39.453  1.00  0.00    -0.744 OA
ENDBRANCH  74  78
ENDBRANCH  47  71
BRANCH  59  82
ATOM     82  C   UNL A   1      45.383  26.946  33.990  1.00  0.00     0.023 A 
ATOM     83  C   UNL A   1      45.210  25.919  34.932  1.00  0.00     0.031 A 
ATOM     84  C   UNL A   1      46.670  27.488  33.824  1.00  0.00     0.131 A 
ATOM     85  C   UNL A   1      46.298  25.496  35.708  1.00  0.00     0.055 A 
ATOM     86  C   UNL A   1      47.761  27.019  34.555  1.00  0.00     0.041 A 
ATOM     87  F   UNL A   1      46.888  28.472  32.937  1.00  0.00    -0.206 F 
ATOM     88  C   UNL A   1      47.576  26.025  35.510  1.00  0.00     0.022 A 
BRANCH  85  89
ATOM     89  S   UNL A   1      46.005  24.294  37.033  1.00  0.00     0.124 S 
ATOM     90  O   UNL A   1      46.967  24.719  38.044  1.00  0.00    -0.237 OA
ATOM     91  O   UNL A   1      44.599  24.519  37.355  1.00  0.00    -0.237 OA
ATOM     92  O   UNL A   1      46.296  23.009  36.400  1.00  0.00    -0.744 OA
ENDBRANCH  85  89
ENDBRANCH  59  82
ENDBRANCH  33  34
ENDBRANCH  26  28
ENDBRANCH  25  26
ENDBRANCH  24  25
ENDBRANCH   1  24
TORSDOF 19
ENDMDL
MODEL 2
REMARK VINA RESULT:     -11.2      5.009      9.875
REMARK SMILES C=C(C(=O)OCCOCCOC(=O)c1ccc(-c2c3nc(c(-c4cc(S(=O)(=O)[O-])ccc4F)c4ccc([nH]4)c(-c4cc(S(=O)(=O)[O-])ccc4F)c4nc(c(-c5cc(S(=O)(=O)[O-])ccc5F)c5ccc2[nH]5)C=C4)C=C3)cc1)[C@@H]1CC[C@]2(C)C[C@@H](O)CC(=C)[C@H]2C1
REMARK SMILES IDX 9 1 8 2 7 3 6 4 5 5 3 6 4 7 2 8 1 9 77 10 78 11 89 12 79 13
REMARK SMILES IDX 88 14 80 15 86 16 81 17 82 18 85 19 87 20 83 21 84 22 10 24
REMARK SMILES IDX 11 25 12 26 13 27 14 28 15 29 76 30 16 31 75 32 17 33 18 34
REMARK SMILES IDX 19 35 69 36 20 37 74 38 68 39 70 40 21 41 73 42 67 43 66 44
REMARK SMILES IDX 22 46 54 47 34 48 53 49 35 50 38 51 52 52 71 53 36 54 37 55
REMARK SMILES IDX 51 57 72 58 39 59 23 60 24 61 32 62 25 63 31 64 33 65 30 66
REMARK SMILES IDX 26 67 27 68 28 69 29 70 55 71 56 72 64 73 57 74 63 75 65 76
REMARK SMILES IDX 62 77 58 78 59 79 60 80 61 81 40 82 41 83 49 84 42 85 48 86
REMARK SMILES IDX 50 87 47 88 43 89 44 90 45 91 46 92
REMARK H PARENT 84 23 70 45 38 56
REMARK Flexibility Score: inf
ROOT
ATOM      1  C   UNL A   1      35.585  20.938  25.357  1.00  0.00     0.202 C 
ENDROOT
BRANCH   1   2
ATOM      2  O   UNL A   1      34.686  20.252  24.495  1.00  0.00    -0.374 OA
BRANCH   2   3
ATOM      3  C   UNL A   1      33.517  19.691  25.098  1.00  0.00     0.202 C 
BRANCH   3   4
ATOM      4  C   UNL A   1      32.179  20.226  24.579  1.00  0.00     0.261 C 
BRANCH   4   5
ATOM      5  O   UNL A   1      32.198  21.659  24.650  1.00  0.00    -0.460 OA
BRANCH   5   6
ATOM      6  C   UNL A   1      32.128  22.322  23.470  1.00  0.00     0.333 C 
ATOM      7  O   UNL A   1      32.321  21.842  22.367  1.00  0.00    -0.247 OA
BRANCH   6   8
ATOM      8  C   UNL A   1      31.659  23.720  23.720  1.00  0.00     0.033 C 
ATOM      9  C   UNL A   1      30.728  23.855  24.687  1.00  0.00     0.020 C 
BRANCH   8  10
ATOM     10  C   UNL A   1      32.310  24.905  22.999  1.00  0.00     0.026 C 
ATOM     11  C   UNL A   1      33.844  25.021  23.227  1.00  0.00     0.009 C 
ATOM     12  C   UNL A   1      31.674  26.309  23.191  1.00  0.00     0.017 C 
ATOM     13  C   UNL A   1      34.254  25.766  24.504  1.00  0.00     0.008 C 
ATOM     14  C   UNL A   1      32.054  26.974  24.530  1.00  0.00     0.021 C 
ATOM     15  C   UNL A   1      33.595  27.163  24.664  1.00  0.00    -0.024 C 
ATOM     16  C   UNL A   1      31.339  28.265  24.892  1.00  0.00    -0.071 C 
ATOM     17  C   UNL A   1      34.162  28.113  23.580  1.00  0.00     0.012 C 
ATOM     18  C   UNL A   1      33.982  27.748  26.063  1.00  0.00     0.039 C 
ATOM     19  C   UNL A   1      31.587  28.686  26.327  1.00  0.00     0.062 C 
ATOM     20  C   UNL A   1      30.551  28.981  24.076  1.00  0.00     0.008 C 
ATOM     21  C   UNL A   1      33.086  28.879  26.600  1.00  0.00     0.119 C 
BRANCH  21  22
ATOM     22  O   UNL A   1      33.531  30.133  26.076  1.00  0.00    -0.393 OA
ATOM     23  H   UNL A   1      34.067  30.591  26.742  1.00  0.00     0.210 HD
ENDBRANCH  21  22
ENDBRANCH   8  10
ENDBRANCH   6   8
ENDBRANCH   5   6
ENDBRANCH   4   5
ENDBRANCH   3   4
ENDBRANCH   2   3
ENDBRANCH   1   2
BRANCH   1  24
ATOM     24  C   UNL A   1      37.088  20.777  25.133  1.00  0.00     0.261 C 
BRANCH  24  25
ATOM     25  O   UNL A   1      37.831  21.845  25.703  1.00  0.00    -0.460 OA
BRANCH  25  26
ATOM     26  C   UNL A   1      39.064  21.479  26.131  1.00  0.00     0.338 C 
ATOM     27  O   UNL A   1      39.619  20.404  25.981  1.00  0.00    -0.246 OA
BRANCH  26  28
ATOM     28  C   UNL A   1      39.714  22.692  26.641  1.00  0.00     0.060 A 
ATOM     29  C   UNL A   1      39.268  23.926  26.154  1.00  0.00     0.016 A 
ATOM     30  C   UNL A   1      40.690  22.611  27.637  1.00  0.00     0.016 A 
ATOM     31  C   UNL A   1      39.805  25.099  26.668  1.00  0.00     0.010 A 
ATOM     32  C   UNL A   1      41.236  23.785  28.141  1.00  0.00     0.010 A 
ATOM     33  C   UNL A   1      40.804  25.027  27.647  1.00  0.00    -0.014 A 
BRANCH  33  34
ATOM     34  C   UNL A   1      41.515  26.247  28.074  1.00  0.00     0.031 A 
ATOM     35  C   UNL A   1      40.717  27.317  28.756  1.00  0.00     0.074 A 
ATOM     36  C   UNL A   1      42.820  26.397  27.796  1.00  0.00     0.049 A 
ATOM     37  N   UNL A   1      41.075  28.524  29.096  1.00  0.00    -0.248 NA
ATOM     38  C   UNL A   1      39.319  26.985  29.084  1.00  0.00     0.031 C 
ATOM     39  C   UNL A   1      43.669  25.389  27.155  1.00  0.00     0.029 A 
ATOM     40  N   UNL A   1      43.656  27.466  27.989  1.00  0.00    -0.354 N 
ATOM     41  C   UNL A   1      39.946  29.104  29.659  1.00  0.00     0.074 A 
ATOM     42  C   UNL A   1      38.885  28.124  29.600  1.00  0.00     0.031 C 
ATOM     43  C   UNL A   1      44.898  25.903  26.980  1.00  0.00     0.029 A 
ATOM     44  C   UNL A   1      44.909  27.286  27.451  1.00  0.00     0.049 A 
ATOM     45  H   UNL A   1      43.385  28.283  28.467  1.00  0.00     0.167 HD
ATOM     46  C   UNL A   1      39.817  30.350  30.172  1.00  0.00     0.034 A 
ATOM     47  C   UNL A   1      45.926  28.161  27.317  1.00  0.00     0.034 A 
ATOM     48  C   UNL A   1      40.898  31.300  30.208  1.00  0.00     0.049 A 
ATOM     49  C   UNL A   1      45.730  29.566  27.841  1.00  0.00     0.074 A 
ATOM     50  C   UNL A   1      40.910  32.567  30.760  1.00  0.00     0.029 A 
ATOM     51  N   UNL A   1      42.153  31.092  29.651  1.00  0.00    -0.354 N 
ATOM     52  N   UNL A   1      44.676  30.088  28.430  1.00  0.00    -0.248 NA
ATOM     53  C   UNL A   1      46.853  30.498  27.687  1.00  0.00     0.031 C 
ATOM     54  C   UNL A   1      42.141  33.156  30.462  1.00  0.00     0.029 A 
ATOM     55  C   UNL A   1      42.930  32.228  29.798  1.00  0.00     0.049 A 
ATOM     56  H   UNL A   1      42.447  30.260  29.216  1.00  0.00     0.167 HD
ATOM     57  C   UNL A   1      45.023  31.401  28.736  1.00  0.00     0.074 A 
ATOM     58  C   UNL A   1      46.388  31.583  28.287  1.00  0.00     0.031 C 
ATOM     59  C   UNL A   1      44.287  32.375  29.330  1.00  0.00     0.034 A 
BRANCH  46  60
ATOM     60  C   UNL A   1      38.460  30.770  30.671  1.00  0.00     0.023 A 
ATOM     61  C   UNL A   1      37.523  31.407  29.839  1.00  0.00     0.031 A 
ATOM     62  C   UNL A   1      38.097  30.519  32.005  1.00  0.00     0.131 A 
ATOM     63  C   UNL A   1      36.284  31.805  30.362  1.00  0.00     0.055 A 
ATOM     64  C   UNL A   1      36.838  30.858  32.502  1.00  0.00     0.041 A 
ATOM     65  F   UNL A   1      38.965  29.941  32.852  1.00  0.00    -0.206 F 
ATOM     66  C   UNL A   1      35.925  31.512  31.681  1.00  0.00     0.022 A 
BRANCH  63  67
ATOM     67  S   UNL A   1      35.176  32.796  29.323  1.00  0.00     0.124 S 
ATOM     68  O   UNL A   1      34.070  33.061  30.240  1.00  0.00    -0.237 OA
ATOM     69  O   UNL A   1      36.008  33.943  28.978  1.00  0.00    -0.237 OA
ATOM     70  O   UNL A   1      34.855  31.902  28.212  1.00  0.00    -0.744 OA
ENDBRANCH  63  67
ENDBRANCH  46  60
BRANCH  47  71
ATOM     71  C   UNL A   1      47.182  27.779  26.607  1.00  0.00     0.023 A 
ATOM     72  C   UNL A   1      47.313  27.955  25.221  1.00  0.00     0.031 A 
ATOM     73  C   UNL A   1      48.240  27.152  27.290  1.00  0.00     0.131 A 
ATOM     74  C   UNL A   1      48.441  27.452  24.553  1.00  0.00     0.055 A 
ATOM     75  C   UNL A   1      49.390  26.713  26.632  1.00  0.00     0.041 A 
ATOM     76  F   UNL A   1      48.170  26.952  28.616  1.00  0.00    -0.206 F 
ATOM     77  C   UNL A   1      49.487  26.845  25.251  1.00  0.00     0.022 A 
BRANCH  74  78
ATOM     78  S   UNL A   1      48.462  27.490  22.740  1.00  0.00     0.124 S 
ATOM     79  O   UNL A   1      48.423  26.069  22.414  1.00  0.00    -0.237 OA
ATOM     80  O   UNL A   1      47.255  28.251  22.440  1.00  0.00    -0.237 OA
ATOM     81  O   UNL A   1      49.719  28.167  22.428  1.00  0.00    -0.744 OA
ENDBRANCH  74  78
ENDBRANCH  47  71
BRANCH  59  82
ATOM     82  C   UNL A   1      44.963  33.704  29.552  1.00  0.00     0.023 A 
ATOM     83  C   UNL A   1      44.810  34.766  28.645  1.00  0.00     0.031 A 
ATOM     84  C   UNL A   1      45.756  33.912  30.694  1.00  0.00     0.131 A 
ATOM     85  C   UNL A   1      45.481  35.975  28.871  1.00  0.00     0.055 A 
ATOM     86  C   UNL A   1      46.371  35.138  30.945  1.00  0.00     0.041 A 
ATOM     87  F   UNL A   1      45.934  32.929  31.591  1.00  0.00    -0.206 F 
ATOM     88  C   UNL A   1      46.243  36.175  30.025  1.00  0.00     0.022 A 
BRANCH  85  89
ATOM     89  S   UNL A   1      45.404  37.262  27.596  1.00  0.00     0.124 S 
ATOM     90  O   UNL A   1      45.523  38.480  28.390  1.00  0.00    -0.237 OA
ATOM     91  O   UNL A   1      46.550  36.937  26.752  1.00  0.00    -0.237 OA
ATOM     92  O   UNL A   1      44.099  37.050  26.974  1.00  0.00    -0.744 OA
ENDBRANCH  85  89
ENDBRANCH  59  82
ENDBRANCH  33  34
ENDBRANCH  26  28
ENDBRANCH  25  26
ENDBRANCH  24  25
ENDBRANCH   1  24
TORSDOF 19
ENDMDL
MODEL 3
REMARK VINA RESULT:     -11.1      4.994      9.788
REMARK SMILES C=C(C(=O)OCCOCCOC(=O)c1ccc(-c2c3nc(c(-c4cc(S(=O)(=O)[O-])ccc4F)c4ccc([nH]4)c(-c4cc(S(=O)(=O)[O-])ccc4F)c4nc(c(-c5cc(S(=O)(=O)[O-])ccc5F)c5ccc2[nH]5)C=C4)C=C3)cc1)[C@@H]1CC[C@]2(C)C[C@@H](O)CC(=C)[C@H]2C1
REMARK SMILES IDX 9 1 8 2 7 3 6 4 5 5 3 6 4 7 2 8 1 9 77 10 78 11 89 12 79 13
REMARK SMILES IDX 88 14 80 15 86 16 81 17 82 18 85 19 87 20 83 21 84 22 10 24
REMARK SMILES IDX 11 25 12 26 13 27 14 28 15 29 76 30 16 31 75 32 17 33 18 34
REMARK SMILES IDX 19 35 69 36 20 37 74 38 68 39 70 40 21 41 73 42 67 43 66 44
REMARK SMILES IDX 22 46 54 47 34 48 53 49 35 50 38 51 52 52 71 53 36 54 37 55
REMARK SMILES IDX 51 57 72 58 39 59 23 60 24 61 32 62 25 63 31 64 33 65 30 66
REMARK SMILES IDX 26 67 27 68 28 69 29 70 55 71 56 72 64 73 57 74 63 75 65 76
REMARK SMILES IDX 62 77 58 78 59 79 60 80 61 81 40 82 41 83 49 84 42 85 48 86
REMARK SMILES IDX 50 87 47 88 43 89 44 90 45 91 46 92
REMARK H PARENT 84 23 70 45 38 56
REMARK Flexibility Score: inf
ROOT
ATOM      1  C   UNL A   1      36.555  22.523  23.815  1.00  0.00     0.202 C 
ENDROOT
BRANCH   1   2
ATOM      2  O   UNL A   1      36.268  23.681  24.589  1.00  0.00    -0.374 OA
BRANCH   2   3
ATOM      3  C   UNL A   1      34.896  23.902  24.932  1.00  0.00     0.202 C 
BRANCH   3   4
ATOM      4  C   UNL A   1      34.513  23.583  26.380  1.00  0.00     0.261 C 
BRANCH   4   5
ATOM      5  O   UNL A   1      33.629  22.453  26.383  1.00  0.00    -0.460 OA
BRANCH   5   6
ATOM      6  C   UNL A   1      32.316  22.716  26.593  1.00  0.00     0.333 C 
ATOM      7  O   UNL A   1      31.791  22.920  27.673  1.00  0.00    -0.247 OA
BRANCH   6   8
ATOM      8  C   UNL A   1      31.623  22.833  25.273  1.00  0.00     0.033 C 
ATOM      9  C   UNL A   1      31.779  21.783  24.440  1.00  0.00     0.020 C 
BRANCH   8  10
ATOM     10  C   UNL A   1      30.701  24.021  24.974  1.00  0.00     0.026 C 
ATOM     11  C   UNL A   1      30.646  24.419  23.473  1.00  0.00     0.009 C 
ATOM     12  C   UNL A   1      30.882  25.309  25.822  1.00  0.00     0.017 C 
ATOM     13  C   UNL A   1      31.764  25.363  23.012  1.00  0.00     0.008 C 
ATOM     14  C   UNL A   1      32.073  26.178  25.366  1.00  0.00     0.021 C 
ATOM     15  C   UNL A   1      31.918  26.639  23.885  1.00  0.00    -0.024 C 
ATOM     16  C   UNL A   1      32.445  27.362  26.242  1.00  0.00    -0.071 C 
ATOM     17  C   UNL A   1      30.675  27.540  23.682  1.00  0.00     0.012 C 
ATOM     18  C   UNL A   1      33.174  27.437  23.398  1.00  0.00     0.039 C 
ATOM     19  C   UNL A   1      33.772  27.981  25.854  1.00  0.00     0.062 C 
ATOM     20  C   UNL A   1      31.722  27.837  27.268  1.00  0.00     0.008 C 
ATOM     21  C   UNL A   1      33.762  28.454  24.393  1.00  0.00     0.119 C 
BRANCH  21  22
ATOM     22  O   UNL A   1      33.063  29.697  24.277  1.00  0.00    -0.393 OA
ATOM     23  H   UNL A   1      33.679  30.430  24.431  1.00  0.00     0.210 HD
ENDBRANCH  21  22
ENDBRANCH   8  10
ENDBRANCH   6   8
ENDBRANCH   5   6
ENDBRANCH   4   5
ENDBRANCH   3   4
ENDBRANCH   2   3
ENDBRANCH   1   2
BRANCH   1  24
ATOM     24  C   UNL A   1      37.014  21.254  24.532  1.00  0.00     0.261 C 
BRANCH  24  25
ATOM     25  O   UNL A   1      37.481  21.521  25.847  1.00  0.00    -0.460 OA
BRANCH  25  26
ATOM     26  C   UNL A   1      38.773  21.162  26.047  1.00  0.00     0.338 C 
ATOM     27  O   UNL A   1      39.312  20.112  25.745  1.00  0.00    -0.246 OA
BRANCH  26  28
ATOM     28  C   UNL A   1      39.478  22.361  26.516  1.00  0.00     0.060 A 
ATOM     29  C   UNL A   1      39.126  23.591  25.947  1.00  0.00     0.016 A 
ATOM     30  C   UNL A   1      40.411  22.277  27.552  1.00  0.00     0.016 A 
ATOM     31  C   UNL A   1      39.716  24.756  26.419  1.00  0.00     0.010 A 
ATOM     32  C   UNL A   1      41.011  23.442  28.013  1.00  0.00     0.010 A 
ATOM     33  C   UNL A   1      40.674  24.679  27.437  1.00  0.00    -0.014 A 
BRANCH  33  34
ATOM     34  C   UNL A   1      41.444  25.875  27.825  1.00  0.00     0.031 A 
ATOM     35  C   UNL A   1      40.720  26.963  28.559  1.00  0.00     0.074 A 
ATOM     36  C   UNL A   1      42.734  25.991  27.469  1.00  0.00     0.049 A 
ATOM     37  N   UNL A   1      41.132  28.158  28.882  1.00  0.00    -0.248 NA
ATOM     38  C   UNL A   1      39.335  26.669  28.970  1.00  0.00     0.031 C 
ATOM     39  C   UNL A   1      43.513  24.964  26.774  1.00  0.00     0.029 A 
ATOM     40  N   UNL A   1      43.610  27.034  27.616  1.00  0.00    -0.354 N 
ATOM     41  C   UNL A   1      40.056  28.766  29.515  1.00  0.00     0.074 A 
ATOM     42  C   UNL A   1      38.966  27.816  29.517  1.00  0.00     0.031 C 
ATOM     43  C   UNL A   1      44.744  25.444  26.526  1.00  0.00     0.029 A 
ATOM     44  C   UNL A   1      44.822  26.823  27.002  1.00  0.00     0.049 A 
ATOM     45  H   UNL A   1      43.392  27.856  28.113  1.00  0.00     0.167 HD
ATOM     46  C   UNL A   1      39.994  30.012  30.040  1.00  0.00     0.034 A 
ATOM     47  C   UNL A   1      45.854  27.670  26.810  1.00  0.00     0.034 A 
ATOM     48  C   UNL A   1      41.102  30.931  30.015  1.00  0.00     0.049 A 
ATOM     49  C   UNL A   1      45.729  29.077  27.351  1.00  0.00     0.074 A 
ATOM     50  C   UNL A   1      41.182  32.194  30.570  1.00  0.00     0.029 A 
ATOM     51  N   UNL A   1      42.314  30.691  29.382  1.00  0.00    -0.354 N 
ATOM     52  N   UNL A   1      44.729  29.624  28.005  1.00  0.00    -0.248 NA
ATOM     53  C   UNL A   1      46.867  29.978  27.133  1.00  0.00     0.031 C 
ATOM     54  C   UNL A   1      42.410  32.750  30.201  1.00  0.00     0.029 A 
ATOM     55  C   UNL A   1      43.130  31.804  29.486  1.00  0.00     0.049 A 
ATOM     56  H   UNL A   1      42.557  29.854  28.926  1.00  0.00     0.167 HD
ATOM     57  C   UNL A   1      45.130  30.926  28.295  1.00  0.00     0.074 A 
ATOM     58  C   UNL A   1      46.471  31.071  27.765  1.00  0.00     0.031 C 
ATOM     59  C   UNL A   1      44.460  31.916  28.937  1.00  0.00     0.034 A 
BRANCH  46  60
ATOM     60  C   UNL A   1      38.682  30.467  30.623  1.00  0.00     0.023 A 
ATOM     61  C   UNL A   1      37.722  31.151  29.857  1.00  0.00     0.031 A 
ATOM     62  C   UNL A   1      38.386  30.200  31.970  1.00  0.00     0.131 A 
ATOM     63  C   UNL A   1      36.529  31.580  30.456  1.00  0.00     0.055 A 
ATOM     64  C   UNL A   1      37.168  30.571  32.544  1.00  0.00     0.041 A 
ATOM     65  F   UNL A   1      39.279  29.577  32.756  1.00  0.00    -0.206 F 
ATOM     66  C   UNL A   1      36.234  31.272  31.787  1.00  0.00     0.022 A 
BRANCH  63  67
ATOM     67  S   UNL A   1      35.400  32.629  29.500  1.00  0.00     0.124 S 
ATOM     68  O   UNL A   1      35.026  31.737  28.404  1.00  0.00    -0.237 OA
ATOM     69  O   UNL A   1      34.350  32.928  30.467  1.00  0.00    -0.237 OA
ATOM     70  O   UNL A   1      36.232  33.766  29.112  1.00  0.00    -0.744 OA
ENDBRANCH  63  67
ENDBRANCH  46  60
BRANCH  47  71
ATOM     71  C   UNL A   1      47.053  27.257  26.023  1.00  0.00     0.023 A 
ATOM     72  C   UNL A   1      48.123  26.583  26.632  1.00  0.00     0.031 A 
ATOM     73  C   UNL A   1      47.184  27.603  24.666  1.00  0.00     0.131 A 
ATOM     74  C   UNL A   1      49.301  26.338  25.908  1.00  0.00     0.055 A 
ATOM     75  C   UNL A   1      48.332  27.297  23.931  1.00  0.00     0.041 A 
ATOM     76  F   UNL A   1      46.195  28.251  24.030  1.00  0.00    -0.206 F 
ATOM     77  C   UNL A   1      49.407  26.678  24.558  1.00  0.00     0.022 A 
BRANCH  74  78
ATOM     78  S   UNL A   1      50.741  25.683  26.795  1.00  0.00     0.124 S 
ATOM     79  O   UNL A   1      51.026  26.761  27.734  1.00  0.00    -0.237 OA
ATOM     80  O   UNL A   1      50.207  24.454  27.371  1.00  0.00    -0.237 OA
ATOM     81  O   UNL A   1      51.734  25.495  25.739  1.00  0.00    -0.744 OA
ENDBRANCH  74  78
ENDBRANCH  47  71
BRANCH  59  82
ATOM     82  C   UNL A   1      45.185  33.224  29.123  1.00  0.00     0.023 A 
ATOM     83  C   UNL A   1      45.021  34.289  28.222  1.00  0.00     0.031 A 
ATOM     84  C   UNL A   1      46.038  33.409  30.226  1.00  0.00     0.131 A 
ATOM     85  C   UNL A   1      45.739  35.477  28.412  1.00  0.00     0.055 A 
ATOM     86  C   UNL A   1      46.700  34.617  30.444  1.00  0.00     0.041 A 
ATOM     87  F   UNL A   1      46.229  32.423  31.116  1.00  0.00    -0.206 F 
ATOM     88  C   UNL A   1      46.561  35.656  29.529  1.00  0.00     0.022 A 
BRANCH  85  89
ATOM     89  S   UNL A   1      45.641  36.765  27.139  1.00  0.00     0.124 S 
ATOM     90  O   UNL A   1      46.260  37.902  27.811  1.00  0.00    -0.237 OA
ATOM     91  O   UNL A   1      46.403  36.180  26.041  1.00  0.00    -0.237 OA
ATOM     92  O   UNL A   1      44.206  36.895  26.895  1.00  0.00    -0.744 OA
ENDBRANCH  85  89
ENDBRANCH  59  82
ENDBRANCH  33  34
ENDBRANCH  26  28
ENDBRANCH  25  26
ENDBRANCH  24  25
ENDBRANCH   1  24
TORSDOF 19
ENDMDL
