MODEL 1
REMARK VINA RESULT:     -10.7      0.000      0.000
REMARK SMILES O=C(OCCOCCOC(=O)c1cccc(NC(=S)N/N=C\c2c[nH]c3ccccc23)c1)c1ccc(-c2c3nc(c(-c4cc(S(=O)(=O)[O-])ccc4F)c4ccc([nH]4)c(-c4cc(S(=O)(=O)[O-])ccc4F)c4nc(c(-c5cc(S(=O)(=O)[O-])ccc5F)c5ccc2[nH]5)C=C4)C=C3)cc1
REMARK SMILES IDX 7 1 6 2 5 3 4 4 3 5 2 6 1 7 33 8 34 9 95 10 35 11 94 12
REMARK SMILES IDX 36 13 37 14 38 15 88 16 39 17 93 18 87 19 89 20 40 21 92 22
REMARK SMILES IDX 86 23 85 24 41 26 73 27 53 28 72 29 54 30 57 31 71 32 90 33
REMARK SMILES IDX 55 34 56 35 70 37 91 38 58 39 42 40 43 41 51 42 44 43 50 44
REMARK SMILES IDX 52 45 49 46 45 47 46 48 47 49 48 50 74 51 75 52 83 53 76 54
REMARK SMILES IDX 82 55 84 56 81 57 77 58 78 59 79 60 80 61 59 62 60 63 68 64
REMARK SMILES IDX 61 65 67 66 69 67 66 68 62 69 63 70 64 71 65 72 8 73 9 74
REMARK SMILES IDX 10 75 11 76 12 77 13 78 32 79 14 80 16 81 15 82 17 83 18 85
REMARK SMILES IDX 19 86 20 87 21 89 22 90 23 91 24 92 31 93 25 94 26 95 30 96
REMARK SMILES IDX 27 98 29 99 28 100
REMARK H PARENT 89 25 57 36 17 84 20 88 25 97
REMARK Flexibility Score: inf
ROOT
ATOM      1  C   UNL A   1      35.444  33.452  28.093  1.00  0.00     0.202 C 
ENDROOT
BRANCH   1   2
ATOM      2  O   UNL A   1      34.872  34.693  28.525  1.00  0.00    -0.374 OA
BRANCH   2   3
ATOM      3  C   UNL A   1      33.470  34.694  28.805  1.00  0.00     0.202 C 
BRANCH   3   4
ATOM      4  C   UNL A   1      32.864  36.025  29.254  1.00  0.00     0.261 C 
BRANCH   4   5
ATOM      5  O   UNL A   1      33.140  36.252  30.643  1.00  0.00    -0.460 OA
BRANCH   5   6
ATOM      6  C   UNL A   1      33.147  35.328  31.633  1.00  0.00     0.338 C 
ATOM      7  O   UNL A   1      32.105  35.113  32.248  1.00  0.00    -0.246 OA
BRANCH   6   8
ATOM      8  C   UNL A   1      34.370  34.570  32.025  1.00  0.00     0.060 A 
ATOM      9  C   UNL A   1      34.375  33.223  32.389  1.00  0.00     0.016 A 
ATOM     10  C   UNL A   1      35.603  35.231  31.925  1.00  0.00     0.016 A 
ATOM     11  C   UNL A   1      35.540  32.556  32.708  1.00  0.00     0.010 A 
ATOM     12  C   UNL A   1      36.796  34.551  32.191  1.00  0.00     0.010 A 
ATOM     13  C   UNL A   1      36.758  33.211  32.589  1.00  0.00    -0.014 A 
BRANCH  13  14
ATOM     14  C   UNL A   1      37.956  32.459  32.988  1.00  0.00     0.031 A 
ATOM     15  C   UNL A   1      38.520  32.712  34.348  1.00  0.00     0.074 A 
ATOM     16  C   UNL A   1      38.398  31.466  32.196  1.00  0.00     0.049 A 
ATOM     17  N   UNL A   1      39.588  32.215  34.904  1.00  0.00    -0.248 NA
ATOM     18  C   UNL A   1      37.765  33.642  35.203  1.00  0.00     0.031 C 
ATOM     19  C   UNL A   1      37.779  31.062  30.929  1.00  0.00     0.029 A 
ATOM     20  N   UNL A   1      39.434  30.589  32.352  1.00  0.00    -0.354 N 
ATOM     21  C   UNL A   1      39.654  32.795  36.165  1.00  0.00     0.074 A 
ATOM     22  C   UNL A   1      38.523  33.688  36.286  1.00  0.00     0.031 C 
ATOM     23  C   UNL A   1      38.436  30.000  30.437  1.00  0.00     0.029 A 
ATOM     24  C   UNL A   1      39.573  29.710  31.301  1.00  0.00     0.049 A 
ATOM     25  H   UNL A   1      40.025  30.585  33.139  1.00  0.00     0.167 HD
ATOM     26  C   UNL A   1      40.592  32.594  37.121  1.00  0.00     0.034 A 
ATOM     27  C   UNL A   1      40.545  28.813  31.053  1.00  0.00     0.034 A 
ATOM     28  C   UNL A   1      41.705  31.701  36.930  1.00  0.00     0.049 A 
ATOM     29  C   UNL A   1      41.654  28.711  32.071  1.00  0.00     0.074 A 
ATOM     30  C   UNL A   1      42.781  31.462  37.765  1.00  0.00     0.029 A 
ATOM     31  N   UNL A   1      41.884  30.895  35.807  1.00  0.00    -0.354 N 
ATOM     32  N   UNL A   1      41.779  29.339  33.220  1.00  0.00    -0.248 NA
ATOM     33  C   UNL A   1      42.756  27.798  31.759  1.00  0.00     0.031 C 
ATOM     34  C   UNL A   1      43.642  30.571  37.114  1.00  0.00     0.029 A 
ATOM     35  C   UNL A   1      43.065  30.182  35.913  1.00  0.00     0.049 A 
ATOM     36  H   UNL A   1      41.261  30.842  35.047  1.00  0.00     0.167 HD
ATOM     37  C   UNL A   1      42.964  28.878  33.781  1.00  0.00     0.074 A 
ATOM     38  C   UNL A   1      43.501  27.903  32.849  1.00  0.00     0.031 C 
ATOM     39  C   UNL A   1      43.560  29.221  34.952  1.00  0.00     0.034 A 
BRANCH  26  40
ATOM     40  C   UNL A   1      40.489  33.441  38.364  1.00  0.00     0.023 A 
ATOM     41  C   UNL A   1      39.540  33.182  39.369  1.00  0.00     0.031 A 
ATOM     42  C   UNL A   1      41.282  34.595  38.491  1.00  0.00     0.131 A 
ATOM     43  C   UNL A   1      39.347  34.110  40.405  1.00  0.00     0.055 A 
ATOM     44  C   UNL A   1      41.146  35.469  39.572  1.00  0.00     0.041 A 
ATOM     45  F   UNL A   1      42.179  34.916  37.546  1.00  0.00    -0.206 F 
ATOM     46  C   UNL A   1      40.161  35.239  40.527  1.00  0.00     0.022 A 
BRANCH  43  47
ATOM     47  S   UNL A   1      37.902  33.917  41.487  1.00  0.00     0.124 S 
ATOM     48  O   UNL A   1      38.443  33.077  42.553  1.00  0.00    -0.237 OA
ATOM     49  O   UNL A   1      37.594  35.294  41.853  1.00  0.00    -0.237 OA
ATOM     50  O   UNL A   1      36.915  33.263  40.630  1.00  0.00    -0.744 OA
ENDBRANCH  43  47
ENDBRANCH  26  40
BRANCH  27  51
ATOM     51  C   UNL A   1      40.566  28.026  29.784  1.00  0.00     0.023 A 
ATOM     52  C   UNL A   1      41.498  28.293  28.770  1.00  0.00     0.031 A 
ATOM     53  C   UNL A   1      39.606  27.022  29.541  1.00  0.00     0.131 A 
ATOM     54  C   UNL A   1      41.422  27.604  27.548  1.00  0.00     0.055 A 
ATOM     55  C   UNL A   1      39.575  26.296  28.349  1.00  0.00     0.041 A 
ATOM     56  F   UNL A   1      38.679  26.726  30.466  1.00  0.00    -0.206 F 
ATOM     57  C   UNL A   1      40.478  26.597  27.336  1.00  0.00     0.022 A 
BRANCH  54  58
ATOM     58  S   UNL A   1      42.510  28.119  26.190  1.00  0.00     0.124 S 
ATOM     59  O   UNL A   1      43.800  27.603  26.631  1.00  0.00    -0.237 OA
ATOM     60  O   UNL A   1      41.907  27.446  25.044  1.00  0.00    -0.237 OA
ATOM     61  O   UNL A   1      42.388  29.576  26.189  1.00  0.00    -0.744 OA
ENDBRANCH  54  58
ENDBRANCH  27  51
BRANCH  39  62
ATOM     62  C   UNL A   1      44.832  28.492  35.296  1.00  0.00     0.023 A 
ATOM     63  C   UNL A   1      46.091  28.986  34.917  1.00  0.00     0.031 A 
ATOM     64  C   UNL A   1      44.776  27.286  36.015  1.00  0.00     0.131 A 
ATOM     65  C   UNL A   1      47.242  28.242  35.208  1.00  0.00     0.055 A 
ATOM     66  C   UNL A   1      45.931  26.588  36.364  1.00  0.00     0.041 A 
ATOM     67  F   UNL A   1      43.596  26.771  36.398  1.00  0.00    -0.206 F 
ATOM     68  C   UNL A   1      47.173  27.059  35.947  1.00  0.00     0.022 A 
BRANCH  65  69
ATOM     69  S   UNL A   1      48.825  28.793  34.516  1.00  0.00     0.124 S 
ATOM     70  O   UNL A   1      49.090  30.001  35.291  1.00  0.00    -0.237 OA
ATOM     71  O   UNL A   1      49.698  27.656  34.791  1.00  0.00    -0.237 OA
ATOM     72  O   UNL A   1      48.522  29.014  33.104  1.00  0.00    -0.744 OA
ENDBRANCH  65  69
ENDBRANCH  39  62
ENDBRANCH  13  14
ENDBRANCH   6   8
ENDBRANCH   5   6
ENDBRANCH   4   5
ENDBRANCH   3   4
ENDBRANCH   2   3
ENDBRANCH   1   2
BRANCH   1  73
ATOM     73  C   UNL A   1      34.650  32.288  28.705  1.00  0.00     0.261 C 
BRANCH  73  74
ATOM     74  O   UNL A   1      34.005  31.577  27.638  1.00  0.00    -0.460 OA
BRANCH  74  75
ATOM     75  C   UNL A   1      34.503  30.318  27.456  1.00  0.00     0.338 C 
ATOM     76  O   UNL A   1      35.529  29.876  27.904  1.00  0.00    -0.246 OA
BRANCH  75  77
ATOM     77  C   UNL A   1      33.442  29.504  26.802  1.00  0.00     0.062 A 
ATOM     78  C   UNL A   1      33.221  28.203  27.274  1.00  0.00     0.016 A 
ATOM     79  C   UNL A   1      32.584  30.056  25.848  1.00  0.00     0.041 A 
ATOM     80  C   UNL A   1      32.119  27.476  26.827  1.00  0.00     0.003 A 
ATOM     81  C   UNL A   1      31.550  29.283  25.330  1.00  0.00     0.041 A 
ATOM     82  C   UNL A   1      31.285  28.018  25.856  1.00  0.00     0.026 A 
BRANCH  81  83
ATOM     83  N   UNL A   1      30.774  29.805  24.293  1.00  0.00    -0.331 N 
ATOM     84  H   UNL A   1      30.348  30.675  24.465  1.00  0.00     0.169 HD
BRANCH  83  85
ATOM     85  C   UNL A   1      30.536  29.253  23.072  1.00  0.00     0.191 C 
ATOM     86  S   UNL A   1      29.013  29.455  22.393  1.00  0.00    -0.039 S 
BRANCH  85  87
ATOM     87  N   UNL A   1      31.535  28.685  22.321  1.00  0.00    -0.254 N 
ATOM     88  H   UNL A   1      31.240  28.036  21.642  1.00  0.00     0.193 HD
BRANCH  87  89
ATOM     89  N   UNL A   1      32.895  28.901  22.390  1.00  0.00    -0.181 NA
ATOM     90  C   UNL A   1      33.746  27.904  22.444  1.00  0.00     0.143 C 
BRANCH  90  91
ATOM     91  C   UNL A   1      33.393  26.489  22.385  1.00  0.00     0.020 A 
ATOM     92  C   UNL A   1      32.943  25.890  21.224  1.00  0.00     0.093 A 
ATOM     93  C   UNL A   1      32.816  25.651  23.376  1.00  0.00     0.008 A 
ATOM     94  N   UNL A   1      31.646  25.540  21.544  1.00  0.00    -0.361 N 
ATOM     95  C   UNL A   1      31.522  25.465  22.910  1.00  0.00     0.046 A 
ATOM     96  C   UNL A   1      33.204  24.883  24.483  1.00  0.00     0.011 A 
ATOM     97  H   UNL A   1      30.925  25.372  20.896  1.00  0.00     0.166 HD
ATOM     98  C   UNL A   1      30.462  25.073  23.710  1.00  0.00     0.027 A 
ATOM     99  C   UNL A   1      32.196  24.174  25.159  1.00  0.00     0.001 A 
ATOM    100  C   UNL A   1      30.843  24.370  24.850  1.00  0.00     0.002 A 
ENDBRANCH  90  91
ENDBRANCH  87  89
ENDBRANCH  85  87
ENDBRANCH  83  85
ENDBRANCH  81  83
ENDBRANCH  75  77
ENDBRANCH  74  75
ENDBRANCH  73  74
ENDBRANCH   1  73
TORSDOF 22
ENDMDL
MODEL 2
REMARK VINA RESULT:     -10.6      4.187      9.951
REMARK SMILES O=C(OCCOCCOC(=O)c1cccc(NC(=S)N/N=C\c2c[nH]c3ccccc23)c1)c1ccc(-c2c3nc(c(-c4cc(S(=O)(=O)[O-])ccc4F)c4ccc([nH]4)c(-c4cc(S(=O)(=O)[O-])ccc4F)c4nc(c(-c5cc(S(=O)(=O)[O-])ccc5F)c5ccc2[nH]5)C=C4)C=C3)cc1
REMARK SMILES IDX 7 1 6 2 5 3 4 4 3 5 2 6 1 7 33 8 34 9 95 10 35 11 94 12
REMARK SMILES IDX 36 13 37 14 38 15 88 16 39 17 93 18 87 19 89 20 40 21 92 22
REMARK SMILES IDX 86 23 85 24 41 26 73 27 53 28 72 29 54 30 57 31 71 32 90 33
REMARK SMILES IDX 55 34 56 35 70 37 91 38 58 39 42 40 43 41 51 42 44 43 50 44
REMARK SMILES IDX 52 45 49 46 45 47 46 48 47 49 48 50 74 51 75 52 83 53 76 54
REMARK SMILES IDX 82 55 84 56 81 57 77 58 78 59 79 60 80 61 59 62 60 63 68 64
REMARK SMILES IDX 61 65 67 66 69 67 66 68 62 69 63 70 64 71 65 72 8 73 9 74
REMARK SMILES IDX 10 75 11 76 12 77 13 78 32 79 14 80 16 81 15 82 17 83 18 85
REMARK SMILES IDX 19 86 20 87 21 89 22 90 23 91 24 92 31 93 25 94 26 95 30 96
REMARK SMILES IDX 27 98 29 99 28 100
REMARK H PARENT 89 25 57 36 17 84 20 88 25 97
REMARK Flexibility Score: inf
ROOT
ATOM      1  C   UNL A   1      45.015  19.174  23.838  1.00  0.00     0.202 C 
ENDROOT
BRANCH   1   2
ATOM      2  O   UNL A   1      44.540  20.476  23.477  1.00  0.00    -0.374 OA
BRANCH   2   3
ATOM      3  C   UNL A   1      44.795  21.536  24.403  1.00  0.00     0.202 C 
BRANCH   3   4
ATOM      4  C   UNL A   1      43.570  22.259  24.966  1.00  0.00     0.261 C 
BRANCH   4   5
ATOM      5  O   UNL A   1      43.543  23.618  24.508  1.00  0.00    -0.460 OA
BRANCH   5   6
ATOM      6  C   UNL A   1      44.229  24.665  25.023  1.00  0.00     0.338 C 
ATOM      7  O   UNL A   1      45.338  24.930  24.563  1.00  0.00    -0.246 OA
BRANCH   6   8
ATOM      8  C   UNL A   1      43.707  25.506  26.140  1.00  0.00     0.060 A 
ATOM      9  C   UNL A   1      43.944  26.874  26.268  1.00  0.00     0.016 A 
ATOM     10  C   UNL A   1      42.845  24.896  27.062  1.00  0.00     0.016 A 
ATOM     11  C   UNL A   1      43.407  27.615  27.301  1.00  0.00     0.010 A 
ATOM     12  C   UNL A   1      42.249  25.647  28.081  1.00  0.00     0.010 A 
ATOM     13  C   UNL A   1      42.539  27.009  28.199  1.00  0.00    -0.014 A 
BRANCH  13  14
ATOM     14  C   UNL A   1      42.040  27.842  29.302  1.00  0.00     0.031 A 
ATOM     15  C   UNL A   1      42.888  27.966  30.525  1.00  0.00     0.074 A 
ATOM     16  C   UNL A   1      40.935  28.586  29.111  1.00  0.00     0.049 A 
ATOM     17  N   UNL A   1      42.643  28.595  31.639  1.00  0.00    -0.248 NA
ATOM     18  C   UNL A   1      44.199  27.300  30.478  1.00  0.00     0.031 C 
ATOM     19  C   UNL A   1      40.158  28.632  27.867  1.00  0.00     0.029 A 
ATOM     20  N   UNL A   1      40.299  29.473  29.932  1.00  0.00    -0.354 N 
ATOM     21  C   UNL A   1      43.756  28.376  32.441  1.00  0.00     0.074 A 
ATOM     22  C   UNL A   1      44.671  27.548  31.689  1.00  0.00     0.031 C 
ATOM     23  C   UNL A   1      39.163  29.523  28.004  1.00  0.00     0.029 A 
ATOM     24  C   UNL A   1      39.176  30.036  29.367  1.00  0.00     0.049 A 
ATOM     25  H   UNL A   1      40.611  29.689  30.840  1.00  0.00     0.167 HD
ATOM     26  C   UNL A   1      43.972  28.828  33.699  1.00  0.00     0.034 A 
ATOM     27  C   UNL A   1      38.244  30.834  29.920  1.00  0.00     0.034 A 
ATOM     28  C   UNL A   1      43.010  29.638  34.402  1.00  0.00     0.049 A 
ATOM     29  C   UNL A   1      38.439  31.208  31.369  1.00  0.00     0.074 A 
ATOM     30  C   UNL A   1      43.044  30.095  35.706  1.00  0.00     0.029 A 
ATOM     31  N   UNL A   1      41.824  30.112  33.844  1.00  0.00    -0.354 N 
ATOM     32  N   UNL A   1      39.441  30.913  32.169  1.00  0.00    -0.248 NA
ATOM     33  C   UNL A   1      37.380  32.004  31.994  1.00  0.00     0.031 C 
ATOM     34  C   UNL A   1      41.849  30.778  35.956  1.00  0.00     0.029 A 
ATOM     35  C   UNL A   1      41.105  30.828  34.784  1.00  0.00     0.049 A 
ATOM     36  H   UNL A   1      41.537  29.957  32.914  1.00  0.00     0.167 HD
ATOM     37  C   UNL A   1      39.144  31.510  33.388  1.00  0.00     0.074 A 
ATOM     38  C   UNL A   1      37.879  32.198  33.206  1.00  0.00     0.031 C 
ATOM     39  C   UNL A   1      39.842  31.495  34.553  1.00  0.00     0.034 A 
BRANCH  26  40
ATOM     40  C   UNL A   1      45.223  28.348  34.391  1.00  0.00     0.023 A 
ATOM     41  C   UNL A   1      45.223  27.229  35.243  1.00  0.00     0.031 A 
ATOM     42  C   UNL A   1      46.411  29.092  34.283  1.00  0.00     0.131 A 
ATOM     43  C   UNL A   1      46.358  26.942  36.019  1.00  0.00     0.055 A 
ATOM     44  C   UNL A   1      47.564  28.747  34.991  1.00  0.00     0.041 A 
ATOM     45  F   UNL A   1      46.462  30.192  33.515  1.00  0.00    -0.206 F 
ATOM     46  C   UNL A   1      47.537  27.678  35.879  1.00  0.00     0.022 A 
BRANCH  43  47
ATOM     47  S   UNL A   1      46.216  25.706  37.342  1.00  0.00     0.124 S 
ATOM     48  O   UNL A   1      44.890  26.002  37.880  1.00  0.00    -0.237 OA
ATOM     49  O   UNL A   1      46.343  24.449  36.616  1.00  0.00    -0.237 OA
ATOM     50  O   UNL A   1      47.328  26.028  38.234  1.00  0.00    -0.744 OA
ENDBRANCH  43  47
ENDBRANCH  26  40
BRANCH  27  51
ATOM     51  C   UNL A   1      37.031  31.251  29.156  1.00  0.00     0.023 A 
ATOM     52  C   UNL A   1      36.108  30.310  28.673  1.00  0.00     0.031 A 
ATOM     53  C   UNL A   1      36.803  32.606  28.843  1.00  0.00     0.131 A 
ATOM     54  C   UNL A   1      35.035  30.727  27.869  1.00  0.00     0.055 A 
ATOM     55  C   UNL A   1      35.699  33.022  28.097  1.00  0.00     0.041 A 
ATOM     56  F   UNL A   1      37.654  33.555  29.265  1.00  0.00    -0.206 F 
ATOM     57  C   UNL A   1      34.815  32.077  27.591  1.00  0.00     0.022 A 
BRANCH  54  58
ATOM     58  S   UNL A   1      33.985  29.465  27.095  1.00  0.00     0.124 S 
ATOM     59  O   UNL A   1      33.594  30.124  25.855  1.00  0.00    -0.237 OA
ATOM     60  O   UNL A   1      34.906  28.342  26.963  1.00  0.00    -0.237 OA
ATOM     61  O   UNL A   1      32.909  29.275  28.067  1.00  0.00    -0.744 OA
ENDBRANCH  54  58
ENDBRANCH  27  51
BRANCH  39  62
ATOM     62  C   UNL A   1      39.263  32.291  35.693  1.00  0.00     0.023 A 
ATOM     63  C   UNL A   1      39.661  33.613  35.946  1.00  0.00     0.031 A 
ATOM     64  C   UNL A   1      38.297  31.711  36.533  1.00  0.00     0.131 A 
ATOM     65  C   UNL A   1      39.138  34.294  37.053  1.00  0.00     0.055 A 
ATOM     66  C   UNL A   1      37.728  32.420  37.590  1.00  0.00     0.041 A 
ATOM     67  F   UNL A   1      37.886  30.449  36.334  1.00  0.00    -0.206 F 
ATOM     68  C   UNL A   1      38.158  33.714  37.864  1.00  0.00     0.022 A 
BRANCH  65  69
ATOM     69  S   UNL A   1      39.832  35.914  37.480  1.00  0.00     0.124 S 
ATOM     70  O   UNL A   1      41.227  35.583  37.751  1.00  0.00    -0.237 OA
ATOM     71  O   UNL A   1      39.586  36.688  36.269  1.00  0.00    -0.237 OA
ATOM     72  O   UNL A   1      39.052  36.323  38.646  1.00  0.00    -0.744 OA
ENDBRANCH  65  69
ENDBRANCH  39  62
ENDBRANCH  13  14
ENDBRANCH   6   8
ENDBRANCH   5   6
ENDBRANCH   4   5
ENDBRANCH   3   4
ENDBRANCH   2   3
ENDBRANCH   1   2
BRANCH   1  73
ATOM     73  C   UNL A   1      44.518  18.826  25.250  1.00  0.00     0.261 C 
BRANCH  73  74
ATOM     74  O   UNL A   1      43.083  18.842  25.234  1.00  0.00    -0.460 OA
BRANCH  74  75
ATOM     75  C   UNL A   1      42.532  18.656  26.470  1.00  0.00     0.338 C 
ATOM     76  O   UNL A   1      42.834  17.813  27.274  1.00  0.00    -0.246 OA
BRANCH  75  77
ATOM     77  C   UNL A   1      41.653  19.823  26.752  1.00  0.00     0.062 A 
ATOM     78  C   UNL A   1      42.050  20.724  27.750  1.00  0.00     0.016 A 
ATOM     79  C   UNL A   1      40.542  20.109  25.955  1.00  0.00     0.041 A 
ATOM     80  C   UNL A   1      41.365  21.926  27.917  1.00  0.00     0.003 A 
ATOM     81  C   UNL A   1      39.802  21.261  26.201  1.00  0.00     0.041 A 
ATOM     82  C   UNL A   1      40.243  22.192  27.142  1.00  0.00     0.026 A 
BRANCH  81  83
ATOM     83  N   UNL A   1      38.628  21.474  25.477  1.00  0.00    -0.331 N 
ATOM     84  H   UNL A   1      38.573  21.032  24.599  1.00  0.00     0.169 HD
BRANCH  83  85
ATOM     85  C   UNL A   1      37.548  22.219  25.840  1.00  0.00     0.191 C 
ATOM     86  S   UNL A   1      37.557  23.858  25.477  1.00  0.00    -0.039 S 
BRANCH  85  87
ATOM     87  N   UNL A   1      36.405  21.649  26.343  1.00  0.00    -0.254 N 
ATOM     88  H   UNL A   1      36.260  21.767  27.310  1.00  0.00     0.193 HD
BRANCH  87  89
ATOM     89  N   UNL A   1      35.431  20.935  25.676  1.00  0.00    -0.181 NA
ATOM     90  C   UNL A   1      34.160  21.232  25.795  1.00  0.00     0.143 C 
BRANCH  90  91
ATOM     91  C   UNL A   1      33.622  22.345  26.572  1.00  0.00     0.020 A 
ATOM     92  C   UNL A   1      32.826  22.150  27.684  1.00  0.00     0.093 A 
ATOM     93  C   UNL A   1      33.204  23.635  26.149  1.00  0.00     0.008 A 
ATOM     94  N   UNL A   1      31.614  22.681  27.288  1.00  0.00    -0.361 N 
ATOM     95  C   UNL A   1      31.822  23.563  26.256  1.00  0.00     0.046 A 
ATOM     96  C   UNL A   1      33.750  24.893  25.861  1.00  0.00     0.011 A 
ATOM     97  H   UNL A   1      30.739  22.460  27.682  1.00  0.00     0.166 HD
ATOM     98  C   UNL A   1      30.950  24.404  25.584  1.00  0.00     0.027 A 
ATOM     99  C   UNL A   1      32.856  25.911  25.483  1.00  0.00     0.001 A 
ATOM    100  C   UNL A   1      31.507  25.631  25.232  1.00  0.00     0.002 A 
ENDBRANCH  90  91
ENDBRANCH  87  89
ENDBRANCH  85  87
ENDBRANCH  83  85
ENDBRANCH  81  83
ENDBRANCH  75  77
ENDBRANCH  74  75
ENDBRANCH  73  74
ENDBRANCH   1  73
TORSDOF 22
ENDMDL
MODEL 3
REMARK VINA RESULT:     -10.5      5.848     11.525
REMARK SMILES O=C(OCCOCCOC(=O)c1cccc(NC(=S)N/N=C\c2c[nH]c3ccccc23)c1)c1ccc(-c2c3nc(c(-c4cc(S(=O)(=O)[O-])ccc4F)c4ccc([nH]4)c(-c4cc(S(=O)(=O)[O-])ccc4F)c4nc(c(-c5cc(S(=O)(=O)[O-])ccc5F)c5ccc2[nH]5)C=C4)C=C3)cc1
REMARK SMILES IDX 7 1 6 2 5 3 4 4 3 5 2 6 1 7 33 8 34 9 95 10 35 11 94 12
REMARK SMILES IDX 36 13 37 14 38 15 88 16 39 17 93 18 87 19 89 20 40 21 92 22
REMARK SMILES IDX 86 23 85 24 41 26 73 27 53 28 72 29 54 30 57 31 71 32 90 33
REMARK SMILES IDX 55 34 56 35 70 37 91 38 58 39 42 40 43 41 51 42 44 43 50 44
REMARK SMILES IDX 52 45 49 46 45 47 46 48 47 49 48 50 74 51 75 52 83 53 76 54
REMARK SMILES IDX 82 55 84 56 81 57 77 58 78 59 79 60 80 61 59 62 60 63 68 64
REMARK SMILES IDX 61 65 67 66 69 67 66 68 62 69 63 70 64 71 65 72 8 73 9 74
REMARK SMILES IDX 10 75 11 76 12 77 13 78 32 79 14 80 16 81 15 82 17 83 18 85
REMARK SMILES IDX 19 86 20 87 21 89 22 90 23 91 24 92 31 93 25 94 26 95 30 96
REMARK SMILES IDX 27 98 29 99 28 100
REMARK H PARENT 89 25 57 36 17 84 20 88 25 97
REMARK Flexibility Score: inf
ROOT
ATOM      1  C   UNL A   1      36.363  21.258  25.069  1.00  0.00     0.202 C 
ENDROOT
BRANCH   1   2
ATOM      2  O   UNL A   1      37.733  20.972  24.761  1.00  0.00    -0.374 OA
BRANCH   2   3
ATOM      3  C   UNL A   1      38.570  20.579  25.852  1.00  0.00     0.202 C 
BRANCH   3   4
ATOM      4  C   UNL A   1      39.317  19.253  25.697  1.00  0.00     0.261 C 
BRANCH   4   5
ATOM      5  O   UNL A   1      40.733  19.482  25.668  1.00  0.00    -0.460 OA
BRANCH   5   6
ATOM      6  C   UNL A   1      41.507  19.923  26.689  1.00  0.00     0.338 C 
ATOM      7  O   UNL A   1      41.965  19.101  27.481  1.00  0.00    -0.246 OA
BRANCH   6   8
ATOM      8  C   UNL A   1      41.817  21.366  26.907  1.00  0.00     0.060 A 
ATOM      9  C   UNL A   1      41.627  22.362  25.950  1.00  0.00     0.016 A 
ATOM     10  C   UNL A   1      42.232  21.753  28.190  1.00  0.00     0.016 A 
ATOM     11  C   UNL A   1      41.895  23.690  26.214  1.00  0.00     0.010 A 
ATOM     12  C   UNL A   1      42.452  23.101  28.487  1.00  0.00     0.010 A 
ATOM     13  C   UNL A   1      42.287  24.068  27.491  1.00  0.00    -0.014 A 
BRANCH  13  14
ATOM     14  C   UNL A   1      42.601  25.490  27.694  1.00  0.00     0.031 A 
ATOM     15  C   UNL A   1      43.836  26.032  27.052  1.00  0.00     0.074 A 
ATOM     16  C   UNL A   1      41.694  26.279  28.299  1.00  0.00     0.049 A 
ATOM     17  N   UNL A   1      44.347  27.228  27.126  1.00  0.00    -0.248 NA
ATOM     18  C   UNL A   1      44.589  25.100  26.199  1.00  0.00     0.031 C 
ATOM     19  C   UNL A   1      40.389  25.831  28.797  1.00  0.00     0.029 A 
ATOM     20  N   UNL A   1      41.706  27.620  28.559  1.00  0.00    -0.354 N 
ATOM     21  C   UNL A   1      45.500  27.186  26.354  1.00  0.00     0.074 A 
ATOM     22  C   UNL A   1      45.619  25.844  25.830  1.00  0.00     0.031 C 
ATOM     23  C   UNL A   1      39.717  26.888  29.281  1.00  0.00     0.029 A 
ATOM     24  C   UNL A   1      40.578  28.061  29.214  1.00  0.00     0.049 A 
ATOM     25  H   UNL A   1      42.448  28.213  28.305  1.00  0.00     0.167 HD
ATOM     26  C   UNL A   1      46.379  28.191  26.122  1.00  0.00     0.034 A 
ATOM     27  C   UNL A   1      40.308  29.271  29.740  1.00  0.00     0.034 A 
ATOM     28  C   UNL A   1      46.212  29.504  26.689  1.00  0.00     0.049 A 
ATOM     29  C   UNL A   1      41.368  30.333  29.589  1.00  0.00     0.074 A 
ATOM     30  C   UNL A   1      47.059  30.594  26.622  1.00  0.00     0.029 A 
ATOM     31  N   UNL A   1      45.108  29.902  27.442  1.00  0.00    -0.354 N 
ATOM     32  N   UNL A   1      42.516  30.267  28.949  1.00  0.00    -0.248 NA
ATOM     33  C   UNL A   1      41.111  31.621  30.236  1.00  0.00     0.031 C 
ATOM     34  C   UNL A   1      46.503  31.621  27.393  1.00  0.00     0.029 A 
ATOM     35  C   UNL A   1      45.266  31.209  27.869  1.00  0.00     0.049 A 
ATOM     36  H   UNL A   1      44.329  29.334  27.642  1.00  0.00     0.167 HD
ATOM     37  C   UNL A   1      43.108  31.515  29.096  1.00  0.00     0.074 A 
ATOM     38  C   UNL A   1      42.177  32.317  29.869  1.00  0.00     0.031 C 
ATOM     39  C   UNL A   1      44.307  31.965  28.643  1.00  0.00     0.034 A 
BRANCH  26  40
ATOM     40  C   UNL A   1      47.617  27.845  25.334  1.00  0.00     0.023 A 
ATOM     41  C   UNL A   1      47.672  27.973  23.934  1.00  0.00     0.031 A 
ATOM     42  C   UNL A   1      48.723  27.271  25.985  1.00  0.00     0.131 A 
ATOM     43  C   UNL A   1      48.767  27.451  23.227  1.00  0.00     0.055 A 
ATOM     44  C   UNL A   1      49.848  26.835  25.283  1.00  0.00     0.041 A 
ATOM     45  F   UNL A   1      48.714  27.088  27.315  1.00  0.00    -0.206 F 
ATOM     46  C   UNL A   1      49.867  26.906  23.894  1.00  0.00     0.022 A 
BRANCH  43  47
ATOM     47  S   UNL A   1      48.656  27.331  21.419  1.00  0.00     0.124 S 
ATOM     48  O   UNL A   1      47.343  27.918  21.164  1.00  0.00    -0.237 OA
ATOM     49  O   UNL A   1      49.803  28.116  20.979  1.00  0.00    -0.237 OA
ATOM     50  O   UNL A   1      48.747  25.894  21.163  1.00  0.00    -0.744 OA
ENDBRANCH  43  47
ENDBRANCH  26  40
BRANCH  27  51
ATOM     51  C   UNL A   1      39.055  29.514  30.515  1.00  0.00     0.023 A 
ATOM     52  C   UNL A   1      38.044  30.359  30.032  1.00  0.00     0.031 A 
ATOM     53  C   UNL A   1      38.873  28.944  31.792  1.00  0.00     0.131 A 
ATOM     54  C   UNL A   1      36.927  30.648  30.833  1.00  0.00     0.055 A 
ATOM     55  C   UNL A   1      37.731  29.184  32.558  1.00  0.00     0.041 A 
ATOM     56  F   UNL A   1      39.807  28.136  32.317  1.00  0.00    -0.206 F 
ATOM     57  C   UNL A   1      36.756  30.054  32.085  1.00  0.00     0.022 A 
BRANCH  54  58
ATOM     58  S   UNL A   1      35.747  31.902  30.261  1.00  0.00     0.124 S 
ATOM     59  O   UNL A   1      34.897  32.066  31.434  1.00  0.00    -0.237 OA
ATOM     60  O   UNL A   1      36.624  33.023  29.941  1.00  0.00    -0.237 OA
ATOM     61  O   UNL A   1      35.106  31.267  29.110  1.00  0.00    -0.744 OA
ENDBRANCH  54  58
ENDBRANCH  27  51
BRANCH  39  62
ATOM     62  C   UNL A   1      44.638  33.405  28.937  1.00  0.00     0.023 A 
ATOM     63  C   UNL A   1      44.051  34.458  28.218  1.00  0.00     0.031 A 
ATOM     64  C   UNL A   1      45.555  33.718  29.955  1.00  0.00     0.131 A 
ATOM     65  C   UNL A   1      44.434  35.778  28.488  1.00  0.00     0.055 A 
ATOM     66  C   UNL A   1      45.877  35.038  30.266  1.00  0.00     0.041 A 
ATOM     67  F   UNL A   1      46.145  32.746  30.668  1.00  0.00    -0.206 F 
ATOM     68  C   UNL A   1      45.327  36.077  29.521  1.00  0.00     0.022 A 
BRANCH  65  69
ATOM     69  S   UNL A   1      43.827  37.095  27.400  1.00  0.00     0.124 S 
ATOM     70  O   UNL A   1      45.070  37.699  26.933  1.00  0.00    -0.237 OA
ATOM     71  O   UNL A   1      43.067  36.350  26.402  1.00  0.00    -0.237 OA
ATOM     72  O   UNL A   1      43.026  37.932  28.291  1.00  0.00    -0.744 OA
ENDBRANCH  65  69
ENDBRANCH  39  62
ENDBRANCH  13  14
ENDBRANCH   6   8
ENDBRANCH   5   6
ENDBRANCH   4   5
ENDBRANCH   3   4
ENDBRANCH   2   3
ENDBRANCH   1   2
BRANCH   1  73
ATOM     73  C   UNL A   1      35.538  19.965  24.960  1.00  0.00     0.261 C 
BRANCH  73  74
ATOM     74  O   UNL A   1      34.251  20.301  24.421  1.00  0.00    -0.460 OA
BRANCH  74  75
ATOM     75  C   UNL A   1      33.221  19.984  25.260  1.00  0.00     0.338 C 
ATOM     76  O   UNL A   1      32.902  18.883  25.626  1.00  0.00    -0.246 OA
BRANCH  75  77
ATOM     77  C   UNL A   1      32.702  21.255  25.837  1.00  0.00     0.062 A 
ATOM     78  C   UNL A   1      33.206  21.672  27.076  1.00  0.00     0.016 A 
ATOM     79  C   UNL A   1      31.853  22.092  25.109  1.00  0.00     0.041 A 
ATOM     80  C   UNL A   1      32.897  22.942  27.562  1.00  0.00     0.003 A 
ATOM     81  C   UNL A   1      31.466  23.312  25.654  1.00  0.00     0.041 A 
ATOM     82  C   UNL A   1      32.028  23.759  26.850  1.00  0.00     0.026 A 
BRANCH  81  83
ATOM     83  N   UNL A   1      30.524  24.085  24.971  1.00  0.00    -0.331 N 
ATOM     84  H   UNL A   1      29.579  23.862  25.133  1.00  0.00     0.169 HD
BRANCH  83  85
ATOM     85  C   UNL A   1      30.757  25.112  24.109  1.00  0.00     0.191 C 
ATOM     86  S   UNL A   1      31.680  24.804  22.740  1.00  0.00    -0.039 S 
BRANCH  85  87
ATOM     87  N   UNL A   1      30.136  26.330  24.240  1.00  0.00    -0.254 N 
ATOM     88  H   UNL A   1      30.628  27.003  24.763  1.00  0.00     0.193 HD
BRANCH  87  89
ATOM     89  N   UNL A   1      28.918  26.736  23.738  1.00  0.00    -0.181 NA
ATOM     90  C   UNL A   1      28.721  27.966  23.327  1.00  0.00     0.143 C 
BRANCH  90  91
ATOM     91  C   UNL A   1      29.734  29.016  23.292  1.00  0.00     0.020 A 
ATOM     92  C   UNL A   1      30.011  29.734  22.144  1.00  0.00     0.093 A 
ATOM     93  C   UNL A   1      30.965  29.120  23.992  1.00  0.00     0.008 A 
ATOM     94  N   UNL A   1      31.310  29.362  21.857  1.00  0.00    -0.361 N 
ATOM     95  C   UNL A   1      31.907  28.889  22.999  1.00  0.00     0.046 A 
ATOM     96  C   UNL A   1      31.452  29.534  25.240  1.00  0.00     0.011 A 
ATOM     97  H   UNL A   1      31.738  29.424  20.973  1.00  0.00     0.166 HD
ATOM     98  C   UNL A   1      33.208  28.484  23.248  1.00  0.00     0.027 A 
ATOM     99  C   UNL A   1      32.841  29.458  25.446  1.00  0.00     0.001 A 
ATOM    100  C   UNL A   1      33.676  28.830  24.513  1.00  0.00     0.002 A 
ENDBRANCH  90  91
ENDBRANCH  87  89
ENDBRANCH  85  87
ENDBRANCH  83  85
ENDBRANCH  81  83
ENDBRANCH  75  77
ENDBRANCH  74  75
ENDBRANCH  73  74
ENDBRANCH   1  73
TORSDOF 22
ENDMDL
