MODEL 1
REMARK VINA RESULT:     -11.6      0.000      0.000
REMARK SMILES O=C(OCCOCCOC(=O)c1cccnc1C(=O)Nc1ccc(Cl)cn1)c1ccc(-c2c3nc(c(-c4cc(S(=O)(=O)[O-])ccc4F)c4ccc([nH]4)c(-c4cc(S(=O)(=O)[O-])ccc4F)c4nc(c(-c5cc(S(=O)(=O)[O-])ccc5F)c5ccc2[nH]5)C=C4)C=C3)cc1
REMARK SMILES IDX 5 1 4 2 3 3 2 4 1 5 28 6 29 7 90 8 30 9 89 10 31 11 32 12
REMARK SMILES IDX 33 13 83 14 34 15 88 16 82 17 84 18 35 19 87 20 81 21 80 22
REMARK SMILES IDX 36 24 68 25 48 26 67 27 49 28 52 29 66 30 85 31 50 32 51 33
REMARK SMILES IDX 65 35 86 36 53 37 37 38 38 39 46 40 39 41 45 42 47 43 44 44
REMARK SMILES IDX 40 45 41 46 42 47 43 48 69 49 70 50 78 51 71 52 77 53 79 54
REMARK SMILES IDX 76 55 72 56 73 57 74 58 75 59 54 60 55 61 63 62 56 63 62 64
REMARK SMILES IDX 64 65 61 66 57 67 58 68 59 69 60 70 6 71 7 72 8 73 9 74
REMARK SMILES IDX 10 75 11 76 12 77 13 78 17 79 14 80 16 81 15 82 18 83 19 84
REMARK SMILES IDX 20 85 21 87 22 88 27 89 23 90 26 91 24 92 25 93
REMARK H PARENT 84 23 52 34 20 86
REMARK Flexibility Score: inf
ROOT
ATOM      1  C   UNL A   1      34.772  20.475  24.943  1.00  0.00     0.202 C 
ENDROOT
BRANCH   1   2
ATOM      2  C   UNL A   1      36.292  20.247  24.930  1.00  0.00     0.261 C 
BRANCH   2   3
ATOM      3  O   UNL A   1      37.040  21.246  25.647  1.00  0.00    -0.460 OA
BRANCH   3   4
ATOM      4  C   UNL A   1      38.384  21.266  25.827  1.00  0.00     0.338 C 
ATOM      5  O   UNL A   1      39.053  20.273  25.553  1.00  0.00    -0.246 OA
BRANCH   4   6
ATOM      6  C   UNL A   1      39.079  22.477  26.329  1.00  0.00     0.060 A 
ATOM      7  C   UNL A   1      38.651  23.776  26.056  1.00  0.00     0.016 A 
ATOM      8  C   UNL A   1      40.160  22.293  27.195  1.00  0.00     0.016 A 
ATOM      9  C   UNL A   1      39.363  24.878  26.505  1.00  0.00     0.010 A 
ATOM     10  C   UNL A   1      40.826  23.399  27.725  1.00  0.00     0.010 A 
ATOM     11  C   UNL A   1      40.452  24.700  27.352  1.00  0.00    -0.014 A 
BRANCH  11  12
ATOM     12  C   UNL A   1      41.257  25.871  27.755  1.00  0.00     0.031 A 
ATOM     13  C   UNL A   1      40.610  26.906  28.625  1.00  0.00     0.074 A 
ATOM     14  C   UNL A   1      42.551  25.969  27.395  1.00  0.00     0.049 A 
ATOM     15  N   UNL A   1      41.020  28.104  28.936  1.00  0.00    -0.248 NA
ATOM     16  C   UNL A   1      39.304  26.542  29.201  1.00  0.00     0.031 C 
ATOM     17  C   UNL A   1      43.294  24.967  26.628  1.00  0.00     0.029 A 
ATOM     18  N   UNL A   1      43.475  26.951  27.636  1.00  0.00    -0.354 N 
ATOM     19  C   UNL A   1      40.002  28.659  29.704  1.00  0.00     0.074 A 
ATOM     20  C   UNL A   1      38.947  27.672  29.790  1.00  0.00     0.031 C 
ATOM     21  C   UNL A   1      44.567  25.371  26.491  1.00  0.00     0.029 A 
ATOM     22  C   UNL A   1      44.703  26.704  27.067  1.00  0.00     0.049 A 
ATOM     23  H   UNL A   1      43.278  27.758  28.165  1.00  0.00     0.167 HD
ATOM     24  C   UNL A   1      39.960  29.886  30.276  1.00  0.00     0.034 A 
ATOM     25  C   UNL A   1      45.792  27.494  26.978  1.00  0.00     0.034 A 
ATOM     26  C   UNL A   1      41.041  30.834  30.169  1.00  0.00     0.049 A 
ATOM     27  C   UNL A   1      45.699  28.881  27.569  1.00  0.00     0.074 A 
ATOM     28  C   UNL A   1      41.104  32.138  30.620  1.00  0.00     0.029 A 
ATOM     29  N   UNL A   1      42.266  30.559  29.568  1.00  0.00    -0.354 N 
ATOM     30  N   UNL A   1      44.691  29.447  28.196  1.00  0.00    -0.248 NA
ATOM     31  C   UNL A   1      46.879  29.741  27.430  1.00  0.00     0.031 C 
ATOM     32  C   UNL A   1      42.350  32.665  30.256  1.00  0.00     0.029 A 
ATOM     33  C   UNL A   1      43.091  31.670  29.635  1.00  0.00     0.049 A 
ATOM     34  H   UNL A   1      42.512  29.700  29.156  1.00  0.00     0.167 HD
ATOM     35  C   UNL A   1      45.121  30.725  28.534  1.00  0.00     0.074 A 
ATOM     36  C   UNL A   1      46.492  30.832  28.072  1.00  0.00     0.031 C 
ATOM     37  C   UNL A   1      44.452  31.731  29.158  1.00  0.00     0.034 A 
BRANCH  24  38
ATOM     38  C   UNL A   1      38.681  30.266  30.981  1.00  0.00     0.023 A 
ATOM     39  C   UNL A   1      37.613  30.876  30.300  1.00  0.00     0.031 A 
ATOM     40  C   UNL A   1      38.568  30.108  32.374  1.00  0.00     0.131 A 
ATOM     41  C   UNL A   1      36.523  31.388  31.022  1.00  0.00     0.055 A 
ATOM     42  C   UNL A   1      37.439  30.541  33.075  1.00  0.00     0.041 A 
ATOM     43  F   UNL A   1      39.567  29.561  33.083  1.00  0.00    -0.206 F 
ATOM     44  C   UNL A   1      36.418  31.203  32.402  1.00  0.00     0.022 A 
BRANCH  41  45
ATOM     45  S   UNL A   1      35.330  32.446  30.156  1.00  0.00     0.124 S 
ATOM     46  O   UNL A   1      34.954  31.600  29.026  1.00  0.00    -0.237 OA
ATOM     47  O   UNL A   1      34.301  32.658  31.167  1.00  0.00    -0.237 OA
ATOM     48  O   UNL A   1      36.112  33.630  29.806  1.00  0.00    -0.744 OA
ENDBRANCH  41  45
ENDBRANCH  24  38
BRANCH  25  49
ATOM     49  C   UNL A   1      47.014  27.046  26.246  1.00  0.00     0.023 A 
ATOM     50  C   UNL A   1      48.044  26.350  26.900  1.00  0.00     0.031 A 
ATOM     51  C   UNL A   1      47.201  27.358  24.885  1.00  0.00     0.131 A 
ATOM     52  C   UNL A   1      49.228  26.036  26.212  1.00  0.00     0.055 A 
ATOM     53  C   UNL A   1      48.352  26.986  24.188  1.00  0.00     0.041 A 
ATOM     54  F   UNL A   1      46.258  28.029  24.205  1.00  0.00    -0.206 F 
ATOM     55  C   UNL A   1      49.382  26.333  24.857  1.00  0.00     0.022 A 
BRANCH  52  56
ATOM     56  S   UNL A   1      50.615  25.329  27.145  1.00  0.00     0.124 S 
ATOM     57  O   UNL A   1      51.059  26.473  27.933  1.00  0.00    -0.237 OA
ATOM     58  O   UNL A   1      49.965  24.253  27.885  1.00  0.00    -0.237 OA
ATOM     59  O   UNL A   1      51.540  24.894  26.101  1.00  0.00    -0.744 OA
ENDBRANCH  52  56
ENDBRANCH  25  49
BRANCH  37  60
ATOM     60  C   UNL A   1      45.225  33.000  29.403  1.00  0.00     0.023 A 
ATOM     61  C   UNL A   1      45.284  34.022  28.440  1.00  0.00     0.031 A 
ATOM     62  C   UNL A   1      45.926  33.176  30.608  1.00  0.00     0.131 A 
ATOM     63  C   UNL A   1      46.080  35.151  28.675  1.00  0.00     0.055 A 
ATOM     64  C   UNL A   1      46.669  34.329  30.860  1.00  0.00     0.041 A 
ATOM     65  F   UNL A   1      45.900  32.228  31.558  1.00  0.00    -0.206 F 
ATOM     66  C   UNL A   1      46.761  35.318  29.884  1.00  0.00     0.022 A 
BRANCH  63  67
ATOM     67  S   UNL A   1      46.290  36.358  27.338  1.00  0.00     0.124 S 
ATOM     68  O   UNL A   1      47.679  36.141  26.949  1.00  0.00    -0.237 OA
ATOM     69  O   UNL A   1      45.283  35.931  26.371  1.00  0.00    -0.237 OA
ATOM     70  O   UNL A   1      46.020  37.640  27.988  1.00  0.00    -0.744 OA
ENDBRANCH  63  67
ENDBRANCH  37  60
ENDBRANCH  11  12
ENDBRANCH   4   6
ENDBRANCH   3   4
ENDBRANCH   2   3
ENDBRANCH   1   2
BRANCH   1  71
ATOM     71  O   UNL A   1      34.255  21.341  25.955  1.00  0.00    -0.374 OA
BRANCH  71  72
ATOM     72  C   UNL A   1      32.941  21.853  25.722  1.00  0.00     0.202 C 
BRANCH  72  73
ATOM     73  C   UNL A   1      32.995  22.726  24.491  1.00  0.00     0.261 C 
BRANCH  73  74
ATOM     74  O   UNL A   1      33.289  24.035  24.993  1.00  0.00    -0.460 OA
BRANCH  74  75
ATOM     75  C   UNL A   1      32.369  24.956  24.691  1.00  0.00     0.340 C 
ATOM     76  O   UNL A   1      31.277  24.777  24.169  1.00  0.00    -0.246 OA
BRANCH  75  77
ATOM     77  C   UNL A   1      32.976  26.262  24.854  1.00  0.00     0.091 A 
ATOM     78  C   UNL A   1      33.211  26.604  26.200  1.00  0.00     0.020 A 
ATOM     79  C   UNL A   1      33.251  27.188  23.856  1.00  0.00     0.143 A 
ATOM     80  C   UNL A   1      33.678  27.866  26.528  1.00  0.00     0.021 A 
ATOM     81  N   UNL A   1      33.779  28.412  24.194  1.00  0.00    -0.250 NA
ATOM     82  C   UNL A   1      33.950  28.733  25.493  1.00  0.00     0.112 A 
BRANCH  79  83
ATOM     83  C   UNL A   1      32.776  27.222  22.438  1.00  0.00     0.276 C 
ATOM     84  O   UNL A   1      33.582  26.769  21.606  1.00  0.00    -0.267 OA
ATOM     85  N   UNL A   1      31.590  27.626  21.899  1.00  0.00    -0.305 N 
ATOM     86  H   UNL A   1      31.550  27.338  20.959  1.00  0.00     0.171 HD
BRANCH  85  87
ATOM     87  C   UNL A   1      30.427  28.297  22.213  1.00  0.00     0.132 A 
ATOM     88  C   UNL A   1      29.415  27.842  23.024  1.00  0.00     0.049 A 
ATOM     89  N   UNL A   1      30.425  29.549  21.699  1.00  0.00    -0.238 NA
ATOM     90  C   UNL A   1      28.467  28.763  23.488  1.00  0.00     0.026 A 
ATOM     91  C   UNL A   1      29.454  30.405  22.098  1.00  0.00     0.134 A 
ATOM     92  C   UNL A   1      28.497  30.075  23.034  1.00  0.00     0.059 A 
ATOM     93  Cl  UNL A   1      27.395  31.245  23.628  1.00  0.00    -0.083 Cl
ENDBRANCH  85  87
ENDBRANCH  79  83
ENDBRANCH  75  77
ENDBRANCH  74  75
ENDBRANCH  73  74
ENDBRANCH  72  73
ENDBRANCH  71  72
ENDBRANCH   1  71
TORSDOF 19
ENDMDL
MODEL 2
REMARK VINA RESULT:     -11.4      5.288     10.140
REMARK SMILES O=C(OCCOCCOC(=O)c1cccnc1C(=O)Nc1ccc(Cl)cn1)c1ccc(-c2c3nc(c(-c4cc(S(=O)(=O)[O-])ccc4F)c4ccc([nH]4)c(-c4cc(S(=O)(=O)[O-])ccc4F)c4nc(c(-c5cc(S(=O)(=O)[O-])ccc5F)c5ccc2[nH]5)C=C4)C=C3)cc1
REMARK SMILES IDX 5 1 4 2 3 3 2 4 1 5 28 6 29 7 90 8 30 9 89 10 31 11 32 12
REMARK SMILES IDX 33 13 83 14 34 15 88 16 82 17 84 18 35 19 87 20 81 21 80 22
REMARK SMILES IDX 36 24 68 25 48 26 67 27 49 28 52 29 66 30 85 31 50 32 51 33
REMARK SMILES IDX 65 35 86 36 53 37 37 38 38 39 46 40 39 41 45 42 47 43 44 44
REMARK SMILES IDX 40 45 41 46 42 47 43 48 69 49 70 50 78 51 71 52 77 53 79 54
REMARK SMILES IDX 76 55 72 56 73 57 74 58 75 59 54 60 55 61 63 62 56 63 62 64
REMARK SMILES IDX 64 65 61 66 57 67 58 68 59 69 60 70 6 71 7 72 8 73 9 74
REMARK SMILES IDX 10 75 11 76 12 77 13 78 17 79 14 80 16 81 15 82 18 83 19 84
REMARK SMILES IDX 20 85 21 87 22 88 27 89 23 90 26 91 24 92 25 93
REMARK H PARENT 84 23 52 34 20 86
REMARK Flexibility Score: inf
ROOT
ATOM      1  C   UNL A   1      31.801  29.171  24.804  1.00  0.00     0.202 C 
ENDROOT
BRANCH   1   2
ATOM      2  C   UNL A   1      32.886  29.988  25.521  1.00  0.00     0.261 C 
BRANCH   2   3
ATOM      3  O   UNL A   1      32.372  30.948  26.462  1.00  0.00    -0.460 OA
BRANCH   3   4
ATOM      4  C   UNL A   1      33.103  31.821  27.199  1.00  0.00     0.338 C 
ATOM      5  O   UNL A   1      32.702  32.970  27.363  1.00  0.00    -0.246 OA
BRANCH   4   6
ATOM      6  C   UNL A   1      34.377  31.413  27.840  1.00  0.00     0.060 A 
ATOM      7  C   UNL A   1      34.658  30.102  28.225  1.00  0.00     0.016 A 
ATOM      8  C   UNL A   1      35.376  32.381  27.973  1.00  0.00     0.016 A 
ATOM      9  C   UNL A   1      35.843  29.777  28.867  1.00  0.00     0.010 A 
ATOM     10  C   UNL A   1      36.608  32.040  28.535  1.00  0.00     0.010 A 
ATOM     11  C   UNL A   1      36.833  30.742  29.020  1.00  0.00    -0.014 A 
BRANCH  11  12
ATOM     12  C   UNL A   1      38.056  30.413  29.781  1.00  0.00     0.031 A 
ATOM     13  C   UNL A   1      39.076  29.529  29.129  1.00  0.00     0.074 A 
ATOM     14  C   UNL A   1      38.267  30.943  31.001  1.00  0.00     0.049 A 
ATOM     15  N   UNL A   1      40.112  28.931  29.650  1.00  0.00    -0.248 NA
ATOM     16  C   UNL A   1      38.880  29.264  27.694  1.00  0.00     0.031 C 
ATOM     17  C   UNL A   1      37.375  31.888  31.678  1.00  0.00     0.029 A 
ATOM     18  N   UNL A   1      39.300  30.775  31.883  1.00  0.00    -0.354 N 
ATOM     19  C   UNL A   1      40.665  28.179  28.620  1.00  0.00     0.074 A 
ATOM     20  C   UNL A   1      39.834  28.380  27.452  1.00  0.00     0.031 C 
ATOM     21  C   UNL A   1      37.918  32.240  32.854  1.00  0.00     0.029 A 
ATOM     22  C   UNL A   1      39.139  31.470  33.061  1.00  0.00     0.049 A 
ATOM     23  H   UNL A   1      40.084  30.210  31.694  1.00  0.00     0.167 HD
ATOM     24  C   UNL A   1      41.765  27.389  28.659  1.00  0.00     0.034 A 
ATOM     25  C   UNL A   1      39.870  31.438  34.192  1.00  0.00     0.034 A 
ATOM     26  C   UNL A   1      42.566  27.226  29.846  1.00  0.00     0.049 A 
ATOM     27  C   UNL A   1      41.056  30.503  34.233  1.00  0.00     0.074 A 
ATOM     28  C   UNL A   1      43.651  26.397  30.058  1.00  0.00     0.029 A 
ATOM     29  N   UNL A   1      42.364  27.930  31.030  1.00  0.00    -0.354 N 
ATOM     30  N   UNL A   1      41.511  29.703  33.293  1.00  0.00    -0.248 NA
ATOM     31  C   UNL A   1      41.816  30.452  35.486  1.00  0.00     0.031 C 
ATOM     32  C   UNL A   1      44.079  26.569  31.381  1.00  0.00     0.029 A 
ATOM     33  C   UNL A   1      43.303  27.553  31.976  1.00  0.00     0.049 A 
ATOM     34  H   UNL A   1      41.657  28.599  31.174  1.00  0.00     0.167 HD
ATOM     35  C   UNL A   1      42.617  29.063  33.840  1.00  0.00     0.074 A 
ATOM     36  C   UNL A   1      42.780  29.597  35.179  1.00  0.00     0.031 C 
ATOM     37  C   UNL A   1      43.425  28.112  33.301  1.00  0.00     0.034 A 
BRANCH  24  38
ATOM     38  C   UNL A   1      42.087  26.606  27.409  1.00  0.00     0.023 A 
ATOM     39  C   UNL A   1      41.770  25.242  27.287  1.00  0.00     0.031 A 
ATOM     40  C   UNL A   1      42.811  27.209  26.365  1.00  0.00     0.131 A 
ATOM     41  C   UNL A   1      42.255  24.506  26.195  1.00  0.00     0.055 A 
ATOM     42  C   UNL A   1      43.215  26.489  25.237  1.00  0.00     0.041 A 
ATOM     43  F   UNL A   1      43.170  28.500  26.438  1.00  0.00    -0.206 F 
ATOM     44  C   UNL A   1      42.954  25.125  25.157  1.00  0.00     0.022 A 
BRANCH  41  45
ATOM     45  S   UNL A   1      42.106  22.698  26.234  1.00  0.00     0.124 S 
ATOM     46  O   UNL A   1      42.738  22.324  24.970  1.00  0.00    -0.237 OA
ATOM     47  O   UNL A   1      42.837  22.345  27.444  1.00  0.00    -0.237 OA
ATOM     48  O   UNL A   1      40.662  22.473  26.289  1.00  0.00    -0.744 OA
ENDBRANCH  41  45
ENDBRANCH  24  38
BRANCH  25  49
ATOM     49  C   UNL A   1      39.470  32.232  35.392  1.00  0.00     0.023 A 
ATOM     50  C   UNL A   1      38.752  31.649  36.449  1.00  0.00     0.031 A 
ATOM     51  C   UNL A   1      39.748  33.611  35.477  1.00  0.00     0.131 A 
ATOM     52  C   UNL A   1      38.296  32.444  37.514  1.00  0.00     0.055 A 
ATOM     53  C   UNL A   1      39.349  34.384  36.569  1.00  0.00     0.041 A 
ATOM     54  F   UNL A   1      40.423  34.230  34.496  1.00  0.00    -0.206 F 
ATOM     55  C   UNL A   1      38.604  33.803  37.589  1.00  0.00     0.022 A 
BRANCH  52  56
ATOM     56  S   UNL A   1      37.193  31.698  38.748  1.00  0.00     0.124 S 
ATOM     57  O   UNL A   1      38.009  31.761  39.955  1.00  0.00    -0.237 OA
ATOM     58  O   UNL A   1      36.042  32.593  38.704  1.00  0.00    -0.237 OA
ATOM     59  O   UNL A   1      36.957  30.354  38.224  1.00  0.00    -0.744 OA
ENDBRANCH  52  56
ENDBRANCH  25  49
BRANCH  37  60
ATOM     60  C   UNL A   1      44.570  27.641  34.158  1.00  0.00     0.023 A 
ATOM     61  C   UNL A   1      44.447  26.518  34.996  1.00  0.00     0.031 A 
ATOM     62  C   UNL A   1      45.791  28.337  34.149  1.00  0.00     0.131 A 
ATOM     63  C   UNL A   1      45.510  26.162  35.838  1.00  0.00     0.055 A 
ATOM     64  C   UNL A   1      46.864  27.941  34.945  1.00  0.00     0.041 A 
ATOM     65  F   UNL A   1      45.956  29.415  33.365  1.00  0.00    -0.206 F 
ATOM     66  C   UNL A   1      46.722  26.856  35.806  1.00  0.00     0.022 A 
BRANCH  63  67
ATOM     67  S   UNL A   1      45.252  24.832  37.043  1.00  0.00     0.124 S 
ATOM     68  O   UNL A   1      44.937  23.698  36.181  1.00  0.00    -0.237 OA
ATOM     69  O   UNL A   1      46.541  24.775  37.726  1.00  0.00    -0.237 OA
ATOM     70  O   UNL A   1      44.141  25.319  37.858  1.00  0.00    -0.744 OA
ENDBRANCH  63  67
ENDBRANCH  37  60
ENDBRANCH  11  12
ENDBRANCH   4   6
ENDBRANCH   3   4
ENDBRANCH   2   3
ENDBRANCH   1   2
BRANCH   1  71
ATOM     71  O   UNL A   1      32.057  28.803  23.447  1.00  0.00    -0.374 OA
BRANCH  71  72
ATOM     72  C   UNL A   1      33.435  28.689  23.085  1.00  0.00     0.202 C 
BRANCH  72  73
ATOM     73  C   UNL A   1      33.531  27.724  21.926  1.00  0.00     0.261 C 
BRANCH  73  74
ATOM     74  O   UNL A   1      34.044  26.519  22.506  1.00  0.00    -0.460 OA
BRANCH  74  75
ATOM     75  C   UNL A   1      33.266  25.449  22.322  1.00  0.00     0.340 C 
ATOM     76  O   UNL A   1      33.227  24.713  21.345  1.00  0.00    -0.246 OA
BRANCH  75  77
ATOM     77  C   UNL A   1      32.274  25.432  23.378  1.00  0.00     0.091 A 
ATOM     78  C   UNL A   1      30.955  25.584  22.909  1.00  0.00     0.020 A 
ATOM     79  C   UNL A   1      32.508  25.367  24.746  1.00  0.00     0.143 A 
ATOM     80  C   UNL A   1      29.905  25.706  23.804  1.00  0.00     0.021 A 
ATOM     81  N   UNL A   1      31.447  25.420  25.619  1.00  0.00    -0.250 NA
ATOM     82  C   UNL A   1      30.199  25.614  25.146  1.00  0.00     0.112 A 
BRANCH  79  83
ATOM     83  C   UNL A   1      33.786  25.565  25.499  1.00  0.00     0.276 C 
ATOM     84  O   UNL A   1      33.873  26.649  26.104  1.00  0.00    -0.267 OA
ATOM     85  N   UNL A   1      34.860  24.744  25.674  1.00  0.00    -0.305 N 
ATOM     86  H   UNL A   1      35.439  25.118  26.377  1.00  0.00     0.171 HD
BRANCH  85  87
ATOM     87  C   UNL A   1      35.418  23.571  25.210  1.00  0.00     0.132 A 
ATOM     88  C   UNL A   1      36.125  23.409  24.043  1.00  0.00     0.049 A 
ATOM     89  N   UNL A   1      35.280  22.570  26.109  1.00  0.00    -0.238 NA
ATOM     90  C   UNL A   1      36.885  22.243  23.880  1.00  0.00     0.026 A 
ATOM     91  C   UNL A   1      35.961  21.417  25.897  1.00  0.00     0.134 A 
ATOM     92  C   UNL A   1      36.819  21.235  24.834  1.00  0.00     0.059 A 
ATOM     93  Cl  UNL A   1      37.783  19.824  24.702  1.00  0.00    -0.083 Cl
ENDBRANCH  85  87
ENDBRANCH  79  83
ENDBRANCH  75  77
ENDBRANCH  74  75
ENDBRANCH  73  74
ENDBRANCH  72  73
ENDBRANCH  71  72
ENDBRANCH   1  71
TORSDOF 19
ENDMDL
MODEL 3
REMARK VINA RESULT:     -11.3      5.438     10.229
REMARK SMILES O=C(OCCOCCOC(=O)c1cccnc1C(=O)Nc1ccc(Cl)cn1)c1ccc(-c2c3nc(c(-c4cc(S(=O)(=O)[O-])ccc4F)c4ccc([nH]4)c(-c4cc(S(=O)(=O)[O-])ccc4F)c4nc(c(-c5cc(S(=O)(=O)[O-])ccc5F)c5ccc2[nH]5)C=C4)C=C3)cc1
REMARK SMILES IDX 5 1 4 2 3 3 2 4 1 5 28 6 29 7 90 8 30 9 89 10 31 11 32 12
REMARK SMILES IDX 33 13 83 14 34 15 88 16 82 17 84 18 35 19 87 20 81 21 80 22
REMARK SMILES IDX 36 24 68 25 48 26 67 27 49 28 52 29 66 30 85 31 50 32 51 33
REMARK SMILES IDX 65 35 86 36 53 37 37 38 38 39 46 40 39 41 45 42 47 43 44 44
REMARK SMILES IDX 40 45 41 46 42 47 43 48 69 49 70 50 78 51 71 52 77 53 79 54
REMARK SMILES IDX 76 55 72 56 73 57 74 58 75 59 54 60 55 61 63 62 56 63 62 64
REMARK SMILES IDX 64 65 61 66 57 67 58 68 59 69 60 70 6 71 7 72 8 73 9 74
REMARK SMILES IDX 10 75 11 76 12 77 13 78 17 79 14 80 16 81 15 82 18 83 19 84
REMARK SMILES IDX 20 85 21 87 22 88 27 89 23 90 26 91 24 92 25 93
REMARK H PARENT 84 23 52 34 20 86
REMARK Flexibility Score: inf
ROOT
ATOM      1  C   UNL A   1      32.831  28.125  25.625  1.00  0.00     0.202 C 
ENDROOT
BRANCH   1   2
ATOM      2  C   UNL A   1      32.757  29.645  25.416  1.00  0.00     0.261 C 
BRANCH   2   3
ATOM      3  O   UNL A   1      32.410  30.383  26.603  1.00  0.00    -0.460 OA
BRANCH   3   4
ATOM      4  C   UNL A   1      33.164  31.337  27.204  1.00  0.00     0.338 C 
ATOM      5  O   UNL A   1      32.765  32.497  27.245  1.00  0.00    -0.246 OA
BRANCH   4   6
ATOM      6  C   UNL A   1      34.462  31.007  27.841  1.00  0.00     0.060 A 
ATOM      7  C   UNL A   1      34.834  29.711  28.200  1.00  0.00     0.016 A 
ATOM      8  C   UNL A   1      35.390  32.040  27.998  1.00  0.00     0.016 A 
ATOM      9  C   UNL A   1      36.038  29.458  28.841  1.00  0.00     0.010 A 
ATOM     10  C   UNL A   1      36.641  31.777  28.559  1.00  0.00     0.010 A 
ATOM     11  C   UNL A   1      36.957  30.488  29.017  1.00  0.00    -0.014 A 
BRANCH  11  12
ATOM     12  C   UNL A   1      38.198  30.230  29.777  1.00  0.00     0.031 A 
ATOM     13  C   UNL A   1      39.245  29.365  29.144  1.00  0.00     0.074 A 
ATOM     14  C   UNL A   1      38.398  30.808  30.977  1.00  0.00     0.049 A 
ATOM     15  N   UNL A   1      40.307  28.825  29.673  1.00  0.00    -0.248 NA
ATOM     16  C   UNL A   1      39.047  29.047  27.720  1.00  0.00     0.031 C 
ATOM     17  C   UNL A   1      37.477  31.739  31.631  1.00  0.00     0.029 A 
ATOM     18  N   UNL A   1      39.445  30.708  31.854  1.00  0.00    -0.354 N 
ATOM     19  C   UNL A   1      40.880  28.061  28.663  1.00  0.00     0.074 A 
ATOM     20  C   UNL A   1      40.032  28.192  27.497  1.00  0.00     0.031 C 
ATOM     21  C   UNL A   1      38.016  32.150  32.791  1.00  0.00     0.029 A 
ATOM     22  C   UNL A   1      39.267  31.434  33.010  1.00  0.00     0.049 A 
ATOM     23  H   UNL A   1      40.248  30.168  31.675  1.00  0.00     0.167 HD
ATOM     24  C   UNL A   1      42.010  27.315  28.716  1.00  0.00     0.034 A 
ATOM     25  C   UNL A   1      40.009  31.467  34.135  1.00  0.00     0.034 A 
ATOM     26  C   UNL A   1      42.827  27.221  29.899  1.00  0.00     0.049 A 
ATOM     27  C   UNL A   1      41.230  30.579  34.193  1.00  0.00     0.074 A 
ATOM     28  C   UNL A   1      43.945  26.442  30.127  1.00  0.00     0.029 A 
ATOM     29  N   UNL A   1      42.609  27.955  31.062  1.00  0.00    -0.354 N 
ATOM     30  N   UNL A   1      41.707  29.768  33.276  1.00  0.00    -0.248 NA
ATOM     31  C   UNL A   1      42.003  30.598  35.440  1.00  0.00     0.031 C 
ATOM     32  C   UNL A   1      44.377  26.673  31.440  1.00  0.00     0.029 A 
ATOM     33  C   UNL A   1      43.569  27.645  32.010  1.00  0.00     0.049 A 
ATOM     34  H   UNL A   1      41.877  28.601  31.192  1.00  0.00     0.167 HD
ATOM     35  C   UNL A   1      42.842  29.188  33.832  1.00  0.00     0.074 A 
ATOM     36  C   UNL A   1      42.996  29.772  35.151  1.00  0.00     0.031 C 
ATOM     37  C   UNL A   1      43.682  28.252  33.316  1.00  0.00     0.034 A 
BRANCH  24  38
ATOM     38  C   UNL A   1      42.351  26.505  27.489  1.00  0.00     0.023 A 
ATOM     39  C   UNL A   1      41.966  25.159  27.359  1.00  0.00     0.031 A 
ATOM     40  C   UNL A   1      43.159  27.058  26.480  1.00  0.00     0.131 A 
ATOM     41  C   UNL A   1      42.464  24.388  26.297  1.00  0.00     0.055 A 
ATOM     42  C   UNL A   1      43.579  26.308  25.378  1.00  0.00     0.041 A 
ATOM     43  F   UNL A   1      43.584  28.328  26.562  1.00  0.00    -0.206 F 
ATOM     44  C   UNL A   1      43.248  24.959  25.293  1.00  0.00     0.022 A 
BRANCH  41  45
ATOM     45  S   UNL A   1      42.214  22.591  26.339  1.00  0.00     0.124 S 
ATOM     46  O   UNL A   1      42.656  22.202  25.002  1.00  0.00    -0.237 OA
ATOM     47  O   UNL A   1      43.072  22.177  27.443  1.00  0.00    -0.237 OA
ATOM     48  O   UNL A   1      40.779  22.450  26.578  1.00  0.00    -0.744 OA
ENDBRANCH  41  45
ENDBRANCH  24  38
BRANCH  25  49
ATOM     49  C   UNL A   1      39.589  32.284  35.312  1.00  0.00     0.023 A 
ATOM     50  C   UNL A   1      38.848  31.722  36.365  1.00  0.00     0.031 A 
ATOM     51  C   UNL A   1      39.871  33.663  35.378  1.00  0.00     0.131 A 
ATOM     52  C   UNL A   1      38.374  32.538  37.406  1.00  0.00     0.055 A 
ATOM     53  C   UNL A   1      39.455  34.457  36.448  1.00  0.00     0.041 A 
ATOM     54  F   UNL A   1      40.568  34.262  34.400  1.00  0.00    -0.206 F 
ATOM     55  C   UNL A   1      38.687  33.897  37.464  1.00  0.00     0.022 A 
BRANCH  52  56
ATOM     56  S   UNL A   1      37.245  31.818  38.632  1.00  0.00     0.124 S 
ATOM     57  O   UNL A   1      38.029  31.920  39.857  1.00  0.00    -0.237 OA
ATOM     58  O   UNL A   1      36.089  32.704  38.534  1.00  0.00    -0.237 OA
ATOM     59  O   UNL A   1      37.030  30.459  38.139  1.00  0.00    -0.744 OA
ENDBRANCH  52  56
ENDBRANCH  25  49
BRANCH  37  60
ATOM     60  C   UNL A   1      44.851  27.853  34.177  1.00  0.00     0.023 A 
ATOM     61  C   UNL A   1      44.766  26.778  35.079  1.00  0.00     0.031 A 
ATOM     62  C   UNL A   1      46.057  28.570  34.103  1.00  0.00     0.131 A 
ATOM     63  C   UNL A   1      45.851  26.491  35.920  1.00  0.00     0.055 A 
ATOM     64  C   UNL A   1      47.153  28.241  34.900  1.00  0.00     0.041 A 
ATOM     65  F   UNL A   1      46.187  29.603  33.256  1.00  0.00    -0.206 F 
ATOM     66  C   UNL A   1      47.048  27.205  35.825  1.00  0.00     0.022 A 
BRANCH  63  67
ATOM     67  S   UNL A   1      45.642  25.230  37.204  1.00  0.00     0.124 S 
ATOM     68  O   UNL A   1      46.883  25.357  37.960  1.00  0.00    -0.237 OA
ATOM     69  O   UNL A   1      44.431  25.675  37.887  1.00  0.00    -0.237 OA
ATOM     70  O   UNL A   1      45.503  23.987  36.445  1.00  0.00    -0.744 OA
ENDBRANCH  63  67
ENDBRANCH  37  60
ENDBRANCH  11  12
ENDBRANCH   4   6
ENDBRANCH   3   4
ENDBRANCH   2   3
ENDBRANCH   1   2
BRANCH   1  71
ATOM     71  O   UNL A   1      31.670  27.487  26.160  1.00  0.00    -0.374 OA
BRANCH  71  72
ATOM     72  C   UNL A   1      30.901  26.716  25.233  1.00  0.00     0.202 C 
BRANCH  72  73
ATOM     73  C   UNL A   1      30.340  25.525  25.973  1.00  0.00     0.261 C 
BRANCH  73  74
ATOM     74  O   UNL A   1      31.495  24.806  26.421  1.00  0.00    -0.460 OA
BRANCH  74  75
ATOM     75  C   UNL A   1      31.576  23.557  25.955  1.00  0.00     0.340 C 
ATOM     76  O   UNL A   1      30.766  22.651  26.101  1.00  0.00    -0.246 OA
BRANCH  75  77
ATOM     77  C   UNL A   1      32.918  23.359  25.444  1.00  0.00     0.091 A 
ATOM     78  C   UNL A   1      33.850  24.287  25.946  1.00  0.00     0.020 A 
ATOM     79  C   UNL A   1      33.322  22.435  24.489  1.00  0.00     0.143 A 
ATOM     80  C   UNL A   1      35.148  24.304  25.463  1.00  0.00     0.021 A 
ATOM     81  N   UNL A   1      34.632  22.420  24.071  1.00  0.00    -0.250 NA
ATOM     82  C   UNL A   1      35.493  23.350  24.532  1.00  0.00     0.112 A 
BRANCH  79  83
ATOM     83  C   UNL A   1      32.490  21.609  23.558  1.00  0.00     0.276 C 
ATOM     84  O   UNL A   1      31.825  22.261  22.734  1.00  0.00    -0.267 OA
ATOM     85  N   UNL A   1      32.367  20.257  23.426  1.00  0.00    -0.305 N 
ATOM     86  H   UNL A   1      31.879  20.060  22.594  1.00  0.00     0.171 HD
BRANCH  85  87
ATOM     87  C   UNL A   1      32.688  19.071  24.051  1.00  0.00     0.132 A 
ATOM     88  C   UNL A   1      32.611  18.811  25.398  1.00  0.00     0.049 A 
ATOM     89  N   UNL A   1      33.005  18.110  23.153  1.00  0.00    -0.238 NA
ATOM     90  C   UNL A   1      32.666  17.477  25.824  1.00  0.00     0.026 A 
ATOM     91  C   UNL A   1      33.133  16.835  23.594  1.00  0.00     0.134 A 
ATOM     92  C   UNL A   1      32.912  16.466  24.904  1.00  0.00     0.059 A 
ATOM     93  Cl  UNL A   1      32.923  14.819  25.377  1.00  0.00    -0.083 Cl
ENDBRANCH  85  87
ENDBRANCH  79  83
ENDBRANCH  75  77
ENDBRANCH  74  75
ENDBRANCH  73  74
ENDBRANCH  72  73
ENDBRANCH  71  72
ENDBRANCH   1  71
TORSDOF 19
ENDMDL
