MODEL 1
REMARK VINA RESULT:     -11.4      0.000      0.000
REMARK SMILES O=C(OCCOCCOC(=O)[C@@H]1CS[C@H](c2cc(Br)ccc2O)[NH2+]1)c1ccc(-c2c3nc(c(-c4cc(S(=O)(=O)[O-])ccc4F)c4ccc([nH]4)c(-c4cc(S(=O)(=O)[O-])ccc4F)c4nc(c(-c5cc(S(=O)(=O)[O-])ccc5F)c5ccc2[nH]5)C=C4)C=C3)cc1
REMARK SMILES IDX 5 1 4 2 3 3 2 4 1 5 25 6 26 7 87 8 27 9 86 10 28 11 29 12
REMARK SMILES IDX 30 13 80 14 31 15 85 16 79 17 81 18 32 19 84 20 78 21 77 22
REMARK SMILES IDX 33 24 65 25 45 26 64 27 46 28 49 29 63 30 82 31 47 32 48 33
REMARK SMILES IDX 62 35 83 36 50 37 34 38 35 39 43 40 36 41 42 42 44 43 41 44
REMARK SMILES IDX 37 45 38 46 39 47 40 48 66 49 67 50 75 51 68 52 74 53 76 54
REMARK SMILES IDX 73 55 69 56 70 57 71 58 72 59 51 60 52 61 60 62 53 63 59 64
REMARK SMILES IDX 61 65 58 66 54 67 55 68 56 69 57 70 6 71 7 72 8 73 9 74
REMARK SMILES IDX 10 75 11 76 12 77 13 78 24 79 14 80 15 81 16 84 17 85 22 86
REMARK SMILES IDX 18 87 21 88 19 89 20 90 23 91
REMARK H PARENT 81 23 49 34 24 82 24 83 23 92
REMARK Flexibility Score: inf
ROOT
ATOM      1  C   UNL A   1      31.417  28.188  25.396  1.00  0.00     0.202 C 
ENDROOT
BRANCH   1   2
ATOM      2  C   UNL A   1      31.778  29.690  25.276  1.00  0.00     0.261 C 
BRANCH   2   3
ATOM      3  O   UNL A   1      33.087  30.047  25.782  1.00  0.00    -0.460 OA
BRANCH   3   4
ATOM      4  C   UNL A   1      33.275  30.900  26.825  1.00  0.00     0.338 C 
ATOM      5  O   UNL A   1      32.428  31.741  27.129  1.00  0.00    -0.246 OA
BRANCH   4   6
ATOM      6  C   UNL A   1      34.555  30.821  27.558  1.00  0.00     0.060 A 
ATOM      7  C   UNL A   1      34.991  29.585  28.003  1.00  0.00     0.016 A 
ATOM      8  C   UNL A   1      35.358  31.934  27.787  1.00  0.00     0.016 A 
ATOM      9  C   UNL A   1      36.018  29.463  28.902  1.00  0.00     0.010 A 
ATOM     10  C   UNL A   1      36.568  31.767  28.473  1.00  0.00     0.010 A 
ATOM     11  C   UNL A   1      36.899  30.523  29.048  1.00  0.00    -0.014 A 
BRANCH  11  12
ATOM     12  C   UNL A   1      38.170  30.267  29.761  1.00  0.00     0.031 A 
ATOM     13  C   UNL A   1      39.214  29.436  29.093  1.00  0.00     0.074 A 
ATOM     14  C   UNL A   1      38.382  30.819  30.976  1.00  0.00     0.049 A 
ATOM     15  N   UNL A   1      40.264  28.861  29.609  1.00  0.00    -0.248 NA
ATOM     16  C   UNL A   1      39.033  29.192  27.653  1.00  0.00     0.031 C 
ATOM     17  C   UNL A   1      37.468  31.741  31.670  1.00  0.00     0.029 A 
ATOM     18  N   UNL A   1      39.439  30.719  31.841  1.00  0.00    -0.354 N 
ATOM     19  C   UNL A   1      40.827  28.119  28.578  1.00  0.00     0.074 A 
ATOM     20  C   UNL A   1      39.995  28.317  27.410  1.00  0.00     0.031 C 
ATOM     21  C   UNL A   1      38.036  32.175  32.801  1.00  0.00     0.029 A 
ATOM     22  C   UNL A   1      39.266  31.434  33.007  1.00  0.00     0.049 A 
ATOM     23  H   UNL A   1      40.245  30.187  31.649  1.00  0.00     0.167 HD
ATOM     24  C   UNL A   1      41.929  27.335  28.630  1.00  0.00     0.034 A 
ATOM     25  C   UNL A   1      39.974  31.427  34.151  1.00  0.00     0.034 A 
ATOM     26  C   UNL A   1      42.724  27.201  29.826  1.00  0.00     0.049 A 
ATOM     27  C   UNL A   1      41.141  30.481  34.216  1.00  0.00     0.074 A 
ATOM     28  C   UNL A   1      43.834  26.408  30.050  1.00  0.00     0.029 A 
ATOM     29  N   UNL A   1      42.487  27.896  31.011  1.00  0.00    -0.354 N 
ATOM     30  N   UNL A   1      41.606  29.684  33.280  1.00  0.00    -0.248 NA
ATOM     31  C   UNL A   1      41.861  30.412  35.489  1.00  0.00     0.031 C 
ATOM     32  C   UNL A   1      44.224  26.574  31.383  1.00  0.00     0.029 A 
ATOM     33  C   UNL A   1      43.414  27.535  31.973  1.00  0.00     0.049 A 
ATOM     34  H   UNL A   1      41.763  28.550  31.144  1.00  0.00     0.167 HD
ATOM     35  C   UNL A   1      42.689  29.026  33.847  1.00  0.00     0.074 A 
ATOM     36  C   UNL A   1      42.818  29.543  35.197  1.00  0.00     0.031 C 
ATOM     37  C   UNL A   1      43.500  28.079  33.311  1.00  0.00     0.034 A 
BRANCH  24  38
ATOM     38  C   UNL A   1      42.239  26.509  27.406  1.00  0.00     0.023 A 
ATOM     39  C   UNL A   1      41.814  25.174  27.278  1.00  0.00     0.031 A 
ATOM     40  C   UNL A   1      43.081  27.026  26.404  1.00  0.00     0.131 A 
ATOM     41  C   UNL A   1      42.319  24.375  26.240  1.00  0.00     0.055 A 
ATOM     42  C   UNL A   1      43.500  26.253  25.319  1.00  0.00     0.041 A 
ATOM     43  F   UNL A   1      43.548  28.282  26.484  1.00  0.00    -0.206 F 
ATOM     44  C   UNL A   1      43.138  24.912  25.244  1.00  0.00     0.022 A 
BRANCH  41  45
ATOM     45  S   UNL A   1      42.055  22.580  26.325  1.00  0.00     0.124 S 
ATOM     46  O   UNL A   1      42.710  22.248  27.588  1.00  0.00    -0.237 OA
ATOM     47  O   UNL A   1      40.601  22.474  26.313  1.00  0.00    -0.237 OA
ATOM     48  O   UNL A   1      42.728  22.077  25.129  1.00  0.00    -0.744 OA
ENDBRANCH  41  45
ENDBRANCH  24  38
BRANCH  25  49
ATOM     49  C   UNL A   1      39.545  32.236  35.331  1.00  0.00     0.023 A 
ATOM     50  C   UNL A   1      38.797  31.663  36.371  1.00  0.00     0.031 A 
ATOM     51  C   UNL A   1      39.850  33.609  35.430  1.00  0.00     0.131 A 
ATOM     52  C   UNL A   1      38.348  32.460  37.438  1.00  0.00     0.055 A 
ATOM     53  C   UNL A   1      39.459  34.383  36.525  1.00  0.00     0.041 A 
ATOM     54  F   UNL A   1      40.556  34.222  34.466  1.00  0.00    -0.206 F 
ATOM     55  C   UNL A   1      38.690  33.811  37.532  1.00  0.00     0.022 A 
BRANCH  52  56
ATOM     56  S   UNL A   1      37.225  31.726  38.658  1.00  0.00     0.124 S 
ATOM     57  O   UNL A   1      38.001  31.847  39.886  1.00  0.00    -0.237 OA
ATOM     58  O   UNL A   1      36.053  32.587  38.550  1.00  0.00    -0.237 OA
ATOM     59  O   UNL A   1      37.039  30.360  38.171  1.00  0.00    -0.744 OA
ENDBRANCH  52  56
ENDBRANCH  25  49
BRANCH  37  60
ATOM     60  C   UNL A   1      44.628  27.598  34.185  1.00  0.00     0.023 A 
ATOM     61  C   UNL A   1      44.487  26.479  35.020  1.00  0.00     0.031 A 
ATOM     62  C   UNL A   1      45.855  28.284  34.185  1.00  0.00     0.131 A 
ATOM     63  C   UNL A   1      45.539  26.113  35.870  1.00  0.00     0.055 A 
ATOM     64  C   UNL A   1      46.921  27.871  34.979  1.00  0.00     0.041 A 
ATOM     65  F   UNL A   1      46.034  29.365  33.409  1.00  0.00    -0.206 F 
ATOM     66  C   UNL A   1      46.763  26.787  35.838  1.00  0.00     0.022 A 
BRANCH  63  67
ATOM     67  S   UNL A   1      45.249  24.809  37.095  1.00  0.00     0.124 S 
ATOM     68  O   UNL A   1      44.326  25.461  38.018  1.00  0.00    -0.237 OA
ATOM     69  O   UNL A   1      44.686  23.736  36.282  1.00  0.00    -0.237 OA
ATOM     70  O   UNL A   1      46.582  24.544  37.633  1.00  0.00    -0.744 OA
ENDBRANCH  63  67
ENDBRANCH  37  60
ENDBRANCH  11  12
ENDBRANCH   4   6
ENDBRANCH   3   4
ENDBRANCH   2   3
ENDBRANCH   1   2
BRANCH   1  71
ATOM     71  O   UNL A   1      31.675  27.359  24.269  1.00  0.00    -0.374 OA
BRANCH  71  72
ATOM     72  C   UNL A   1      30.602  26.501  23.908  1.00  0.00     0.202 C 
BRANCH  72  73
ATOM     73  C   UNL A   1      31.140  25.144  23.460  1.00  0.00     0.261 C 
BRANCH  73  74
ATOM     74  O   UNL A   1      32.450  25.294  22.866  1.00  0.00    -0.459 OA
BRANCH  74  75
ATOM     75  C   UNL A   1      33.382  24.355  23.195  1.00  0.00     0.365 C 
ATOM     76  O   UNL A   1      34.523  24.313  22.749  1.00  0.00    -0.245 OA
BRANCH  75  77
ATOM     77  C   UNL A   1      32.874  23.340  24.240  1.00  0.00     0.304 C 
ATOM     78  C   UNL A   1      33.859  23.032  25.357  1.00  0.00     0.153 C 
ATOM     79  N   UNL A   1      32.576  22.054  23.571  1.00  0.00    -0.319 N 
ATOM     80  S   UNL A   1      33.258  21.464  26.053  1.00  0.00    -0.087 SA
ATOM     81  C   UNL A   1      32.322  20.999  24.557  1.00  0.00     0.278 C 
ATOM     82  H   UNL A   1      33.374  21.786  22.993  1.00  0.00     0.348 HD
ATOM     83  H   UNL A   1      31.742  22.170  22.995  1.00  0.00     0.348 HD
BRANCH  81  84
ATOM     84  C   UNL A   1      32.734  19.632  24.024  1.00  0.00     0.063 A 
ATOM     85  C   UNL A   1      33.583  18.790  24.756  1.00  0.00     0.030 A 
ATOM     86  C   UNL A   1      32.302  19.140  22.783  1.00  0.00     0.125 A 
ATOM     87  C   UNL A   1      33.868  17.494  24.295  1.00  0.00     0.018 A 
ATOM     88  C   UNL A   1      32.456  17.814  22.392  1.00  0.00     0.048 A 
ATOM     89  Br  UNL A   1      35.166  16.445  25.186  1.00  0.00    -0.051 Br
ATOM     90  C   UNL A   1      33.248  16.978  23.158  1.00  0.00     0.019 A 
BRANCH  86  91
ATOM     91  O   UNL A   1      31.821  19.973  21.822  1.00  0.00    -0.507 OA
ATOM     92  H   UNL A   1      31.359  19.623  21.086  1.00  0.00     0.293 HD
ENDBRANCH  86  91
ENDBRANCH  81  84
ENDBRANCH  75  77
ENDBRANCH  74  75
ENDBRANCH  73  74
ENDBRANCH  72  73
ENDBRANCH  71  72
ENDBRANCH   1  71
TORSDOF 19
ENDMDL
MODEL 2
REMARK VINA RESULT:     -11.2      9.888     14.375
REMARK SMILES O=C(OCCOCCOC(=O)[C@@H]1CS[C@H](c2cc(Br)ccc2O)[NH2+]1)c1ccc(-c2c3nc(c(-c4cc(S(=O)(=O)[O-])ccc4F)c4ccc([nH]4)c(-c4cc(S(=O)(=O)[O-])ccc4F)c4nc(c(-c5cc(S(=O)(=O)[O-])ccc5F)c5ccc2[nH]5)C=C4)C=C3)cc1
REMARK SMILES IDX 5 1 4 2 3 3 2 4 1 5 25 6 26 7 87 8 27 9 86 10 28 11 29 12
REMARK SMILES IDX 30 13 80 14 31 15 85 16 79 17 81 18 32 19 84 20 78 21 77 22
REMARK SMILES IDX 33 24 65 25 45 26 64 27 46 28 49 29 63 30 82 31 47 32 48 33
REMARK SMILES IDX 62 35 83 36 50 37 34 38 35 39 43 40 36 41 42 42 44 43 41 44
REMARK SMILES IDX 37 45 38 46 39 47 40 48 66 49 67 50 75 51 68 52 74 53 76 54
REMARK SMILES IDX 73 55 69 56 70 57 71 58 72 59 51 60 52 61 60 62 53 63 59 64
REMARK SMILES IDX 61 65 58 66 54 67 55 68 56 69 57 70 6 71 7 72 8 73 9 74
REMARK SMILES IDX 10 75 11 76 12 77 13 78 24 79 14 80 15 81 16 84 17 85 22 86
REMARK SMILES IDX 18 87 21 88 19 89 20 90 23 91
REMARK H PARENT 81 23 49 34 24 82 24 83 23 92
REMARK Flexibility Score: inf
ROOT
ATOM      1  C   UNL A   1      44.708  40.120  26.840  1.00  0.00     0.202 C 
ENDROOT
BRANCH   1   2
ATOM      2  C   UNL A   1      45.293  38.690  26.967  1.00  0.00     0.261 C 
BRANCH   2   3
ATOM      3  O   UNL A   1      45.049  38.041  28.238  1.00  0.00    -0.460 OA
BRANCH   3   4
ATOM      4  C   UNL A   1      45.817  37.023  28.713  1.00  0.00     0.338 C 
ATOM      5  O   UNL A   1      46.916  37.232  29.230  1.00  0.00    -0.246 OA
BRANCH   4   6
ATOM      6  C   UNL A   1      45.314  35.644  28.543  1.00  0.00     0.060 A 
ATOM      7  C   UNL A   1      45.407  34.767  29.610  1.00  0.00     0.016 A 
ATOM      8  C   UNL A   1      44.718  35.202  27.366  1.00  0.00     0.016 A 
ATOM      9  C   UNL A   1      45.208  33.419  29.455  1.00  0.00     0.010 A 
ATOM     10  C   UNL A   1      44.250  33.884  27.297  1.00  0.00     0.010 A 
ATOM     11  C   UNL A   1      44.506  32.978  28.345  1.00  0.00    -0.014 A 
BRANCH  11  12
ATOM     12  C   UNL A   1      44.018  31.580  28.353  1.00  0.00     0.031 A 
ATOM     13  C   UNL A   1      44.848  30.525  27.700  1.00  0.00     0.074 A 
ATOM     14  C   UNL A   1      42.861  31.276  28.981  1.00  0.00     0.049 A 
ATOM     15  N   UNL A   1      44.514  29.316  27.346  1.00  0.00    -0.248 NA
ATOM     16  C   UNL A   1      46.234  30.894  27.372  1.00  0.00     0.031 C 
ATOM     17  C   UNL A   1      42.028  32.218  29.747  1.00  0.00     0.029 A 
ATOM     18  N   UNL A   1      42.188  30.090  29.108  1.00  0.00    -0.354 N 
ATOM     19  C   UNL A   1      45.621  28.805  26.680  1.00  0.00     0.074 A 
ATOM     20  C   UNL A   1      46.631  29.841  26.677  1.00  0.00     0.031 C 
ATOM     21  C   UNL A   1      41.014  31.560  30.322  1.00  0.00     0.029 A 
ATOM     22  C   UNL A   1      41.015  30.197  29.826  1.00  0.00     0.049 A 
ATOM     23  H   UNL A   1      42.510  29.243  28.725  1.00  0.00     0.167 HD
ATOM     24  C   UNL A   1      45.751  27.583  26.112  1.00  0.00     0.034 A 
ATOM     25  C   UNL A   1      40.008  29.321  29.991  1.00  0.00     0.034 A 
ATOM     26  C   UNL A   1      44.706  26.589  26.172  1.00  0.00     0.049 A 
ATOM     27  C   UNL A   1      40.136  28.004  29.278  1.00  0.00     0.074 A 
ATOM     28  C   UNL A   1      44.670  25.330  25.604  1.00  0.00     0.029 A 
ATOM     29  N   UNL A   1      43.504  26.751  26.858  1.00  0.00    -0.354 N 
ATOM     30  N   UNL A   1      41.132  27.560  28.542  1.00  0.00    -0.248 NA
ATOM     31  C   UNL A   1      39.004  27.082  29.390  1.00  0.00     0.031 C 
ATOM     32  C   UNL A   1      43.424  24.762  25.890  1.00  0.00     0.029 A 
ATOM     33  C   UNL A   1      42.711  25.626  26.710  1.00  0.00     0.049 A 
ATOM     34  H   UNL A   1      43.254  27.552  27.374  1.00  0.00     0.167 HD
ATOM     35  C   UNL A   1      40.753  26.295  28.115  1.00  0.00     0.074 A 
ATOM     36  C   UNL A   1      39.447  26.042  28.699  1.00  0.00     0.031 C 
ATOM     37  C   UNL A   1      41.412  25.422  27.311  1.00  0.00     0.034 A 
BRANCH  24  38
ATOM     38  C   UNL A   1      47.004  27.332  25.309  1.00  0.00     0.023 A 
ATOM     39  C   UNL A   1      47.180  27.856  24.016  1.00  0.00     0.031 A 
ATOM     40  C   UNL A   1      47.986  26.451  25.797  1.00  0.00     0.131 A 
ATOM     41  C   UNL A   1      48.246  27.409  23.219  1.00  0.00     0.055 A 
ATOM     42  C   UNL A   1      49.098  26.088  25.035  1.00  0.00     0.041 A 
ATOM     43  F   UNL A   1      47.861  25.891  27.011  1.00  0.00    -0.206 F 
ATOM     44  C   UNL A   1      49.222  26.549  23.728  1.00  0.00     0.022 A 
BRANCH  41  45
ATOM     45  S   UNL A   1      48.226  27.807  21.447  1.00  0.00     0.124 S 
ATOM     46  O   UNL A   1      48.376  26.483  20.848  1.00  0.00    -0.237 OA
ATOM     47  O   UNL A   1      46.921  28.437  21.280  1.00  0.00    -0.237 OA
ATOM     48  O   UNL A   1      49.374  28.694  21.281  1.00  0.00    -0.744 OA
ENDBRANCH  41  45
ENDBRANCH  24  38
BRANCH  25  49
ATOM     49  C   UNL A   1      38.778  29.691  30.755  1.00  0.00     0.023 A 
ATOM     50  C   UNL A   1      37.801  30.527  30.194  1.00  0.00     0.031 A 
ATOM     51  C   UNL A   1      38.568  29.239  32.073  1.00  0.00     0.131 A 
ATOM     52  C   UNL A   1      36.685  30.914  30.955  1.00  0.00     0.055 A 
ATOM     53  C   UNL A   1      37.425  29.573  32.803  1.00  0.00     0.041 A 
ATOM     54  F   UNL A   1      39.469  28.442  32.673  1.00  0.00    -0.206 F 
ATOM     55  C   UNL A   1      36.481  30.428  32.248  1.00  0.00     0.022 A 
BRANCH  52  56
ATOM     56  S   UNL A   1      35.546  32.145  30.263  1.00  0.00     0.124 S 
ATOM     57  O   UNL A   1      34.598  32.319  31.356  1.00  0.00    -0.237 OA
ATOM     58  O   UNL A   1      36.438  33.269  30.000  1.00  0.00    -0.237 OA
ATOM     59  O   UNL A   1      35.013  31.484  29.073  1.00  0.00    -0.744 OA
ENDBRANCH  52  56
ENDBRANCH  25  49
BRANCH  37  60
ATOM     60  C   UNL A   1      40.739  24.096  27.078  1.00  0.00     0.023 A 
ATOM     61  C   UNL A   1      39.532  23.997  26.369  1.00  0.00     0.031 A 
ATOM     62  C   UNL A   1      41.315  22.919  27.588  1.00  0.00     0.131 A 
ATOM     63  C   UNL A   1      38.905  22.750  26.240  1.00  0.00     0.055 A 
ATOM     64  C   UNL A   1      40.724  21.674  27.393  1.00  0.00     0.041 A 
ATOM     65  F   UNL A   1      42.465  22.966  28.280  1.00  0.00    -0.206 F 
ATOM     66  C   UNL A   1      39.505  21.585  26.727  1.00  0.00     0.022 A 
BRANCH  63  67
ATOM     67  S   UNL A   1      37.244  22.686  25.519  1.00  0.00     0.124 S 
ATOM     68  O   UNL A   1      36.845  21.311  25.799  1.00  0.00    -0.237 OA
ATOM     69  O   UNL A   1      36.538  23.720  26.268  1.00  0.00    -0.237 OA
ATOM     70  O   UNL A   1      37.473  22.991  24.108  1.00  0.00    -0.744 OA
ENDBRANCH  63  67
ENDBRANCH  37  60
ENDBRANCH  11  12
ENDBRANCH   4   6
ENDBRANCH   3   4
ENDBRANCH   2   3
ENDBRANCH   1   2
BRANCH   1  71
ATOM     71  O   UNL A   1      43.907  40.402  25.698  1.00  0.00    -0.374 OA
BRANCH  71  72
ATOM     72  C   UNL A   1      42.965  41.447  25.881  1.00  0.00     0.202 C 
BRANCH  72  73
ATOM     73  C   UNL A   1      42.095  41.599  24.635  1.00  0.00     0.261 C 
BRANCH  73  74
ATOM     74  O   UNL A   1      42.923  41.802  23.467  1.00  0.00    -0.459 OA
BRANCH  74  75
ATOM     75  C   UNL A   1      42.437  42.646  22.513  1.00  0.00     0.365 C 
ATOM     76  O   UNL A   1      41.318  43.147  22.526  1.00  0.00    -0.245 OA
BRANCH  75  77
ATOM     77  C   UNL A   1      43.461  42.958  21.402  1.00  0.00     0.304 C 
ATOM     78  C   UNL A   1      44.405  44.109  21.714  1.00  0.00     0.153 C 
ATOM     79  N   UNL A   1      42.743  43.323  20.161  1.00  0.00    -0.319 N 
ATOM     80  S   UNL A   1      45.056  44.597  20.089  1.00  0.00    -0.087 SA
ATOM     81  C   UNL A   1      43.672  43.855  19.159  1.00  0.00     0.278 C 
ATOM     82  H   UNL A   1      42.042  44.033  20.377  1.00  0.00     0.348 HD
ATOM     83  H   UNL A   1      42.298  42.487  19.783  1.00  0.00     0.348 HD
BRANCH  81  84
ATOM     84  C   UNL A   1      42.985  44.867  18.249  1.00  0.00     0.063 A 
ATOM     85  C   UNL A   1      43.466  46.178  18.121  1.00  0.00     0.030 A 
ATOM     86  C   UNL A   1      41.839  44.558  17.500  1.00  0.00     0.125 A 
ATOM     87  C   UNL A   1      42.881  47.063  17.201  1.00  0.00     0.018 A 
ATOM     88  C   UNL A   1      41.348  45.373  16.486  1.00  0.00     0.048 A 
ATOM     89  Br  UNL A   1      43.409  48.879  17.179  1.00  0.00    -0.051 Br
ATOM     90  C   UNL A   1      41.876  46.643  16.331  1.00  0.00     0.019 A 
BRANCH  86  91
ATOM     91  O   UNL A   1      41.053  43.495  17.817  1.00  0.00    -0.507 OA
ATOM     92  H   UNL A   1      40.184  43.633  18.138  1.00  0.00     0.293 HD
ENDBRANCH  86  91
ENDBRANCH  81  84
ENDBRANCH  75  77
ENDBRANCH  74  75
ENDBRANCH  73  74
ENDBRANCH  72  73
ENDBRANCH  71  72
ENDBRANCH   1  71
TORSDOF 19
ENDMDL
MODEL 3
REMARK VINA RESULT:     -11.2      5.067      9.795
REMARK SMILES O=C(OCCOCCOC(=O)[C@@H]1CS[C@H](c2cc(Br)ccc2O)[NH2+]1)c1ccc(-c2c3nc(c(-c4cc(S(=O)(=O)[O-])ccc4F)c4ccc([nH]4)c(-c4cc(S(=O)(=O)[O-])ccc4F)c4nc(c(-c5cc(S(=O)(=O)[O-])ccc5F)c5ccc2[nH]5)C=C4)C=C3)cc1
REMARK SMILES IDX 5 1 4 2 3 3 2 4 1 5 25 6 26 7 87 8 27 9 86 10 28 11 29 12
REMARK SMILES IDX 30 13 80 14 31 15 85 16 79 17 81 18 32 19 84 20 78 21 77 22
REMARK SMILES IDX 33 24 65 25 45 26 64 27 46 28 49 29 63 30 82 31 47 32 48 33
REMARK SMILES IDX 62 35 83 36 50 37 34 38 35 39 43 40 36 41 42 42 44 43 41 44
REMARK SMILES IDX 37 45 38 46 39 47 40 48 66 49 67 50 75 51 68 52 74 53 76 54
REMARK SMILES IDX 73 55 69 56 70 57 71 58 72 59 51 60 52 61 60 62 53 63 59 64
REMARK SMILES IDX 61 65 58 66 54 67 55 68 56 69 57 70 6 71 7 72 8 73 9 74
REMARK SMILES IDX 10 75 11 76 12 77 13 78 24 79 14 80 15 81 16 84 17 85 22 86
REMARK SMILES IDX 18 87 21 88 19 89 20 90 23 91
REMARK H PARENT 81 23 49 34 24 82 24 83 23 92
REMARK Flexibility Score: inf
ROOT
ATOM      1  C   UNL A   1      35.701  23.296  23.772  1.00  0.00     0.202 C 
ENDROOT
BRANCH   1   2
ATOM      2  C   UNL A   1      36.071  21.886  24.299  1.00  0.00     0.261 C 
BRANCH   2   3
ATOM      3  O   UNL A   1      36.744  21.870  25.581  1.00  0.00    -0.460 OA
BRANCH   3   4
ATOM      4  C   UNL A   1      38.063  21.566  25.724  1.00  0.00     0.338 C 
ATOM      5  O   UNL A   1      38.494  20.439  25.476  1.00  0.00    -0.246 OA
BRANCH   4   6
ATOM      6  C   UNL A   1      38.961  22.620  26.239  1.00  0.00     0.060 A 
ATOM      7  C   UNL A   1      38.587  23.944  26.086  1.00  0.00     0.016 A 
ATOM      8  C   UNL A   1      40.150  22.335  26.903  1.00  0.00     0.016 A 
ATOM      9  C   UNL A   1      39.469  24.972  26.295  1.00  0.00     0.010 A 
ATOM     10  C   UNL A   1      40.932  23.396  27.377  1.00  0.00     0.010 A 
ATOM     11  C   UNL A   1      40.598  24.728  27.062  1.00  0.00    -0.014 A 
BRANCH  11  12
ATOM     12  C   UNL A   1      41.361  25.898  27.551  1.00  0.00     0.031 A 
ATOM     13  C   UNL A   1      40.697  26.849  28.490  1.00  0.00     0.074 A 
ATOM     14  C   UNL A   1      42.650  26.063  27.177  1.00  0.00     0.049 A 
ATOM     15  N   UNL A   1      41.053  28.055  28.830  1.00  0.00    -0.248 NA
ATOM     16  C   UNL A   1      39.443  26.388  29.106  1.00  0.00     0.031 C 
ATOM     17  C   UNL A   1      43.429  25.129  26.348  1.00  0.00     0.029 A 
ATOM     18  N   UNL A   1      43.551  27.055  27.460  1.00  0.00    -0.354 N 
ATOM     19  C   UNL A   1      40.027  28.534  29.635  1.00  0.00     0.074 A 
ATOM     20  C   UNL A   1      39.035  27.484  29.726  1.00  0.00     0.031 C 
ATOM     21  C   UNL A   1      44.696  25.550  26.262  1.00  0.00     0.029 A 
ATOM     22  C   UNL A   1      44.782  26.865  26.869  1.00  0.00     0.049 A 
ATOM     23  H   UNL A   1      43.341  27.828  28.032  1.00  0.00     0.167 HD
ATOM     24  C   UNL A   1      39.935  29.751  30.220  1.00  0.00     0.034 A 
ATOM     25  C   UNL A   1      45.834  27.695  26.751  1.00  0.00     0.034 A 
ATOM     26  C   UNL A   1      40.976  30.743  30.103  1.00  0.00     0.049 A 
ATOM     27  C   UNL A   1      45.673  29.073  27.332  1.00  0.00     0.074 A 
ATOM     28  C   UNL A   1      41.005  32.036  30.593  1.00  0.00     0.029 A 
ATOM     29  N   UNL A   1      42.188  30.540  29.445  1.00  0.00    -0.354 N 
ATOM     30  N   UNL A   1      44.652  29.574  27.992  1.00  0.00    -0.248 NA
ATOM     31  C   UNL A   1      46.785  30.004  27.132  1.00  0.00     0.031 C 
ATOM     32  C   UNL A   1      42.201  32.630  30.175  1.00  0.00     0.029 A 
ATOM     33  C   UNL A   1      42.961  31.687  29.498  1.00  0.00     0.049 A 
ATOM     34  H   UNL A   1      42.455  29.700  29.005  1.00  0.00     0.167 HD
ATOM     35  C   UNL A   1      45.005  30.879  28.303  1.00  0.00     0.074 A 
ATOM     36  C   UNL A   1      46.345  31.074  27.778  1.00  0.00     0.031 C 
ATOM     37  C   UNL A   1      44.294  31.833  28.955  1.00  0.00     0.034 A 
BRANCH  24  38
ATOM     38  C   UNL A   1      38.638  30.078  30.918  1.00  0.00     0.023 A 
ATOM     39  C   UNL A   1      37.597  30.771  30.274  1.00  0.00     0.031 A 
ATOM     40  C   UNL A   1      38.489  29.800  32.289  1.00  0.00     0.131 A 
ATOM     41  C   UNL A   1      36.513  31.257  31.022  1.00  0.00     0.055 A 
ATOM     42  C   UNL A   1      37.360  30.201  33.006  1.00  0.00     0.041 A 
ATOM     43  F   UNL A   1      39.460  29.170  32.969  1.00  0.00    -0.206 F 
ATOM     44  C   UNL A   1      36.373  30.955  32.379  1.00  0.00     0.022 A 
BRANCH  41  45
ATOM     45  S   UNL A   1      35.397  32.460  30.243  1.00  0.00     0.124 S 
ATOM     46  O   UNL A   1      36.270  33.622  30.103  1.00  0.00    -0.237 OA
ATOM     47  O   UNL A   1      35.025  31.789  29.003  1.00  0.00    -0.237 OA
ATOM     48  O   UNL A   1      34.319  32.611  31.219  1.00  0.00    -0.744 OA
ENDBRANCH  41  45
ENDBRANCH  24  38
BRANCH  25  49
ATOM     49  C   UNL A   1      47.052  27.298  25.983  1.00  0.00     0.023 A 
ATOM     50  C   UNL A   1      47.238  27.711  24.655  1.00  0.00     0.031 A 
ATOM     51  C   UNL A   1      48.042  26.471  26.552  1.00  0.00     0.131 A 
ATOM     52  C   UNL A   1      48.359  27.270  23.931  1.00  0.00     0.055 A 
ATOM     53  C   UNL A   1      49.188  26.089  25.850  1.00  0.00     0.041 A 
ATOM     54  F   UNL A   1      47.921  26.033  27.816  1.00  0.00    -0.206 F 
ATOM     55  C   UNL A   1      49.344  26.478  24.525  1.00  0.00     0.022 A 
BRANCH  52  56
ATOM     56  S   UNL A   1      48.464  27.668  22.165  1.00  0.00     0.124 S 
ATOM     57  O   UNL A   1      47.209  28.376  21.945  1.00  0.00    -0.237 OA
ATOM     58  O   UNL A   1      49.677  28.476  22.108  1.00  0.00    -0.237 OA
ATOM     59  O   UNL A   1      48.561  26.357  21.525  1.00  0.00    -0.744 OA
ENDBRANCH  52  56
ENDBRANCH  25  49
BRANCH  37  60
ATOM     60  C   UNL A   1      44.993  33.148  29.176  1.00  0.00     0.023 A 
ATOM     61  C   UNL A   1      44.975  34.164  28.208  1.00  0.00     0.031 A 
ATOM     62  C   UNL A   1      45.697  33.374  30.372  1.00  0.00     0.131 A 
ATOM     63  C   UNL A   1      45.701  35.343  28.428  1.00  0.00     0.055 A 
ATOM     64  C   UNL A   1      46.356  34.577  30.614  1.00  0.00     0.041 A 
ATOM     65  F   UNL A   1      45.749  32.428  31.324  1.00  0.00    -0.206 F 
ATOM     66  C   UNL A   1      46.372  35.565  29.634  1.00  0.00     0.022 A 
BRANCH  63  67
ATOM     67  S   UNL A   1      45.843  36.537  27.072  1.00  0.00     0.124 S 
ATOM     68  O   UNL A   1      46.065  35.665  25.923  1.00  0.00    -0.237 OA
ATOM     69  O   UNL A   1      44.553  37.217  27.117  1.00  0.00    -0.237 OA
ATOM     70  O   UNL A   1      46.990  37.357  27.459  1.00  0.00    -0.744 OA
ENDBRANCH  63  67
ENDBRANCH  37  60
ENDBRANCH  11  12
ENDBRANCH   4   6
ENDBRANCH   3   4
ENDBRANCH   2   3
ENDBRANCH   1   2
BRANCH   1  71
ATOM     71  O   UNL A   1      34.319  23.624  23.688  1.00  0.00    -0.374 OA
BRANCH  71  72
ATOM     72  C   UNL A   1      34.042  24.849  23.026  1.00  0.00     0.202 C 
BRANCH  72  73
ATOM     73  C   UNL A   1      33.543  25.889  24.028  1.00  0.00     0.261 C 
BRANCH  73  74
ATOM     74  O   UNL A   1      33.612  25.363  25.374  1.00  0.00    -0.459 OA
BRANCH  74  75
ATOM     75  C   UNL A   1      32.425  25.064  25.974  1.00  0.00     0.365 C 
ATOM     76  O   UNL A   1      31.471  25.829  26.058  1.00  0.00    -0.245 OA
BRANCH  75  77
ATOM     77  C   UNL A   1      32.371  23.623  26.521  1.00  0.00     0.304 C 
ATOM     78  C   UNL A   1      33.701  23.083  27.022  1.00  0.00     0.153 C 
ATOM     79  N   UNL A   1      31.919  22.707  25.449  1.00  0.00    -0.319 N 
ATOM     80  S   UNL A   1      33.464  21.281  27.047  1.00  0.00    -0.087 SA
ATOM     81  C   UNL A   1      32.083  21.308  25.855  1.00  0.00     0.278 C 
ATOM     82  H   UNL A   1      32.473  22.879  24.609  1.00  0.00     0.348 HD
ATOM     83  H   UNL A   1      30.931  22.881  25.267  1.00  0.00     0.348 HD
BRANCH  81  84
ATOM     84  C   UNL A   1      32.347  20.410  24.652  1.00  0.00     0.063 A 
ATOM     85  C   UNL A   1      32.848  19.110  24.807  1.00  0.00     0.030 A 
ATOM     86  C   UNL A   1      32.115  20.825  23.331  1.00  0.00     0.125 A 
ATOM     87  C   UNL A   1      32.987  18.264  23.695  1.00  0.00     0.018 A 
ATOM     88  C   UNL A   1      32.108  19.952  22.248  1.00  0.00     0.048 A 
ATOM     89  Br  UNL A   1      33.846  16.590  23.890  1.00  0.00    -0.051 Br
ATOM     90  C   UNL A   1      32.548  18.653  22.431  1.00  0.00     0.019 A 
BRANCH  86  91
ATOM     91  O   UNL A   1      32.016  22.142  23.011  1.00  0.00    -0.507 OA
ATOM     92  H   UNL A   1      32.709  22.732  23.232  1.00  0.00     0.293 HD
ENDBRANCH  86  91
ENDBRANCH  81  84
ENDBRANCH  75  77
ENDBRANCH  74  75
ENDBRANCH  73  74
ENDBRANCH  72  73
ENDBRANCH  71  72
ENDBRANCH   1  71
TORSDOF 19
ENDMDL
