MODEL 1
REMARK VINA RESULT:      -9.9      0.000      0.000
REMARK SMILES CCC[C@@H]([NH2+]C[C@H]1CSc2ccccc21)C(=O)OCCOCCOC(=O)c1ccc(-c2c3nc(c(-c4cc(S(=O)(=O)[O-])ccc4F)c4ccc([nH]4)c(-c4cc(S(=O)(=O)[O-])ccc4F)c4nc(c(-c5cc(S(=O)(=O)[O-])ccc5F)c5ccc2[nH]5)C=C4)C=C3)cc1
REMARK SMILES IDX 21 1 20 2 19 3 18 4 16 5 17 6 4 7 3 8 2 9 1 10 5 11 6 14
REMARK SMILES IDX 7 15 8 16 15 17 9 18 10 19 14 20 11 21 13 22 12 23 22 24
REMARK SMILES IDX 23 25 24 26 25 27 26 28 27 29 28 30 89 31 29 32 88 33 30 34
REMARK SMILES IDX 31 35 32 36 82 37 33 38 87 39 81 40 83 41 34 42 86 43 80 44
REMARK SMILES IDX 79 45 35 47 67 48 47 49 66 50 48 51 51 52 65 53 84 54 49 55
REMARK SMILES IDX 50 56 64 58 85 59 52 60 36 61 37 62 45 63 38 64 44 65 46 66
REMARK SMILES IDX 43 67 39 68 40 69 41 70 42 71 68 72 69 73 77 74 70 75 76 76
REMARK SMILES IDX 78 77 75 78 71 79 72 80 73 81 74 82 53 83 54 84 62 85 55 86
REMARK SMILES IDX 61 87 63 88 60 89 56 90 57 91 58 92 59 93
REMARK H PARENT 5 12 5 13 83 46 51 57
REMARK Flexibility Score: inf
ROOT
ATOM      1  O   UNL A   1      34.972  21.137  24.251  1.00  0.00    -0.374 OA
ENDROOT
BRANCH   1   2
ATOM      2  C   UNL A   1      34.109  20.918  25.361  1.00  0.00     0.202 C 
BRANCH   2   3
ATOM      3  C   UNL A   1      32.663  20.476  25.104  1.00  0.00     0.261 C 
BRANCH   3   4
ATOM      4  O   UNL A   1      31.724  21.557  25.062  1.00  0.00    -0.459 OA
BRANCH   4   5
ATOM      5  C   UNL A   1      31.910  22.385  24.001  1.00  0.00     0.364 C 
ATOM      6  O   UNL A   1      31.912  22.009  22.830  1.00  0.00    -0.245 OA
BRANCH   5   7
ATOM      7  C   UNL A   1      32.084  23.871  24.379  1.00  0.00     0.293 C 
BRANCH   7   8
ATOM      8  C   UNL A   1      32.414  24.146  25.862  1.00  0.00     0.077 C 
BRANCH   8   9
ATOM      9  C   UNL A   1      31.310  24.873  26.654  1.00  0.00     0.003 C 
ATOM     10  C   UNL A   1      30.297  25.621  25.797  1.00  0.00     0.004 C 
ENDBRANCH   8   9
ENDBRANCH   7   8
BRANCH   7  11
ATOM     11  N   UNL A   1      33.054  24.522  23.469  1.00  0.00    -0.334 N 
ATOM     12  H   UNL A   1      32.530  25.046  22.768  1.00  0.00     0.347 HD
ATOM     13  H   UNL A   1      33.621  23.775  23.069  1.00  0.00     0.347 HD
BRANCH  11  14
ATOM     14  C   UNL A   1      33.991  25.450  24.131  1.00  0.00     0.270 C 
BRANCH  14  15
ATOM     15  C   UNL A   1      33.783  26.960  23.862  1.00  0.00     0.086 C 
ATOM     16  C   UNL A   1      32.809  27.230  22.699  1.00  0.00     0.089 C 
ATOM     17  C   UNL A   1      33.321  27.747  25.061  1.00  0.00    -0.025 A 
ATOM     18  S   UNL A   1      31.470  28.315  23.256  1.00  0.00    -0.125 SA
ATOM     19  C   UNL A   1      32.182  28.522  24.854  1.00  0.00     0.011 A 
ATOM     20  C   UNL A   1      34.006  27.823  26.273  1.00  0.00     0.005 A 
ATOM     21  C   UNL A   1      31.713  29.383  25.834  1.00  0.00     0.015 A 
ATOM     22  C   UNL A   1      33.536  28.681  27.269  1.00  0.00     0.000 A 
ATOM     23  C   UNL A   1      32.397  29.464  27.047  1.00  0.00     0.001 A 
ENDBRANCH  14  15
ENDBRANCH  11  14
ENDBRANCH   7  11
ENDBRANCH   5   7
ENDBRANCH   4   5
ENDBRANCH   3   4
ENDBRANCH   2   3
ENDBRANCH   1   2
BRANCH   1  24
ATOM     24  C   UNL A   1      36.166  21.895  24.437  1.00  0.00     0.202 C 
BRANCH  24  25
ATOM     25  C   UNL A   1      37.471  21.167  24.781  1.00  0.00     0.261 C 
BRANCH  25  26
ATOM     26  O   UNL A   1      37.936  21.454  26.111  1.00  0.00    -0.460 OA
BRANCH  26  27
ATOM     27  C   UNL A   1      39.286  21.444  26.258  1.00  0.00     0.338 C 
ATOM     28  O   UNL A   1      40.062  20.593  25.850  1.00  0.00    -0.246 OA
BRANCH  27  29
ATOM     29  C   UNL A   1      39.729  22.745  26.794  1.00  0.00     0.060 A 
ATOM     30  C   UNL A   1      40.737  22.827  27.753  1.00  0.00     0.016 A 
ATOM     31  C   UNL A   1      39.137  23.906  26.280  1.00  0.00     0.016 A 
ATOM     32  C   UNL A   1      41.169  24.085  28.182  1.00  0.00     0.010 A 
ATOM     33  C   UNL A   1      39.567  25.160  26.712  1.00  0.00     0.010 A 
ATOM     34  C   UNL A   1      40.599  25.259  27.655  1.00  0.00    -0.014 A 
BRANCH  34  35
ATOM     35  C   UNL A   1      41.168  26.589  27.989  1.00  0.00     0.031 A 
ATOM     36  C   UNL A   1      40.340  27.652  28.644  1.00  0.00     0.074 A 
ATOM     37  C   UNL A   1      42.449  26.839  27.655  1.00  0.00     0.049 A 
ATOM     38  N   UNL A   1      40.704  28.841  29.046  1.00  0.00    -0.248 NA
ATOM     39  C   UNL A   1      38.919  27.348  28.869  1.00  0.00     0.031 C 
ATOM     40  C   UNL A   1      43.328  25.892  26.969  1.00  0.00     0.029 A 
ATOM     41  N   UNL A   1      43.233  27.950  27.841  1.00  0.00    -0.354 N 
ATOM     42  C   UNL A   1      39.567  29.425  29.593  1.00  0.00     0.074 A 
ATOM     43  C   UNL A   1      38.486  28.479  29.414  1.00  0.00     0.031 C 
ATOM     44  C   UNL A   1      44.539  26.447  26.822  1.00  0.00     0.029 A 
ATOM     45  C   UNL A   1      44.516  27.804  27.364  1.00  0.00     0.049 A 
ATOM     46  H   UNL A   1      42.910  28.772  28.275  1.00  0.00     0.167 HD
ATOM     47  C   UNL A   1      39.452  30.626  30.208  1.00  0.00     0.034 A 
ATOM     48  C   UNL A   1      45.559  28.661  27.363  1.00  0.00     0.034 A 
ATOM     49  C   UNL A   1      40.543  31.559  30.358  1.00  0.00     0.049 A 
ATOM     50  C   UNL A   1      45.395  30.007  28.022  1.00  0.00     0.074 A 
ATOM     51  C   UNL A   1      40.533  32.784  31.003  1.00  0.00     0.029 A 
ATOM     52  N   UNL A   1      41.826  31.385  29.856  1.00  0.00    -0.354 N 
ATOM     53  N   UNL A   1      44.345  30.502  28.634  1.00  0.00    -0.248 NA
ATOM     54  C   UNL A   1      46.556  30.907  28.011  1.00  0.00     0.031 C 
ATOM     55  C   UNL A   1      41.779  33.384  30.820  1.00  0.00     0.029 A 
ATOM     56  C   UNL A   1      42.603  32.496  30.148  1.00  0.00     0.049 A 
ATOM     57  H   UNL A   1      42.137  30.591  29.366  1.00  0.00     0.167 HD
ATOM     58  C   UNL A   1      44.728  31.754  29.108  1.00  0.00     0.074 A 
ATOM     59  C   UNL A   1      46.113  31.932  28.728  1.00  0.00     0.031 C 
ATOM     60  C   UNL A   1      43.994  32.668  29.792  1.00  0.00     0.034 A 
BRANCH  47  61
ATOM     61  C   UNL A   1      38.117  31.014  30.800  1.00  0.00     0.023 A 
ATOM     62  C   UNL A   1      37.170  31.707  30.021  1.00  0.00     0.031 A 
ATOM     63  C   UNL A   1      37.848  30.839  32.170  1.00  0.00     0.131 A 
ATOM     64  C   UNL A   1      36.021  32.236  30.626  1.00  0.00     0.055 A 
ATOM     65  C   UNL A   1      36.678  31.323  32.757  1.00  0.00     0.041 A 
ATOM     66  F   UNL A   1      38.721  30.195  32.960  1.00  0.00    -0.206 F 
ATOM     67  C   UNL A   1      35.766  32.039  31.989  1.00  0.00     0.022 A 
BRANCH  64  68
ATOM     68  S   UNL A   1      34.859  33.269  29.694  1.00  0.00     0.124 S 
ATOM     69  O   UNL A   1      34.219  32.287  28.822  1.00  0.00    -0.237 OA
ATOM     70  O   UNL A   1      34.010  33.806  30.755  1.00  0.00    -0.237 OA
ATOM     71  O   UNL A   1      35.714  34.237  29.018  1.00  0.00    -0.744 OA
ENDBRANCH  64  68
ENDBRANCH  47  61
BRANCH  48  72
ATOM     72  C   UNL A   1      46.860  28.215  26.785  1.00  0.00     0.023 A 
ATOM     73  C   UNL A   1      47.091  28.271  25.397  1.00  0.00     0.031 A 
ATOM     74  C   UNL A   1      47.839  27.613  27.593  1.00  0.00     0.131 A 
ATOM     75  C   UNL A   1      48.232  27.665  24.856  1.00  0.00     0.055 A 
ATOM     76  C   UNL A   1      49.013  27.080  27.055  1.00  0.00     0.041 A 
ATOM     77  F   UNL A   1      47.657  27.519  28.919  1.00  0.00    -0.206 F 
ATOM     78  C   UNL A   1      49.204  27.088  25.677  1.00  0.00     0.022 A 
BRANCH  75  79
ATOM     79  S   UNL A   1      48.422  27.480  23.061  1.00  0.00     0.124 S 
ATOM     80  O   UNL A   1      47.278  28.231  22.553  1.00  0.00    -0.237 OA
ATOM     81  O   UNL A   1      49.729  28.093  22.838  1.00  0.00    -0.237 OA
ATOM     82  O   UNL A   1      48.371  26.036  22.856  1.00  0.00    -0.744 OA
ENDBRANCH  75  79
ENDBRANCH  48  72
BRANCH  60  83
ATOM     83  C   UNL A   1      44.646  33.965  30.216  1.00  0.00     0.023 A 
ATOM     84  C   UNL A   1      44.676  35.055  29.321  1.00  0.00     0.031 A 
ATOM     85  C   UNL A   1      45.385  34.066  31.406  1.00  0.00     0.131 A 
ATOM     86  C   UNL A   1      45.481  36.167  29.601  1.00  0.00     0.055 A 
ATOM     87  C   UNL A   1      46.137  35.202  31.709  1.00  0.00     0.041 A 
ATOM     88  F   UNL A   1      45.401  33.052  32.287  1.00  0.00    -0.206 F 
ATOM     89  C   UNL A   1      46.203  36.251  30.795  1.00  0.00     0.022 A 
BRANCH  86  90
ATOM     90  S   UNL A   1      45.708  37.489  28.379  1.00  0.00     0.124 S 
ATOM     91  O   UNL A   1      47.164  37.578  28.296  1.00  0.00    -0.237 OA
ATOM     92  O   UNL A   1      45.051  36.932  27.200  1.00  0.00    -0.237 OA
ATOM     93  O   UNL A   1      45.049  38.643  28.981  1.00  0.00    -0.744 OA
ENDBRANCH  86  90
ENDBRANCH  60  83
ENDBRANCH  34  35
ENDBRANCH  27  29
ENDBRANCH  26  27
ENDBRANCH  25  26
ENDBRANCH  24  25
ENDBRANCH   1  24
TORSDOF 22
ENDMDL
MODEL 2
REMARK VINA RESULT:      -9.8      1.690      7.784
REMARK SMILES CCC[C@@H]([NH2+]C[C@H]1CSc2ccccc21)C(=O)OCCOCCOC(=O)c1ccc(-c2c3nc(c(-c4cc(S(=O)(=O)[O-])ccc4F)c4ccc([nH]4)c(-c4cc(S(=O)(=O)[O-])ccc4F)c4nc(c(-c5cc(S(=O)(=O)[O-])ccc5F)c5ccc2[nH]5)C=C4)C=C3)cc1
REMARK SMILES IDX 21 1 20 2 19 3 18 4 16 5 17 6 4 7 3 8 2 9 1 10 5 11 6 14
REMARK SMILES IDX 7 15 8 16 15 17 9 18 10 19 14 20 11 21 13 22 12 23 22 24
REMARK SMILES IDX 23 25 24 26 25 27 26 28 27 29 28 30 89 31 29 32 88 33 30 34
REMARK SMILES IDX 31 35 32 36 82 37 33 38 87 39 81 40 83 41 34 42 86 43 80 44
REMARK SMILES IDX 79 45 35 47 67 48 47 49 66 50 48 51 51 52 65 53 84 54 49 55
REMARK SMILES IDX 50 56 64 58 85 59 52 60 36 61 37 62 45 63 38 64 44 65 46 66
REMARK SMILES IDX 43 67 39 68 40 69 41 70 42 71 68 72 69 73 77 74 70 75 76 76
REMARK SMILES IDX 78 77 75 78 71 79 72 80 73 81 74 82 53 83 54 84 62 85 55 86
REMARK SMILES IDX 61 87 63 88 60 89 56 90 57 91 58 92 59 93
REMARK H PARENT 5 12 5 13 83 46 51 57
REMARK Flexibility Score: inf
ROOT
ATOM      1  O   UNL A   1      34.456  20.684  25.796  1.00  0.00    -0.374 OA
ENDROOT
BRANCH   1   2
ATOM      2  C   UNL A   1      33.884  19.962  24.711  1.00  0.00     0.202 C 
BRANCH   2   3
ATOM      3  C   UNL A   1      32.524  20.403  24.157  1.00  0.00     0.261 C 
BRANCH   3   4
ATOM      4  O   UNL A   1      32.612  21.360  23.094  1.00  0.00    -0.459 OA
BRANCH   4   5
ATOM      5  C   UNL A   1      32.625  22.646  23.533  1.00  0.00     0.364 C 
ATOM      6  O   UNL A   1      33.652  23.289  23.741  1.00  0.00    -0.245 OA
BRANCH   5   7
ATOM      7  C   UNL A   1      31.224  23.266  23.718  1.00  0.00     0.293 C 
BRANCH   7   8
ATOM      8  C   UNL A   1      30.875  23.706  25.156  1.00  0.00     0.077 C 
BRANCH   8   9
ATOM      9  C   UNL A   1      31.213  22.679  26.254  1.00  0.00     0.003 C 
ATOM     10  C   UNL A   1      32.353  23.086  27.179  1.00  0.00     0.004 C 
ENDBRANCH   8   9
ENDBRANCH   7   8
BRANCH   7  11
ATOM     11  N   UNL A   1      31.014  24.359  22.740  1.00  0.00    -0.334 N 
ATOM     12  H   UNL A   1      30.412  24.009  21.995  1.00  0.00     0.347 HD
ATOM     13  H   UNL A   1      31.940  24.634  22.411  1.00  0.00     0.347 HD
BRANCH  11  14
ATOM     14  C   UNL A   1      30.392  25.574  23.301  1.00  0.00     0.270 C 
BRANCH  14  15
ATOM     15  C   UNL A   1      31.169  26.900  23.120  1.00  0.00     0.086 C 
ATOM     16  C   UNL A   1      30.259  28.074  22.709  1.00  0.00     0.089 C 
ATOM     17  C   UNL A   1      31.970  27.320  24.326  1.00  0.00    -0.025 A 
ATOM     18  S   UNL A   1      30.461  29.447  23.873  1.00  0.00    -0.125 SA
ATOM     19  C   UNL A   1      31.736  28.621  24.765  1.00  0.00     0.011 A 
ATOM     20  C   UNL A   1      32.967  26.551  24.924  1.00  0.00     0.005 A 
ATOM     21  C   UNL A   1      32.484  29.177  25.791  1.00  0.00     0.015 A 
ATOM     22  C   UNL A   1      33.721  27.100  25.963  1.00  0.00     0.000 A 
ATOM     23  C   UNL A   1      33.484  28.412  26.389  1.00  0.00     0.001 A 
ENDBRANCH  14  15
ENDBRANCH  11  14
ENDBRANCH   7  11
ENDBRANCH   5   7
ENDBRANCH   4   5
ENDBRANCH   3   4
ENDBRANCH   2   3
ENDBRANCH   1   2
BRANCH   1  24
ATOM     24  C   UNL A   1      35.760  21.242  25.651  1.00  0.00     0.202 C 
BRANCH  24  25
ATOM     25  C   UNL A   1      36.889  20.373  25.082  1.00  0.00     0.261 C 
BRANCH  25  26
ATOM     26  O   UNL A   1      38.138  21.078  24.977  1.00  0.00    -0.460 OA
BRANCH  26  27
ATOM     27  C   UNL A   1      39.053  20.761  25.927  1.00  0.00     0.338 C 
ATOM     28  O   UNL A   1      39.499  19.651  26.177  1.00  0.00    -0.246 OA
BRANCH  27  29
ATOM     29  C   UNL A   1      39.626  22.000  26.486  1.00  0.00     0.060 A 
ATOM     30  C   UNL A   1      40.714  21.967  27.358  1.00  0.00     0.016 A 
ATOM     31  C   UNL A   1      39.073  23.223  26.083  1.00  0.00     0.016 A 
ATOM     32  C   UNL A   1      41.263  23.170  27.809  1.00  0.00     0.010 A 
ATOM     33  C   UNL A   1      39.620  24.422  26.538  1.00  0.00     0.010 A 
ATOM     34  C   UNL A   1      40.732  24.404  27.391  1.00  0.00    -0.014 A 
BRANCH  34  35
ATOM     35  C   UNL A   1      41.414  25.676  27.740  1.00  0.00     0.031 A 
ATOM     36  C   UNL A   1      42.834  25.938  27.337  1.00  0.00     0.074 A 
ATOM     37  C   UNL A   1      40.738  26.586  28.466  1.00  0.00     0.049 A 
ATOM     38  N   UNL A   1      43.550  27.016  27.519  1.00  0.00    -0.248 NA
ATOM     39  C   UNL A   1      43.545  24.850  26.650  1.00  0.00     0.031 C 
ATOM     40  C   UNL A   1      39.370  26.409  28.954  1.00  0.00     0.029 A 
ATOM     41  N   UNL A   1      41.097  27.831  28.922  1.00  0.00    -0.354 N 
ATOM     42  C   UNL A   1      44.791  26.751  26.952  1.00  0.00     0.074 A 
ATOM     43  C   UNL A   1      44.747  25.385  26.475  1.00  0.00     0.031 C 
ATOM     44  C   UNL A   1      38.992  27.516  29.609  1.00  0.00     0.029 A 
ATOM     45  C   UNL A   1      40.102  28.467  29.628  1.00  0.00     0.049 A 
ATOM     46  H   UNL A   1      41.982  28.230  28.758  1.00  0.00     0.167 HD
ATOM     47  C   UNL A   1      45.852  27.584  26.823  1.00  0.00     0.034 A 
ATOM     48  C   UNL A   1      40.080  29.678  30.222  1.00  0.00     0.034 A 
ATOM     49  C   UNL A   1      45.875  28.937  27.324  1.00  0.00     0.049 A 
ATOM     50  C   UNL A   1      41.286  30.573  30.095  1.00  0.00     0.074 A 
ATOM     51  C   UNL A   1      46.889  29.871  27.205  1.00  0.00     0.029 A 
ATOM     52  N   UNL A   1      44.855  29.548  28.042  1.00  0.00    -0.354 N 
ATOM     53  N   UNL A   1      42.413  30.351  29.460  1.00  0.00    -0.248 NA
ATOM     54  C   UNL A   1      41.220  31.889  30.747  1.00  0.00     0.031 C 
ATOM     55  C   UNL A   1      46.519  31.011  27.919  1.00  0.00     0.029 A 
ATOM     56  C   UNL A   1      45.233  30.833  28.401  1.00  0.00     0.049 A 
ATOM     57  H   UNL A   1      43.993  29.130  28.263  1.00  0.00     0.167 HD
ATOM     58  C   UNL A   1      43.174  31.508  29.607  1.00  0.00     0.074 A 
ATOM     59  C   UNL A   1      42.371  32.436  30.375  1.00  0.00     0.031 C 
ATOM     60  C   UNL A   1      44.424  31.771  29.147  1.00  0.00     0.034 A 
BRANCH  47  61
ATOM     61  C   UNL A   1      47.078  27.090  26.091  1.00  0.00     0.023 A 
ATOM     62  C   UNL A   1      48.092  26.403  26.787  1.00  0.00     0.031 A 
ATOM     63  C   UNL A   1      47.314  27.436  24.748  1.00  0.00     0.131 A 
ATOM     64  C   UNL A   1      49.308  26.123  26.151  1.00  0.00     0.055 A 
ATOM     65  C   UNL A   1      48.508  27.109  24.104  1.00  0.00     0.041 A 
ATOM     66  F   UNL A   1      46.386  28.100  24.041  1.00  0.00    -0.206 F 
ATOM     67  C   UNL A   1      49.518  26.465  24.810  1.00  0.00     0.022 A 
BRANCH  64  68
ATOM     68  S   UNL A   1      50.694  25.385  27.057  1.00  0.00     0.124 S 
ATOM     69  O   UNL A   1      51.554  24.927  25.968  1.00  0.00    -0.237 OA
ATOM     70  O   UNL A   1      51.204  26.524  27.816  1.00  0.00    -0.237 OA
ATOM     71  O   UNL A   1      50.075  24.326  27.846  1.00  0.00    -0.744 OA
ENDBRANCH  64  68
ENDBRANCH  47  61
BRANCH  48  72
ATOM     72  C   UNL A   1      38.833  30.122  30.911  1.00  0.00     0.023 A 
ATOM     73  C   UNL A   1      37.889  30.929  30.249  1.00  0.00     0.031 A 
ATOM     74  C   UNL A   1      38.628  29.851  32.274  1.00  0.00     0.131 A 
ATOM     75  C   UNL A   1      36.832  31.499  30.970  1.00  0.00     0.055 A 
ATOM     76  C   UNL A   1      37.528  30.358  32.969  1.00  0.00     0.041 A 
ATOM     77  F   UNL A   1      39.509  29.101  32.954  1.00  0.00    -0.206 F 
ATOM     78  C   UNL A   1      36.633  31.202  32.321  1.00  0.00     0.022 A 
BRANCH  75  79
ATOM     79  S   UNL A   1      35.763  32.755  30.213  1.00  0.00     0.124 S 
ATOM     80  O   UNL A   1      34.892  31.947  29.366  1.00  0.00    -0.237 OA
ATOM     81  O   UNL A   1      35.128  33.349  31.387  1.00  0.00    -0.237 OA
ATOM     82  O   UNL A   1      36.699  33.624  29.508  1.00  0.00    -0.744 OA
ENDBRANCH  75  79
ENDBRANCH  48  72
BRANCH  60  83
ATOM     83  C   UNL A   1      45.040  33.124  29.426  1.00  0.00     0.023 A 
ATOM     84  C   UNL A   1      44.924  34.153  28.469  1.00  0.00     0.031 A 
ATOM     85  C   UNL A   1      45.884  33.338  30.529  1.00  0.00     0.131 A 
ATOM     86  C   UNL A   1      45.688  35.319  28.600  1.00  0.00     0.055 A 
ATOM     87  C   UNL A   1      46.596  34.528  30.686  1.00  0.00     0.041 A 
ATOM     88  F   UNL A   1      46.040  32.387  31.463  1.00  0.00    -0.206 F 
ATOM     89  C   UNL A   1      46.516  35.517  29.709  1.00  0.00     0.022 A 
BRANCH  86  90
ATOM     90  S   UNL A   1      45.724  36.568  27.284  1.00  0.00     0.124 S 
ATOM     91  O   UNL A   1      44.334  37.015  27.252  1.00  0.00    -0.237 OA
ATOM     92  O   UNL A   1      46.679  37.540  27.811  1.00  0.00    -0.237 OA
ATOM     93  O   UNL A   1      46.164  35.828  26.107  1.00  0.00    -0.744 OA
ENDBRANCH  86  90
ENDBRANCH  60  83
ENDBRANCH  34  35
ENDBRANCH  27  29
ENDBRANCH  26  27
ENDBRANCH  25  26
ENDBRANCH  24  25
ENDBRANCH   1  24
TORSDOF 22
ENDMDL
MODEL 3
REMARK VINA RESULT:      -9.6      4.901      9.697
REMARK SMILES CCC[C@@H]([NH2+]C[C@H]1CSc2ccccc21)C(=O)OCCOCCOC(=O)c1ccc(-c2c3nc(c(-c4cc(S(=O)(=O)[O-])ccc4F)c4ccc([nH]4)c(-c4cc(S(=O)(=O)[O-])ccc4F)c4nc(c(-c5cc(S(=O)(=O)[O-])ccc5F)c5ccc2[nH]5)C=C4)C=C3)cc1
REMARK SMILES IDX 21 1 20 2 19 3 18 4 16 5 17 6 4 7 3 8 2 9 1 10 5 11 6 14
REMARK SMILES IDX 7 15 8 16 15 17 9 18 10 19 14 20 11 21 13 22 12 23 22 24
REMARK SMILES IDX 23 25 24 26 25 27 26 28 27 29 28 30 89 31 29 32 88 33 30 34
REMARK SMILES IDX 31 35 32 36 82 37 33 38 87 39 81 40 83 41 34 42 86 43 80 44
REMARK SMILES IDX 79 45 35 47 67 48 47 49 66 50 48 51 51 52 65 53 84 54 49 55
REMARK SMILES IDX 50 56 64 58 85 59 52 60 36 61 37 62 45 63 38 64 44 65 46 66
REMARK SMILES IDX 43 67 39 68 40 69 41 70 42 71 68 72 69 73 77 74 70 75 76 76
REMARK SMILES IDX 78 77 75 78 71 79 72 80 73 81 74 82 53 83 54 84 62 85 55 86
REMARK SMILES IDX 61 87 63 88 60 89 56 90 57 91 58 92 59 93
REMARK H PARENT 5 12 5 13 83 46 51 57
REMARK Flexibility Score: inf
ROOT
ATOM      1  O   UNL A   1      32.786  28.469  26.610  1.00  0.00    -0.374 OA
ENDROOT
BRANCH   1   2
ATOM      2  C   UNL A   1      33.715  27.496  26.146  1.00  0.00     0.202 C 
BRANCH   2   3
ATOM      3  C   UNL A   1      33.352  26.010  26.250  1.00  0.00     0.261 C 
BRANCH   3   4
ATOM      4  O   UNL A   1      31.973  25.769  26.556  1.00  0.00    -0.459 OA
BRANCH   4   5
ATOM      5  C   UNL A   1      31.632  24.456  26.481  1.00  0.00     0.364 C 
ATOM      6  O   UNL A   1      31.475  23.731  27.463  1.00  0.00    -0.245 OA
BRANCH   5   7
ATOM      7  C   UNL A   1      31.411  23.939  25.044  1.00  0.00     0.293 C 
BRANCH   7   8
ATOM      8  C   UNL A   1      31.631  22.425  24.840  1.00  0.00     0.077 C 
BRANCH   8   9
ATOM      9  C   UNL A   1      32.762  22.054  23.860  1.00  0.00     0.003 C 
ATOM     10  C   UNL A   1      32.313  21.837  22.420  1.00  0.00     0.004 C 
ENDBRANCH   8   9
ENDBRANCH   7   8
BRANCH   7  11
ATOM     11  N   UNL A   1      30.090  24.378  24.538  1.00  0.00    -0.334 N 
ATOM     12  H   UNL A   1      29.590  24.830  25.303  1.00  0.00     0.347 HD
ATOM     13  H   UNL A   1      29.621  23.541  24.192  1.00  0.00     0.347 HD
BRANCH  11  14
ATOM     14  C   UNL A   1      30.149  25.323  23.405  1.00  0.00     0.270 C 
BRANCH  14  15
ATOM     15  C   UNL A   1      30.408  26.809  23.751  1.00  0.00     0.086 C 
ATOM     16  C   UNL A   1      31.768  27.314  23.232  1.00  0.00     0.089 C 
ATOM     17  C   UNL A   1      29.337  27.754  23.272  1.00  0.00    -0.025 A 
ATOM     18  S   UNL A   1      31.527  28.785  22.203  1.00  0.00    -0.125 SA
ATOM     19  C   UNL A   1      29.796  28.834  22.521  1.00  0.00     0.011 A 
ATOM     20  C   UNL A   1      27.989  27.669  23.621  1.00  0.00     0.005 A 
ATOM     21  C   UNL A   1      28.935  29.841  22.113  1.00  0.00     0.015 A 
ATOM     22  C   UNL A   1      27.114  28.676  23.208  1.00  0.00     0.000 A 
ATOM     23  C   UNL A   1      27.587  29.761  22.463  1.00  0.00     0.001 A 
ENDBRANCH  14  15
ENDBRANCH  11  14
ENDBRANCH   7  11
ENDBRANCH   5   7
ENDBRANCH   4   5
ENDBRANCH   3   4
ENDBRANCH   2   3
ENDBRANCH   1   2
BRANCH   1  24
ATOM     24  C   UNL A   1      32.538  29.629  25.817  1.00  0.00     0.202 C 
BRANCH  24  25
ATOM     25  C   UNL A   1      32.247  30.964  26.513  1.00  0.00     0.261 C 
BRANCH  25  26
ATOM     26  O   UNL A   1      32.958  31.114  27.754  1.00  0.00    -0.460 OA
BRANCH  26  27
ATOM     27  C   UNL A   1      33.891  32.101  27.761  1.00  0.00     0.338 C 
ATOM     28  O   UNL A   1      33.694  33.298  27.617  1.00  0.00    -0.246 OA
BRANCH  27  29
ATOM     29  C   UNL A   1      35.185  31.547  28.201  1.00  0.00     0.060 A 
ATOM     30  C   UNL A   1      36.321  32.349  28.296  1.00  0.00     0.016 A 
ATOM     31  C   UNL A   1      35.234  30.195  28.567  1.00  0.00     0.016 A 
ATOM     32  C   UNL A   1      37.509  31.794  28.781  1.00  0.00     0.010 A 
ATOM     33  C   UNL A   1      36.420  29.643  29.048  1.00  0.00     0.010 A 
ATOM     34  C   UNL A   1      37.563  30.444  29.175  1.00  0.00    -0.014 A 
BRANCH  34  35
ATOM     35  C   UNL A   1      38.774  29.900  29.841  1.00  0.00     0.031 A 
ATOM     36  C   UNL A   1      39.612  28.839  29.195  1.00  0.00     0.074 A 
ATOM     37  C   UNL A   1      39.090  30.359  31.067  1.00  0.00     0.049 A 
ATOM     38  N   UNL A   1      40.724  28.302  29.622  1.00  0.00    -0.248 NA
ATOM     39  C   UNL A   1      39.138  28.303  27.910  1.00  0.00     0.031 C 
ATOM     40  C   UNL A   1      38.313  31.354  31.806  1.00  0.00     0.029 A 
ATOM     41  N   UNL A   1      40.133  30.057  31.906  1.00  0.00    -0.354 N 
ATOM     42  C   UNL A   1      41.101  27.379  28.653  1.00  0.00     0.074 A 
ATOM     43  C   UNL A   1      40.062  27.387  27.645  1.00  0.00     0.031 C 
ATOM     44  C   UNL A   1      38.924  31.607  32.973  1.00  0.00     0.029 A 
ATOM     45  C   UNL A   1      40.112  30.764  33.087  1.00  0.00     0.049 A 
ATOM     46  H   UNL A   1      40.830  29.398  31.684  1.00  0.00     0.167 HD
ATOM     47  C   UNL A   1      42.222  26.621  28.605  1.00  0.00     0.034 A 
ATOM     48  C   UNL A   1      40.952  30.741  34.142  1.00  0.00     0.034 A 
ATOM     49  C   UNL A   1      43.235  26.619  29.633  1.00  0.00     0.049 A 
ATOM     50  C   UNL A   1      42.175  29.861  34.081  1.00  0.00     0.074 A 
ATOM     51  C   UNL A   1      44.426  25.915  29.654  1.00  0.00     0.029 A 
ATOM     52  N   UNL A   1      43.179  27.338  30.820  1.00  0.00    -0.354 N 
ATOM     53  N   UNL A   1      42.576  29.076  33.109  1.00  0.00    -0.248 NA
ATOM     54  C   UNL A   1      43.072  29.872  35.245  1.00  0.00     0.031 C 
ATOM     55  C   UNL A   1      45.047  26.142  30.882  1.00  0.00     0.029 A 
ATOM     56  C   UNL A   1      44.298  27.066  31.592  1.00  0.00     0.049 A 
ATOM     57  H   UNL A   1      42.452  27.950  31.075  1.00  0.00     0.167 HD
ATOM     58  C   UNL A   1      43.785  28.527  33.529  1.00  0.00     0.074 A 
ATOM     59  C   UNL A   1      44.059  29.085  34.836  1.00  0.00     0.031 C 
ATOM     60  C   UNL A   1      44.587  27.640  32.887  1.00  0.00     0.034 A 
BRANCH  47  61
ATOM     61  C   UNL A   1      42.453  25.741  27.398  1.00  0.00     0.023 A 
ATOM     62  C   UNL A   1      41.988  24.412  27.389  1.00  0.00     0.031 A 
ATOM     63  C   UNL A   1      43.264  26.167  26.330  1.00  0.00     0.131 A 
ATOM     64  C   UNL A   1      42.373  23.545  26.358  1.00  0.00     0.055 A 
ATOM     65  C   UNL A   1      43.603  25.313  25.279  1.00  0.00     0.041 A 
ATOM     66  F   UNL A   1      43.743  27.420  26.294  1.00  0.00    -0.206 F 
ATOM     67  C   UNL A   1      43.171  23.991  25.298  1.00  0.00     0.022 A 
BRANCH  64  68
ATOM     68  S   UNL A   1      41.929  21.787  26.393  1.00  0.00     0.124 S 
ATOM     69  O   UNL A   1      42.758  21.248  25.317  1.00  0.00    -0.237 OA
ATOM     70  O   UNL A   1      42.330  21.398  27.742  1.00  0.00    -0.237 OA
ATOM     71  O   UNL A   1      40.494  21.782  26.134  1.00  0.00    -0.744 OA
ENDBRANCH  64  68
ENDBRANCH  47  61
BRANCH  48  72
ATOM     72  C   UNL A   1      40.687  31.648  35.297  1.00  0.00     0.023 A 
ATOM     73  C   UNL A   1      39.599  31.418  36.161  1.00  0.00     0.031 A 
ATOM     74  C   UNL A   1      41.438  32.821  35.480  1.00  0.00     0.131 A 
ATOM     75  C   UNL A   1      39.248  32.386  37.111  1.00  0.00     0.055 A 
ATOM     76  C   UNL A   1      41.131  33.744  36.482  1.00  0.00     0.041 A 
ATOM     77  F   UNL A   1      42.474  33.093  34.671  1.00  0.00    -0.206 F 
ATOM     78  C   UNL A   1      40.018  33.537  37.291  1.00  0.00     0.022 A 
BRANCH  75  79
ATOM     79  S   UNL A   1      37.699  32.249  38.047  1.00  0.00     0.124 S 
ATOM     80  O   UNL A   1      38.095  32.729  39.367  1.00  0.00    -0.237 OA
ATOM     81  O   UNL A   1      36.818  33.134  37.291  1.00  0.00    -0.237 OA
ATOM     82  O   UNL A   1      37.371  30.829  37.964  1.00  0.00    -0.744 OA
ENDBRANCH  75  79
ENDBRANCH  48  72
BRANCH  60  83
ATOM     83  C   UNL A   1      45.873  27.199  33.551  1.00  0.00     0.023 A 
ATOM     84  C   UNL A   1      45.881  26.041  34.355  1.00  0.00     0.031 A 
ATOM     85  C   UNL A   1      47.024  28.006  33.542  1.00  0.00     0.131 A 
ATOM     86  C   UNL A   1      46.988  25.760  35.165  1.00  0.00     0.055 A 
ATOM     87  C   UNL A   1      48.148  27.688  34.304  1.00  0.00     0.041 A 
ATOM     88  F   UNL A   1      47.065  29.127  32.803  1.00  0.00    -0.206 F 
ATOM     89  C   UNL A   1      48.127  26.570  35.136  1.00  0.00     0.022 A 
BRANCH  86  90
ATOM     90  S   UNL A   1      46.949  24.400  36.365  1.00  0.00     0.124 S 
ATOM     91  O   UNL A   1      45.519  24.273  36.633  1.00  0.00    -0.237 OA
ATOM     92  O   UNL A   1      47.540  23.302  35.603  1.00  0.00    -0.237 OA
ATOM     93  O   UNL A   1      47.748  24.892  37.482  1.00  0.00    -0.744 OA
ENDBRANCH  86  90
ENDBRANCH  60  83
ENDBRANCH  34  35
ENDBRANCH  27  29
ENDBRANCH  26  27
ENDBRANCH  25  26
ENDBRANCH  24  25
ENDBRANCH   1  24
TORSDOF 22
ENDMDL
