MODEL 1
REMARK VINA RESULT:      -9.5      0.000      0.000
REMARK SMILES O=C(OCCOCCOC(=O)c1ccc2c(=O)n3cc(C(=O)c4cc(F)ccc4O)cc(Cl)c3nc2c1)c1ccc(-c2c3nc(c(-c4cc(S(=O)(=O)[O-])ccc4F)c4ccc([nH]4)c(-c4cc(S(=O)(=O)[O-])ccc4F)c4nc(c(-c5cc(S(=O)(=O)[O-])ccc5F)c5ccc2[nH]5)C=C4)C=C3)cc1
REMARK SMILES IDX 6 1 5 2 4 3 3 4 2 5 1 6 38 7 39 8 100 9 40 10 99 11 41 12
REMARK SMILES IDX 42 13 43 14 93 15 44 16 98 17 92 18 94 19 45 20 97 21 91 22
REMARK SMILES IDX 90 23 46 25 78 26 58 27 77 28 59 29 62 30 76 31 95 32 60 33
REMARK SMILES IDX 61 34 75 36 96 37 63 38 47 39 48 40 56 41 49 42 55 43 57 44
REMARK SMILES IDX 54 45 50 46 51 47 52 48 53 49 79 50 80 51 88 52 81 53 87 54
REMARK SMILES IDX 89 55 86 56 82 57 83 58 84 59 85 60 64 61 65 62 73 63 66 64
REMARK SMILES IDX 72 65 74 66 71 67 67 68 68 69 69 70 70 71 7 72 8 73 9 74
REMARK SMILES IDX 10 75 11 76 12 77 13 78 37 79 14 80 36 81 15 82 35 83 16 84
REMARK SMILES IDX 34 85 17 86 18 87 32 88 19 89 31 90 33 91 20 92 21 93 22 94
REMARK SMILES IDX 23 95 24 96 29 97 25 98 28 99 26 100 27 101 30 102
REMARK H PARENT 94 24 62 35 30 103
REMARK Flexibility Score: inf
ROOT
ATOM      1  O   UNL A   1      33.615  37.180  31.984  1.00  0.00    -0.374 OA
ENDROOT
BRANCH   1   2
ATOM      2  C   UNL A   1      32.576  36.443  31.345  1.00  0.00     0.202 C 
BRANCH   2   3
ATOM      3  C   UNL A   1      32.916  35.996  29.924  1.00  0.00     0.261 C 
BRANCH   3   4
ATOM      4  O   UNL A   1      32.887  34.571  29.784  1.00  0.00    -0.460 OA
BRANCH   4   5
ATOM      5  C   UNL A   1      33.673  33.757  29.043  1.00  0.00     0.338 C 
ATOM      6  O   UNL A   1      33.220  33.391  27.956  1.00  0.00    -0.246 OA
BRANCH   5   7
ATOM      7  C   UNL A   1      35.025  33.228  29.446  1.00  0.00     0.060 A 
ATOM      8  C   UNL A   1      36.126  33.771  28.755  1.00  0.00     0.016 A 
ATOM      9  C   UNL A   1      35.297  32.246  30.405  1.00  0.00     0.016 A 
ATOM     10  C   UNL A   1      37.431  33.326  28.990  1.00  0.00     0.010 A 
ATOM     11  C   UNL A   1      36.594  31.785  30.637  1.00  0.00     0.010 A 
ATOM     12  C   UNL A   1      37.666  32.323  29.931  1.00  0.00    -0.014 A 
BRANCH  12  13
ATOM     13  C   UNL A   1      39.036  31.936  30.309  1.00  0.00     0.031 A 
ATOM     14  C   UNL A   1      39.793  32.692  31.354  1.00  0.00     0.074 A 
ATOM     15  C   UNL A   1      39.598  30.931  29.617  1.00  0.00     0.049 A 
ATOM     16  N   UNL A   1      40.952  32.410  31.883  1.00  0.00    -0.248 NA
ATOM     17  C   UNL A   1      39.183  33.931  31.863  1.00  0.00     0.031 C 
ATOM     18  C   UNL A   1      38.945  30.220  28.514  1.00  0.00     0.029 A 
ATOM     19  N   UNL A   1      40.826  30.338  29.716  1.00  0.00    -0.354 N 
ATOM     20  C   UNL A   1      41.205  33.417  32.806  1.00  0.00     0.074 A 
ATOM     21  C   UNL A   1      40.101  34.348  32.727  1.00  0.00     0.031 C 
ATOM     22  C   UNL A   1      39.771  29.272  28.054  1.00  0.00     0.029 A 
ATOM     23  C   UNL A   1      41.009  29.307  28.826  1.00  0.00     0.049 A 
ATOM     24  H   UNL A   1      41.513  30.622  30.363  1.00  0.00     0.167 HD
ATOM     25  C   UNL A   1      42.263  33.524  33.645  1.00  0.00     0.034 A 
ATOM     26  C   UNL A   1      42.046  28.461  28.677  1.00  0.00     0.034 A 
ATOM     27  C   UNL A   1      43.352  32.577  33.656  1.00  0.00     0.049 A 
ATOM     28  C   UNL A   1      43.179  28.565  29.662  1.00  0.00     0.074 A 
ATOM     29  C   UNL A   1      44.448  32.539  34.498  1.00  0.00     0.029 A 
ATOM     30  N   UNL A   1      43.485  31.507  32.779  1.00  0.00    -0.354 N 
ATOM     31  N   UNL A   1      43.343  29.430  30.637  1.00  0.00    -0.248 NA
ATOM     32  C   UNL A   1      44.246  27.563  29.565  1.00  0.00     0.031 C 
ATOM     33  C   UNL A   1      45.276  31.493  34.087  1.00  0.00     0.029 A 
ATOM     34  C   UNL A   1      44.656  30.818  33.046  1.00  0.00     0.049 A 
ATOM     35  H   UNL A   1      42.842  31.273  32.072  1.00  0.00     0.167 HD
ATOM     36  C   UNL A   1      44.507  29.052  31.297  1.00  0.00     0.074 A 
ATOM     37  C   UNL A   1      44.995  27.868  30.616  1.00  0.00     0.031 C 
ATOM     38  C   UNL A   1      45.114  29.628  32.365  1.00  0.00     0.034 A 
BRANCH  25  39
ATOM     39  C   UNL A   1      42.307  34.659  34.642  1.00  0.00     0.023 A 
ATOM     40  C   UNL A   1      41.770  34.492  35.934  1.00  0.00     0.031 A 
ATOM     41  C   UNL A   1      42.719  35.949  34.261  1.00  0.00     0.131 A 
ATOM     42  C   UNL A   1      41.611  35.603  36.775  1.00  0.00     0.055 A 
ATOM     43  C   UNL A   1      42.600  37.044  35.120  1.00  0.00     0.041 A 
ATOM     44  F   UNL A   1      43.233  36.169  33.040  1.00  0.00    -0.206 F 
ATOM     45  C   UNL A   1      42.029  36.876  36.377  1.00  0.00     0.022 A 
BRANCH  42  46
ATOM     46  S   UNL A   1      40.788  35.453  38.385  1.00  0.00     0.124 S 
ATOM     47  O   UNL A   1      41.807  35.973  39.295  1.00  0.00    -0.237 OA
ATOM     48  O   UNL A   1      39.617  36.307  38.209  1.00  0.00    -0.237 OA
ATOM     49  O   UNL A   1      40.518  34.026  38.511  1.00  0.00    -0.744 OA
ENDBRANCH  42  46
ENDBRANCH  25  39
BRANCH  26  50
ATOM     50  C   UNL A   1      41.944  27.372  27.662  1.00  0.00     0.023 A 
ATOM     51  C   UNL A   1      41.546  26.072  28.028  1.00  0.00     0.031 A 
ATOM     52  C   UNL A   1      42.400  27.578  26.350  1.00  0.00     0.131 A 
ATOM     53  C   UNL A   1      41.673  25.020  27.109  1.00  0.00     0.055 A 
ATOM     54  C   UNL A   1      42.461  26.541  25.418  1.00  0.00     0.041 A 
ATOM     55  F   UNL A   1      42.820  28.793  25.964  1.00  0.00    -0.206 F 
ATOM     56  C   UNL A   1      42.114  25.250  25.803  1.00  0.00     0.022 A 
BRANCH  53  57
ATOM     57  S   UNL A   1      41.427  23.297  27.626  1.00  0.00     0.124 S 
ATOM     58  O   UNL A   1      40.007  23.283  27.966  1.00  0.00    -0.237 OA
ATOM     59  O   UNL A   1      41.792  22.563  26.417  1.00  0.00    -0.237 OA
ATOM     60  O   UNL A   1      42.347  23.138  28.747  1.00  0.00    -0.744 OA
ENDBRANCH  53  57
ENDBRANCH  26  50
BRANCH  38  61
ATOM     61  C   UNL A   1      46.372  28.990  32.899  1.00  0.00     0.023 A 
ATOM     62  C   UNL A   1      46.279  27.972  33.867  1.00  0.00     0.031 A 
ATOM     63  C   UNL A   1      47.646  29.483  32.570  1.00  0.00     0.131 A 
ATOM     64  C   UNL A   1      47.437  27.503  34.498  1.00  0.00     0.055 A 
ATOM     65  C   UNL A   1      48.801  28.975  33.164  1.00  0.00     0.041 A 
ATOM     66  F   UNL A   1      47.785  30.464  31.665  1.00  0.00    -0.206 F 
ATOM     67  C   UNL A   1      48.698  27.992  34.144  1.00  0.00     0.022 A 
BRANCH  64  68
ATOM     68  S   UNL A   1      47.340  26.319  35.870  1.00  0.00     0.124 S 
ATOM     69  O   UNL A   1      46.408  26.986  36.776  1.00  0.00    -0.237 OA
ATOM     70  O   UNL A   1      46.819  25.124  35.209  1.00  0.00    -0.237 OA
ATOM     71  O   UNL A   1      48.714  26.221  36.350  1.00  0.00    -0.744 OA
ENDBRANCH  64  68
ENDBRANCH  38  61
ENDBRANCH  12  13
ENDBRANCH   5   7
ENDBRANCH   4   5
ENDBRANCH   3   4
ENDBRANCH   2   3
ENDBRANCH   1   2
BRANCH   1  72
ATOM     72  C   UNL A   1      34.294  36.489  33.037  1.00  0.00     0.202 C 
BRANCH  72  73
ATOM     73  C   UNL A   1      35.401  35.583  32.492  1.00  0.00     0.261 C 
BRANCH  73  74
ATOM     74  O   UNL A   1      36.106  34.962  33.579  1.00  0.00    -0.460 OA
BRANCH  74  75
ATOM     75  C   UNL A   1      35.612  33.773  34.002  1.00  0.00     0.338 C 
ATOM     76  O   UNL A   1      34.499  33.313  33.828  1.00  0.00    -0.246 OA
BRANCH  75  77
ATOM     77  C   UNL A   1      36.751  32.998  34.531  1.00  0.00     0.062 A 
ATOM     78  C   UNL A   1      37.532  33.499  35.576  1.00  0.00     0.016 A 
ATOM     79  C   UNL A   1      37.101  31.806  33.880  1.00  0.00     0.045 A 
ATOM     80  C   UNL A   1      38.676  32.810  35.957  1.00  0.00     0.017 A 
ATOM     81  C   UNL A   1      38.276  31.142  34.219  1.00  0.00     0.079 A 
ATOM     82  C   UNL A   1      39.042  31.648  35.266  1.00  0.00     0.066 A 
ATOM     83  N   UNL A   1      38.664  30.021  33.474  1.00  0.00    -0.228 NA
ATOM     84  C   UNL A   1      40.248  30.909  35.645  1.00  0.00     0.265 A 
ATOM     85  C   UNL A   1      39.737  29.378  33.817  1.00  0.00     0.159 A 
ATOM     86  O   UNL A   1      40.926  31.315  36.589  1.00  0.00    -0.268 OA
ATOM     87  N   UNL A   1      40.532  29.761  34.903  1.00  0.00    -0.266 N 
ATOM     88  C   UNL A   1      40.211  28.161  33.065  1.00  0.00     0.085 A 
ATOM     89  C   UNL A   1      41.604  28.987  35.318  1.00  0.00     0.109 A 
ATOM     90  C   UNL A   1      41.235  27.433  33.533  1.00  0.00     0.038 A 
ATOM     91  Cl  UNL A   1      39.427  27.746  31.592  1.00  0.00    -0.080 Cl
ATOM     92  C   UNL A   1      41.928  27.818  34.743  1.00  0.00     0.041 A 
BRANCH  92  93
ATOM     93  C   UNL A   1      43.046  26.986  35.295  1.00  0.00     0.198 C 
ATOM     94  O   UNL A   1      43.610  27.265  36.349  1.00  0.00    -0.288 OA
BRANCH  93  95
ATOM     95  C   UNL A   1      43.396  25.716  34.617  1.00  0.00     0.067 A 
ATOM     96  C   UNL A   1      44.071  25.712  33.391  1.00  0.00     0.055 A 
ATOM     97  C   UNL A   1      42.932  24.514  35.166  1.00  0.00     0.126 A 
ATOM     98  C   UNL A   1      44.187  24.517  32.690  1.00  0.00     0.124 A 
ATOM     99  C   UNL A   1      43.045  23.326  34.448  1.00  0.00     0.050 A 
ATOM    100  F   UNL A   1      44.783  24.515  31.491  1.00  0.00    -0.207 F 
ATOM    101  C   UNL A   1      43.663  23.331  33.197  1.00  0.00     0.043 A 
BRANCH  97 102
ATOM    102  O   UNL A   1      42.327  24.449  36.390  1.00  0.00    -0.507 OA
ATOM    103  H   UNL A   1      41.750  25.135  36.664  1.00  0.00     0.293 HD
ENDBRANCH  97 102
ENDBRANCH  93  95
ENDBRANCH  92  93
ENDBRANCH  75  77
ENDBRANCH  74  75
ENDBRANCH  73  74
ENDBRANCH  72  73
ENDBRANCH   1  72
TORSDOF 20
ENDMDL
MODEL 2
REMARK VINA RESULT:      -8.9      1.274      7.230
REMARK SMILES O=C(OCCOCCOC(=O)c1ccc2c(=O)n3cc(C(=O)c4cc(F)ccc4O)cc(Cl)c3nc2c1)c1ccc(-c2c3nc(c(-c4cc(S(=O)(=O)[O-])ccc4F)c4ccc([nH]4)c(-c4cc(S(=O)(=O)[O-])ccc4F)c4nc(c(-c5cc(S(=O)(=O)[O-])ccc5F)c5ccc2[nH]5)C=C4)C=C3)cc1
REMARK SMILES IDX 6 1 5 2 4 3 3 4 2 5 1 6 38 7 39 8 100 9 40 10 99 11 41 12
REMARK SMILES IDX 42 13 43 14 93 15 44 16 98 17 92 18 94 19 45 20 97 21 91 22
REMARK SMILES IDX 90 23 46 25 78 26 58 27 77 28 59 29 62 30 76 31 95 32 60 33
REMARK SMILES IDX 61 34 75 36 96 37 63 38 47 39 48 40 56 41 49 42 55 43 57 44
REMARK SMILES IDX 54 45 50 46 51 47 52 48 53 49 79 50 80 51 88 52 81 53 87 54
REMARK SMILES IDX 89 55 86 56 82 57 83 58 84 59 85 60 64 61 65 62 73 63 66 64
REMARK SMILES IDX 72 65 74 66 71 67 67 68 68 69 69 70 70 71 7 72 8 73 9 74
REMARK SMILES IDX 10 75 11 76 12 77 13 78 37 79 14 80 36 81 15 82 35 83 16 84
REMARK SMILES IDX 34 85 17 86 18 87 32 88 19 89 31 90 33 91 20 92 21 93 22 94
REMARK SMILES IDX 23 95 24 96 29 97 25 98 28 99 26 100 27 101 30 102
REMARK H PARENT 94 24 62 35 30 103
REMARK Flexibility Score: inf
ROOT
ATOM      1  O   UNL A   1      33.685  37.207  32.007  1.00  0.00    -0.374 OA
ENDROOT
BRANCH   1   2
ATOM      2  C   UNL A   1      32.595  36.571  31.345  1.00  0.00     0.202 C 
BRANCH   2   3
ATOM      3  C   UNL A   1      32.921  36.094  29.931  1.00  0.00     0.261 C 
BRANCH   3   4
ATOM      4  O   UNL A   1      33.024  34.668  29.851  1.00  0.00    -0.460 OA
BRANCH   4   5
ATOM      5  C   UNL A   1      33.787  33.897  29.042  1.00  0.00     0.338 C 
ATOM      6  O   UNL A   1      33.310  33.607  27.943  1.00  0.00    -0.246 OA
BRANCH   5   7
ATOM      7  C   UNL A   1      35.141  33.333  29.383  1.00  0.00     0.060 A 
ATOM      8  C   UNL A   1      36.211  33.782  28.583  1.00  0.00     0.016 A 
ATOM      9  C   UNL A   1      35.442  32.399  30.382  1.00  0.00     0.016 A 
ATOM     10  C   UNL A   1      37.510  33.293  28.754  1.00  0.00     0.010 A 
ATOM     11  C   UNL A   1      36.732  31.895  30.551  1.00  0.00     0.010 A 
ATOM     12  C   UNL A   1      37.772  32.339  29.740  1.00  0.00    -0.014 A 
BRANCH  12  13
ATOM     13  C   UNL A   1      39.148  31.914  30.044  1.00  0.00     0.031 A 
ATOM     14  C   UNL A   1      39.721  30.665  29.456  1.00  0.00     0.074 A 
ATOM     15  C   UNL A   1      39.831  32.655  30.935  1.00  0.00     0.049 A 
ATOM     16  N   UNL A   1      40.945  30.219  29.527  1.00  0.00    -0.248 NA
ATOM     17  C   UNL A   1      38.804  29.795  28.702  1.00  0.00     0.031 C 
ATOM     18  C   UNL A   1      39.288  33.829  31.622  1.00  0.00     0.029 A 
ATOM     19  N   UNL A   1      41.102  32.538  31.424  1.00  0.00    -0.354 N 
ATOM     20  C   UNL A   1      40.960  29.029  28.809  1.00  0.00     0.074 A 
ATOM     21  C   UNL A   1      39.607  28.795  28.353  1.00  0.00     0.031 C 
ATOM     22  C   UNL A   1      40.229  34.339  32.428  1.00  0.00     0.029 A 
ATOM     23  C   UNL A   1      41.437  33.529  32.316  1.00  0.00     0.049 A 
ATOM     24  H   UNL A   1      41.718  31.815  31.164  1.00  0.00     0.167 HD
ATOM     25  C   UNL A   1      42.023  28.230  28.553  1.00  0.00     0.034 A 
ATOM     26  C   UNL A   1      42.604  33.777  32.942  1.00  0.00     0.034 A 
ATOM     27  C   UNL A   1      43.346  28.501  29.062  1.00  0.00     0.049 A 
ATOM     28  C   UNL A   1      43.783  32.910  32.591  1.00  0.00     0.074 A 
ATOM     29  C   UNL A   1      44.517  27.805  28.824  1.00  0.00     0.029 A 
ATOM     30  N   UNL A   1      43.671  29.546  29.920  1.00  0.00    -0.354 N 
ATOM     31  N   UNL A   1      43.828  31.871  31.787  1.00  0.00    -0.248 NA
ATOM     32  C   UNL A   1      45.076  33.263  33.187  1.00  0.00     0.031 C 
ATOM     33  C   UNL A   1      45.531  28.384  29.588  1.00  0.00     0.029 A 
ATOM     34  C   UNL A   1      45.018  29.498  30.236  1.00  0.00     0.049 A 
ATOM     35  H   UNL A   1      43.037  30.220  30.252  1.00  0.00     0.167 HD
ATOM     36  C   UNL A   1      45.159  31.472  31.747  1.00  0.00     0.074 A 
ATOM     37  C   UNL A   1      45.887  32.395  32.596  1.00  0.00     0.031 C 
ATOM     38  C   UNL A   1      45.726  30.441  31.071  1.00  0.00     0.034 A 
BRANCH  25  39
ATOM     39  C   UNL A   1      41.843  27.016  27.670  1.00  0.00     0.023 A 
ATOM     40  C   UNL A   1      41.989  25.721  28.204  1.00  0.00     0.031 A 
ATOM     41  C   UNL A   1      41.704  27.144  26.276  1.00  0.00     0.131 A 
ATOM     42  C   UNL A   1      42.044  24.613  27.346  1.00  0.00     0.055 A 
ATOM     43  C   UNL A   1      41.713  26.033  25.430  1.00  0.00     0.041 A 
ATOM     44  F   UNL A   1      41.568  28.354  25.712  1.00  0.00    -0.206 F 
ATOM     45  C   UNL A   1      41.900  24.761  25.963  1.00  0.00     0.022 A 
BRANCH  42  46
ATOM     46  S   UNL A   1      42.378  22.946  27.982  1.00  0.00     0.124 S 
ATOM     47  O   UNL A   1      43.694  22.663  27.412  1.00  0.00    -0.237 OA
ATOM     48  O   UNL A   1      42.359  23.163  29.427  1.00  0.00    -0.237 OA
ATOM     49  O   UNL A   1      41.286  22.141  27.449  1.00  0.00    -0.744 OA
ENDBRANCH  42  46
ENDBRANCH  25  39
BRANCH  26  50
ATOM     50  C   UNL A   1      42.710  34.984  33.812  1.00  0.00     0.023 A 
ATOM     51  C   UNL A   1      42.300  34.948  35.158  1.00  0.00     0.031 A 
ATOM     52  C   UNL A   1      43.067  36.227  33.264  1.00  0.00     0.131 A 
ATOM     53  C   UNL A   1      42.197  36.142  35.887  1.00  0.00     0.055 A 
ATOM     54  C   UNL A   1      43.029  37.403  34.014  1.00  0.00     0.041 A 
ATOM     55  F   UNL A   1      43.434  36.317  31.976  1.00  0.00    -0.206 F 
ATOM     56  C   UNL A   1      42.573  37.367  35.327  1.00  0.00     0.022 A 
BRANCH  53  57
ATOM     57  S   UNL A   1      41.421  36.167  37.528  1.00  0.00     0.124 S 
ATOM     58  O   UNL A   1      40.103  36.719  37.231  1.00  0.00    -0.237 OA
ATOM     59  O   UNL A   1      41.444  34.753  37.896  1.00  0.00    -0.237 OA
ATOM     60  O   UNL A   1      42.303  37.024  38.314  1.00  0.00    -0.744 OA
ENDBRANCH  53  57
ENDBRANCH  26  50
BRANCH  38  61
ATOM     61  C   UNL A   1      47.217  30.246  31.189  1.00  0.00     0.023 A 
ATOM     62  C   UNL A   1      47.752  29.646  32.345  1.00  0.00     0.031 A 
ATOM     63  C   UNL A   1      48.108  30.781  30.243  1.00  0.00     0.131 A 
ATOM     64  C   UNL A   1      49.137  29.627  32.543  1.00  0.00     0.055 A 
ATOM     65  C   UNL A   1      49.490  30.712  30.420  1.00  0.00     0.041 A 
ATOM     66  F   UNL A   1      47.647  31.377  29.132  1.00  0.00    -0.206 F 
ATOM     67  C   UNL A   1      50.009  30.147  31.582  1.00  0.00     0.022 A 
BRANCH  64  68
ATOM     68  S   UNL A   1      49.851  29.020  34.097  1.00  0.00     0.124 S 
ATOM     69  O   UNL A   1      49.285  29.951  35.071  1.00  0.00    -0.237 OA
ATOM     70  O   UNL A   1      49.330  27.656  34.164  1.00  0.00    -0.237 OA
ATOM     71  O   UNL A   1      51.291  29.132  33.892  1.00  0.00    -0.744 OA
ENDBRANCH  64  68
ENDBRANCH  38  61
ENDBRANCH  12  13
ENDBRANCH   5   7
ENDBRANCH   4   5
ENDBRANCH   3   4
ENDBRANCH   2   3
ENDBRANCH   1   2
BRANCH   1  72
ATOM     72  C   UNL A   1      34.219  36.494  33.126  1.00  0.00     0.202 C 
BRANCH  72  73
ATOM     73  C   UNL A   1      35.213  35.417  32.684  1.00  0.00     0.261 C 
BRANCH  73  74
ATOM     74  O   UNL A   1      36.044  35.033  33.791  1.00  0.00    -0.460 OA
BRANCH  74  75
ATOM     75  C   UNL A   1      35.717  33.867  34.400  1.00  0.00     0.338 C 
ATOM     76  O   UNL A   1      34.618  33.356  34.512  1.00  0.00    -0.246 OA
BRANCH  75  77
ATOM     77  C   UNL A   1      36.982  33.179  34.718  1.00  0.00     0.062 A 
ATOM     78  C   UNL A   1      37.939  33.784  35.539  1.00  0.00     0.016 A 
ATOM     79  C   UNL A   1      37.252  31.958  34.082  1.00  0.00     0.045 A 
ATOM     80  C   UNL A   1      39.173  33.171  35.708  1.00  0.00     0.017 A 
ATOM     81  C   UNL A   1      38.507  31.368  34.200  1.00  0.00     0.079 A 
ATOM     82  C   UNL A   1      39.448  31.977  35.026  1.00  0.00     0.066 A 
ATOM     83  N   UNL A   1      38.789  30.213  33.460  1.00  0.00    -0.228 NA
ATOM     84  C   UNL A   1      40.746  31.317  35.182  1.00  0.00     0.265 A 
ATOM     85  C   UNL A   1      39.945  29.641  33.603  1.00  0.00     0.159 A 
ATOM     86  O   UNL A   1      41.584  31.816  35.932  1.00  0.00    -0.268 OA
ATOM     87  N   UNL A   1      40.929  30.131  34.467  1.00  0.00    -0.266 N 
ATOM     88  C   UNL A   1      40.315  28.394  32.842  1.00  0.00     0.085 A 
ATOM     89  C   UNL A   1      42.105  29.433  34.689  1.00  0.00     0.109 A 
ATOM     90  C   UNL A   1      41.453  27.743  33.123  1.00  0.00     0.038 A 
ATOM     91  Cl  UNL A   1      39.261  27.843  31.599  1.00  0.00    -0.080 Cl
ATOM     92  C   UNL A   1      42.364  28.241  34.130  1.00  0.00     0.041 A 
BRANCH  92  93
ATOM     93  C   UNL A   1      43.617  27.496  34.480  1.00  0.00     0.198 C 
ATOM     94  O   UNL A   1      44.656  28.072  34.786  1.00  0.00    -0.288 OA
BRANCH  93  95
ATOM     95  C   UNL A   1      43.566  26.018  34.585  1.00  0.00     0.067 A 
ATOM     96  C   UNL A   1      44.256  25.204  33.679  1.00  0.00     0.055 A 
ATOM     97  C   UNL A   1      42.715  25.444  35.537  1.00  0.00     0.126 A 
ATOM     98  C   UNL A   1      44.009  23.836  33.681  1.00  0.00     0.124 A 
ATOM     99  C   UNL A   1      42.469  24.073  35.520  1.00  0.00     0.050 A 
ATOM    100  F   UNL A   1      44.623  23.058  32.781  1.00  0.00    -0.207 F 
ATOM    101  C   UNL A   1      43.108  23.268  34.577  1.00  0.00     0.043 A 
BRANCH  97 102
ATOM    102  O   UNL A   1      42.069  26.184  36.488  1.00  0.00    -0.507 OA
ATOM    103  H   UNL A   1      41.277  25.864  36.872  1.00  0.00     0.293 HD
ENDBRANCH  97 102
ENDBRANCH  93  95
ENDBRANCH  92  93
ENDBRANCH  75  77
ENDBRANCH  74  75
ENDBRANCH  73  74
ENDBRANCH  72  73
ENDBRANCH   1  72
TORSDOF 20
ENDMDL
MODEL 3
REMARK VINA RESULT:      -8.9      5.430     11.508
REMARK SMILES O=C(OCCOCCOC(=O)c1ccc2c(=O)n3cc(C(=O)c4cc(F)ccc4O)cc(Cl)c3nc2c1)c1ccc(-c2c3nc(c(-c4cc(S(=O)(=O)[O-])ccc4F)c4ccc([nH]4)c(-c4cc(S(=O)(=O)[O-])ccc4F)c4nc(c(-c5cc(S(=O)(=O)[O-])ccc5F)c5ccc2[nH]5)C=C4)C=C3)cc1
REMARK SMILES IDX 6 1 5 2 4 3 3 4 2 5 1 6 38 7 39 8 100 9 40 10 99 11 41 12
REMARK SMILES IDX 42 13 43 14 93 15 44 16 98 17 92 18 94 19 45 20 97 21 91 22
REMARK SMILES IDX 90 23 46 25 78 26 58 27 77 28 59 29 62 30 76 31 95 32 60 33
REMARK SMILES IDX 61 34 75 36 96 37 63 38 47 39 48 40 56 41 49 42 55 43 57 44
REMARK SMILES IDX 54 45 50 46 51 47 52 48 53 49 79 50 80 51 88 52 81 53 87 54
REMARK SMILES IDX 89 55 86 56 82 57 83 58 84 59 85 60 64 61 65 62 73 63 66 64
REMARK SMILES IDX 72 65 74 66 71 67 67 68 68 69 69 70 70 71 7 72 8 73 9 74
REMARK SMILES IDX 10 75 11 76 12 77 13 78 37 79 14 80 36 81 15 82 35 83 16 84
REMARK SMILES IDX 34 85 17 86 18 87 32 88 19 89 31 90 33 91 20 92 21 93 22 94
REMARK SMILES IDX 23 95 24 96 29 97 25 98 28 99 26 100 27 101 30 102
REMARK H PARENT 94 24 62 35 30 103
REMARK Flexibility Score: inf
ROOT
ATOM      1  O   UNL A   1      34.774  21.940  25.403  1.00  0.00    -0.374 OA
ENDROOT
BRANCH   1   2
ATOM      2  C   UNL A   1      35.784  20.934  25.409  1.00  0.00     0.202 C 
BRANCH   2   3
ATOM      3  C   UNL A   1      37.178  21.452  25.061  1.00  0.00     0.261 C 
BRANCH   3   4
ATOM      4  O   UNL A   1      37.768  22.186  26.140  1.00  0.00    -0.460 OA
BRANCH   4   5
ATOM      5  C   UNL A   1      39.062  22.269  26.527  1.00  0.00     0.338 C 
ATOM      6  O   UNL A   1      39.668  21.204  26.661  1.00  0.00    -0.246 OA
BRANCH   5   7
ATOM      7  C   UNL A   1      39.807  23.538  26.847  1.00  0.00     0.060 A 
ATOM      8  C   UNL A   1      40.746  23.449  27.893  1.00  0.00     0.016 A 
ATOM      9  C   UNL A   1      39.648  24.789  26.239  1.00  0.00     0.016 A 
ATOM     10  C   UNL A   1      41.464  24.567  28.331  1.00  0.00     0.010 A 
ATOM     11  C   UNL A   1      40.349  25.913  26.678  1.00  0.00     0.010 A 
ATOM     12  C   UNL A   1      41.260  25.808  27.724  1.00  0.00    -0.014 A 
BRANCH  12  13
ATOM     13  C   UNL A   1      42.102  26.969  28.059  1.00  0.00     0.031 A 
ATOM     14  C   UNL A   1      43.480  27.114  27.496  1.00  0.00     0.074 A 
ATOM     15  C   UNL A   1      41.607  27.843  28.952  1.00  0.00     0.049 A 
ATOM     16  N   UNL A   1      44.296  28.126  27.594  1.00  0.00    -0.248 NA
ATOM     17  C   UNL A   1      44.018  25.974  26.736  1.00  0.00     0.031 C 
ATOM     18  C   UNL A   1      40.308  27.701  29.615  1.00  0.00     0.029 A 
ATOM     19  N   UNL A   1      42.120  29.002  29.465  1.00  0.00    -0.354 N 
ATOM     20  C   UNL A   1      45.439  27.764  26.891  1.00  0.00     0.074 A 
ATOM     21  C   UNL A   1      45.230  26.414  26.414  1.00  0.00     0.031 C 
ATOM     22  C   UNL A   1      40.117  28.746  30.431  1.00  0.00     0.029 A 
ATOM     23  C   UNL A   1      41.276  29.628  30.350  1.00  0.00     0.049 A 
ATOM     24  H   UNL A   1      43.009  29.353  29.224  1.00  0.00     0.167 HD
ATOM     25  C   UNL A   1      46.544  28.514  26.663  1.00  0.00     0.034 A 
ATOM     26  C   UNL A   1      41.408  30.805  30.993  1.00  0.00     0.034 A 
ATOM     27  C   UNL A   1      46.707  29.847  27.192  1.00  0.00     0.049 A 
ATOM     28  C   UNL A   1      42.617  31.643  30.673  1.00  0.00     0.074 A 
ATOM     29  C   UNL A   1      47.748  30.732  26.983  1.00  0.00     0.029 A 
ATOM     30  N   UNL A   1      45.809  30.482  28.042  1.00  0.00    -0.354 N 
ATOM     31  N   UNL A   1      43.628  31.360  29.884  1.00  0.00    -0.248 NA
ATOM     32  C   UNL A   1      42.690  32.973  31.288  1.00  0.00     0.031 C 
ATOM     33  C   UNL A   1      47.516  31.869  27.757  1.00  0.00     0.029 A 
ATOM     34  C   UNL A   1      46.284  31.737  28.383  1.00  0.00     0.049 A 
ATOM     35  H   UNL A   1      44.959  30.096  28.355  1.00  0.00     0.167 HD
ATOM     36  C   UNL A   1      44.436  32.491  29.871  1.00  0.00     0.074 A 
ATOM     37  C   UNL A   1      43.784  33.468  30.722  1.00  0.00     0.031 C 
ATOM     38  C   UNL A   1      45.607  32.701  29.218  1.00  0.00     0.034 A 
BRANCH  25  39
ATOM     39  C   UNL A   1      47.649  27.962  25.792  1.00  0.00     0.023 A 
ATOM     40  C   UNL A   1      47.646  28.200  24.404  1.00  0.00     0.031 A 
ATOM     41  C   UNL A   1      48.600  27.062  26.305  1.00  0.00     0.131 A 
ATOM     42  C   UNL A   1      48.539  27.508  23.573  1.00  0.00     0.055 A 
ATOM     43  C   UNL A   1      49.517  26.409  25.478  1.00  0.00     0.041 A 
ATOM     44  F   UNL A   1      48.646  26.792  27.620  1.00  0.00    -0.206 F 
ATOM     45  C   UNL A   1      49.478  26.619  24.104  1.00  0.00     0.022 A 
BRANCH  42  46
ATOM     46  S   UNL A   1      48.467  27.676  21.768  1.00  0.00     0.124 S 
ATOM     47  O   UNL A   1      48.670  26.297  21.327  1.00  0.00    -0.237 OA
ATOM     48  O   UNL A   1      47.119  28.201  21.564  1.00  0.00    -0.237 OA
ATOM     49  O   UNL A   1      49.557  28.592  21.456  1.00  0.00    -0.744 OA
ENDBRANCH  42  46
ENDBRANCH  25  39
BRANCH  26  50
ATOM     50  C   UNL A   1      40.286  31.284  31.850  1.00  0.00     0.023 A 
ATOM     51  C   UNL A   1      40.339  31.167  33.252  1.00  0.00     0.031 A 
ATOM     52  C   UNL A   1      39.081  31.715  31.269  1.00  0.00     0.131 A 
ATOM     53  C   UNL A   1      39.189  31.414  34.016  1.00  0.00     0.055 A 
ATOM     54  C   UNL A   1      37.960  32.025  32.039  1.00  0.00     0.041 A 
ATOM     55  F   UNL A   1      38.972  31.812  29.935  1.00  0.00    -0.206 F 
ATOM     56  C   UNL A   1      38.005  31.857  33.419  1.00  0.00     0.022 A 
BRANCH  53  57
ATOM     57  S   UNL A   1      39.144  31.015  35.786  1.00  0.00     0.124 S 
ATOM     58  O   UNL A   1      39.816  32.169  36.375  1.00  0.00    -0.237 OA
ATOM     59  O   UNL A   1      37.707  30.925  36.040  1.00  0.00    -0.237 OA
ATOM     60  O   UNL A   1      39.866  29.750  35.873  1.00  0.00    -0.744 OA
ENDBRANCH  53  57
ENDBRANCH  26  50
BRANCH  38  61
ATOM     61  C   UNL A   1      46.272  34.047  29.365  1.00  0.00     0.023 A 
ATOM     62  C   UNL A   1      45.982  35.072  28.445  1.00  0.00     0.031 A 
ATOM     63  C   UNL A   1      47.289  34.268  30.309  1.00  0.00     0.131 A 
ATOM     64  C   UNL A   1      46.725  36.257  28.464  1.00  0.00     0.055 A 
ATOM     65  C   UNL A   1      47.992  35.472  30.359  1.00  0.00     0.041 A 
ATOM     66  F   UNL A   1      47.614  33.315  31.198  1.00  0.00    -0.206 F 
ATOM     67  C   UNL A   1      47.722  36.467  29.423  1.00  0.00     0.022 A 
BRANCH  64  68
ATOM     68  S   UNL A   1      46.498  37.525  27.186  1.00  0.00     0.124 S 
ATOM     69  O   UNL A   1      46.775  36.773  25.965  1.00  0.00    -0.237 OA
ATOM     70  O   UNL A   1      45.101  37.909  27.378  1.00  0.00    -0.237 OA
ATOM     71  O   UNL A   1      47.481  38.549  27.525  1.00  0.00    -0.744 OA
ENDBRANCH  64  68
ENDBRANCH  38  61
ENDBRANCH  12  13
ENDBRANCH   5   7
ENDBRANCH   4   5
ENDBRANCH   3   4
ENDBRANCH   2   3
ENDBRANCH   1   2
BRANCH   1  72
ATOM     72  C   UNL A   1      34.411  22.448  26.691  1.00  0.00     0.202 C 
BRANCH  72  73
ATOM     73  C   UNL A   1      33.094  23.226  26.637  1.00  0.00     0.261 C 
BRANCH  73  74
ATOM     74  O   UNL A   1      33.320  24.535  26.090  1.00  0.00    -0.460 OA
BRANCH  74  75
ATOM     75  C   UNL A   1      32.270  25.095  25.442  1.00  0.00     0.338 C 
ATOM     76  O   UNL A   1      31.393  24.541  24.806  1.00  0.00    -0.246 OA
BRANCH  75  77
ATOM     77  C   UNL A   1      32.230  26.516  25.837  1.00  0.00     0.062 A 
ATOM     78  C   UNL A   1      31.164  27.335  25.452  1.00  0.00     0.016 A 
ATOM     79  C   UNL A   1      33.342  27.051  26.503  1.00  0.00     0.045 A 
ATOM     80  C   UNL A   1      31.223  28.696  25.722  1.00  0.00     0.017 A 
ATOM     81  C   UNL A   1      33.433  28.422  26.725  1.00  0.00     0.079 A 
ATOM     82  C   UNL A   1      32.362  29.225  26.343  1.00  0.00     0.066 A 
ATOM     83  N   UNL A   1      34.606  28.945  27.284  1.00  0.00    -0.228 NA
ATOM     84  C   UNL A   1      32.451  30.658  26.631  1.00  0.00     0.265 A 
ATOM     85  C   UNL A   1      34.674  30.217  27.529  1.00  0.00     0.159 A 
ATOM     86  O   UNL A   1      31.504  31.387  26.334  1.00  0.00    -0.268 OA
ATOM     87  N   UNL A   1      33.621  31.096  27.254  1.00  0.00    -0.266 N 
ATOM     88  C   UNL A   1      35.902  30.847  28.134  1.00  0.00     0.085 A 
ATOM     89  C   UNL A   1      33.676  32.427  27.636  1.00  0.00     0.109 A 
ATOM     90  C   UNL A   1      35.885  32.133  28.513  1.00  0.00     0.038 A 
ATOM     91  Cl  UNL A   1      37.321  29.890  28.303  1.00  0.00    -0.080 Cl
ATOM     92  C   UNL A   1      34.707  32.949  28.318  1.00  0.00     0.041 A 
BRANCH  92  93
ATOM     93  C   UNL A   1      34.666  34.375  28.779  1.00  0.00     0.198 C 
ATOM     94  O   UNL A   1      34.845  35.316  28.011  1.00  0.00    -0.288 OA
BRANCH  93  95
ATOM     95  C   UNL A   1      34.271  34.665  30.177  1.00  0.00     0.067 A 
ATOM     96  C   UNL A   1      34.916  34.048  31.255  1.00  0.00     0.055 A 
ATOM     97  C   UNL A   1      33.154  35.480  30.401  1.00  0.00     0.126 A 
ATOM     98  C   UNL A   1      34.375  34.181  32.529  1.00  0.00     0.124 A 
ATOM     99  C   UNL A   1      32.616  35.595  31.681  1.00  0.00     0.050 A 
ATOM    100  F   UNL A   1      34.954  33.549  33.557  1.00  0.00    -0.207 F 
ATOM    101  C   UNL A   1      33.222  34.930  32.747  1.00  0.00     0.043 A 
BRANCH  97 102
ATOM    102  O   UNL A   1      32.526  36.161  29.396  1.00  0.00    -0.507 OA
ATOM    103  H   UNL A   1      33.002  36.405  28.627  1.00  0.00     0.293 HD
ENDBRANCH  97 102
ENDBRANCH  93  95
ENDBRANCH  92  93
ENDBRANCH  75  77
ENDBRANCH  74  75
ENDBRANCH  73  74
ENDBRANCH  72  73
ENDBRANCH   1  72
TORSDOF 20
ENDMDL
