MODEL 1
REMARK VINA RESULT:     -12.2      0.000      0.000
REMARK SMILES C[C@@H](C(=O)OCCOCCOC(=O)c1ccc(-c2c3nc(c(-c4cc(S(=O)(=O)[O-])ccc4F)c4ccc([nH]4)c(-c4cc(S(=O)(=O)[O-])ccc4F)c4nc(c(-c5cc(S(=O)(=O)[O-])ccc5F)c5ccc2[nH]5)C=C4)C=C3)cc1)c1ccc2c3cc(Cl)ccc3n(C(=O)c3ccc(Cl)cc3)c2c1
REMARK SMILES IDX 8 1 7 2 6 3 5 4 3 5 4 6 2 7 1 8 77 9 78 10 99 11 79 12 98 13
REMARK SMILES IDX 80 14 88 15 81 16 87 17 82 18 86 19 83 20 85 21 84 22 89 23
REMARK SMILES IDX 90 24 91 25 92 26 97 27 93 28 96 29 94 30 95 31 9 32 10 33
REMARK SMILES IDX 11 34 12 35 13 36 14 37 15 38 76 39 16 40 75 41 17 42 18 43
REMARK SMILES IDX 19 44 69 45 20 46 74 47 68 48 70 49 21 50 73 51 67 52 66 53
REMARK SMILES IDX 22 55 54 56 34 57 53 58 35 59 38 60 52 61 71 62 36 63 37 64
REMARK SMILES IDX 51 66 72 67 39 68 23 69 24 70 32 71 25 72 31 73 33 74 30 75
REMARK SMILES IDX 26 76 27 77 28 78 29 79 55 80 56 81 64 82 57 83 63 84 65 85
REMARK SMILES IDX 62 86 58 87 59 88 60 89 61 90 40 91 41 92 49 93 42 94 48 95
REMARK SMILES IDX 50 96 47 97 43 98 44 99 45 100 46 101
REMARK H PARENT 70 54 38 65
REMARK Flexibility Score: inf
ROOT
ATOM      1  O   UNL A   1      30.748  31.359  25.053  1.00  0.00    -0.374 OA
ENDROOT
BRANCH   1   2
ATOM      2  C   UNL A   1      30.349  30.136  24.431  1.00  0.00     0.202 C 
BRANCH   2   3
ATOM      3  C   UNL A   1      31.426  29.068  24.220  1.00  0.00     0.261 C 
BRANCH   3   4
ATOM      4  O   UNL A   1      31.012  27.798  24.755  1.00  0.00    -0.463 OA
BRANCH   4   5
ATOM      5  C   UNL A   1      31.176  26.731  23.925  1.00  0.00     0.313 C 
ATOM      6  O   UNL A   1      31.443  26.824  22.732  1.00  0.00    -0.252 OA
BRANCH   5   7
ATOM      7  C   UNL A   1      31.022  25.383  24.647  1.00  0.00     0.126 C 
ATOM      8  C   UNL A   1      30.054  25.383  25.832  1.00  0.00     0.025 C 
BRANCH   7   9
ATOM      9  C   UNL A   1      32.397  24.795  24.976  1.00  0.00    -0.032 A 
ATOM     10  C   UNL A   1      33.500  25.556  25.375  1.00  0.00     0.005 A 
ATOM     11  C   UNL A   1      32.573  23.418  24.768  1.00  0.00     0.032 A 
ATOM     12  C   UNL A   1      34.757  24.965  25.578  1.00  0.00     0.011 A 
ATOM     13  C   UNL A   1      33.847  22.838  24.919  1.00  0.00     0.057 A 
ATOM     14  C   UNL A   1      34.932  23.583  25.354  1.00  0.00     0.008 A 
ATOM     15  N   UNL A   1      34.268  21.524  24.689  1.00  0.00    -0.276 N 
ATOM     16  C   UNL A   1      36.045  22.699  25.442  1.00  0.00     0.009 A 
ATOM     17  C   UNL A   1      35.634  21.438  24.982  1.00  0.00     0.057 A 
ATOM     18  C   UNL A   1      37.389  22.896  25.830  1.00  0.00     0.031 A 
ATOM     19  C   UNL A   1      36.571  20.401  24.802  1.00  0.00     0.029 A 
ATOM     20  C   UNL A   1      38.299  21.848  25.704  1.00  0.00     0.041 A 
ATOM     21  C   UNL A   1      37.902  20.624  25.181  1.00  0.00     0.023 A 
ATOM     22  Cl  UNL A   1      39.938  22.089  26.172  1.00  0.00    -0.084 Cl
BRANCH  15  23
ATOM     23  C   UNL A   1      33.410  20.537  24.149  1.00  0.00     0.262 C 
ATOM     24  O   UNL A   1      32.628  20.931  23.281  1.00  0.00    -0.268 OA
BRANCH  23  25
ATOM     25  C   UNL A   1      33.271  19.105  24.545  1.00  0.00     0.040 A 
ATOM     26  C   UNL A   1      33.526  18.147  23.540  1.00  0.00     0.015 A 
ATOM     27  C   UNL A   1      32.792  18.664  25.781  1.00  0.00     0.015 A 
ATOM     28  C   UNL A   1      33.328  16.784  23.765  1.00  0.00     0.021 A 
ATOM     29  C   UNL A   1      32.622  17.290  26.017  1.00  0.00     0.021 A 
ATOM     30  C   UNL A   1      32.886  16.359  25.011  1.00  0.00     0.041 A 
ATOM     31  Cl  UNL A   1      32.640  14.682  25.299  1.00  0.00    -0.084 Cl
ENDBRANCH  23  25
ENDBRANCH  15  23
ENDBRANCH   7   9
ENDBRANCH   5   7
ENDBRANCH   4   5
ENDBRANCH   3   4
ENDBRANCH   2   3
ENDBRANCH   1   2
BRANCH   1  32
ATOM     32  C   UNL A   1      31.517  31.278  26.249  1.00  0.00     0.202 C 
BRANCH  32  33
ATOM     33  C   UNL A   1      31.745  32.569  27.048  1.00  0.00     0.261 C 
BRANCH  33  34
ATOM     34  O   UNL A   1      33.131  32.835  27.325  1.00  0.00    -0.460 OA
BRANCH  34  35
ATOM     35  C   UNL A   1      33.340  33.888  28.151  1.00  0.00     0.338 C 
ATOM     36  O   UNL A   1      32.672  34.914  28.216  1.00  0.00    -0.246 OA
BRANCH  35  37
ATOM     37  C   UNL A   1      34.390  33.572  29.134  1.00  0.00     0.060 A 
ATOM     38  C   UNL A   1      35.697  33.980  28.830  1.00  0.00     0.016 A 
ATOM     39  C   UNL A   1      34.128  32.822  30.282  1.00  0.00     0.016 A 
ATOM     40  C   UNL A   1      36.755  33.600  29.650  1.00  0.00     0.010 A 
ATOM     41  C   UNL A   1      35.195  32.430  31.098  1.00  0.00     0.010 A 
ATOM     42  C   UNL A   1      36.516  32.787  30.766  1.00  0.00    -0.014 A 
BRANCH  42  43
ATOM     43  C   UNL A   1      37.669  32.185  31.478  1.00  0.00     0.031 A 
ATOM     44  C   UNL A   1      38.423  31.062  30.818  1.00  0.00     0.074 A 
ATOM     45  C   UNL A   1      38.072  32.669  32.668  1.00  0.00     0.049 A 
ATOM     46  N   UNL A   1      39.443  30.373  31.259  1.00  0.00    -0.248 NA
ATOM     47  C   UNL A   1      37.959  30.663  29.480  1.00  0.00     0.031 C 
ATOM     48  C   UNL A   1      37.455  33.794  33.370  1.00  0.00     0.029 A 
ATOM     49  N   UNL A   1      39.096  32.279  33.492  1.00  0.00    -0.354 N 
ATOM     50  C   UNL A   1      39.741  29.454  30.258  1.00  0.00     0.074 A 
ATOM     51  C   UNL A   1      38.768  29.651  29.204  1.00  0.00     0.031 C 
ATOM     52  C   UNL A   1      38.114  34.001  34.522  1.00  0.00     0.029 A 
ATOM     53  C   UNL A   1      39.168  32.999  34.662  1.00  0.00     0.049 A 
ATOM     54  H   UNL A   1      39.720  31.552  33.267  1.00  0.00     0.167 HD
ATOM     55  C   UNL A   1      40.738  28.535  30.221  1.00  0.00     0.034 A 
ATOM     56  C   UNL A   1      39.976  32.847  35.730  1.00  0.00     0.034 A 
ATOM     57  C   UNL A   1      41.694  28.351  31.285  1.00  0.00     0.049 A 
ATOM     58  C   UNL A   1      41.018  31.754  35.706  1.00  0.00     0.074 A 
ATOM     59  C   UNL A   1      42.755  27.464  31.347  1.00  0.00     0.029 A 
ATOM     60  N   UNL A   1      41.699  29.057  32.483  1.00  0.00    -0.354 N 
ATOM     61  N   UNL A   1      41.293  30.892  34.753  1.00  0.00    -0.248 NA
ATOM     62  C   UNL A   1      41.864  31.618  36.899  1.00  0.00     0.031 C 
ATOM     63  C   UNL A   1      43.347  27.575  32.610  1.00  0.00     0.029 A 
ATOM     64  C   UNL A   1      42.716  28.596  33.305  1.00  0.00     0.049 A 
ATOM     65  H   UNL A   1      41.071  29.778  32.714  1.00  0.00     0.167 HD
ATOM     66  C   UNL A   1      42.367  30.137  35.220  1.00  0.00     0.074 A 
ATOM     67  C   UNL A   1      42.695  30.653  36.533  1.00  0.00     0.031 C 
ATOM     68  C   UNL A   1      43.026  29.113  34.617  1.00  0.00     0.034 A 
BRANCH  55  69
ATOM     69  C   UNL A   1      40.801  27.624  29.018  1.00  0.00     0.023 A 
ATOM     70  C   UNL A   1      41.744  27.808  27.991  1.00  0.00     0.031 A 
ATOM     71  C   UNL A   1      39.884  26.566  28.886  1.00  0.00     0.131 A 
ATOM     72  C   UNL A   1      41.704  26.992  26.850  1.00  0.00     0.055 A 
ATOM     73  C   UNL A   1      39.902  25.707  27.786  1.00  0.00     0.041 A 
ATOM     74  F   UNL A   1      38.944  26.355  29.821  1.00  0.00    -0.206 F 
ATOM     75  C   UNL A   1      40.806  25.925  26.752  1.00  0.00     0.022 A 
BRANCH  72  76
ATOM     76  S   UNL A   1      42.745  27.431  25.430  1.00  0.00     0.124 S 
ATOM     77  O   UNL A   1      42.729  26.190  24.659  1.00  0.00    -0.237 OA
ATOM     78  O   UNL A   1      42.023  28.556  24.846  1.00  0.00    -0.237 OA
ATOM     79  O   UNL A   1      44.033  27.762  26.037  1.00  0.00    -0.744 OA
ENDBRANCH  72  76
ENDBRANCH  55  69
BRANCH  56  80
ATOM     80  C   UNL A   1      39.814  33.716  36.932  1.00  0.00     0.023 A 
ATOM     81  C   UNL A   1      40.665  34.809  37.161  1.00  0.00     0.031 A 
ATOM     82  C   UNL A   1      38.840  33.427  37.906  1.00  0.00     0.131 A 
ATOM     83  C   UNL A   1      40.560  35.541  38.354  1.00  0.00     0.055 A 
ATOM     84  C   UNL A   1      38.700  34.196  39.062  1.00  0.00     0.041 A 
ATOM     85  F   UNL A   1      38.002  32.391  37.741  1.00  0.00    -0.206 F 
ATOM     86  C   UNL A   1      39.573  35.252  39.298  1.00  0.00     0.022 A 
BRANCH  83  87
ATOM     87  S   UNL A   1      41.798  36.822  38.698  1.00  0.00     0.124 S 
ATOM     88  O   UNL A   1      42.664  36.146  39.656  1.00  0.00    -0.237 OA
ATOM     89  O   UNL A   1      42.363  37.059  37.374  1.00  0.00    -0.237 OA
ATOM     90  O   UNL A   1      41.004  37.923  39.241  1.00  0.00    -0.744 OA
ENDBRANCH  83  87
ENDBRANCH  56  80
BRANCH  68  91
ATOM     91  C   UNL A   1      44.204  28.523  35.357  1.00  0.00     0.023 A 
ATOM     92  C   UNL A   1      44.049  27.494  36.302  1.00  0.00     0.031 A 
ATOM     93  C   UNL A   1      45.503  29.006  35.114  1.00  0.00     0.131 A 
ATOM     94  C   UNL A   1      45.163  27.024  37.013  1.00  0.00     0.055 A 
ATOM     95  C   UNL A   1      46.616  28.488  35.776  1.00  0.00     0.041 A 
ATOM     96  F   UNL A   1      45.712  29.990  34.225  1.00  0.00    -0.206 F 
ATOM     97  C   UNL A   1      46.449  27.501  36.742  1.00  0.00     0.022 A 
BRANCH  94  98
ATOM     98  S   UNL A   1      44.900  25.850  38.370  1.00  0.00     0.124 S 
ATOM     99  O   UNL A   1      44.555  24.628  37.650  1.00  0.00    -0.237 OA
ATOM    100  O   UNL A   1      46.196  25.850  39.041  1.00  0.00    -0.237 OA
ATOM    101  O   UNL A   1      43.807  26.448  39.136  1.00  0.00    -0.744 OA
ENDBRANCH  94  98
ENDBRANCH  68  91
ENDBRANCH  42  43
ENDBRANCH  35  37
ENDBRANCH  34  35
ENDBRANCH  33  34
ENDBRANCH  32  33
ENDBRANCH   1  32
TORSDOF 20
ENDMDL
MODEL 2
REMARK VINA RESULT:     -12.0      5.879     11.102
REMARK SMILES C[C@@H](C(=O)OCCOCCOC(=O)c1ccc(-c2c3nc(c(-c4cc(S(=O)(=O)[O-])ccc4F)c4ccc([nH]4)c(-c4cc(S(=O)(=O)[O-])ccc4F)c4nc(c(-c5cc(S(=O)(=O)[O-])ccc5F)c5ccc2[nH]5)C=C4)C=C3)cc1)c1ccc2c3cc(Cl)ccc3n(C(=O)c3ccc(Cl)cc3)c2c1
REMARK SMILES IDX 8 1 7 2 6 3 5 4 3 5 4 6 2 7 1 8 77 9 78 10 99 11 79 12 98 13
REMARK SMILES IDX 80 14 88 15 81 16 87 17 82 18 86 19 83 20 85 21 84 22 89 23
REMARK SMILES IDX 90 24 91 25 92 26 97 27 93 28 96 29 94 30 95 31 9 32 10 33
REMARK SMILES IDX 11 34 12 35 13 36 14 37 15 38 76 39 16 40 75 41 17 42 18 43
REMARK SMILES IDX 19 44 69 45 20 46 74 47 68 48 70 49 21 50 73 51 67 52 66 53
REMARK SMILES IDX 22 55 54 56 34 57 53 58 35 59 38 60 52 61 71 62 36 63 37 64
REMARK SMILES IDX 51 66 72 67 39 68 23 69 24 70 32 71 25 72 31 73 33 74 30 75
REMARK SMILES IDX 26 76 27 77 28 78 29 79 55 80 56 81 64 82 57 83 63 84 65 85
REMARK SMILES IDX 62 86 58 87 59 88 60 89 61 90 40 91 41 92 49 93 42 94 48 95
REMARK SMILES IDX 50 96 47 97 43 98 44 99 45 100 46 101
REMARK H PARENT 70 54 38 65
REMARK Flexibility Score: inf
ROOT
ATOM      1  O   UNL A   1      35.206  34.788  33.248  1.00  0.00    -0.374 OA
ENDROOT
BRANCH   1   2
ATOM      2  C   UNL A   1      33.926  34.625  32.635  1.00  0.00     0.202 C 
BRANCH   2   3
ATOM      3  C   UNL A   1      33.795  35.016  31.160  1.00  0.00     0.261 C 
BRANCH   3   4
ATOM      4  O   UNL A   1      33.694  33.852  30.320  1.00  0.00    -0.463 OA
BRANCH   4   5
ATOM      5  C   UNL A   1      33.635  34.099  28.982  1.00  0.00     0.313 C 
ATOM      6  O   UNL A   1      32.916  34.951  28.472  1.00  0.00    -0.252 OA
BRANCH   5   7
ATOM      7  C   UNL A   1      34.593  33.214  28.169  1.00  0.00     0.126 C 
ATOM      8  C   UNL A   1      34.061  31.822  27.821  1.00  0.00     0.025 C 
BRANCH   7   9
ATOM      9  C   UNL A   1      35.982  33.198  28.814  1.00  0.00    -0.032 A 
ATOM     10  C   UNL A   1      36.645  34.341  29.273  1.00  0.00     0.005 A 
ATOM     11  C   UNL A   1      36.657  31.969  28.855  1.00  0.00     0.032 A 
ATOM     12  C   UNL A   1      37.954  34.269  29.776  1.00  0.00     0.011 A 
ATOM     13  C   UNL A   1      37.989  31.909  29.308  1.00  0.00     0.057 A 
ATOM     14  C   UNL A   1      38.634  33.034  29.801  1.00  0.00     0.008 A 
ATOM     15  N   UNL A   1      38.872  30.826  29.359  1.00  0.00    -0.276 N 
ATOM     16  C   UNL A   1      39.936  32.628  30.212  1.00  0.00     0.009 A 
ATOM     17  C   UNL A   1      40.089  31.270  29.889  1.00  0.00     0.057 A 
ATOM     18  C   UNL A   1      41.016  33.334  30.788  1.00  0.00     0.031 A 
ATOM     19  C   UNL A   1      41.339  30.636  30.034  1.00  0.00     0.029 A 
ATOM     20  C   UNL A   1      42.233  32.684  30.983  1.00  0.00     0.041 A 
ATOM     21  C   UNL A   1      42.400  31.361  30.595  1.00  0.00     0.023 A 
ATOM     22  Cl  UNL A   1      43.550  33.546  31.680  1.00  0.00    -0.084 Cl
BRANCH  15  23
ATOM     23  C   UNL A   1      38.540  29.552  28.840  1.00  0.00     0.262 C 
ATOM     24  O   UNL A   1      37.478  29.075  29.244  1.00  0.00    -0.268 OA
BRANCH  23  25
ATOM     25  C   UNL A   1      39.340  28.678  27.934  1.00  0.00     0.040 A 
ATOM     26  C   UNL A   1      39.263  27.289  28.172  1.00  0.00     0.015 A 
ATOM     27  C   UNL A   1      40.240  29.140  26.971  1.00  0.00     0.015 A 
ATOM     28  C   UNL A   1      40.046  26.382  27.455  1.00  0.00     0.021 A 
ATOM     29  C   UNL A   1      41.006  28.226  26.229  1.00  0.00     0.021 A 
ATOM     30  C   UNL A   1      40.908  26.856  26.476  1.00  0.00     0.041 A 
ATOM     31  Cl  UNL A   1      41.877  25.747  25.588  1.00  0.00    -0.084 Cl
ENDBRANCH  23  25
ENDBRANCH  15  23
ENDBRANCH   7   9
ENDBRANCH   5   7
ENDBRANCH   4   5
ENDBRANCH   3   4
ENDBRANCH   2   3
ENDBRANCH   1   2
BRANCH   1  32
ATOM     32  C   UNL A   1      36.276  33.969  32.785  1.00  0.00     0.202 C 
BRANCH  32  33
ATOM     33  C   UNL A   1      36.042  32.454  32.706  1.00  0.00     0.261 C 
BRANCH  33  34
ATOM     34  O   UNL A   1      37.248  31.680  32.822  1.00  0.00    -0.460 OA
BRANCH  34  35
ATOM     35  C   UNL A   1      37.096  30.368  32.522  1.00  0.00     0.338 C 
ATOM     36  O   UNL A   1      36.134  29.847  31.968  1.00  0.00    -0.246 OA
BRANCH  35  37
ATOM     37  C   UNL A   1      38.347  29.633  32.777  1.00  0.00     0.060 A 
ATOM     38  C   UNL A   1      39.395  30.341  33.383  1.00  0.00     0.016 A 
ATOM     39  C   UNL A   1      38.528  28.314  32.360  1.00  0.00     0.016 A 
ATOM     40  C   UNL A   1      40.644  29.746  33.533  1.00  0.00     0.010 A 
ATOM     41  C   UNL A   1      39.789  27.722  32.500  1.00  0.00     0.010 A 
ATOM     42  C   UNL A   1      40.860  28.447  33.054  1.00  0.00    -0.014 A 
BRANCH  42  43
ATOM     43  C   UNL A   1      42.247  27.925  32.990  1.00  0.00     0.031 A 
ATOM     44  C   UNL A   1      42.991  27.682  34.276  1.00  0.00     0.074 A 
ATOM     45  C   UNL A   1      42.812  27.619  31.807  1.00  0.00     0.049 A 
ATOM     46  N   UNL A   1      44.212  27.253  34.461  1.00  0.00    -0.248 NA
ATOM     47  C   UNL A   1      42.255  27.965  35.518  1.00  0.00     0.031 C 
ATOM     48  C   UNL A   1      42.162  27.755  30.504  1.00  0.00     0.029 A 
ATOM     49  N   UNL A   1      44.059  27.129  31.512  1.00  0.00    -0.354 N 
ATOM     50  C   UNL A   1      44.396  27.220  35.840  1.00  0.00     0.074 A 
ATOM     51  C   UNL A   1      43.172  27.709  36.439  1.00  0.00     0.031 C 
ATOM     52  C   UNL A   1      43.018  27.359  29.548  1.00  0.00     0.029 A 
ATOM     53  C   UNL A   1      44.290  26.984  30.164  1.00  0.00     0.049 A 
ATOM     54  H   UNL A   1      44.725  26.902  32.200  1.00  0.00     0.167 HD
ATOM     55  C   UNL A   1      45.484  26.813  36.540  1.00  0.00     0.034 A 
ATOM     56  C   UNL A   1      45.407  26.616  29.506  1.00  0.00     0.034 A 
ATOM     57  C   UNL A   1      46.698  26.335  35.922  1.00  0.00     0.049 A 
ATOM     58  C   UNL A   1      46.638  26.259  30.304  1.00  0.00     0.074 A 
ATOM     59  C   UNL A   1      47.854  25.881  36.532  1.00  0.00     0.029 A 
ATOM     60  N   UNL A   1      46.918  26.260  34.551  1.00  0.00    -0.354 N 
ATOM     61  N   UNL A   1      46.800  26.229  31.607  1.00  0.00    -0.248 NA
ATOM     62  C   UNL A   1      47.836  25.880  29.542  1.00  0.00     0.031 C 
ATOM     63  C   UNL A   1      48.799  25.613  35.536  1.00  0.00     0.029 A 
ATOM     64  C   UNL A   1      48.205  25.810  34.299  1.00  0.00     0.049 A 
ATOM     65  H   UNL A   1      46.258  26.494  33.861  1.00  0.00     0.167 HD
ATOM     66  C   UNL A   1      48.107  25.792  31.818  1.00  0.00     0.074 A 
ATOM     67  C   UNL A   1      48.682  25.561  30.509  1.00  0.00     0.031 C 
ATOM     68  C   UNL A   1      48.770  25.594  32.988  1.00  0.00     0.034 A 
BRANCH  55  69
ATOM     69  C   UNL A   1      45.429  26.928  38.045  1.00  0.00     0.023 A 
ATOM     70  C   UNL A   1      45.854  28.086  38.720  1.00  0.00     0.031 A 
ATOM     71  C   UNL A   1      44.964  25.849  38.818  1.00  0.00     0.131 A 
ATOM     72  C   UNL A   1      45.870  28.111  40.124  1.00  0.00     0.055 A 
ATOM     73  C   UNL A   1      44.906  25.911  40.211  1.00  0.00     0.041 A 
ATOM     74  F   UNL A   1      44.569  24.708  38.232  1.00  0.00    -0.206 F 
ATOM     75  C   UNL A   1      45.374  27.041  40.874  1.00  0.00     0.022 A 
BRANCH  72  76
ATOM     76  S   UNL A   1      46.681  29.502  40.959  1.00  0.00     0.124 S 
ATOM     77  O   UNL A   1      47.838  28.848  41.564  1.00  0.00    -0.237 OA
ATOM     78  O   UNL A   1      46.965  30.411  39.855  1.00  0.00    -0.237 OA
ATOM     79  O   UNL A   1      45.671  29.969  41.909  1.00  0.00    -0.744 OA
ENDBRANCH  72  76
ENDBRANCH  55  69
BRANCH  56  80
ATOM     80  C   UNL A   1      45.438  26.605  28.014  1.00  0.00     0.023 A 
ATOM     81  C   UNL A   1      45.398  25.400  27.294  1.00  0.00     0.031 A 
ATOM     82  C   UNL A   1      45.572  27.801  27.285  1.00  0.00     0.131 A 
ATOM     83  C   UNL A   1      45.540  25.414  25.898  1.00  0.00     0.055 A 
ATOM     84  C   UNL A   1      45.653  27.813  25.892  1.00  0.00     0.041 A 
ATOM     85  F   UNL A   1      45.621  28.982  27.922  1.00  0.00    -0.206 F 
ATOM     86  C   UNL A   1      45.651  26.612  25.191  1.00  0.00     0.022 A 
BRANCH  83  87
ATOM     87  S   UNL A   1      45.674  23.829  25.023  1.00  0.00     0.124 S 
ATOM     88  O   UNL A   1      44.335  23.685  24.466  1.00  0.00    -0.237 OA
ATOM     89  O   UNL A   1      46.743  24.102  24.068  1.00  0.00    -0.237 OA
ATOM     90  O   UNL A   1      46.015  22.884  26.085  1.00  0.00    -0.744 OA
ENDBRANCH  83  87
ENDBRANCH  56  80
BRANCH  68  91
ATOM     91  C   UNL A   1      50.177  25.052  32.897  1.00  0.00     0.023 A 
ATOM     92  C   UNL A   1      50.448  23.673  32.935  1.00  0.00     0.031 A 
ATOM     93  C   UNL A   1      51.267  25.935  32.780  1.00  0.00     0.131 A 
ATOM     94  C   UNL A   1      51.775  23.220  32.916  1.00  0.00     0.055 A 
ATOM     95  C   UNL A   1      52.581  25.475  32.693  1.00  0.00     0.041 A 
ATOM     96  F   UNL A   1      51.070  27.263  32.742  1.00  0.00    -0.206 F 
ATOM     97  C   UNL A   1      52.843  24.111  32.776  1.00  0.00     0.022 A 
BRANCH  94  98
ATOM     98  S   UNL A   1      52.098  21.455  33.177  1.00  0.00     0.124 S 
ATOM     99  O   UNL A   1      52.726  21.453  34.494  1.00  0.00    -0.237 OA
ATOM    100  O   UNL A   1      50.759  20.878  33.108  1.00  0.00    -0.237 OA
ATOM    101  O   UNL A   1      52.982  21.099  32.068  1.00  0.00    -0.744 OA
ENDBRANCH  94  98
ENDBRANCH  68  91
ENDBRANCH  42  43
ENDBRANCH  35  37
ENDBRANCH  34  35
ENDBRANCH  33  34
ENDBRANCH  32  33
ENDBRANCH   1  32
TORSDOF 20
ENDMDL
MODEL 3
REMARK VINA RESULT:     -11.8      2.871      8.623
REMARK SMILES C[C@@H](C(=O)OCCOCCOC(=O)c1ccc(-c2c3nc(c(-c4cc(S(=O)(=O)[O-])ccc4F)c4ccc([nH]4)c(-c4cc(S(=O)(=O)[O-])ccc4F)c4nc(c(-c5cc(S(=O)(=O)[O-])ccc5F)c5ccc2[nH]5)C=C4)C=C3)cc1)c1ccc2c3cc(Cl)ccc3n(C(=O)c3ccc(Cl)cc3)c2c1
REMARK SMILES IDX 8 1 7 2 6 3 5 4 3 5 4 6 2 7 1 8 77 9 78 10 99 11 79 12 98 13
REMARK SMILES IDX 80 14 88 15 81 16 87 17 82 18 86 19 83 20 85 21 84 22 89 23
REMARK SMILES IDX 90 24 91 25 92 26 97 27 93 28 96 29 94 30 95 31 9 32 10 33
REMARK SMILES IDX 11 34 12 35 13 36 14 37 15 38 76 39 16 40 75 41 17 42 18 43
REMARK SMILES IDX 19 44 69 45 20 46 74 47 68 48 70 49 21 50 73 51 67 52 66 53
REMARK SMILES IDX 22 55 54 56 34 57 53 58 35 59 38 60 52 61 71 62 36 63 37 64
REMARK SMILES IDX 51 66 72 67 39 68 23 69 24 70 32 71 25 72 31 73 33 74 30 75
REMARK SMILES IDX 26 76 27 77 28 78 29 79 55 80 56 81 64 82 57 83 63 84 65 85
REMARK SMILES IDX 62 86 58 87 59 88 60 89 61 90 40 91 41 92 49 93 42 94 48 95
REMARK SMILES IDX 50 96 47 97 43 98 44 99 45 100 46 101
REMARK H PARENT 70 54 38 65
REMARK Flexibility Score: inf
ROOT
ATOM      1  O   UNL A   1      32.603  34.978  28.859  1.00  0.00    -0.374 OA
ENDROOT
BRANCH   1   2
ATOM      2  C   UNL A   1      33.435  33.977  28.272  1.00  0.00     0.202 C 
BRANCH   2   3
ATOM      3  C   UNL A   1      34.553  33.391  29.140  1.00  0.00     0.261 C 
BRANCH   3   4
ATOM      4  O   UNL A   1      34.523  31.952  29.127  1.00  0.00    -0.463 OA
BRANCH   4   5
ATOM      5  C   UNL A   1      35.423  31.354  28.298  1.00  0.00     0.313 C 
ATOM      6  O   UNL A   1      36.403  31.920  27.827  1.00  0.00    -0.252 OA
BRANCH   5   7
ATOM      7  C   UNL A   1      35.101  29.875  28.035  1.00  0.00     0.126 C 
ATOM      8  C   UNL A   1      36.306  28.995  27.695  1.00  0.00     0.025 C 
BRANCH   7   9
ATOM      9  C   UNL A   1      33.946  29.749  27.037  1.00  0.00    -0.032 A 
ATOM     10  C   UNL A   1      33.175  30.828  26.593  1.00  0.00     0.005 A 
ATOM     11  C   UNL A   1      33.590  28.456  26.626  1.00  0.00     0.032 A 
ATOM     12  C   UNL A   1      32.074  30.634  25.743  1.00  0.00     0.011 A 
ATOM     13  C   UNL A   1      32.453  28.259  25.820  1.00  0.00     0.057 A 
ATOM     14  C   UNL A   1      31.711  29.330  25.345  1.00  0.00     0.008 A 
ATOM     15  N   UNL A   1      31.870  27.072  25.364  1.00  0.00    -0.276 N 
ATOM     16  C   UNL A   1      30.669  28.796  24.534  1.00  0.00     0.009 A 
ATOM     17  C   UNL A   1      30.749  27.395  24.593  1.00  0.00     0.057 A 
ATOM     18  C   UNL A   1      29.629  29.405  23.797  1.00  0.00     0.031 A 
ATOM     19  C   UNL A   1      29.742  26.596  24.015  1.00  0.00     0.029 A 
ATOM     20  C   UNL A   1      28.669  28.607  23.178  1.00  0.00     0.041 A 
ATOM     21  C   UNL A   1      28.713  27.224  23.300  1.00  0.00     0.023 A 
ATOM     22  Cl  UNL A   1      27.399  29.350  22.284  1.00  0.00    -0.084 Cl
BRANCH  15  23
ATOM     23  C   UNL A   1      32.343  25.796  25.755  1.00  0.00     0.262 C 
ATOM     24  O   UNL A   1      31.898  25.371  26.823  1.00  0.00    -0.268 OA
BRANCH  23  25
ATOM     25  C   UNL A   1      33.364  24.937  25.091  1.00  0.00     0.040 A 
ATOM     26  C   UNL A   1      34.543  24.680  25.824  1.00  0.00     0.015 A 
ATOM     27  C   UNL A   1      33.289  24.486  23.770  1.00  0.00     0.015 A 
ATOM     28  C   UNL A   1      35.610  23.975  25.265  1.00  0.00     0.021 A 
ATOM     29  C   UNL A   1      34.350  23.751  23.218  1.00  0.00     0.021 A 
ATOM     30  C   UNL A   1      35.504  23.503  23.964  1.00  0.00     0.041 A 
ATOM     31  Cl  UNL A   1      36.813  22.633  23.265  1.00  0.00    -0.084 Cl
ENDBRANCH  23  25
ENDBRANCH  15  23
ENDBRANCH   7   9
ENDBRANCH   5   7
ENDBRANCH   4   5
ENDBRANCH   3   4
ENDBRANCH   2   3
ENDBRANCH   1   2
BRANCH   1  32
ATOM     32  C   UNL A   1      33.234  36.134  29.401  1.00  0.00     0.202 C 
BRANCH  32  33
ATOM     33  C   UNL A   1      32.674  36.715  30.707  1.00  0.00     0.261 C 
BRANCH  33  34
ATOM     34  O   UNL A   1      33.522  36.489  31.846  1.00  0.00    -0.460 OA
BRANCH  34  35
ATOM     35  C   UNL A   1      33.332  35.291  32.450  1.00  0.00     0.338 C 
ATOM     36  O   UNL A   1      32.270  34.836  32.862  1.00  0.00    -0.246 OA
BRANCH  35  37
ATOM     37  C   UNL A   1      34.561  34.482  32.387  1.00  0.00     0.060 A 
ATOM     38  C   UNL A   1      34.472  33.145  32.800  1.00  0.00     0.016 A 
ATOM     39  C   UNL A   1      35.789  35.031  32.017  1.00  0.00     0.016 A 
ATOM     40  C   UNL A   1      35.620  32.364  32.889  1.00  0.00     0.010 A 
ATOM     41  C   UNL A   1      36.945  34.248  32.119  1.00  0.00     0.010 A 
ATOM     42  C   UNL A   1      36.869  32.923  32.589  1.00  0.00    -0.014 A 
BRANCH  42  43
ATOM     43  C   UNL A   1      38.098  32.164  32.930  1.00  0.00     0.031 A 
ATOM     44  C   UNL A   1      38.790  32.454  34.234  1.00  0.00     0.074 A 
ATOM     45  C   UNL A   1      38.554  31.194  32.116  1.00  0.00     0.049 A 
ATOM     46  N   UNL A   1      39.883  31.933  34.728  1.00  0.00    -0.248 NA
ATOM     47  C   UNL A   1      38.164  33.469  35.094  1.00  0.00     0.031 C 
ATOM     48  C   UNL A   1      37.927  30.787  30.859  1.00  0.00     0.029 A 
ATOM     49  N   UNL A   1      39.648  30.375  32.228  1.00  0.00    -0.354 N 
ATOM     50  C   UNL A   1      40.082  32.562  35.953  1.00  0.00     0.074 A 
ATOM     51  C   UNL A   1      39.015  33.528  36.107  1.00  0.00     0.031 C 
ATOM     52  C   UNL A   1      38.651  29.795  30.314  1.00  0.00     0.029 A 
ATOM     53  C   UNL A   1      39.814  29.526  31.157  1.00  0.00     0.049 A 
ATOM     54  H   UNL A   1      40.258  30.393  33.000  1.00  0.00     0.167 HD
ATOM     55  C   UNL A   1      41.061  32.347  36.867  1.00  0.00     0.034 A 
ATOM     56  C   UNL A   1      40.804  28.654  30.882  1.00  0.00     0.034 A 
ATOM     57  C   UNL A   1      42.120  31.383  36.691  1.00  0.00     0.049 A 
ATOM     58  C   UNL A   1      41.935  28.501  31.870  1.00  0.00     0.074 A 
ATOM     59  C   UNL A   1      43.153  31.069  37.557  1.00  0.00     0.029 A 
ATOM     60  N   UNL A   1      42.290  30.584  35.566  1.00  0.00    -0.354 N 
ATOM     61  N   UNL A   1      42.111  29.098  33.027  1.00  0.00    -0.248 NA
ATOM     62  C   UNL A   1      42.998  27.550  31.519  1.00  0.00     0.031 C 
ATOM     63  C   UNL A   1      43.991  30.146  36.923  1.00  0.00     0.029 A 
ATOM     64  C   UNL A   1      43.434  29.811  35.699  1.00  0.00     0.049 A 
ATOM     65  H   UNL A   1      41.688  30.569  34.789  1.00  0.00     0.167 HD
ATOM     66  C   UNL A   1      43.286  28.566  33.555  1.00  0.00     0.074 A 
ATOM     67  C   UNL A   1      43.768  27.594  32.596  1.00  0.00     0.031 C 
ATOM     68  C   UNL A   1      43.909  28.851  34.729  1.00  0.00     0.034 A 
BRANCH  55  69
ATOM     69  C   UNL A   1      41.063  33.213  38.104  1.00  0.00     0.023 A 
ATOM     70  C   UNL A   1      40.483  32.790  39.313  1.00  0.00     0.031 A 
ATOM     71  C   UNL A   1      41.634  34.498  38.065  1.00  0.00     0.131 A 
ATOM     72  C   UNL A   1      40.427  33.666  40.408  1.00  0.00     0.055 A 
ATOM     73  C   UNL A   1      41.648  35.334  39.182  1.00  0.00     0.041 A 
ATOM     74  F   UNL A   1      42.180  34.969  36.932  1.00  0.00    -0.206 F 
ATOM     75  C   UNL A   1      41.029  34.926  40.359  1.00  0.00     0.022 A 
BRANCH  72  76
ATOM     76  S   UNL A   1      39.432  33.195  41.849  1.00  0.00     0.124 S 
ATOM     77  O   UNL A   1      39.668  31.755  41.912  1.00  0.00    -0.237 OA
ATOM     78  O   UNL A   1      40.029  33.988  42.918  1.00  0.00    -0.237 OA
ATOM     79  O   UNL A   1      38.073  33.580  41.470  1.00  0.00    -0.744 OA
ENDBRANCH  72  76
ENDBRANCH  55  69
BRANCH  56  80
ATOM     80  C   UNL A   1      40.803  27.886  29.602  1.00  0.00     0.023 A 
ATOM     81  C   UNL A   1      41.707  28.188  28.572  1.00  0.00     0.031 A 
ATOM     82  C   UNL A   1      39.851  26.877  29.367  1.00  0.00     0.131 A 
ATOM     83  C   UNL A   1      41.611  27.523  27.339  1.00  0.00     0.055 A 
ATOM     84  C   UNL A   1      39.798  26.178  28.160  1.00  0.00     0.041 A 
ATOM     85  F   UNL A   1      38.958  26.551  30.315  1.00  0.00    -0.206 F 
ATOM     86  C   UNL A   1      40.672  26.511  27.132  1.00  0.00     0.022 A 
BRANCH  83  87
ATOM     87  S   UNL A   1      42.670  28.072  25.972  1.00  0.00     0.124 S 
ATOM     88  O   UNL A   1      43.981  27.608  26.409  1.00  0.00    -0.237 OA
ATOM     89  O   UNL A   1      42.085  27.368  24.836  1.00  0.00    -0.237 OA
ATOM     90  O   UNL A   1      42.491  29.523  25.965  1.00  0.00    -0.744 OA
ENDBRANCH  83  87
ENDBRANCH  56  80
BRANCH  68  91
ATOM     91  C   UNL A   1      45.152  28.059  35.059  1.00  0.00     0.023 A 
ATOM     92  C   UNL A   1      45.089  26.806  35.692  1.00  0.00     0.031 A 
ATOM     93  C   UNL A   1      46.422  28.575  34.739  1.00  0.00     0.131 A 
ATOM     94  C   UNL A   1      46.273  26.137  36.039  1.00  0.00     0.055 A 
ATOM     95  C   UNL A   1      47.594  27.874  35.027  1.00  0.00     0.041 A 
ATOM     96  F   UNL A   1      46.544  29.768  34.137  1.00  0.00    -0.206 F 
ATOM     97  C   UNL A   1      47.525  26.655  35.693  1.00  0.00     0.022 A 
BRANCH  94  98
ATOM     98  S   UNL A   1      46.162  24.628  37.038  1.00  0.00     0.124 S 
ATOM     99  O   UNL A   1      45.710  23.648  36.057  1.00  0.00    -0.237 OA
ATOM    100  O   UNL A   1      47.531  24.468  37.516  1.00  0.00    -0.237 OA
ATOM    101  O   UNL A   1      45.183  24.970  38.069  1.00  0.00    -0.744 OA
ENDBRANCH  94  98
ENDBRANCH  68  91
ENDBRANCH  42  43
ENDBRANCH  35  37
ENDBRANCH  34  35
ENDBRANCH  33  34
ENDBRANCH  32  33
ENDBRANCH   1  32
TORSDOF 20
ENDMDL
