MODEL 1
REMARK VINA RESULT:     -10.6      0.000      0.000
REMARK SMILES CC(C)(O)CC[C@@]1(C(=O)OCCOCCOC(=O)c2ccc(-c3c4nc(c(-c5cc(S(=O)(=O)[O-])ccc5F)c5ccc([nH]5)c(-c5cc(S(=O)(=O)[O-])ccc5F)c5nc(c(-c6cc(S(=O)(=O)[O-])ccc6F)c6ccc3[nH]6)C=C5)C=C4)cc2)CCc2ccccc21
REMARK SMILES IDX 12 1 11 2 10 3 8 4 9 5 7 6 82 7 89 8 83 9 84 10 88 11 85 12
REMARK SMILES IDX 87 13 86 14 6 15 5 16 2 17 1 18 3 19 4 20 13 22 14 23 15 24
REMARK SMILES IDX 16 25 17 26 18 27 19 28 20 29 81 30 21 31 80 32 22 33 23 34
REMARK SMILES IDX 24 35 74 36 25 37 79 38 73 39 75 40 26 41 78 42 72 43 71 44
REMARK SMILES IDX 27 46 59 47 39 48 58 49 40 50 43 51 57 52 76 53 41 54 42 55
REMARK SMILES IDX 56 57 77 58 44 59 28 60 29 61 37 62 30 63 36 64 38 65 35 66
REMARK SMILES IDX 31 67 32 68 33 69 34 70 60 71 61 72 69 73 62 74 68 75 70 76
REMARK SMILES IDX 67 77 63 78 64 79 65 80 66 81 45 82 46 83 54 84 47 85 53 86
REMARK SMILES IDX 55 87 52 88 48 89 49 90 50 91 51 92
REMARK H PARENT 4 21 75 45 43 56
REMARK Flexibility Score: inf
ROOT
ATOM      1  C   UNL A   1      33.486  28.127  24.368  1.00  0.00     0.202 C 
ENDROOT
BRANCH   1   2
ATOM      2  C   UNL A   1      33.421  27.489  22.982  1.00  0.00     0.261 C 
BRANCH   2   3
ATOM      3  O   UNL A   1      33.984  26.168  22.963  1.00  0.00    -0.463 OA
BRANCH   3   4
ATOM      4  C   UNL A   1      33.130  25.204  22.537  1.00  0.00     0.316 C 
ATOM      5  O   UNL A   1      32.265  25.392  21.685  1.00  0.00    -0.251 OA
BRANCH   4   6
ATOM      6  C   UNL A   1      33.298  23.858  23.265  1.00  0.00     0.094 C 
ATOM      7  C   UNL A   1      32.718  22.555  22.650  1.00  0.00     0.028 C 
ATOM      8  C   UNL A   1      32.394  23.820  24.533  1.00  0.00    -0.028 A 
ATOM      9  C   UNL A   1      32.552  21.563  23.809  1.00  0.00     0.037 C 
ATOM     10  C   UNL A   1      31.985  22.503  24.811  1.00  0.00    -0.044 A 
ATOM     11  C   UNL A   1      31.795  24.856  25.243  1.00  0.00     0.005 A 
ATOM     12  C   UNL A   1      31.066  22.190  25.803  1.00  0.00     0.004 A 
ATOM     13  C   UNL A   1      30.818  24.560  26.206  1.00  0.00     0.000 A 
ATOM     14  C   UNL A   1      30.465  23.237  26.492  1.00  0.00     0.000 A 
BRANCH   6  15
ATOM     15  C   UNL A   1      34.827  23.739  23.532  1.00  0.00     0.026 C 
BRANCH  15  16
ATOM     16  C   UNL A   1      35.356  23.716  24.998  1.00  0.00     0.036 C 
BRANCH  16  17
ATOM     17  C   UNL A   1      35.840  22.413  25.708  1.00  0.00     0.059 C 
ATOM     18  C   UNL A   1      35.895  21.131  24.868  1.00  0.00     0.042 C 
ATOM     19  C   UNL A   1      34.861  22.117  26.861  1.00  0.00     0.042 C 
BRANCH  17  20
ATOM     20  O   UNL A   1      37.136  22.643  26.251  1.00  0.00    -0.390 OA
ATOM     21  H   UNL A   1      37.334  21.963  26.914  1.00  0.00     0.211 HD
ENDBRANCH  17  20
ENDBRANCH  16  17
ENDBRANCH  15  16
ENDBRANCH   6  15
ENDBRANCH   4   6
ENDBRANCH   3   4
ENDBRANCH   2   3
ENDBRANCH   1   2
BRANCH   1  22
ATOM     22  O   UNL A   1      32.261  28.347  25.063  1.00  0.00    -0.374 OA
BRANCH  22  23
ATOM     23  C   UNL A   1      31.513  29.523  24.761  1.00  0.00     0.202 C 
BRANCH  23  24
ATOM     24  C   UNL A   1      31.432  30.634  25.819  1.00  0.00     0.261 C 
BRANCH  24  25
ATOM     25  O   UNL A   1      32.355  30.480  26.913  1.00  0.00    -0.460 OA
BRANCH  25  26
ATOM     26  C   UNL A   1      33.018  31.616  27.247  1.00  0.00     0.338 C 
ATOM     27  O   UNL A   1      32.553  32.750  27.294  1.00  0.00    -0.246 OA
BRANCH  26  28
ATOM     28  C   UNL A   1      34.371  31.306  27.743  1.00  0.00     0.060 A 
ATOM     29  C   UNL A   1      34.662  29.967  28.041  1.00  0.00     0.016 A 
ATOM     30  C   UNL A   1      35.306  32.308  28.006  1.00  0.00     0.016 A 
ATOM     31  C   UNL A   1      35.875  29.630  28.638  1.00  0.00     0.010 A 
ATOM     32  C   UNL A   1      36.520  31.969  28.618  1.00  0.00     0.010 A 
ATOM     33  C   UNL A   1      36.798  30.632  28.963  1.00  0.00    -0.014 A 
BRANCH  33  34
ATOM     34  C   UNL A   1      37.993  30.289  29.776  1.00  0.00     0.031 A 
ATOM     35  C   UNL A   1      38.998  29.313  29.226  1.00  0.00     0.074 A 
ATOM     36  C   UNL A   1      38.196  30.873  30.971  1.00  0.00     0.049 A 
ATOM     37  N   UNL A   1      40.090  28.848  29.777  1.00  0.00    -0.248 NA
ATOM     38  C   UNL A   1      38.735  28.794  27.876  1.00  0.00     0.031 C 
ATOM     39  C   UNL A   1      37.322  31.874  31.579  1.00  0.00     0.029 A 
ATOM     40  N   UNL A   1      39.204  30.705  31.888  1.00  0.00    -0.354 N 
ATOM     41  C   UNL A   1      40.648  27.982  28.842  1.00  0.00     0.074 A 
ATOM     42  C   UNL A   1      39.751  27.961  27.705  1.00  0.00     0.031 C 
ATOM     43  C   UNL A   1      37.825  32.224  32.774  1.00  0.00     0.029 A 
ATOM     44  C   UNL A   1      39.034  31.445  33.034  1.00  0.00     0.049 A 
ATOM     45  H   UNL A   1      39.975  30.112  31.738  1.00  0.00     0.167 HD
ATOM     46  C   UNL A   1      41.804  27.279  28.923  1.00  0.00     0.034 A 
ATOM     47  C   UNL A   1      39.755  31.469  34.174  1.00  0.00     0.034 A 
ATOM     48  C   UNL A   1      42.681  27.301  30.068  1.00  0.00     0.049 A 
ATOM     49  C   UNL A   1      40.985  30.598  34.280  1.00  0.00     0.074 A 
ATOM     50  C   UNL A   1      43.883  26.637  30.248  1.00  0.00     0.029 A 
ATOM     51  N   UNL A   1      42.446  28.014  31.237  1.00  0.00    -0.354 N 
ATOM     52  N   UNL A   1      41.504  29.787  33.386  1.00  0.00    -0.248 NA
ATOM     53  C   UNL A   1      41.728  30.650  35.546  1.00  0.00     0.031 C 
ATOM     54  C   UNL A   1      44.334  26.889  31.549  1.00  0.00     0.029 A 
ATOM     55  C   UNL A   1      43.457  27.774  32.155  1.00  0.00     0.049 A 
ATOM     56  H   UNL A   1      41.673  28.604  31.392  1.00  0.00     0.167 HD
ATOM     57  C   UNL A   1      42.650  29.255  33.974  1.00  0.00     0.074 A 
ATOM     58  C   UNL A   1      42.753  29.851  35.291  1.00  0.00     0.031 C 
ATOM     59  C   UNL A   1      43.539  28.361  33.472  1.00  0.00     0.034 A 
BRANCH  46  60
ATOM     60  C   UNL A   1      42.156  26.385  27.758  1.00  0.00     0.023 A 
ATOM     61  C   UNL A   1      41.693  25.061  27.671  1.00  0.00     0.031 A 
ATOM     62  C   UNL A   1      42.982  26.862  26.724  1.00  0.00     0.131 A 
ATOM     63  C   UNL A   1      42.105  24.242  26.608  1.00  0.00     0.055 A 
ATOM     64  C   UNL A   1      43.330  26.066  25.632  1.00  0.00     0.041 A 
ATOM     65  F   UNL A   1      43.474  28.111  26.764  1.00  0.00    -0.206 F 
ATOM     66  C   UNL A   1      42.901  24.744  25.575  1.00  0.00     0.022 A 
BRANCH  63  67
ATOM     67  S   UNL A   1      41.694  22.476  26.660  1.00  0.00     0.124 S 
ATOM     68  O   UNL A   1      42.389  22.046  27.870  1.00  0.00    -0.237 OA
ATOM     69  O   UNL A   1      40.237  22.495  26.730  1.00  0.00    -0.237 OA
ATOM     70  O   UNL A   1      42.252  21.958  25.412  1.00  0.00    -0.744 OA
ENDBRANCH  63  67
ENDBRANCH  46  60
BRANCH  47  71
ATOM     71  C   UNL A   1      39.316  32.301  35.331  1.00  0.00     0.023 A 
ATOM     72  C   UNL A   1      39.748  33.628  35.480  1.00  0.00     0.031 A 
ATOM     73  C   UNL A   1      38.506  31.753  36.343  1.00  0.00     0.131 A 
ATOM     74  C   UNL A   1      39.409  34.347  36.638  1.00  0.00     0.055 A 
ATOM     75  C   UNL A   1      38.126  32.492  37.466  1.00  0.00     0.041 A 
ATOM     76  F   UNL A   1      38.066  30.488  36.252  1.00  0.00    -0.206 F 
ATOM     77  C   UNL A   1      38.590  33.793  37.624  1.00  0.00     0.022 A 
BRANCH  74  78
ATOM     78  S   UNL A   1      40.136  35.991  36.881  1.00  0.00     0.124 S 
ATOM     79  O   UNL A   1      41.543  35.667  37.083  1.00  0.00    -0.237 OA
ATOM     80  O   UNL A   1      39.804  36.656  35.625  1.00  0.00    -0.237 OA
ATOM     81  O   UNL A   1      39.436  36.500  38.058  1.00  0.00    -0.744 OA
ENDBRANCH  74  78
ENDBRANCH  47  71
BRANCH  59  82
ATOM     82  C   UNL A   1      44.718  28.003  34.344  1.00  0.00     0.023 A 
ATOM     83  C   UNL A   1      44.681  26.910  35.229  1.00  0.00     0.031 A 
ATOM     84  C   UNL A   1      45.893  28.775  34.299  1.00  0.00     0.131 A 
ATOM     85  C   UNL A   1      45.771  26.654  36.072  1.00  0.00     0.055 A 
ATOM     86  C   UNL A   1      47.000  28.478  35.097  1.00  0.00     0.041 A 
ATOM     87  F   UNL A   1      45.986  29.831  33.474  1.00  0.00    -0.206 F 
ATOM     88  C   UNL A   1      46.937  27.421  36.000  1.00  0.00     0.022 A 
BRANCH  85  89
ATOM     89  S   UNL A   1      45.615  25.359  37.332  1.00  0.00     0.124 S 
ATOM     90  O   UNL A   1      45.662  26.132  38.569  1.00  0.00    -0.237 OA
ATOM     91  O   UNL A   1      44.326  24.758  37.005  1.00  0.00    -0.237 OA
ATOM     92  O   UNL A   1      46.775  24.503  37.092  1.00  0.00    -0.744 OA
ENDBRANCH  85  89
ENDBRANCH  59  82
ENDBRANCH  33  34
ENDBRANCH  26  28
ENDBRANCH  25  26
ENDBRANCH  24  25
ENDBRANCH  23  24
ENDBRANCH  22  23
ENDBRANCH   1  22
TORSDOF 21
ENDMDL
MODEL 2
REMARK VINA RESULT:     -10.1      1.905      2.139
REMARK SMILES CC(C)(O)CC[C@@]1(C(=O)OCCOCCOC(=O)c2ccc(-c3c4nc(c(-c5cc(S(=O)(=O)[O-])ccc5F)c5ccc([nH]5)c(-c5cc(S(=O)(=O)[O-])ccc5F)c5nc(c(-c6cc(S(=O)(=O)[O-])ccc6F)c6ccc3[nH]6)C=C5)C=C4)cc2)CCc2ccccc21
REMARK SMILES IDX 12 1 11 2 10 3 8 4 9 5 7 6 82 7 89 8 83 9 84 10 88 11 85 12
REMARK SMILES IDX 87 13 86 14 6 15 5 16 2 17 1 18 3 19 4 20 13 22 14 23 15 24
REMARK SMILES IDX 16 25 17 26 18 27 19 28 20 29 81 30 21 31 80 32 22 33 23 34
REMARK SMILES IDX 24 35 74 36 25 37 79 38 73 39 75 40 26 41 78 42 72 43 71 44
REMARK SMILES IDX 27 46 59 47 39 48 58 49 40 50 43 51 57 52 76 53 41 54 42 55
REMARK SMILES IDX 56 57 77 58 44 59 28 60 29 61 37 62 30 63 36 64 38 65 35 66
REMARK SMILES IDX 31 67 32 68 33 69 34 70 60 71 61 72 69 73 62 74 68 75 70 76
REMARK SMILES IDX 67 77 63 78 64 79 65 80 66 81 45 82 46 83 54 84 47 85 53 86
REMARK SMILES IDX 55 87 52 88 48 89 49 90 50 91 51 92
REMARK H PARENT 4 21 75 45 43 56
REMARK Flexibility Score: inf
ROOT
ATOM      1  C   UNL A   1      33.078  28.019  24.651  1.00  0.00     0.202 C 
ENDROOT
BRANCH   1   2
ATOM      2  C   UNL A   1      33.032  27.650  23.169  1.00  0.00     0.261 C 
BRANCH   2   3
ATOM      3  O   UNL A   1      33.668  26.390  22.902  1.00  0.00    -0.463 OA
BRANCH   3   4
ATOM      4  C   UNL A   1      32.816  25.406  22.519  1.00  0.00     0.316 C 
ATOM      5  O   UNL A   1      31.822  25.602  21.824  1.00  0.00    -0.251 OA
BRANCH   4   6
ATOM      6  C   UNL A   1      33.170  24.021  23.088  1.00  0.00     0.094 C 
ATOM      7  C   UNL A   1      32.614  22.733  22.423  1.00  0.00     0.028 C 
ATOM      8  C   UNL A   1      32.438  23.796  24.444  1.00  0.00    -0.028 A 
ATOM      9  C   UNL A   1      32.667  21.633  23.492  1.00  0.00     0.037 C 
ATOM     10  C   UNL A   1      32.164  22.431  24.640  1.00  0.00    -0.044 A 
ATOM     11  C   UNL A   1      31.861  24.713  25.318  1.00  0.00     0.005 A 
ATOM     12  C   UNL A   1      31.402  21.957  25.699  1.00  0.00     0.004 A 
ATOM     13  C   UNL A   1      31.036  24.254  26.356  1.00  0.00     0.000 A 
ATOM     14  C   UNL A   1      30.819  22.886  26.553  1.00  0.00     0.000 A 
BRANCH   6  15
ATOM     15  C   UNL A   1      34.726  24.006  23.159  1.00  0.00     0.026 C 
BRANCH  15  16
ATOM     16  C   UNL A   1      35.437  24.088  24.544  1.00  0.00     0.036 C 
BRANCH  16  17
ATOM     17  C   UNL A   1      36.441  23.006  25.051  1.00  0.00     0.059 C 
ATOM     18  C   UNL A   1      36.185  21.555  24.627  1.00  0.00     0.042 C 
ATOM     19  C   UNL A   1      36.392  23.008  26.591  1.00  0.00     0.042 C 
BRANCH  17  20
ATOM     20  O   UNL A   1      37.752  23.367  24.630  1.00  0.00    -0.390 OA
ATOM     21  H   UNL A   1      37.896  23.058  23.721  1.00  0.00     0.211 HD
ENDBRANCH  17  20
ENDBRANCH  16  17
ENDBRANCH  15  16
ENDBRANCH   6  15
ENDBRANCH   4   6
ENDBRANCH   3   4
ENDBRANCH   2   3
ENDBRANCH   1   2
BRANCH   1  22
ATOM     22  O   UNL A   1      31.878  28.485  25.263  1.00  0.00    -0.374 OA
BRANCH  22  23
ATOM     23  C   UNL A   1      31.452  29.819  24.989  1.00  0.00     0.202 C 
BRANCH  23  24
ATOM     24  C   UNL A   1      31.512  30.856  26.121  1.00  0.00     0.261 C 
BRANCH  24  25
ATOM     25  O   UNL A   1      32.561  30.627  27.080  1.00  0.00    -0.460 OA
BRANCH  25  26
ATOM     26  C   UNL A   1      33.306  31.725  27.365  1.00  0.00     0.338 C 
ATOM     27  O   UNL A   1      32.914  32.887  27.405  1.00  0.00    -0.246 OA
BRANCH  26  28
ATOM     28  C   UNL A   1      34.655  31.341  27.818  1.00  0.00     0.060 A 
ATOM     29  C   UNL A   1      34.868  29.997  28.155  1.00  0.00     0.016 A 
ATOM     30  C   UNL A   1      35.666  32.285  28.004  1.00  0.00     0.016 A 
ATOM     31  C   UNL A   1      36.080  29.599  28.714  1.00  0.00     0.010 A 
ATOM     32  C   UNL A   1      36.879  31.885  28.579  1.00  0.00     0.010 A 
ATOM     33  C   UNL A   1      37.081  30.546  28.963  1.00  0.00    -0.014 A 
BRANCH  33  34
ATOM     34  C   UNL A   1      38.284  30.150  29.740  1.00  0.00     0.031 A 
ATOM     35  C   UNL A   1      39.232  29.137  29.158  1.00  0.00     0.074 A 
ATOM     36  C   UNL A   1      38.545  30.719  30.931  1.00  0.00     0.049 A 
ATOM     37  N   UNL A   1      40.320  28.626  29.675  1.00  0.00    -0.248 NA
ATOM     38  C   UNL A   1      38.910  28.636  27.814  1.00  0.00     0.031 C 
ATOM     39  C   UNL A   1      37.730  31.752  31.568  1.00  0.00     0.029 A 
ATOM     40  N   UNL A   1      39.571  30.506  31.818  1.00  0.00    -0.354 N 
ATOM     41  C   UNL A   1      40.816  27.743  28.720  1.00  0.00     0.074 A 
ATOM     42  C   UNL A   1      39.886  27.764  27.610  1.00  0.00     0.031 C 
ATOM     43  C   UNL A   1      38.281  32.075  32.750  1.00  0.00     0.029 A 
ATOM     44  C   UNL A   1      39.465  31.247  32.972  1.00  0.00     0.049 A 
ATOM     45  H   UNL A   1      40.313  29.883  31.644  1.00  0.00     0.167 HD
ATOM     46  C   UNL A   1      41.944  26.993  28.765  1.00  0.00     0.034 A 
ATOM     47  C   UNL A   1      40.219  31.235  34.090  1.00  0.00     0.034 A 
ATOM     48  C   UNL A   1      42.854  26.974  29.885  1.00  0.00     0.049 A 
ATOM     49  C   UNL A   1      41.415  30.315  34.157  1.00  0.00     0.074 A 
ATOM     50  C   UNL A   1      44.032  26.261  30.027  1.00  0.00     0.029 A 
ATOM     51  N   UNL A   1      42.681  27.690  31.062  1.00  0.00    -0.354 N 
ATOM     52  N   UNL A   1      41.874  29.488  33.245  1.00  0.00    -0.248 NA
ATOM     53  C   UNL A   1      42.195  30.330  35.401  1.00  0.00     0.031 C 
ATOM     54  C   UNL A   1      44.531  26.488  31.315  1.00  0.00     0.029 A 
ATOM     55  C   UNL A   1      43.708  27.405  31.950  1.00  0.00     0.049 A 
ATOM     56  H   UNL A   1      41.938  28.309  31.242  1.00  0.00     0.167 HD
ATOM     57  C   UNL A   1      43.014  28.908  33.798  1.00  0.00     0.074 A 
ATOM     58  C   UNL A   1      43.180  29.492  35.113  1.00  0.00     0.031 C 
ATOM     59  C   UNL A   1      43.851  27.981  33.267  1.00  0.00     0.034 A 
BRANCH  46  60
ATOM     60  C   UNL A   1      42.226  26.092  27.588  1.00  0.00     0.023 A 
ATOM     61  C   UNL A   1      41.696  24.793  27.502  1.00  0.00     0.031 A 
ATOM     62  C   UNL A   1      43.052  26.536  26.539  1.00  0.00     0.131 A 
ATOM     63  C   UNL A   1      42.044  23.963  26.425  1.00  0.00     0.055 A 
ATOM     64  C   UNL A   1      43.336  25.731  25.434  1.00  0.00     0.041 A 
ATOM     65  F   UNL A   1      43.607  27.758  26.576  1.00  0.00    -0.206 F 
ATOM     66  C   UNL A   1      42.840  24.433  25.378  1.00  0.00     0.022 A 
BRANCH  63  67
ATOM     67  S   UNL A   1      41.545  22.220  26.473  1.00  0.00     0.124 S 
ATOM     68  O   UNL A   1      41.984  21.824  27.809  1.00  0.00    -0.237 OA
ATOM     69  O   UNL A   1      40.104  22.299  26.270  1.00  0.00    -0.237 OA
ATOM     70  O   UNL A   1      42.298  21.618  25.375  1.00  0.00    -0.744 OA
ENDBRANCH  63  67
ENDBRANCH  46  60
BRANCH  47  71
ATOM     71  C   UNL A   1      39.847  32.078  35.263  1.00  0.00     0.023 A 
ATOM     72  C   UNL A   1      39.023  31.581  36.285  1.00  0.00     0.031 A 
ATOM     73  C   UNL A   1      40.260  33.421  35.343  1.00  0.00     0.131 A 
ATOM     74  C   UNL A   1      38.598  32.434  37.317  1.00  0.00     0.055 A 
ATOM     75  C   UNL A   1      39.880  34.249  36.401  1.00  0.00     0.041 A 
ATOM     76  F   UNL A   1      41.048  33.948  34.392  1.00  0.00    -0.206 F 
ATOM     77  C   UNL A   1      39.032  33.759  37.389  1.00  0.00     0.022 A 
BRANCH  74  78
ATOM     78  S   UNL A   1      37.389  31.810  38.516  1.00  0.00     0.124 S 
ATOM     79  O   UNL A   1      37.177  30.447  38.040  1.00  0.00    -0.237 OA
ATOM     80  O   UNL A   1      38.115  31.945  39.774  1.00  0.00    -0.237 OA
ATOM     81  O   UNL A   1      36.252  32.713  38.353  1.00  0.00    -0.744 OA
ENDBRANCH  74  78
ENDBRANCH  47  71
BRANCH  59  82
ATOM     82  C   UNL A   1      45.040  27.571  34.102  1.00  0.00     0.023 A 
ATOM     83  C   UNL A   1      46.256  28.276  34.055  1.00  0.00     0.031 A 
ATOM     84  C   UNL A   1      44.960  26.449  34.948  1.00  0.00     0.131 A 
ATOM     85  C   UNL A   1      47.359  27.820  34.794  1.00  0.00     0.055 A 
ATOM     86  C   UNL A   1      46.041  26.037  35.728  1.00  0.00     0.041 A 
ATOM     87  F   UNL A   1      43.824  25.737  35.032  1.00  0.00    -0.206 F 
ATOM     88  C   UNL A   1      47.253  26.715  35.642  1.00  0.00     0.022 A 
BRANCH  85  89
ATOM     89  S   UNL A   1      48.961  28.638  34.563  1.00  0.00     0.124 S 
ATOM     90  O   UNL A   1      49.170  29.268  35.863  1.00  0.00    -0.237 OA
ATOM     91  O   UNL A   1      49.842  27.517  34.250  1.00  0.00    -0.237 OA
ATOM     92  O   UNL A   1      48.719  29.563  33.458  1.00  0.00    -0.744 OA
ENDBRANCH  85  89
ENDBRANCH  59  82
ENDBRANCH  33  34
ENDBRANCH  26  28
ENDBRANCH  25  26
ENDBRANCH  24  25
ENDBRANCH  23  24
ENDBRANCH  22  23
ENDBRANCH   1  22
TORSDOF 21
ENDMDL
MODEL 3
REMARK VINA RESULT:     -10.0      2.383      3.382
REMARK SMILES CC(C)(O)CC[C@@]1(C(=O)OCCOCCOC(=O)c2ccc(-c3c4nc(c(-c5cc(S(=O)(=O)[O-])ccc5F)c5ccc([nH]5)c(-c5cc(S(=O)(=O)[O-])ccc5F)c5nc(c(-c6cc(S(=O)(=O)[O-])ccc6F)c6ccc3[nH]6)C=C5)C=C4)cc2)CCc2ccccc21
REMARK SMILES IDX 12 1 11 2 10 3 8 4 9 5 7 6 82 7 89 8 83 9 84 10 88 11 85 12
REMARK SMILES IDX 87 13 86 14 6 15 5 16 2 17 1 18 3 19 4 20 13 22 14 23 15 24
REMARK SMILES IDX 16 25 17 26 18 27 19 28 20 29 81 30 21 31 80 32 22 33 23 34
REMARK SMILES IDX 24 35 74 36 25 37 79 38 73 39 75 40 26 41 78 42 72 43 71 44
REMARK SMILES IDX 27 46 59 47 39 48 58 49 40 50 43 51 57 52 76 53 41 54 42 55
REMARK SMILES IDX 56 57 77 58 44 59 28 60 29 61 37 62 30 63 36 64 38 65 35 66
REMARK SMILES IDX 31 67 32 68 33 69 34 70 60 71 61 72 69 73 62 74 68 75 70 76
REMARK SMILES IDX 67 77 63 78 64 79 65 80 66 81 45 82 46 83 54 84 47 85 53 86
REMARK SMILES IDX 55 87 52 88 48 89 49 90 50 91 51 92
REMARK H PARENT 4 21 75 45 43 56
REMARK Flexibility Score: inf
ROOT
ATOM      1  C   UNL A   1      32.285  29.632  24.866  1.00  0.00     0.202 C 
ENDROOT
BRANCH   1   2
ATOM      2  C   UNL A   1      31.353  28.425  24.954  1.00  0.00     0.261 C 
BRANCH   2   3
ATOM      3  O   UNL A   1      32.072  27.194  25.135  1.00  0.00    -0.463 OA
BRANCH   3   4
ATOM      4  C   UNL A   1      31.565  26.390  26.103  1.00  0.00     0.316 C 
ATOM      5  O   UNL A   1      31.375  26.759  27.260  1.00  0.00    -0.251 OA
BRANCH   4   6
ATOM      6  C   UNL A   1      31.305  24.946  25.641  1.00  0.00     0.094 C 
ATOM      7  C   UNL A   1      30.346  24.025  26.442  1.00  0.00     0.028 C 
ATOM      8  C   UNL A   1      32.569  24.070  25.889  1.00  0.00    -0.028 A 
ATOM      9  C   UNL A   1      30.729  22.582  26.084  1.00  0.00     0.037 C 
ATOM     10  C   UNL A   1      32.205  22.735  26.141  1.00  0.00    -0.044 A 
ATOM     11  C   UNL A   1      33.893  24.441  26.102  1.00  0.00     0.005 A 
ATOM     12  C   UNL A   1      33.117  21.762  26.528  1.00  0.00     0.004 A 
ATOM     13  C   UNL A   1      34.815  23.483  26.554  1.00  0.00     0.000 A 
ATOM     14  C   UNL A   1      34.433  22.152  26.752  1.00  0.00     0.000 A 
BRANCH   6  15
ATOM     15  C   UNL A   1      30.867  25.078  24.152  1.00  0.00     0.026 C 
BRANCH  15  16
ATOM     16  C   UNL A   1      31.693  24.368  23.037  1.00  0.00     0.036 C 
BRANCH  16  17
ATOM     17  C   UNL A   1      32.555  25.142  21.992  1.00  0.00     0.059 C 
ATOM     18  C   UNL A   1      33.790  25.888  22.512  1.00  0.00     0.042 C 
ATOM     19  C   UNL A   1      31.657  26.215  21.347  1.00  0.00     0.042 C 
BRANCH  17  20
ATOM     20  O   UNL A   1      32.980  24.229  20.985  1.00  0.00    -0.390 OA
ATOM     21  H   UNL A   1      33.757  23.740  21.299  1.00  0.00     0.211 HD
ENDBRANCH  17  20
ENDBRANCH  16  17
ENDBRANCH  15  16
ENDBRANCH   6  15
ENDBRANCH   4   6
ENDBRANCH   3   4
ENDBRANCH   2   3
ENDBRANCH   1   2
BRANCH   1  22
ATOM     22  O   UNL A   1      32.484  30.412  26.042  1.00  0.00    -0.374 OA
BRANCH  22  23
ATOM     23  C   UNL A   1      31.434  31.280  26.464  1.00  0.00     0.202 C 
BRANCH  23  24
ATOM     24  C   UNL A   1      31.797  32.696  26.936  1.00  0.00     0.261 C 
BRANCH  24  25
ATOM     25  O   UNL A   1      33.164  32.847  27.364  1.00  0.00    -0.460 OA
BRANCH  25  26
ATOM     26  C   UNL A   1      33.366  33.866  28.238  1.00  0.00     0.338 C 
ATOM     27  O   UNL A   1      32.675  34.872  28.363  1.00  0.00    -0.246 OA
BRANCH  26  28
ATOM     28  C   UNL A   1      34.447  33.537  29.185  1.00  0.00     0.060 A 
ATOM     29  C   UNL A   1      35.743  33.961  28.862  1.00  0.00     0.016 A 
ATOM     30  C   UNL A   1      34.221  32.749  30.314  1.00  0.00     0.016 A 
ATOM     31  C   UNL A   1      36.824  33.568  29.647  1.00  0.00     0.010 A 
ATOM     32  C   UNL A   1      35.311  32.344  31.095  1.00  0.00     0.010 A 
ATOM     33  C   UNL A   1      36.621  32.727  30.749  1.00  0.00    -0.014 A 
BRANCH  33  34
ATOM     34  C   UNL A   1      37.794  32.153  31.456  1.00  0.00     0.031 A 
ATOM     35  C   UNL A   1      38.560  31.029  30.812  1.00  0.00     0.074 A 
ATOM     36  C   UNL A   1      38.192  32.655  32.639  1.00  0.00     0.049 A 
ATOM     37  N   UNL A   1      39.590  30.361  31.264  1.00  0.00    -0.248 NA
ATOM     38  C   UNL A   1      38.104  30.605  29.480  1.00  0.00     0.031 C 
ATOM     39  C   UNL A   1      37.562  33.778  33.331  1.00  0.00     0.029 A 
ATOM     40  N   UNL A   1      39.220  32.283  33.468  1.00  0.00    -0.354 N 
ATOM     41  C   UNL A   1      39.909  29.437  30.274  1.00  0.00     0.074 A 
ATOM     42  C   UNL A   1      38.937  29.610  29.213  1.00  0.00     0.031 C 
ATOM     43  C   UNL A   1      38.211  33.998  34.487  1.00  0.00     0.029 A 
ATOM     44  C   UNL A   1      39.277  33.008  34.635  1.00  0.00     0.049 A 
ATOM     45  H   UNL A   1      39.858  31.566  33.247  1.00  0.00     0.167 HD
ATOM     46  C   UNL A   1      40.922  28.537  30.249  1.00  0.00     0.034 A 
ATOM     47  C   UNL A   1      40.077  32.869  35.712  1.00  0.00     0.034 A 
ATOM     48  C   UNL A   1      41.874  28.368  31.319  1.00  0.00     0.049 A 
ATOM     49  C   UNL A   1      41.134  31.790  35.704  1.00  0.00     0.074 A 
ATOM     50  C   UNL A   1      42.947  27.495  31.390  1.00  0.00     0.029 A 
ATOM     51  N   UNL A   1      41.863  29.077  32.514  1.00  0.00    -0.354 N 
ATOM     52  N   UNL A   1      41.427  30.926  34.759  1.00  0.00    -0.248 NA
ATOM     53  C   UNL A   1      41.970  31.671  36.906  1.00  0.00     0.031 C 
ATOM     54  C   UNL A   1      43.536  27.625  32.653  1.00  0.00     0.029 A 
ATOM     55  C   UNL A   1      42.883  28.634  33.342  1.00  0.00     0.049 A 
ATOM     56  H   UNL A   1      41.224  29.790  32.740  1.00  0.00     0.167 HD
ATOM     57  C   UNL A   1      42.500  30.181  35.243  1.00  0.00     0.074 A 
ATOM     58  C   UNL A   1      42.812  30.710  36.556  1.00  0.00     0.031 C 
ATOM     59  C   UNL A   1      43.171  29.157  34.657  1.00  0.00     0.034 A 
BRANCH  46  60
ATOM     60  C   UNL A   1      41.015  27.629  29.047  1.00  0.00     0.023 A 
ATOM     61  C   UNL A   1      41.993  27.810  28.053  1.00  0.00     0.031 A 
ATOM     62  C   UNL A   1      40.101  26.573  28.884  1.00  0.00     0.131 A 
ATOM     63  C   UNL A   1      41.997  26.989  26.915  1.00  0.00     0.055 A 
ATOM     64  C   UNL A   1      40.155  25.713  27.786  1.00  0.00     0.041 A 
ATOM     65  F   UNL A   1      39.130  26.365  29.788  1.00  0.00    -0.206 F 
ATOM     66  C   UNL A   1      41.099  25.926  26.787  1.00  0.00     0.022 A 
BRANCH  63  67
ATOM     67  S   UNL A   1      43.108  27.407  25.544  1.00  0.00     0.124 S 
ATOM     68  O   UNL A   1      44.198  28.082  26.242  1.00  0.00    -0.237 OA
ATOM     69  O   UNL A   1      43.421  26.098  24.982  1.00  0.00    -0.237 OA
ATOM     70  O   UNL A   1      42.292  28.272  24.694  1.00  0.00    -0.744 OA
ENDBRANCH  63  67
ENDBRANCH  46  60
BRANCH  47  71
ATOM     71  C   UNL A   1      39.886  33.731  36.914  1.00  0.00     0.023 A 
ATOM     72  C   UNL A   1      39.234  33.250  38.060  1.00  0.00     0.031 A 
ATOM     73  C   UNL A   1      40.298  35.077  36.906  1.00  0.00     0.131 A 
ATOM     74  C   UNL A   1      38.968  34.120  39.130  1.00  0.00     0.055 A 
ATOM     75  C   UNL A   1      40.081  35.922  37.996  1.00  0.00     0.041 A 
ATOM     76  F   UNL A   1      40.926  35.589  35.835  1.00  0.00    -0.206 F 
ATOM     77  C   UNL A   1      39.400  35.447  39.111  1.00  0.00     0.022 A 
BRANCH  74  78
ATOM     78  S   UNL A   1      37.964  33.512  40.513  1.00  0.00     0.124 S 
ATOM     79  O   UNL A   1      38.809  32.452  41.051  1.00  0.00    -0.237 OA
ATOM     80  O   UNL A   1      37.831  34.708  41.338  1.00  0.00    -0.237 OA
ATOM     81  O   UNL A   1      36.733  33.063  39.866  1.00  0.00    -0.744 OA
ENDBRANCH  74  78
ENDBRANCH  47  71
BRANCH  59  82
ATOM     82  C   UNL A   1      44.331  28.569  35.424  1.00  0.00     0.023 A 
ATOM     83  C   UNL A   1      44.154  27.525  36.349  1.00  0.00     0.031 A 
ATOM     84  C   UNL A   1      45.632  29.070  35.237  1.00  0.00     0.131 A 
ATOM     85  C   UNL A   1      45.246  27.054  37.093  1.00  0.00     0.055 A 
ATOM     86  C   UNL A   1      46.727  28.556  35.934  1.00  0.00     0.041 A 
ATOM     87  F   UNL A   1      45.862  30.068  34.367  1.00  0.00    -0.206 F 
ATOM     88  C   UNL A   1      46.534  27.552  36.879  1.00  0.00     0.022 A 
BRANCH  85  89
ATOM     89  S   UNL A   1      44.949  25.844  38.410  1.00  0.00     0.124 S 
ATOM     90  O   UNL A   1      44.391  26.679  39.469  1.00  0.00    -0.237 OA
ATOM     91  O   UNL A   1      44.019  24.914  37.776  1.00  0.00    -0.237 OA
ATOM     92  O   UNL A   1      46.277  25.300  38.684  1.00  0.00    -0.744 OA
ENDBRANCH  85  89
ENDBRANCH  59  82
ENDBRANCH  33  34
ENDBRANCH  26  28
ENDBRANCH  25  26
ENDBRANCH  24  25
ENDBRANCH  23  24
ENDBRANCH  22  23
ENDBRANCH   1  22
TORSDOF 21
ENDMDL
