MODEL 1
REMARK VINA RESULT:     -10.1      0.000      0.000
REMARK SMILES CCCCNC(=O)c1c(Cl)c(Cl)c(Cl)c(Cl)c1C(=O)OCCOCCOC(=O)c1ccc(-c2c3nc(c(-c4cc(S(=O)(=O)[O-])ccc4F)c4ccc([nH]4)c(-c4cc(S(=O)(=O)[O-])ccc4F)c4nc(c(-c5cc(S(=O)(=O)[O-])ccc5F)c5ccc2[nH]5)C=C4)C=C3)cc1
REMARK SMILES IDX 22 1 21 2 20 3 18 4 19 5 17 6 8 7 9 8 10 9 11 10 15 11 12 12
REMARK SMILES IDX 13 13 16 14 14 15 6 16 5 17 7 19 4 20 3 21 2 22 1 23 23 24
REMARK SMILES IDX 24 25 25 26 26 27 27 28 28 29 29 30 30 31 91 32 31 33 90 34
REMARK SMILES IDX 32 35 33 36 34 37 84 38 35 39 89 40 83 41 85 42 36 43 88 44
REMARK SMILES IDX 82 45 81 46 37 48 69 49 49 50 68 51 50 52 53 53 67 54 86 55
REMARK SMILES IDX 51 56 52 57 66 59 87 60 54 61 38 62 39 63 47 64 40 65 46 66
REMARK SMILES IDX 48 67 45 68 41 69 42 70 43 71 44 72 70 73 71 74 79 75 72 76
REMARK SMILES IDX 78 77 80 78 77 79 73 80 74 81 75 82 76 83 55 84 56 85 64 86
REMARK SMILES IDX 57 87 63 88 65 89 62 90 58 91 59 92 60 93 61 94
REMARK H PARENT 5 18 85 47 53 58
REMARK Flexibility Score: inf
ROOT
ATOM      1  C   UNL A   1      32.912  28.336  27.065  1.00  0.00     0.202 C 
ENDROOT
BRANCH   1   2
ATOM      2  C   UNL A   1      33.641  27.865  25.808  1.00  0.00     0.261 C 
BRANCH   2   3
ATOM      3  O   UNL A   1      34.143  26.529  25.984  1.00  0.00    -0.460 OA
BRANCH   3   4
ATOM      4  C   UNL A   1      33.943  25.729  24.924  1.00  0.00     0.340 C 
ATOM      5  O   UNL A   1      34.056  26.012  23.733  1.00  0.00    -0.246 OA
BRANCH   4   6
ATOM      6  C   UNL A   1      33.737  24.338  25.353  1.00  0.00     0.094 A 
ATOM      7  C   UNL A   1      32.451  23.865  25.649  1.00  0.00     0.076 A 
ATOM      8  C   UNL A   1      32.205  22.484  25.628  1.00  0.00     0.074 A 
ATOM      9  Cl  UNL A   1      30.568  21.892  25.623  1.00  0.00    -0.082 Cl
ATOM     10  C   UNL A   1      33.281  21.583  25.528  1.00  0.00     0.080 A 
ATOM     11  C   UNL A   1      34.820  23.448  25.266  1.00  0.00     0.076 A 
ATOM     12  Cl  UNL A   1      32.986  19.867  25.593  1.00  0.00    -0.081 Cl
ATOM     13  C   UNL A   1      34.595  22.067  25.396  1.00  0.00     0.080 A 
ATOM     14  Cl  UNL A   1      36.438  24.058  25.058  1.00  0.00    -0.082 Cl
ATOM     15  Cl  UNL A   1      35.937  20.956  25.366  1.00  0.00    -0.081 Cl
BRANCH   7  16
ATOM     16  C   UNL A   1      31.395  24.836  25.996  1.00  0.00     0.253 C 
ATOM     17  N   UNL A   1      30.536  25.290  25.019  1.00  0.00    -0.352 N 
ATOM     18  H   UNL A   1      29.759  25.797  25.348  1.00  0.00     0.163 HD
ATOM     19  O   UNL A   1      31.263  25.169  27.166  1.00  0.00    -0.269 OA
BRANCH  17  20
ATOM     20  C   UNL A   1      30.607  25.134  23.571  1.00  0.00     0.116 C 
BRANCH  20  21
ATOM     21  C   UNL A   1      30.668  26.443  22.789  1.00  0.00     0.021 C 
BRANCH  21  22
ATOM     22  C   UNL A   1      30.714  27.722  23.628  1.00  0.00    -0.002 C 
ATOM     23  C   UNL A   1      30.187  28.956  22.914  1.00  0.00     0.004 C 
ENDBRANCH  21  22
ENDBRANCH  20  21
ENDBRANCH  17  20
ENDBRANCH   7  16
ENDBRANCH   4   6
ENDBRANCH   3   4
ENDBRANCH   2   3
ENDBRANCH   1   2
BRANCH   1  24
ATOM     24  O   UNL A   1      31.701  29.065  26.842  1.00  0.00    -0.374 OA
BRANCH  24  25
ATOM     25  C   UNL A   1      31.793  30.294  26.126  1.00  0.00     0.202 C 
BRANCH  25  26
ATOM     26  C   UNL A   1      32.001  31.569  26.954  1.00  0.00     0.261 C 
BRANCH  26  27
ATOM     27  O   UNL A   1      33.258  32.220  26.695  1.00  0.00    -0.460 OA
BRANCH  27  28
ATOM     28  C   UNL A   1      33.816  32.811  27.781  1.00  0.00     0.338 C 
ATOM     29  O   UNL A   1      33.300  33.663  28.498  1.00  0.00    -0.246 OA
BRANCH  28  30
ATOM     30  C   UNL A   1      35.104  32.180  28.112  1.00  0.00     0.060 A 
ATOM     31  C   UNL A   1      35.114  30.801  28.361  1.00  0.00     0.016 A 
ATOM     32  C   UNL A   1      36.268  32.934  28.271  1.00  0.00     0.016 A 
ATOM     33  C   UNL A   1      36.280  30.179  28.805  1.00  0.00     0.010 A 
ATOM     34  C   UNL A   1      37.437  32.308  28.719  1.00  0.00     0.010 A 
ATOM     35  C   UNL A   1      37.440  30.935  29.021  1.00  0.00    -0.014 A 
BRANCH  35  36
ATOM     36  C   UNL A   1      38.598  30.316  29.713  1.00  0.00     0.031 A 
ATOM     37  C   UNL A   1      38.919  30.745  31.119  1.00  0.00     0.074 A 
ATOM     38  C   UNL A   1      39.333  29.364  29.110  1.00  0.00     0.049 A 
ATOM     39  N   UNL A   1      39.892  30.360  31.905  1.00  0.00    -0.248 NA
ATOM     40  C   UNL A   1      38.023  31.747  31.712  1.00  0.00     0.031 C 
ATOM     41  C   UNL A   1      39.093  28.838  27.768  1.00  0.00     0.029 A 
ATOM     42  N   UNL A   1      40.433  28.674  29.551  1.00  0.00    -0.354 N 
ATOM     43  C   UNL A   1      39.724  31.071  33.089  1.00  0.00     0.074 A 
ATOM     44  C   UNL A   1      38.584  31.942  32.896  1.00  0.00     0.031 C 
ATOM     45  C   UNL A   1      40.025  27.908  27.492  1.00  0.00     0.029 A 
ATOM     46  C   UNL A   1      40.945  27.798  28.623  1.00  0.00     0.049 A 
ATOM     47  H   UNL A   1      40.820  28.793  30.450  1.00  0.00     0.167 HD
ATOM     48  C   UNL A   1      40.446  30.995  34.235  1.00  0.00     0.034 A 
ATOM     49  C   UNL A   1      42.040  27.015  28.674  1.00  0.00     0.034 A 
ATOM     50  C   UNL A   1      41.592  30.133  34.406  1.00  0.00     0.049 A 
ATOM     51  C   UNL A   1      42.887  27.014  29.923  1.00  0.00     0.074 A 
ATOM     52  C   UNL A   1      42.388  29.968  35.527  1.00  0.00     0.029 A 
ATOM     53  N   UNL A   1      42.115  29.303  33.424  1.00  0.00    -0.354 N 
ATOM     54  N   UNL A   1      42.714  27.685  31.040  1.00  0.00    -0.248 NA
ATOM     55  C   UNL A   1      44.071  26.147  29.919  1.00  0.00     0.031 C 
ATOM     56  C   UNL A   1      43.431  29.091  35.199  1.00  0.00     0.029 A 
ATOM     57  C   UNL A   1      43.244  28.651  33.899  1.00  0.00     0.049 A 
ATOM     58  H   UNL A   1      41.739  29.192  32.521  1.00  0.00     0.167 HD
ATOM     59  C   UNL A   1      43.756  27.299  31.880  1.00  0.00     0.074 A 
ATOM     60  C   UNL A   1      44.544  26.330  31.145  1.00  0.00     0.031 C 
ATOM     61  C   UNL A   1      44.033  27.703  33.147  1.00  0.00     0.034 A 
BRANCH  48  62
ATOM     62  C   UNL A   1      40.042  31.913  35.364  1.00  0.00     0.023 A 
ATOM     63  C   UNL A   1      39.196  31.481  36.402  1.00  0.00     0.031 A 
ATOM     64  C   UNL A   1      40.464  33.254  35.375  1.00  0.00     0.131 A 
ATOM     65  C   UNL A   1      38.734  32.401  37.356  1.00  0.00     0.055 A 
ATOM     66  C   UNL A   1      40.067  34.144  36.374  1.00  0.00     0.041 A 
ATOM     67  F   UNL A   1      41.254  33.730  34.398  1.00  0.00    -0.206 F 
ATOM     68  C   UNL A   1      39.182  33.723  37.364  1.00  0.00     0.022 A 
BRANCH  65  69
ATOM     69  S   UNL A   1      37.415  31.884  38.491  1.00  0.00     0.124 S 
ATOM     70  O   UNL A   1      36.358  32.839  38.168  1.00  0.00    -0.237 OA
ATOM     71  O   UNL A   1      37.176  30.503  38.086  1.00  0.00    -0.237 OA
ATOM     72  O   UNL A   1      38.015  32.053  39.812  1.00  0.00    -0.744 OA
ENDBRANCH  65  69
ENDBRANCH  48  62
BRANCH  49  73
ATOM     73  C   UNL A   1      42.431  26.193  27.493  1.00  0.00     0.023 A 
ATOM     74  C   UNL A   1      42.055  24.845  27.388  1.00  0.00     0.031 A 
ATOM     75  C   UNL A   1      43.228  26.740  26.471  1.00  0.00     0.131 A 
ATOM     76  C   UNL A   1      42.505  24.078  26.302  1.00  0.00     0.055 A 
ATOM     77  C   UNL A   1      43.633  25.985  25.369  1.00  0.00     0.041 A 
ATOM     78  F   UNL A   1      43.615  28.024  26.526  1.00  0.00    -0.206 F 
ATOM     79  C   UNL A   1      43.280  24.641  25.286  1.00  0.00     0.022 A 
BRANCH  76  80
ATOM     80  S   UNL A   1      42.115  22.307  26.267  1.00  0.00     0.124 S 
ATOM     81  O   UNL A   1      42.865  21.859  25.099  1.00  0.00    -0.237 OA
ATOM     82  O   UNL A   1      42.619  21.859  27.562  1.00  0.00    -0.237 OA
ATOM     83  O   UNL A   1      40.661  22.281  26.125  1.00  0.00    -0.744 OA
ENDBRANCH  76  80
ENDBRANCH  49  73
BRANCH  61  84
ATOM     84  C   UNL A   1      45.220  27.063  33.825  1.00  0.00     0.023 A 
ATOM     85  C   UNL A   1      45.114  25.832  34.497  1.00  0.00     0.031 A 
ATOM     86  C   UNL A   1      46.472  27.702  33.808  1.00  0.00     0.131 A 
ATOM     87  C   UNL A   1      46.228  25.305  35.167  1.00  0.00     0.055 A 
ATOM     88  C   UNL A   1      47.591  27.146  34.431  1.00  0.00     0.041 A 
ATOM     89  F   UNL A   1      46.630  28.880  33.183  1.00  0.00    -0.206 F 
ATOM     90  C   UNL A   1      47.469  25.946  35.126  1.00  0.00     0.022 A 
BRANCH  87  91
ATOM     91  S   UNL A   1      46.015  23.807  36.169  1.00  0.00     0.124 S 
ATOM     92  O   UNL A   1      44.648  23.416  35.843  1.00  0.00    -0.237 OA
ATOM     93  O   UNL A   1      47.067  22.935  35.656  1.00  0.00    -0.237 OA
ATOM     94  O   UNL A   1      46.216  24.278  37.539  1.00  0.00    -0.744 OA
ENDBRANCH  87  91
ENDBRANCH  61  84
ENDBRANCH  35  36
ENDBRANCH  28  30
ENDBRANCH  27  28
ENDBRANCH  26  27
ENDBRANCH  25  26
ENDBRANCH  24  25
ENDBRANCH   1  24
TORSDOF 21
ENDMDL
MODEL 2
REMARK VINA RESULT:      -9.5      2.720      3.763
REMARK SMILES CCCCNC(=O)c1c(Cl)c(Cl)c(Cl)c(Cl)c1C(=O)OCCOCCOC(=O)c1ccc(-c2c3nc(c(-c4cc(S(=O)(=O)[O-])ccc4F)c4ccc([nH]4)c(-c4cc(S(=O)(=O)[O-])ccc4F)c4nc(c(-c5cc(S(=O)(=O)[O-])ccc5F)c5ccc2[nH]5)C=C4)C=C3)cc1
REMARK SMILES IDX 22 1 21 2 20 3 18 4 19 5 17 6 8 7 9 8 10 9 11 10 15 11 12 12
REMARK SMILES IDX 13 13 16 14 14 15 6 16 5 17 7 19 4 20 3 21 2 22 1 23 23 24
REMARK SMILES IDX 24 25 25 26 26 27 27 28 28 29 29 30 30 31 91 32 31 33 90 34
REMARK SMILES IDX 32 35 33 36 34 37 84 38 35 39 89 40 83 41 85 42 36 43 88 44
REMARK SMILES IDX 82 45 81 46 37 48 69 49 49 50 68 51 50 52 53 53 67 54 86 55
REMARK SMILES IDX 51 56 52 57 66 59 87 60 54 61 38 62 39 63 47 64 40 65 46 66
REMARK SMILES IDX 48 67 45 68 41 69 42 70 43 71 44 72 70 73 71 74 79 75 72 76
REMARK SMILES IDX 78 77 80 78 77 79 73 80 74 81 75 82 76 83 55 84 56 85 64 86
REMARK SMILES IDX 57 87 63 88 65 89 62 90 58 91 59 92 60 93 61 94
REMARK H PARENT 5 18 85 47 53 58
REMARK Flexibility Score: inf
ROOT
ATOM      1  C   UNL A   1      31.982  29.053  26.696  1.00  0.00     0.202 C 
ENDROOT
BRANCH   1   2
ATOM      2  C   UNL A   1      31.508  27.804  27.436  1.00  0.00     0.261 C 
BRANCH   2   3
ATOM      3  O   UNL A   1      32.045  26.618  26.826  1.00  0.00    -0.460 OA
BRANCH   3   4
ATOM      4  C   UNL A   1      31.124  25.858  26.211  1.00  0.00     0.340 C 
ATOM      5  O   UNL A   1      29.901  25.916  26.325  1.00  0.00    -0.246 OA
BRANCH   4   6
ATOM      6  C   UNL A   1      31.748  25.013  25.184  1.00  0.00     0.094 A 
ATOM      7  C   UNL A   1      31.975  23.650  25.419  1.00  0.00     0.076 A 
ATOM      8  C   UNL A   1      32.151  22.784  24.331  1.00  0.00     0.074 A 
ATOM      9  Cl  UNL A   1      32.063  21.061  24.566  1.00  0.00    -0.082 Cl
ATOM     10  C   UNL A   1      32.317  23.311  23.036  1.00  0.00     0.080 A 
ATOM     11  C   UNL A   1      31.926  25.551  23.898  1.00  0.00     0.076 A 
ATOM     12  Cl  UNL A   1      32.627  22.242  21.696  1.00  0.00    -0.081 Cl
ATOM     13  C   UNL A   1      32.253  24.701  22.829  1.00  0.00     0.080 A 
ATOM     14  Cl  UNL A   1      31.800  27.270  23.645  1.00  0.00    -0.082 Cl
ATOM     15  Cl  UNL A   1      32.552  25.363  21.245  1.00  0.00    -0.081 Cl
BRANCH   7  16
ATOM     16  C   UNL A   1      32.042  23.168  26.813  1.00  0.00     0.253 C 
ATOM     17  N   UNL A   1      33.268  22.979  27.412  1.00  0.00    -0.352 N 
ATOM     18  H   UNL A   1      33.239  22.823  28.384  1.00  0.00     0.163 HD
ATOM     19  O   UNL A   1      30.998  23.009  27.432  1.00  0.00    -0.269 OA
BRANCH  17  20
ATOM     20  C   UNL A   1      34.602  22.973  26.823  1.00  0.00     0.116 C 
BRANCH  20  21
ATOM     21  C   UNL A   1      35.142  21.588  26.479  1.00  0.00     0.021 C 
BRANCH  21  22
ATOM     22  C   UNL A   1      35.824  21.456  25.116  1.00  0.00    -0.002 C 
ATOM     23  C   UNL A   1      36.670  22.656  24.721  1.00  0.00     0.004 C 
ENDBRANCH  21  22
ENDBRANCH  20  21
ENDBRANCH  17  20
ENDBRANCH   7  16
ENDBRANCH   4   6
ENDBRANCH   3   4
ENDBRANCH   2   3
ENDBRANCH   1   2
BRANCH   1  24
ATOM     24  O   UNL A   1      31.970  30.266  27.456  1.00  0.00    -0.374 OA
BRANCH  24  25
ATOM     25  C   UNL A   1      32.577  31.417  26.873  1.00  0.00     0.202 C 
BRANCH  25  26
ATOM     26  C   UNL A   1      33.362  32.341  27.813  1.00  0.00     0.261 C 
BRANCH  26  27
ATOM     27  O   UNL A   1      33.118  33.738  27.576  1.00  0.00    -0.460 OA
BRANCH  27  28
ATOM     28  C   UNL A   1      33.270  34.526  28.669  1.00  0.00     0.338 C 
ATOM     29  O   UNL A   1      32.537  35.448  29.016  1.00  0.00    -0.246 OA
BRANCH  28  30
ATOM     30  C   UNL A   1      34.371  34.036  29.515  1.00  0.00     0.060 A 
ATOM     31  C   UNL A   1      35.681  34.347  29.128  1.00  0.00     0.016 A 
ATOM     32  C   UNL A   1      34.136  33.207  30.613  1.00  0.00     0.016 A 
ATOM     33  C   UNL A   1      36.762  33.799  29.818  1.00  0.00     0.010 A 
ATOM     34  C   UNL A   1      35.222  32.655  31.303  1.00  0.00     0.010 A 
ATOM     35  C   UNL A   1      36.539  32.921  30.888  1.00  0.00    -0.014 A 
BRANCH  35  36
ATOM     36  C   UNL A   1      37.679  32.162  31.461  1.00  0.00     0.031 A 
ATOM     37  C   UNL A   1      38.216  32.564  32.808  1.00  0.00     0.074 A 
ATOM     38  C   UNL A   1      38.207  31.113  30.807  1.00  0.00     0.049 A 
ATOM     39  N   UNL A   1      39.214  32.064  33.489  1.00  0.00    -0.248 NA
ATOM     40  C   UNL A   1      37.535  33.687  33.470  1.00  0.00     0.031 C 
ATOM     41  C   UNL A   1      37.745  30.604  29.517  1.00  0.00     0.029 A 
ATOM     42  N   UNL A   1      39.250  30.287  31.141  1.00  0.00    -0.354 N 
ATOM     43  C   UNL A   1      39.281  32.807  34.664  1.00  0.00     0.074 A 
ATOM     44  C   UNL A   1      38.251  33.821  34.576  1.00  0.00     0.031 C 
ATOM     45  C   UNL A   1      38.508  29.554  29.165  1.00  0.00     0.029 A 
ATOM     46  C   UNL A   1      39.530  29.338  30.186  1.00  0.00     0.049 A 
ATOM     47  H   UNL A   1      39.752  30.366  31.985  1.00  0.00     0.167 HD
ATOM     48  C   UNL A   1      40.116  32.652  35.721  1.00  0.00     0.034 A 
ATOM     49  C   UNL A   1      40.512  28.416  30.135  1.00  0.00     0.034 A 
ATOM     50  C   UNL A   1      41.150  31.647  35.786  1.00  0.00     0.049 A 
ATOM     51  C   UNL A   1      41.491  28.319  31.279  1.00  0.00     0.074 A 
ATOM     52  C   UNL A   1      42.044  31.392  36.813  1.00  0.00     0.029 A 
ATOM     53  N   UNL A   1      41.441  30.740  34.776  1.00  0.00    -0.354 N 
ATOM     54  N   UNL A   1      41.540  29.023  32.388  1.00  0.00    -0.248 NA
ATOM     55  C   UNL A   1      42.543  27.301  31.166  1.00  0.00     0.031 C 
ATOM     56  C   UNL A   1      42.916  30.379  36.395  1.00  0.00     0.029 A 
ATOM     57  C   UNL A   1      42.522  29.950  35.138  1.00  0.00     0.049 A 
ATOM     58  H   UNL A   1      40.951  30.668  33.925  1.00  0.00     0.167 HD
ATOM     59  C   UNL A   1      42.613  28.513  33.115  1.00  0.00     0.074 A 
ATOM     60  C   UNL A   1      43.175  27.437  32.324  1.00  0.00     0.031 C 
ATOM     61  C   UNL A   1      43.086  28.893  34.329  1.00  0.00     0.034 A 
BRANCH  48  62
ATOM     62  C   UNL A   1      39.971  33.632  36.862  1.00  0.00     0.023 A 
ATOM     63  C   UNL A   1      40.849  34.719  37.018  1.00  0.00     0.031 A 
ATOM     64  C   UNL A   1      38.975  33.445  37.835  1.00  0.00     0.131 A 
ATOM     65  C   UNL A   1      40.766  35.526  38.164  1.00  0.00     0.055 A 
ATOM     66  C   UNL A   1      38.846  34.301  38.931  1.00  0.00     0.041 A 
ATOM     67  F   UNL A   1      38.122  32.411  37.753  1.00  0.00    -0.206 F 
ATOM     68  C   UNL A   1      39.756  35.339  39.109  1.00  0.00     0.022 A 
BRANCH  65  69
ATOM     69  S   UNL A   1      42.095  36.721  38.481  1.00  0.00     0.124 S 
ATOM     70  O   UNL A   1      42.650  36.906  37.142  1.00  0.00    -0.237 OA
ATOM     71  O   UNL A   1      41.369  37.859  39.035  1.00  0.00    -0.237 OA
ATOM     72  O   UNL A   1      42.969  36.020  39.418  1.00  0.00    -0.744 OA
ENDBRANCH  65  69
ENDBRANCH  48  62
BRANCH  49  73
ATOM     73  C   UNL A   1      40.650  27.532  28.942  1.00  0.00     0.023 A 
ATOM     74  C   UNL A   1      41.580  27.815  27.930  1.00  0.00     0.031 A 
ATOM     75  C   UNL A   1      39.817  26.410  28.781  1.00  0.00     0.131 A 
ATOM     76  C   UNL A   1      41.630  27.006  26.783  1.00  0.00     0.055 A 
ATOM     77  C   UNL A   1      39.904  25.582  27.661  1.00  0.00     0.041 A 
ATOM     78  F   UNL A   1      38.910  26.098  29.720  1.00  0.00    -0.206 F 
ATOM     79  C   UNL A   1      40.808  25.885  26.648  1.00  0.00     0.022 A 
BRANCH  76  80
ATOM     80  S   UNL A   1      42.747  27.480  25.435  1.00  0.00     0.124 S 
ATOM     81  O   UNL A   1      42.768  26.267  24.626  1.00  0.00    -0.237 OA
ATOM     82  O   UNL A   1      42.054  28.625  24.854  1.00  0.00    -0.237 OA
ATOM     83  O   UNL A   1      43.998  27.795  26.123  1.00  0.00    -0.744 OA
ENDBRANCH  76  80
ENDBRANCH  49  73
BRANCH  61  84
ATOM     84  C   UNL A   1      44.250  28.110  34.886  1.00  0.00     0.023 A 
ATOM     85  C   UNL A   1      44.065  26.897  35.573  1.00  0.00     0.031 A 
ATOM     86  C   UNL A   1      45.563  28.593  34.738  1.00  0.00     0.131 A 
ATOM     87  C   UNL A   1      45.170  26.234  36.130  1.00  0.00     0.055 A 
ATOM     88  C   UNL A   1      46.663  27.900  35.247  1.00  0.00     0.041 A 
ATOM     89  F   UNL A   1      45.797  29.747  34.093  1.00  0.00    -0.206 F 
ATOM     90  C   UNL A   1      46.468  26.720  35.958  1.00  0.00     0.022 A 
BRANCH  87  91
ATOM     91  S   UNL A   1      44.880  24.767  37.157  1.00  0.00     0.124 S 
ATOM     92  O   UNL A   1      45.727  25.035  38.315  1.00  0.00    -0.237 OA
ATOM     93  O   UNL A   1      43.441  24.829  37.393  1.00  0.00    -0.237 OA
ATOM     94  O   UNL A   1      45.321  23.660  36.308  1.00  0.00    -0.744 OA
ENDBRANCH  87  91
ENDBRANCH  61  84
ENDBRANCH  35  36
ENDBRANCH  28  30
ENDBRANCH  27  28
ENDBRANCH  26  27
ENDBRANCH  25  26
ENDBRANCH  24  25
ENDBRANCH   1  24
TORSDOF 21
ENDMDL
MODEL 3
REMARK VINA RESULT:      -9.3      2.269      2.588
REMARK SMILES CCCCNC(=O)c1c(Cl)c(Cl)c(Cl)c(Cl)c1C(=O)OCCOCCOC(=O)c1ccc(-c2c3nc(c(-c4cc(S(=O)(=O)[O-])ccc4F)c4ccc([nH]4)c(-c4cc(S(=O)(=O)[O-])ccc4F)c4nc(c(-c5cc(S(=O)(=O)[O-])ccc5F)c5ccc2[nH]5)C=C4)C=C3)cc1
REMARK SMILES IDX 22 1 21 2 20 3 18 4 19 5 17 6 8 7 9 8 10 9 11 10 15 11 12 12
REMARK SMILES IDX 13 13 16 14 14 15 6 16 5 17 7 19 4 20 3 21 2 22 1 23 23 24
REMARK SMILES IDX 24 25 25 26 26 27 27 28 28 29 29 30 30 31 91 32 31 33 90 34
REMARK SMILES IDX 32 35 33 36 34 37 84 38 35 39 89 40 83 41 85 42 36 43 88 44
REMARK SMILES IDX 82 45 81 46 37 48 69 49 49 50 68 51 50 52 53 53 67 54 86 55
REMARK SMILES IDX 51 56 52 57 66 59 87 60 54 61 38 62 39 63 47 64 40 65 46 66
REMARK SMILES IDX 48 67 45 68 41 69 42 70 43 71 44 72 70 73 71 74 79 75 72 76
REMARK SMILES IDX 78 77 80 78 77 79 73 80 74 81 75 82 76 83 55 84 56 85 64 86
REMARK SMILES IDX 57 87 63 88 65 89 62 90 58 91 59 92 60 93 61 94
REMARK H PARENT 5 18 85 47 53 58
REMARK Flexibility Score: inf
ROOT
ATOM      1  C   UNL A   1      33.240  28.434  26.972  1.00  0.00     0.202 C 
ENDROOT
BRANCH   1   2
ATOM      2  C   UNL A   1      34.097  27.926  25.814  1.00  0.00     0.261 C 
BRANCH   2   3
ATOM      3  O   UNL A   1      34.335  26.513  25.941  1.00  0.00    -0.460 OA
BRANCH   3   4
ATOM      4  C   UNL A   1      33.910  25.793  24.890  1.00  0.00     0.340 C 
ATOM      5  O   UNL A   1      33.885  26.128  23.708  1.00  0.00    -0.246 OA
BRANCH   4   6
ATOM      6  C   UNL A   1      33.628  24.407  25.288  1.00  0.00     0.094 A 
ATOM      7  C   UNL A   1      32.338  24.025  25.682  1.00  0.00     0.076 A 
ATOM      8  C   UNL A   1      31.977  22.671  25.636  1.00  0.00     0.074 A 
ATOM      9  Cl  UNL A   1      30.303  22.210  25.757  1.00  0.00    -0.082 Cl
ATOM     10  C   UNL A   1      32.963  21.691  25.411  1.00  0.00     0.080 A 
ATOM     11  C   UNL A   1      34.622  23.438  25.076  1.00  0.00     0.076 A 
ATOM     12  Cl  UNL A   1      32.535  20.003  25.444  1.00  0.00    -0.081 Cl
ATOM     13  C   UNL A   1      34.296  22.075  25.179  1.00  0.00     0.080 A 
ATOM     14  Cl  UNL A   1      36.261  23.926  24.746  1.00  0.00    -0.082 Cl
ATOM     15  Cl  UNL A   1      35.535  20.864  24.993  1.00  0.00    -0.081 Cl
BRANCH   7  16
ATOM     16  C   UNL A   1      31.399  25.062  26.154  1.00  0.00     0.253 C 
ATOM     17  N   UNL A   1      30.475  25.595  25.282  1.00  0.00    -0.352 N 
ATOM     18  H   UNL A   1      29.777  26.149  25.700  1.00  0.00     0.163 HD
ATOM     19  O   UNL A   1      31.419  25.381  27.335  1.00  0.00    -0.269 OA
BRANCH  17  20
ATOM     20  C   UNL A   1      30.377  25.463  23.833  1.00  0.00     0.116 C 
BRANCH  20  21
ATOM     21  C   UNL A   1      29.879  26.710  23.109  1.00  0.00     0.021 C 
BRANCH  21  22
ATOM     22  C   UNL A   1      30.951  27.552  22.413  1.00  0.00    -0.002 C 
ATOM     23  C   UNL A   1      31.472  28.713  23.246  1.00  0.00     0.004 C 
ENDBRANCH  21  22
ENDBRANCH  20  21
ENDBRANCH  17  20
ENDBRANCH   7  16
ENDBRANCH   4   6
ENDBRANCH   3   4
ENDBRANCH   2   3
ENDBRANCH   1   2
BRANCH   1  24
ATOM     24  O   UNL A   1      32.323  29.483  26.649  1.00  0.00    -0.374 OA
BRANCH  24  25
ATOM     25  C   UNL A   1      32.861  30.783  26.416  1.00  0.00     0.202 C 
BRANCH  25  26
ATOM     26  C   UNL A   1      32.981  31.715  27.629  1.00  0.00     0.261 C 
BRANCH  26  27
ATOM     27  O   UNL A   1      34.295  32.277  27.789  1.00  0.00    -0.460 OA
BRANCH  27  28
ATOM     28  C   UNL A   1      34.760  32.259  29.064  1.00  0.00     0.338 C 
ATOM     29  O   UNL A   1      34.206  32.728  30.053  1.00  0.00    -0.246 OA
BRANCH  28  30
ATOM     30  C   UNL A   1      35.984  31.445  29.159  1.00  0.00     0.060 A 
ATOM     31  C   UNL A   1      35.905  30.221  29.836  1.00  0.00     0.016 A 
ATOM     32  C   UNL A   1      37.210  31.909  28.680  1.00  0.00     0.016 A 
ATOM     33  C   UNL A   1      37.059  29.474  30.068  1.00  0.00     0.010 A 
ATOM     34  C   UNL A   1      38.368  31.161  28.917  1.00  0.00     0.010 A 
ATOM     35  C   UNL A   1      38.304  29.957  29.641  1.00  0.00    -0.014 A 
BRANCH  35  36
ATOM     36  C   UNL A   1      39.545  29.280  30.094  1.00  0.00     0.031 A 
ATOM     37  C   UNL A   1      40.243  29.792  31.325  1.00  0.00     0.074 A 
ATOM     38  C   UNL A   1      40.025  28.209  29.439  1.00  0.00     0.049 A 
ATOM     39  N   UNL A   1      41.348  29.376  31.890  1.00  0.00    -0.248 NA
ATOM     40  C   UNL A   1      39.609  30.931  32.005  1.00  0.00     0.031 C 
ATOM     41  C   UNL A   1      39.413  27.598  28.261  1.00  0.00     0.029 A 
ATOM     42  N   UNL A   1      41.141  27.447  29.673  1.00  0.00    -0.354 N 
ATOM     43  C   UNL A   1      41.541  30.199  32.995  1.00  0.00     0.074 A 
ATOM     44  C   UNL A   1      40.464  31.166  32.990  1.00  0.00     0.031 C 
ATOM     45  C   UNL A   1      40.168  26.555  27.871  1.00  0.00     0.029 A 
ATOM     46  C   UNL A   1      41.330  26.446  28.750  1.00  0.00     0.049 A 
ATOM     47  H   UNL A   1      41.750  27.601  30.432  1.00  0.00     0.167 HD
ATOM     48  C   UNL A   1      42.520  30.146  33.932  1.00  0.00     0.034 A 
ATOM     49  C   UNL A   1      42.336  25.559  28.619  1.00  0.00     0.034 A 
ATOM     50  C   UNL A   1      43.598  29.186  33.914  1.00  0.00     0.049 A 
ATOM     51  C   UNL A   1      43.467  25.576  29.618  1.00  0.00     0.074 A 
ATOM     52  C   UNL A   1      44.635  29.034  34.819  1.00  0.00     0.029 A 
ATOM     53  N   UNL A   1      43.789  28.224  32.930  1.00  0.00    -0.354 N 
ATOM     54  N   UNL A   1      43.636  26.355  30.663  1.00  0.00    -0.248 NA
ATOM     55  C   UNL A   1      44.539  24.591  29.422  1.00  0.00     0.031 C 
ATOM     56  C   UNL A   1      45.487  28.028  34.346  1.00  0.00     0.029 A 
ATOM     57  C   UNL A   1      44.944  27.501  33.185  1.00  0.00     0.049 A 
ATOM     58  H   UNL A   1      43.190  28.077  32.163  1.00  0.00     0.167 HD
ATOM     59  C   UNL A   1      44.821  25.934  31.263  1.00  0.00     0.074 A 
ATOM     60  C   UNL A   1      45.317  24.829  30.469  1.00  0.00     0.031 C 
ATOM     61  C   UNL A   1      45.439  26.413  32.372  1.00  0.00     0.034 A 
BRANCH  48  62
ATOM     62  C   UNL A   1      42.489  31.195  35.018  1.00  0.00     0.023 A 
ATOM     63  C   UNL A   1      43.033  32.477  34.824  1.00  0.00     0.031 A 
ATOM     64  C   UNL A   1      41.956  30.891  36.283  1.00  0.00     0.131 A 
ATOM     65  C   UNL A   1      43.108  33.376  35.900  1.00  0.00     0.055 A 
ATOM     66  C   UNL A   1      41.959  31.819  37.327  1.00  0.00     0.041 A 
ATOM     67  F   UNL A   1      41.443  29.676  36.536  1.00  0.00    -0.206 F 
ATOM     68  C   UNL A   1      42.553  33.065  37.143  1.00  0.00     0.022 A 
BRANCH  65  69
ATOM     69  S   UNL A   1      44.082  34.893  35.696  1.00  0.00     0.124 S 
ATOM     70  O   UNL A   1      43.795  35.598  36.943  1.00  0.00    -0.237 OA
ATOM     71  O   UNL A   1      45.439  34.378  35.549  1.00  0.00    -0.237 OA
ATOM     72  O   UNL A   1      43.514  35.507  34.498  1.00  0.00    -0.744 OA
ENDBRANCH  65  69
ENDBRANCH  48  62
BRANCH  49  73
ATOM     73  C   UNL A   1      42.350  24.602  27.475  1.00  0.00     0.023 A 
ATOM     74  C   UNL A   1      41.586  23.425  27.502  1.00  0.00     0.031 A 
ATOM     75  C   UNL A   1      43.166  24.836  26.354  1.00  0.00     0.131 A 
ATOM     76  C   UNL A   1      41.682  22.507  26.444  1.00  0.00     0.055 A 
ATOM     77  C   UNL A   1      43.221  23.943  25.283  1.00  0.00     0.041 A 
ATOM     78  F   UNL A   1      43.917  25.947  26.281  1.00  0.00    -0.206 F 
ATOM     79  C   UNL A   1      42.483  22.764  25.330  1.00  0.00     0.022 A 
BRANCH  76  80
ATOM     80  S   UNL A   1      40.788  20.934  26.575  1.00  0.00     0.124 S 
ATOM     81  O   UNL A   1      41.637  20.044  25.791  1.00  0.00    -0.237 OA
ATOM     82  O   UNL A   1      40.780  20.707  28.016  1.00  0.00    -0.237 OA
ATOM     83  O   UNL A   1      39.484  21.234  25.986  1.00  0.00    -0.744 OA
ENDBRANCH  76  80
ENDBRANCH  49  73
BRANCH  61  84
ATOM     84  C   UNL A   1      46.703  25.713  32.808  1.00  0.00     0.023 A 
ATOM     85  C   UNL A   1      46.680  24.644  33.723  1.00  0.00     0.031 A 
ATOM     86  C   UNL A   1      47.950  26.130  32.310  1.00  0.00     0.131 A 
ATOM     87  C   UNL A   1      47.884  24.064  34.149  1.00  0.00     0.055 A 
ATOM     88  C   UNL A   1      49.141  25.512  32.696  1.00  0.00     0.041 A 
ATOM     89  F   UNL A   1      48.031  27.146  31.436  1.00  0.00    -0.206 F 
ATOM     90  C   UNL A   1      49.113  24.480  33.630  1.00  0.00     0.022 A 
BRANCH  87  91
ATOM     91  S   UNL A   1      47.832  22.808  35.457  1.00  0.00     0.124 S 
ATOM     92  O   UNL A   1      47.247  21.667  34.760  1.00  0.00    -0.237 OA
ATOM     93  O   UNL A   1      49.239  22.678  35.823  1.00  0.00    -0.237 OA
ATOM     94  O   UNL A   1      46.981  23.413  36.481  1.00  0.00    -0.744 OA
ENDBRANCH  87  91
ENDBRANCH  61  84
ENDBRANCH  35  36
ENDBRANCH  28  30
ENDBRANCH  27  28
ENDBRANCH  26  27
ENDBRANCH  25  26
ENDBRANCH  24  25
ENDBRANCH   1  24
TORSDOF 21
ENDMDL
