MODEL 1
REMARK VINA RESULT:     -11.4      0.000      0.000
REMARK SMILES Cc1cccc(C(=O)OCCOCCOC(=O)c2ccc(-c3c4nc(c(-c5cc(S(=O)(=O)[O-])ccc5F)c5ccc([nH]5)c(-c5cc(S(=O)(=O)[O-])ccc5F)c5nc(c(-c6cc(S(=O)(=O)[O-])ccc6F)c6ccc3[nH]6)C=C5)C=C4)cc2)c1OC[C@@H]1C[C@H]2CC[C@@H]1C2
REMARK SMILES IDX 12 1 11 2 10 3 9 4 7 5 8 6 6 7 1 8 2 9 3 10 81 11 4 12 5 13
REMARK SMILES IDX 82 14 83 15 84 16 85 17 89 18 86 19 88 20 90 21 87 22 13 23
REMARK SMILES IDX 14 24 15 25 16 26 17 27 18 28 19 29 80 30 20 31 79 32 21 33
REMARK SMILES IDX 22 34 23 35 73 36 24 37 78 38 72 39 74 40 25 41 77 42 71 43
REMARK SMILES IDX 70 44 26 46 58 47 38 48 57 49 39 50 42 51 56 52 75 53 40 54
REMARK SMILES IDX 41 55 55 57 76 58 43 59 27 60 28 61 36 62 29 63 35 64 37 65
REMARK SMILES IDX 34 66 30 67 31 68 32 69 33 70 59 71 60 72 68 73 61 74 67 75
REMARK SMILES IDX 69 76 66 77 62 78 63 79 64 80 65 81 44 82 45 83 53 84 46 85
REMARK SMILES IDX 52 86 54 87 51 88 47 89 48 90 49 91 50 92
REMARK H PARENT 74 45 42 56
REMARK Flexibility Score: inf
ROOT
ATOM      1  O   UNL A   1      32.937  28.676  26.097  1.00  0.00    -0.374 OA
ENDROOT
BRANCH   1   2
ATOM      2  C   UNL A   1      32.217  28.084  27.173  1.00  0.00     0.202 C 
BRANCH   2   3
ATOM      3  C   UNL A   1      32.260  26.611  26.901  1.00  0.00     0.261 C 
BRANCH   3   4
ATOM      4  O   UNL A   1      31.008  26.088  26.429  1.00  0.00    -0.460 OA
BRANCH   4   5
ATOM      5  C   UNL A   1      30.993  25.404  25.264  1.00  0.00     0.342 C 
ATOM      6  O   UNL A   1      30.810  24.214  25.113  1.00  0.00    -0.246 OA
BRANCH   5   7
ATOM      7  C   UNL A   1      31.118  26.360  24.136  1.00  0.00     0.102 A 
ATOM      8  C   UNL A   1      33.724  28.385  22.247  1.00  0.00     0.048 C 
ATOM      9  C   UNL A   1      32.409  27.827  22.711  1.00  0.00    -0.008 A 
ATOM     10  C   UNL A   1      31.257  28.607  22.498  1.00  0.00     0.007 A 
ATOM     11  C   UNL A   1      32.335  26.653  23.478  1.00  0.00     0.136 A 
ATOM     12  C   UNL A   1      30.046  28.279  23.097  1.00  0.00     0.001 A 
ATOM     13  C   UNL A   1      29.978  27.164  23.922  1.00  0.00     0.019 A 
BRANCH  11  14
ATOM     14  O   UNL A   1      33.520  26.094  23.861  1.00  0.00    -0.492 OA
BRANCH  14  15
ATOM     15  C   UNL A   1      34.060  24.872  23.320  1.00  0.00     0.233 C 
BRANCH  15  16
ATOM     16  C   UNL A   1      34.383  23.652  24.196  1.00  0.00     0.030 C 
ATOM     17  C   UNL A   1      34.640  24.060  25.681  1.00  0.00     0.011 C 
ATOM     18  C   UNL A   1      35.720  22.945  23.859  1.00  0.00    -0.004 C 
ATOM     19  C   UNL A   1      35.966  23.355  26.029  1.00  0.00    -0.010 C 
ATOM     20  C   UNL A   1      35.673  21.540  24.474  1.00  0.00     0.004 C 
ATOM     21  C   UNL A   1      36.758  23.626  24.758  1.00  0.00     0.007 C 
ATOM     22  C   UNL A   1      35.777  21.828  25.977  1.00  0.00     0.004 C 
ENDBRANCH  15  16
ENDBRANCH  14  15
ENDBRANCH  11  14
ENDBRANCH   5   7
ENDBRANCH   4   5
ENDBRANCH   3   4
ENDBRANCH   2   3
ENDBRANCH   1   2
BRANCH   1  23
ATOM     23  C   UNL A   1      32.692  30.040  25.860  1.00  0.00     0.202 C 
BRANCH  23  24
ATOM     24  C   UNL A   1      32.934  30.899  27.106  1.00  0.00     0.261 C 
BRANCH  24  25
ATOM     25  O   UNL A   1      34.294  31.394  27.120  1.00  0.00    -0.460 OA
BRANCH  25  26
ATOM     26  C   UNL A   1      34.882  31.491  28.349  1.00  0.00     0.338 C 
ATOM     27  O   UNL A   1      34.684  32.396  29.141  1.00  0.00    -0.246 OA
BRANCH  26  28
ATOM     28  C   UNL A   1      35.884  30.401  28.535  1.00  0.00     0.060 A 
ATOM     29  C   UNL A   1      36.007  29.732  29.770  1.00  0.00     0.016 A 
ATOM     30  C   UNL A   1      36.871  30.250  27.569  1.00  0.00     0.016 A 
ATOM     31  C   UNL A   1      37.198  29.058  30.094  1.00  0.00     0.010 A 
ATOM     32  C   UNL A   1      38.078  29.702  27.942  1.00  0.00     0.010 A 
ATOM     33  C   UNL A   1      38.271  29.130  29.214  1.00  0.00    -0.014 A 
BRANCH  33  34
ATOM     34  C   UNL A   1      39.664  28.731  29.462  1.00  0.00     0.031 A 
ATOM     35  C   UNL A   1      40.011  27.332  29.124  1.00  0.00     0.074 A 
ATOM     36  C   UNL A   1      40.648  29.661  29.580  1.00  0.00     0.049 A 
ATOM     37  N   UNL A   1      41.196  26.849  29.195  1.00  0.00    -0.248 NA
ATOM     38  C   UNL A   1      39.032  26.330  28.684  1.00  0.00     0.031 C 
ATOM     39  C   UNL A   1      42.045  29.577  29.135  1.00  0.00     0.029 A 
ATOM     40  N   UNL A   1      40.599  30.935  30.147  1.00  0.00    -0.354 N 
ATOM     41  C   UNL A   1      41.211  25.683  28.473  1.00  0.00     0.074 A 
ATOM     42  C   UNL A   1      39.829  25.328  28.304  1.00  0.00     0.031 C 
ATOM     43  C   UNL A   1      42.758  30.590  29.665  1.00  0.00     0.029 A 
ATOM     44  C   UNL A   1      41.884  31.284  30.594  1.00  0.00     0.049 A 
ATOM     45  H   UNL A   1      39.794  31.498  30.221  1.00  0.00     0.167 HD
ATOM     46  C   UNL A   1      42.409  25.254  27.996  1.00  0.00     0.034 A 
ATOM     47  C   UNL A   1      42.093  31.552  31.910  1.00  0.00     0.034 A 
ATOM     48  C   UNL A   1      43.503  26.020  28.610  1.00  0.00     0.049 A 
ATOM     49  C   UNL A   1      42.975  30.433  32.436  1.00  0.00     0.074 A 
ATOM     50  C   UNL A   1      44.400  26.967  28.148  1.00  0.00     0.029 A 
ATOM     51  N   UNL A   1      43.565  26.076  30.003  1.00  0.00    -0.354 N 
ATOM     52  N   UNL A   1      43.079  29.269  31.844  1.00  0.00    -0.248 NA
ATOM     53  C   UNL A   1      43.907  30.571  33.548  1.00  0.00     0.031 C 
ATOM     54  C   UNL A   1      44.897  27.677  29.287  1.00  0.00     0.029 A 
ATOM     55  C   UNL A   1      44.345  27.129  30.436  1.00  0.00     0.049 A 
ATOM     56  H   UNL A   1      43.110  25.442  30.603  1.00  0.00     0.167 HD
ATOM     57  C   UNL A   1      44.115  28.564  32.376  1.00  0.00     0.074 A 
ATOM     58  C   UNL A   1      44.576  29.404  33.475  1.00  0.00     0.031 C 
ATOM     59  C   UNL A   1      44.539  27.366  31.867  1.00  0.00     0.034 A 
BRANCH  46  60
ATOM     60  C   UNL A   1      42.606  24.259  26.876  1.00  0.00     0.023 A 
ATOM     61  C   UNL A   1      42.068  22.965  27.030  1.00  0.00     0.031 A 
ATOM     62  C   UNL A   1      43.377  24.455  25.707  1.00  0.00     0.131 A 
ATOM     63  C   UNL A   1      42.284  21.960  26.067  1.00  0.00     0.055 A 
ATOM     64  C   UNL A   1      43.542  23.472  24.721  1.00  0.00     0.041 A 
ATOM     65  F   UNL A   1      44.067  25.578  25.476  1.00  0.00    -0.206 F 
ATOM     66  C   UNL A   1      42.997  22.213  24.899  1.00  0.00     0.022 A 
BRANCH  63  67
ATOM     67  S   UNL A   1      41.667  20.287  26.390  1.00  0.00     0.124 S 
ATOM     68  O   UNL A   1      42.241  19.997  27.701  1.00  0.00    -0.237 OA
ATOM     69  O   UNL A   1      40.222  20.473  26.342  1.00  0.00    -0.237 OA
ATOM     70  O   UNL A   1      42.224  19.501  25.290  1.00  0.00    -0.744 OA
ENDBRANCH  63  67
ENDBRANCH  46  60
BRANCH  47  71
ATOM     71  C   UNL A   1      40.857  32.190  32.505  1.00  0.00     0.023 A 
ATOM     72  C   UNL A   1      40.184  31.501  33.566  1.00  0.00     0.031 A 
ATOM     73  C   UNL A   1      40.699  33.584  32.451  1.00  0.00     0.131 A 
ATOM     74  C   UNL A   1      39.554  32.219  34.608  1.00  0.00     0.055 A 
ATOM     75  C   UNL A   1      40.061  34.286  33.485  1.00  0.00     0.041 A 
ATOM     76  F   UNL A   1      41.298  34.300  31.489  1.00  0.00    -0.206 F 
ATOM     77  C   UNL A   1      39.530  33.614  34.587  1.00  0.00     0.022 A 
BRANCH  74  78
ATOM     78  S   UNL A   1      38.775  31.360  36.032  1.00  0.00     0.124 S 
ATOM     79  O   UNL A   1      39.721  31.607  37.113  1.00  0.00    -0.237 OA
ATOM     80  O   UNL A   1      37.483  32.021  36.176  1.00  0.00    -0.237 OA
ATOM     81  O   UNL A   1      38.692  29.973  35.579  1.00  0.00    -0.744 OA
ENDBRANCH  74  78
ENDBRANCH  47  71
BRANCH  59  82
ATOM     82  C   UNL A   1      45.244  26.329  32.703  1.00  0.00     0.023 A 
ATOM     83  C   UNL A   1      44.542  25.307  33.351  1.00  0.00     0.031 A 
ATOM     84  C   UNL A   1      46.654  26.248  32.784  1.00  0.00     0.131 A 
ATOM     85  C   UNL A   1      45.199  24.359  34.142  1.00  0.00     0.055 A 
ATOM     86  C   UNL A   1      47.314  25.229  33.473  1.00  0.00     0.041 A 
ATOM     87  F   UNL A   1      47.456  27.139  32.181  1.00  0.00    -0.206 F 
ATOM     88  C   UNL A   1      46.586  24.290  34.186  1.00  0.00     0.022 A 
BRANCH  85  89
ATOM     89  S   UNL A   1      44.171  23.311  35.195  1.00  0.00     0.124 S 
ATOM     90  O   UNL A   1      42.827  23.671  34.749  1.00  0.00    -0.237 OA
ATOM     91  O   UNL A   1      44.614  21.968  34.835  1.00  0.00    -0.237 OA
ATOM     92  O   UNL A   1      44.514  23.741  36.547  1.00  0.00    -0.744 OA
ENDBRANCH  85  89
ENDBRANCH  59  82
ENDBRANCH  33  34
ENDBRANCH  26  28
ENDBRANCH  25  26
ENDBRANCH  24  25
ENDBRANCH  23  24
ENDBRANCH   1  23
TORSDOF 20
ENDMDL
MODEL 2
REMARK VINA RESULT:     -11.2      3.876      9.249
REMARK SMILES Cc1cccc(C(=O)OCCOCCOC(=O)c2ccc(-c3c4nc(c(-c5cc(S(=O)(=O)[O-])ccc5F)c5ccc([nH]5)c(-c5cc(S(=O)(=O)[O-])ccc5F)c5nc(c(-c6cc(S(=O)(=O)[O-])ccc6F)c6ccc3[nH]6)C=C5)C=C4)cc2)c1OC[C@@H]1C[C@H]2CC[C@@H]1C2
REMARK SMILES IDX 12 1 11 2 10 3 9 4 7 5 8 6 6 7 1 8 2 9 3 10 81 11 4 12 5 13
REMARK SMILES IDX 82 14 83 15 84 16 85 17 89 18 86 19 88 20 90 21 87 22 13 23
REMARK SMILES IDX 14 24 15 25 16 26 17 27 18 28 19 29 80 30 20 31 79 32 21 33
REMARK SMILES IDX 22 34 23 35 73 36 24 37 78 38 72 39 74 40 25 41 77 42 71 43
REMARK SMILES IDX 70 44 26 46 58 47 38 48 57 49 39 50 42 51 56 52 75 53 40 54
REMARK SMILES IDX 41 55 55 57 76 58 43 59 27 60 28 61 36 62 29 63 35 64 37 65
REMARK SMILES IDX 34 66 30 67 31 68 32 69 33 70 59 71 60 72 68 73 61 74 67 75
REMARK SMILES IDX 69 76 66 77 62 78 63 79 64 80 65 81 44 82 45 83 53 84 46 85
REMARK SMILES IDX 52 86 54 87 51 88 47 89 48 90 49 91 50 92
REMARK H PARENT 74 45 42 56
REMARK Flexibility Score: inf
ROOT
ATOM      1  O   UNL A   1      35.545  22.379  26.182  1.00  0.00    -0.374 OA
ENDROOT
BRANCH   1   2
ATOM      2  C   UNL A   1      34.761  22.940  27.230  1.00  0.00     0.202 C 
BRANCH   2   3
ATOM      3  C   UNL A   1      33.492  22.145  27.230  1.00  0.00     0.261 C 
BRANCH   3   4
ATOM      4  O   UNL A   1      32.348  22.907  26.809  1.00  0.00    -0.460 OA
BRANCH   4   5
ATOM      5  C   UNL A   1      31.681  22.513  25.703  1.00  0.00     0.342 C 
ATOM      6  O   UNL A   1      30.704  21.795  25.651  1.00  0.00    -0.246 OA
BRANCH   5   7
ATOM      7  C   UNL A   1      32.255  23.197  24.518  1.00  0.00     0.102 A 
ATOM      8  C   UNL A   1      31.471  25.963  22.028  1.00  0.00     0.048 C 
ATOM      9  C   UNL A   1      32.147  24.817  22.726  1.00  0.00    -0.008 A 
ATOM     10  C   UNL A   1      33.008  24.005  21.963  1.00  0.00     0.007 A 
ATOM     11  C   UNL A   1      31.817  24.454  24.041  1.00  0.00     0.136 A 
ATOM     12  C   UNL A   1      33.487  22.799  22.461  1.00  0.00     0.001 A 
ATOM     13  C   UNL A   1      33.104  22.390  23.732  1.00  0.00     0.019 A 
BRANCH  11  14
ATOM     14  O   UNL A   1      30.787  25.134  24.625  1.00  0.00    -0.492 OA
BRANCH  14  15
ATOM     15  C   UNL A   1      30.946  26.157  25.628  1.00  0.00     0.233 C 
BRANCH  15  16
ATOM     16  C   UNL A   1      31.984  27.281  25.504  1.00  0.00     0.030 C 
ATOM     17  C   UNL A   1      33.221  27.028  26.422  1.00  0.00     0.011 C 
ATOM     18  C   UNL A   1      31.515  28.661  26.033  1.00  0.00    -0.004 C 
ATOM     19  C   UNL A   1      33.399  28.362  27.173  1.00  0.00    -0.010 C 
ATOM     20  C   UNL A   1      32.441  29.728  25.436  1.00  0.00     0.004 C 
ATOM     21  C   UNL A   1      31.947  28.682  27.503  1.00  0.00     0.007 C 
ATOM     22  C   UNL A   1      33.761  29.479  26.178  1.00  0.00     0.004 C 
ENDBRANCH  15  16
ENDBRANCH  14  15
ENDBRANCH  11  14
ENDBRANCH   5   7
ENDBRANCH   4   5
ENDBRANCH   3   4
ENDBRANCH   2   3
ENDBRANCH   1   2
BRANCH   1  23
ATOM     23  C   UNL A   1      36.422  23.258  25.522  1.00  0.00     0.202 C 
BRANCH  23  24
ATOM     24  C   UNL A   1      37.783  22.615  25.237  1.00  0.00     0.261 C 
BRANCH  24  25
ATOM     25  O   UNL A   1      38.472  22.321  26.475  1.00  0.00    -0.460 OA
BRANCH  25  26
ATOM     26  C   UNL A   1      39.715  22.869  26.612  1.00  0.00     0.338 C 
ATOM     27  O   UNL A   1      40.753  22.230  26.650  1.00  0.00    -0.246 OA
BRANCH  26  28
ATOM     28  C   UNL A   1      39.614  24.343  26.827  1.00  0.00     0.060 A 
ATOM     29  C   UNL A   1      40.376  25.242  26.054  1.00  0.00     0.016 A 
ATOM     30  C   UNL A   1      38.975  24.792  27.976  1.00  0.00     0.016 A 
ATOM     31  C   UNL A   1      40.633  26.540  26.528  1.00  0.00     0.010 A 
ATOM     32  C   UNL A   1      39.337  26.015  28.494  1.00  0.00     0.010 A 
ATOM     33  C   UNL A   1      40.193  26.890  27.799  1.00  0.00    -0.014 A 
BRANCH  33  34
ATOM     34  C   UNL A   1      40.568  28.075  28.585  1.00  0.00     0.031 A 
ATOM     35  C   UNL A   1      39.598  29.194  28.577  1.00  0.00     0.074 A 
ATOM     36  C   UNL A   1      41.500  27.997  29.570  1.00  0.00     0.049 A 
ATOM     37  N   UNL A   1      39.726  30.261  29.276  1.00  0.00    -0.248 NA
ATOM     38  C   UNL A   1      38.383  29.217  27.753  1.00  0.00     0.031 C 
ATOM     39  C   UNL A   1      41.540  28.712  30.852  1.00  0.00     0.029 A 
ATOM     40  N   UNL A   1      42.658  27.221  29.632  1.00  0.00    -0.354 N 
ATOM     41  C   UNL A   1      38.505  30.882  29.311  1.00  0.00     0.074 A 
ATOM     42  C   UNL A   1      37.750  30.288  28.242  1.00  0.00     0.031 C 
ATOM     43  C   UNL A   1      42.748  28.558  31.428  1.00  0.00     0.029 A 
ATOM     44  C   UNL A   1      43.588  27.861  30.470  1.00  0.00     0.049 A 
ATOM     45  H   UNL A   1      42.801  26.366  29.165  1.00  0.00     0.167 HD
ATOM     46  C   UNL A   1      38.257  31.727  30.347  1.00  0.00     0.034 A 
ATOM     47  C   UNL A   1      44.798  28.237  29.975  1.00  0.00     0.034 A 
ATOM     48  C   UNL A   1      39.499  32.004  31.082  1.00  0.00     0.049 A 
ATOM     49  C   UNL A   1      44.803  29.756  29.979  1.00  0.00     0.074 A 
ATOM     50  C   UNL A   1      39.980  31.662  32.333  1.00  0.00     0.029 A 
ATOM     51  N   UNL A   1      40.597  32.480  30.363  1.00  0.00    -0.354 N 
ATOM     52  N   UNL A   1      43.706  30.473  30.009  1.00  0.00    -0.248 NA
ATOM     53  C   UNL A   1      46.001  30.577  30.105  1.00  0.00     0.031 C 
ATOM     54  C   UNL A   1      41.402  31.817  32.303  1.00  0.00     0.029 A 
ATOM     55  C   UNL A   1      41.777  32.301  31.057  1.00  0.00     0.049 A 
ATOM     56  H   UNL A   1      40.537  32.893  29.471  1.00  0.00     0.167 HD
ATOM     57  C   UNL A   1      44.005  31.776  30.263  1.00  0.00     0.074 A 
ATOM     58  C   UNL A   1      45.463  31.801  30.269  1.00  0.00     0.031 C 
ATOM     59  C   UNL A   1      43.048  32.731  30.476  1.00  0.00     0.034 A 
BRANCH  46  60
ATOM     60  C   UNL A   1      36.892  32.190  30.799  1.00  0.00     0.023 A 
ATOM     61  C   UNL A   1      36.061  32.838  29.862  1.00  0.00     0.031 A 
ATOM     62  C   UNL A   1      36.383  32.136  32.117  1.00  0.00     0.131 A 
ATOM     63  C   UNL A   1      34.812  33.372  30.232  1.00  0.00     0.055 A 
ATOM     64  C   UNL A   1      35.114  32.615  32.472  1.00  0.00     0.041 A 
ATOM     65  F   UNL A   1      37.100  31.679  33.150  1.00  0.00    -0.206 F 
ATOM     66  C   UNL A   1      34.321  33.241  31.527  1.00  0.00     0.022 A 
BRANCH  63  67
ATOM     67  S   UNL A   1      33.855  34.299  29.004  1.00  0.00     0.124 S 
ATOM     68  O   UNL A   1      32.734  34.793  29.800  1.00  0.00    -0.237 OA
ATOM     69  O   UNL A   1      34.815  35.295  28.548  1.00  0.00    -0.237 OA
ATOM     70  O   UNL A   1      33.502  33.284  28.012  1.00  0.00    -0.744 OA
ENDBRANCH  63  67
ENDBRANCH  46  60
BRANCH  47  71
ATOM     71  C   UNL A   1      45.244  27.257  28.913  1.00  0.00     0.023 A 
ATOM     72  C   UNL A   1      45.492  27.756  27.593  1.00  0.00     0.031 A 
ATOM     73  C   UNL A   1      45.922  26.086  29.289  1.00  0.00     0.131 A 
ATOM     74  C   UNL A   1      46.512  27.197  26.789  1.00  0.00     0.055 A 
ATOM     75  C   UNL A   1      46.925  25.532  28.477  1.00  0.00     0.041 A 
ATOM     76  F   UNL A   1      45.744  25.558  30.508  1.00  0.00    -0.206 F 
ATOM     77  C   UNL A   1      47.256  26.111  27.252  1.00  0.00     0.022 A 
BRANCH  74  78
ATOM     78  S   UNL A   1      46.917  27.886  25.136  1.00  0.00     0.124 S 
ATOM     79  O   UNL A   1      46.575  26.789  24.238  1.00  0.00    -0.237 OA
ATOM     80  O   UNL A   1      46.062  29.063  25.028  1.00  0.00    -0.237 OA
ATOM     81  O   UNL A   1      48.343  28.187  25.241  1.00  0.00    -0.744 OA
ENDBRANCH  74  78
ENDBRANCH  47  71
BRANCH  59  82
ATOM     82  C   UNL A   1      43.281  34.195  30.198  1.00  0.00     0.023 A 
ATOM     83  C   UNL A   1      42.958  34.768  28.964  1.00  0.00     0.031 A 
ATOM     84  C   UNL A   1      43.718  35.097  31.196  1.00  0.00     0.131 A 
ATOM     85  C   UNL A   1      43.195  36.121  28.704  1.00  0.00     0.055 A 
ATOM     86  C   UNL A   1      43.836  36.471  30.973  1.00  0.00     0.041 A 
ATOM     87  F   UNL A   1      44.027  34.695  32.437  1.00  0.00    -0.206 F 
ATOM     88  C   UNL A   1      43.604  36.990  29.709  1.00  0.00     0.022 A 
BRANCH  85  89
ATOM     89  S   UNL A   1      43.064  36.666  26.986  1.00  0.00     0.124 S 
ATOM     90  O   UNL A   1      43.055  35.391  26.272  1.00  0.00    -0.237 OA
ATOM     91  O   UNL A   1      41.802  37.399  26.981  1.00  0.00    -0.237 OA
ATOM     92  O   UNL A   1      44.261  37.479  26.792  1.00  0.00    -0.744 OA
ENDBRANCH  85  89
ENDBRANCH  59  82
ENDBRANCH  33  34
ENDBRANCH  26  28
ENDBRANCH  25  26
ENDBRANCH  24  25
ENDBRANCH  23  24
ENDBRANCH   1  23
TORSDOF 20
ENDMDL
MODEL 3
REMARK VINA RESULT:     -11.2      4.618      9.977
REMARK SMILES Cc1cccc(C(=O)OCCOCCOC(=O)c2ccc(-c3c4nc(c(-c5cc(S(=O)(=O)[O-])ccc5F)c5ccc([nH]5)c(-c5cc(S(=O)(=O)[O-])ccc5F)c5nc(c(-c6cc(S(=O)(=O)[O-])ccc6F)c6ccc3[nH]6)C=C5)C=C4)cc2)c1OC[C@@H]1C[C@H]2CC[C@@H]1C2
REMARK SMILES IDX 12 1 11 2 10 3 9 4 7 5 8 6 6 7 1 8 2 9 3 10 81 11 4 12 5 13
REMARK SMILES IDX 82 14 83 15 84 16 85 17 89 18 86 19 88 20 90 21 87 22 13 23
REMARK SMILES IDX 14 24 15 25 16 26 17 27 18 28 19 29 80 30 20 31 79 32 21 33
REMARK SMILES IDX 22 34 23 35 73 36 24 37 78 38 72 39 74 40 25 41 77 42 71 43
REMARK SMILES IDX 70 44 26 46 58 47 38 48 57 49 39 50 42 51 56 52 75 53 40 54
REMARK SMILES IDX 41 55 55 57 76 58 43 59 27 60 28 61 36 62 29 63 35 64 37 65
REMARK SMILES IDX 34 66 30 67 31 68 32 69 33 70 59 71 60 72 68 73 61 74 67 75
REMARK SMILES IDX 69 76 66 77 62 78 63 79 64 80 65 81 44 82 45 83 53 84 46 85
REMARK SMILES IDX 52 86 54 87 51 88 47 89 48 90 49 91 50 92
REMARK H PARENT 74 45 42 56
REMARK Flexibility Score: inf
ROOT
ATOM      1  O   UNL A   1      40.233  20.269  25.904  1.00  0.00    -0.374 OA
ENDROOT
BRANCH   1   2
ATOM      2  C   UNL A   1      39.451  21.425  26.185  1.00  0.00     0.202 C 
BRANCH   2   3
ATOM      3  C   UNL A   1      38.226  21.277  25.336  1.00  0.00     0.261 C 
BRANCH   3   4
ATOM      4  O   UNL A   1      37.155  22.150  25.732  1.00  0.00    -0.460 OA
BRANCH   4   5
ATOM      5  C   UNL A   1      36.326  22.627  24.778  1.00  0.00     0.342 C 
ATOM      6  O   UNL A   1      36.411  22.458  23.579  1.00  0.00    -0.246 OA
BRANCH   5   7
ATOM      7  C   UNL A   1      35.183  23.315  25.427  1.00  0.00     0.102 A 
ATOM      8  C   UNL A   1      31.666  22.646  26.711  1.00  0.00     0.048 C 
ATOM      9  C   UNL A   1      32.934  23.348  26.316  1.00  0.00    -0.008 A 
ATOM     10  C   UNL A   1      32.853  24.721  26.016  1.00  0.00     0.007 A 
ATOM     11  C   UNL A   1      34.128  22.645  26.088  1.00  0.00     0.136 A 
ATOM     12  C   UNL A   1      33.918  25.391  25.422  1.00  0.00     0.001 A 
ATOM     13  C   UNL A   1      35.076  24.688  25.119  1.00  0.00     0.019 A 
BRANCH  11  14
ATOM     14  O   UNL A   1      34.059  21.283  26.152  1.00  0.00    -0.492 OA
BRANCH  14  15
ATOM     15  C   UNL A   1      34.032  20.411  25.004  1.00  0.00     0.233 C 
BRANCH  15  16
ATOM     16  C   UNL A   1      33.852  18.891  25.124  1.00  0.00     0.030 C 
ATOM     17  C   UNL A   1      34.844  18.118  24.199  1.00  0.00     0.011 C 
ATOM     18  C   UNL A   1      32.496  18.353  24.600  1.00  0.00    -0.004 C 
ATOM     19  C   UNL A   1      33.941  17.118  23.450  1.00  0.00    -0.010 C 
ATOM     20  C   UNL A   1      32.289  16.954  25.194  1.00  0.00     0.004 C 
ATOM     21  C   UNL A   1      32.754  18.014  23.128  1.00  0.00     0.007 C 
ATOM     22  C   UNL A   1      33.333  16.114  24.445  1.00  0.00     0.004 C 
ENDBRANCH  15  16
ENDBRANCH  14  15
ENDBRANCH  11  14
ENDBRANCH   5   7
ENDBRANCH   4   5
ENDBRANCH   3   4
ENDBRANCH   2   3
ENDBRANCH   1   2
BRANCH   1  23
ATOM     23  C   UNL A   1      41.249  19.966  26.828  1.00  0.00     0.202 C 
BRANCH  23  24
ATOM     24  C   UNL A   1      42.478  19.343  26.157  1.00  0.00     0.261 C 
BRANCH  24  25
ATOM     25  O   UNL A   1      42.953  20.193  25.086  1.00  0.00    -0.460 OA
BRANCH  25  26
ATOM     26  C   UNL A   1      43.991  21.023  25.399  1.00  0.00     0.338 C 
ATOM     27  O   UNL A   1      45.127  20.650  25.642  1.00  0.00    -0.246 OA
BRANCH  26  28
ATOM     28  C   UNL A   1      43.514  22.432  25.519  1.00  0.00     0.060 A 
ATOM     29  C   UNL A   1      43.923  23.417  24.597  1.00  0.00     0.016 A 
ATOM     30  C   UNL A   1      42.892  22.812  26.702  1.00  0.00     0.016 A 
ATOM     31  C   UNL A   1      43.862  24.778  24.943  1.00  0.00     0.010 A 
ATOM     32  C   UNL A   1      42.957  24.133  27.084  1.00  0.00     0.010 A 
ATOM     33  C   UNL A   1      43.470  25.127  26.229  1.00  0.00    -0.014 A 
BRANCH  33  34
ATOM     34  C   UNL A   1      43.582  26.443  26.877  1.00  0.00     0.031 A 
ATOM     35  C   UNL A   1      42.334  27.234  26.963  1.00  0.00     0.074 A 
ATOM     36  C   UNL A   1      44.623  26.731  27.703  1.00  0.00     0.049 A 
ATOM     37  N   UNL A   1      42.237  28.358  27.571  1.00  0.00    -0.248 NA
ATOM     38  C   UNL A   1      41.065  26.830  26.345  1.00  0.00     0.031 C 
ATOM     39  C   UNL A   1      44.625  27.553  28.919  1.00  0.00     0.029 A 
ATOM     40  N   UNL A   1      45.955  26.325  27.621  1.00  0.00    -0.354 N 
ATOM     41  C   UNL A   1      40.903  28.609  27.767  1.00  0.00     0.074 A 
ATOM     42  C   UNL A   1      40.218  27.721  26.868  1.00  0.00     0.031 C 
ATOM     43  C   UNL A   1      45.892  27.805  29.301  1.00  0.00     0.029 A 
ATOM     44  C   UNL A   1      46.761  27.282  28.261  1.00  0.00     0.049 A 
ATOM     45  H   UNL A   1      46.278  25.503  27.186  1.00  0.00     0.167 HD
ATOM     46  C   UNL A   1      40.562  29.449  28.780  1.00  0.00     0.034 A 
ATOM     47  C   UNL A   1      47.725  27.934  27.558  1.00  0.00     0.034 A 
ATOM     48  C   UNL A   1      41.756  30.138  29.290  1.00  0.00     0.049 A 
ATOM     49  C   UNL A   1      47.282  29.384  27.476  1.00  0.00     0.074 A 
ATOM     50  C   UNL A   1      42.483  30.074  30.464  1.00  0.00     0.029 A 
ATOM     51  N   UNL A   1      42.555  30.831  28.378  1.00  0.00    -0.354 N 
ATOM     52  N   UNL A   1      46.038  29.761  27.641  1.00  0.00    -0.248 NA
ATOM     53  C   UNL A   1      48.190  30.519  27.362  1.00  0.00     0.031 C 
ATOM     54  C   UNL A   1      43.778  30.621  30.197  1.00  0.00     0.029 A 
ATOM     55  C   UNL A   1      43.818  31.064  28.882  1.00  0.00     0.049 A 
ATOM     56  H   UNL A   1      42.254  31.119  27.486  1.00  0.00     0.167 HD
ATOM     57  C   UNL A   1      45.971  31.114  27.771  1.00  0.00     0.074 A 
ATOM     58  C   UNL A   1      47.343  31.551  27.541  1.00  0.00     0.031 C 
ATOM     59  C   UNL A   1      44.814  31.775  28.081  1.00  0.00     0.034 A 
BRANCH  46  60
ATOM     60  C   UNL A   1      39.197  29.550  29.419  1.00  0.00     0.023 A 
ATOM     61  C   UNL A   1      38.278  30.479  28.890  1.00  0.00     0.031 A 
ATOM     62  C   UNL A   1      38.764  28.870  30.581  1.00  0.00     0.131 A 
ATOM     63  C   UNL A   1      37.020  30.690  29.486  1.00  0.00     0.055 A 
ATOM     64  C   UNL A   1      37.488  29.037  31.138  1.00  0.00     0.041 A 
ATOM     65  F   UNL A   1      39.562  28.058  31.284  1.00  0.00    -0.206 F 
ATOM     66  C   UNL A   1      36.608  29.954  30.593  1.00  0.00     0.022 A 
BRANCH  63  67
ATOM     67  S   UNL A   1      35.942  31.988  28.826  1.00  0.00     0.124 S 
ATOM     68  O   UNL A   1      36.889  33.068  28.564  1.00  0.00    -0.237 OA
ATOM     69  O   UNL A   1      35.355  31.342  27.658  1.00  0.00    -0.237 OA
ATOM     70  O   UNL A   1      35.008  32.243  29.922  1.00  0.00    -0.744 OA
ENDBRANCH  63  67
ENDBRANCH  46  60
BRANCH  47  71
ATOM     71  C   UNL A   1      48.290  27.019  26.494  1.00  0.00     0.023 A 
ATOM     72  C   UNL A   1      48.015  27.325  25.122  1.00  0.00     0.031 A 
ATOM     73  C   UNL A   1      49.453  26.279  26.761  1.00  0.00     0.131 A 
ATOM     74  C   UNL A   1      48.971  27.056  24.116  1.00  0.00     0.055 A 
ATOM     75  C   UNL A   1      50.391  26.007  25.752  1.00  0.00     0.041 A 
ATOM     76  F   UNL A   1      49.781  25.955  28.019  1.00  0.00    -0.206 F 
ATOM     77  C   UNL A   1      50.178  26.434  24.441  1.00  0.00     0.022 A 
BRANCH  74  78
ATOM     78  S   UNL A   1      48.684  27.533  22.367  1.00  0.00     0.124 S 
ATOM     79  O   UNL A   1      49.825  28.393  22.076  1.00  0.00    -0.237 OA
ATOM     80  O   UNL A   1      48.670  26.260  21.654  1.00  0.00    -0.237 OA
ATOM     81  O   UNL A   1      47.389  28.208  22.414  1.00  0.00    -0.744 OA
ENDBRANCH  74  78
ENDBRANCH  47  71
BRANCH  59  82
ATOM     82  C   UNL A   1      44.564  33.210  27.688  1.00  0.00     0.023 A 
ATOM     83  C   UNL A   1      44.862  34.270  28.550  1.00  0.00     0.031 A 
ATOM     84  C   UNL A   1      44.135  33.578  26.391  1.00  0.00     0.131 A 
ATOM     85  C   UNL A   1      44.610  35.597  28.187  1.00  0.00     0.055 A 
ATOM     86  C   UNL A   1      44.000  34.908  25.989  1.00  0.00     0.041 A 
ATOM     87  F   UNL A   1      43.848  32.668  25.449  1.00  0.00    -0.206 F 
ATOM     88  C   UNL A   1      44.209  35.932  26.900  1.00  0.00     0.022 A 
BRANCH  85  89
ATOM     89  S   UNL A   1      44.709  36.840  29.495  1.00  0.00     0.124 S 
ATOM     90  O   UNL A   1      45.151  36.038  30.633  1.00  0.00    -0.237 OA
ATOM     91  O   UNL A   1      45.694  37.778  28.966  1.00  0.00    -0.237 OA
ATOM     92  O   UNL A   1      43.344  37.352  29.586  1.00  0.00    -0.744 OA
ENDBRANCH  85  89
ENDBRANCH  59  82
ENDBRANCH  33  34
ENDBRANCH  26  28
ENDBRANCH  25  26
ENDBRANCH  24  25
ENDBRANCH  23  24
ENDBRANCH   1  23
TORSDOF 20
ENDMDL
