MODEL 1
REMARK VINA RESULT:     -12.0      0.000      0.000
REMARK SMILES C[C@@H]1Cc2ccccc2N1c1ccc(F)cc1C(=O)OCCOCCOC(=O)c1ccc(-c2c3nc(c(-c4cc(S(=O)(=O)[O-])ccc4F)c4ccc([nH]4)c(-c4cc(S(=O)(=O)[O-])ccc4F)c4nc(c(-c5cc(S(=O)(=O)[O-])ccc5F)c5ccc2[nH]5)C=C4)C=C3)cc1
REMARK SMILES IDX 24 1 23 2 22 3 21 4 20 5 18 6 19 7 17 8 11 9 12 10 13 11
REMARK SMILES IDX 16 12 14 13 15 14 10 15 1 16 2 17 3 18 4 19 9 20 5 21 8 22
REMARK SMILES IDX 6 23 7 24 25 25 26 26 27 27 28 28 29 29 30 30 91 31 31 32
REMARK SMILES IDX 90 33 32 34 33 35 34 36 84 37 35 38 89 39 83 40 85 41 36 42
REMARK SMILES IDX 88 43 82 44 81 45 37 47 69 48 49 49 68 50 50 51 53 52 67 53
REMARK SMILES IDX 86 54 51 55 52 56 66 58 87 59 54 60 38 61 39 62 47 63 40 64
REMARK SMILES IDX 46 65 48 66 45 67 41 68 42 69 43 70 44 71 70 72 71 73 79 74
REMARK SMILES IDX 72 75 78 76 80 77 77 78 73 79 74 80 75 81 76 82 55 83 56 84
REMARK SMILES IDX 64 85 57 86 63 87 65 88 62 89 58 90 59 91 60 92 61 93
REMARK H PARENT 85 46 53 57
REMARK Flexibility Score: inf
ROOT
ATOM      1  C   UNL A   1      35.738  21.458  24.524  1.00  0.00     0.202 C 
ENDROOT
BRANCH   1   2
ATOM      2  O   UNL A   1      34.702  22.269  25.078  1.00  0.00    -0.374 OA
BRANCH   2   3
ATOM      3  C   UNL A   1      33.872  23.003  24.183  1.00  0.00     0.202 C 
BRANCH   3   4
ATOM      4  C   UNL A   1      34.390  24.350  23.673  1.00  0.00     0.261 C 
BRANCH   4   5
ATOM      5  O   UNL A   1      34.272  25.402  24.640  1.00  0.00    -0.460 OA
BRANCH   5   6
ATOM      6  C   UNL A   1      33.725  26.552  24.178  1.00  0.00     0.340 C 
ATOM      7  O   UNL A   1      33.544  26.846  23.005  1.00  0.00    -0.246 OA
BRANCH   6   8
ATOM      8  C   UNL A   1      33.219  27.422  25.263  1.00  0.00     0.086 A 
ATOM      9  C   UNL A   1      31.864  27.724  25.501  1.00  0.00     0.056 A 
ATOM     10  C   UNL A   1      31.565  28.478  26.661  1.00  0.00     0.030 A 
ATOM     11  C   UNL A   1      32.565  28.992  27.490  1.00  0.00     0.041 A 
ATOM     12  C   UNL A   1      34.225  27.944  26.102  1.00  0.00     0.057 A 
ATOM     13  C   UNL A   1      33.890  28.739  27.186  1.00  0.00     0.124 A 
ATOM     14  F   UNL A   1      34.857  29.266  27.947  1.00  0.00    -0.207 F 
BRANCH   9  15
ATOM     15  N   UNL A   1      30.826  27.403  24.616  1.00  0.00    -0.337 N 
ATOM     16  C   UNL A   1      30.553  24.888  24.840  1.00  0.00     0.032 C 
ATOM     17  C   UNL A   1      29.899  26.260  24.881  1.00  0.00     0.089 C 
ATOM     18  C   UNL A   1      28.779  26.341  23.809  1.00  0.00     0.063 C 
ATOM     19  C   UNL A   1      28.785  27.797  23.511  1.00  0.00    -0.022 A 
ATOM     20  C   UNL A   1      29.988  28.352  23.951  1.00  0.00     0.045 A 
ATOM     21  C   UNL A   1      27.822  28.555  22.868  1.00  0.00     0.006 A 
ATOM     22  C   UNL A   1      30.248  29.699  23.732  1.00  0.00     0.026 A 
ATOM     23  C   UNL A   1      28.069  29.916  22.677  1.00  0.00     0.000 A 
ATOM     24  C   UNL A   1      29.275  30.486  23.107  1.00  0.00     0.002 A 
ENDBRANCH   9  15
ENDBRANCH   6   8
ENDBRANCH   5   6
ENDBRANCH   4   5
ENDBRANCH   3   4
ENDBRANCH   2   3
ENDBRANCH   1   2
BRANCH   1  25
ATOM     25  C   UNL A   1      36.903  21.034  25.428  1.00  0.00     0.261 C 
BRANCH  25  26
ATOM     26  O   UNL A   1      38.143  21.712  25.158  1.00  0.00    -0.460 OA
BRANCH  26  27
ATOM     27  C   UNL A   1      39.137  21.469  26.045  1.00  0.00     0.338 C 
ATOM     28  O   UNL A   1      39.710  20.400  26.233  1.00  0.00    -0.246 OA
BRANCH  27  29
ATOM     29  C   UNL A   1      39.568  22.718  26.693  1.00  0.00     0.060 A 
ATOM     30  C   UNL A   1      40.672  22.726  27.542  1.00  0.00     0.016 A 
ATOM     31  C   UNL A   1      38.934  23.917  26.345  1.00  0.00     0.016 A 
ATOM     32  C   UNL A   1      41.154  23.945  28.028  1.00  0.00     0.010 A 
ATOM     33  C   UNL A   1      39.416  25.133  26.838  1.00  0.00     0.010 A 
ATOM     34  C   UNL A   1      40.539  25.159  27.674  1.00  0.00    -0.014 A 
BRANCH  34  35
ATOM     35  C   UNL A   1      41.155  26.451  28.079  1.00  0.00     0.031 A 
ATOM     36  C   UNL A   1      42.589  26.764  27.774  1.00  0.00     0.074 A 
ATOM     37  C   UNL A   1      40.393  27.350  28.734  1.00  0.00     0.049 A 
ATOM     38  N   UNL A   1      43.243  27.880  27.973  1.00  0.00    -0.248 NA
ATOM     39  C   UNL A   1      43.399  25.693  27.173  1.00  0.00     0.031 C 
ATOM     40  C   UNL A   1      38.994  27.139  29.108  1.00  0.00     0.029 A 
ATOM     41  N   UNL A   1      40.674  28.613  29.192  1.00  0.00    -0.354 N 
ATOM     42  C   UNL A   1      44.532  27.659  27.505  1.00  0.00     0.074 A 
ATOM     43  C   UNL A   1      44.583  26.283  27.054  1.00  0.00     0.031 C 
ATOM     44  C   UNL A   1      38.528  28.247  29.701  1.00  0.00     0.029 A 
ATOM     45  C   UNL A   1      39.599  29.238  29.785  1.00  0.00     0.049 A 
ATOM     46  H   UNL A   1      41.560  29.034  29.106  1.00  0.00     0.167 HD
ATOM     47  C   UNL A   1      45.567  28.531  27.443  1.00  0.00     0.034 A 
ATOM     48  C   UNL A   1      39.483  30.469  30.325  1.00  0.00     0.034 A 
ATOM     49  C   UNL A   1      45.504  29.894  27.911  1.00  0.00     0.049 A 
ATOM     50  C   UNL A   1      40.670  31.400  30.283  1.00  0.00     0.074 A 
ATOM     51  C   UNL A   1      46.491  30.863  27.848  1.00  0.00     0.029 A 
ATOM     52  N   UNL A   1      44.412  30.481  28.535  1.00  0.00    -0.354 N 
ATOM     53  N   UNL A   1      41.846  31.214  29.734  1.00  0.00    -0.248 NA
ATOM     54  C   UNL A   1      40.512  32.715  30.923  1.00  0.00     0.031 C 
ATOM     55  C   UNL A   1      46.026  32.008  28.494  1.00  0.00     0.029 A 
ATOM     56  C   UNL A   1      44.717  31.786  28.890  1.00  0.00     0.049 A 
ATOM     57  H   UNL A   1      43.550  30.038  28.701  1.00  0.00     0.167 HD
ATOM     58  C   UNL A   1      42.553  32.397  29.928  1.00  0.00     0.074 A 
ATOM     59  C   UNL A   1      41.666  33.300  30.627  1.00  0.00     0.031 C 
ATOM     60  C   UNL A   1      43.824  32.701  29.562  1.00  0.00     0.034 A 
BRANCH  47  61
ATOM     61  C   UNL A   1      46.866  28.085  26.818  1.00  0.00     0.023 A 
ATOM     62  C   UNL A   1      47.046  28.169  25.424  1.00  0.00     0.031 A 
ATOM     63  C   UNL A   1      47.836  27.404  27.575  1.00  0.00     0.131 A 
ATOM     64  C   UNL A   1      48.141  27.534  24.825  1.00  0.00     0.055 A 
ATOM     65  C   UNL A   1      48.947  26.808  26.976  1.00  0.00     0.041 A 
ATOM     66  F   UNL A   1      47.709  27.296  28.907  1.00  0.00    -0.206 F 
ATOM     67  C   UNL A   1      49.094  26.857  25.594  1.00  0.00     0.022 A 
BRANCH  64  68
ATOM     68  S   UNL A   1      48.333  27.495  23.021  1.00  0.00     0.124 S 
ATOM     69  O   UNL A   1      49.630  28.145  22.844  1.00  0.00    -0.237 OA
ATOM     70  O   UNL A   1      48.309  26.062  22.744  1.00  0.00    -0.237 OA
ATOM     71  O   UNL A   1      47.188  28.255  22.530  1.00  0.00    -0.744 OA
ENDBRANCH  64  68
ENDBRANCH  47  61
BRANCH  48  72
ATOM     72  C   UNL A   1      38.166  30.911  30.872  1.00  0.00     0.023 A 
ATOM     73  C   UNL A   1      37.215  31.557  30.061  1.00  0.00     0.031 A 
ATOM     74  C   UNL A   1      37.875  30.763  32.240  1.00  0.00     0.131 A 
ATOM     75  C   UNL A   1      36.048  32.077  30.636  1.00  0.00     0.055 A 
ATOM     76  C   UNL A   1      36.678  31.220  32.794  1.00  0.00     0.041 A 
ATOM     77  F   UNL A   1      38.756  30.166  33.058  1.00  0.00    -0.206 F 
ATOM     78  C   UNL A   1      35.765  31.896  31.992  1.00  0.00     0.022 A 
BRANCH  75  79
ATOM     79  S   UNL A   1      34.917  33.114  29.667  1.00  0.00     0.124 S 
ATOM     80  O   UNL A   1      34.072  33.695  30.706  1.00  0.00    -0.237 OA
ATOM     81  O   UNL A   1      35.843  34.039  29.016  1.00  0.00    -0.237 OA
ATOM     82  O   UNL A   1      34.259  32.165  28.776  1.00  0.00    -0.744 OA
ENDBRANCH  75  79
ENDBRANCH  48  72
BRANCH  60  83
ATOM     83  C   UNL A   1      44.366  34.076  29.878  1.00  0.00     0.023 A 
ATOM     84  C   UNL A   1      44.187  35.129  28.958  1.00  0.00     0.031 A 
ATOM     85  C   UNL A   1      45.191  34.303  30.993  1.00  0.00     0.131 A 
ATOM     86  C   UNL A   1      44.862  36.342  29.145  1.00  0.00     0.055 A 
ATOM     87  C   UNL A   1      45.820  35.532  31.202  1.00  0.00     0.041 A 
ATOM     88  F   UNL A   1      45.406  33.329  31.892  1.00  0.00    -0.206 F 
ATOM     89  C   UNL A   1      45.670  36.553  30.266  1.00  0.00     0.022 A 
BRANCH  86  90
ATOM     90  S   UNL A   1      44.799  37.653  27.891  1.00  0.00     0.124 S 
ATOM     91  O   UNL A   1      43.656  37.240  27.080  1.00  0.00    -0.237 OA
ATOM     92  O   UNL A   1      44.585  38.846  28.705  1.00  0.00    -0.237 OA
ATOM     93  O   UNL A   1      46.095  37.570  27.227  1.00  0.00    -0.744 OA
ENDBRANCH  86  90
ENDBRANCH  60  83
ENDBRANCH  34  35
ENDBRANCH  27  29
ENDBRANCH  26  27
ENDBRANCH  25  26
ENDBRANCH   1  25
TORSDOF 18
ENDMDL
MODEL 2
REMARK VINA RESULT:     -11.9      4.867     10.067
REMARK SMILES C[C@@H]1Cc2ccccc2N1c1ccc(F)cc1C(=O)OCCOCCOC(=O)c1ccc(-c2c3nc(c(-c4cc(S(=O)(=O)[O-])ccc4F)c4ccc([nH]4)c(-c4cc(S(=O)(=O)[O-])ccc4F)c4nc(c(-c5cc(S(=O)(=O)[O-])ccc5F)c5ccc2[nH]5)C=C4)C=C3)cc1
REMARK SMILES IDX 24 1 23 2 22 3 21 4 20 5 18 6 19 7 17 8 11 9 12 10 13 11
REMARK SMILES IDX 16 12 14 13 15 14 10 15 1 16 2 17 3 18 4 19 9 20 5 21 8 22
REMARK SMILES IDX 6 23 7 24 25 25 26 26 27 27 28 28 29 29 30 30 91 31 31 32
REMARK SMILES IDX 90 33 32 34 33 35 34 36 84 37 35 38 89 39 83 40 85 41 36 42
REMARK SMILES IDX 88 43 82 44 81 45 37 47 69 48 49 49 68 50 50 51 53 52 67 53
REMARK SMILES IDX 86 54 51 55 52 56 66 58 87 59 54 60 38 61 39 62 47 63 40 64
REMARK SMILES IDX 46 65 48 66 45 67 41 68 42 69 43 70 44 71 70 72 71 73 79 74
REMARK SMILES IDX 72 75 78 76 80 77 77 78 73 79 74 80 75 81 76 82 55 83 56 84
REMARK SMILES IDX 64 85 57 86 63 87 65 88 62 89 58 90 59 91 60 92 61 93
REMARK H PARENT 85 46 53 57
REMARK Flexibility Score: inf
ROOT
ATOM      1  C   UNL A   1      31.717  29.307  25.096  1.00  0.00     0.202 C 
ENDROOT
BRANCH   1   2
ATOM      2  O   UNL A   1      32.877  28.908  24.368  1.00  0.00    -0.374 OA
BRANCH   2   3
ATOM      3  C   UNL A   1      32.715  28.511  23.010  1.00  0.00     0.202 C 
BRANCH   3   4
ATOM      4  C   UNL A   1      33.618  27.393  22.482  1.00  0.00     0.261 C 
BRANCH   4   5
ATOM      5  O   UNL A   1      33.900  26.385  23.460  1.00  0.00    -0.460 OA
BRANCH   5   6
ATOM      6  C   UNL A   1      33.335  25.177  23.225  1.00  0.00     0.340 C 
ATOM      7  O   UNL A   1      33.538  24.460  22.255  1.00  0.00    -0.246 OA
BRANCH   6   8
ATOM      8  C   UNL A   1      32.500  24.706  24.352  1.00  0.00     0.086 A 
ATOM      9  C   UNL A   1      32.803  23.616  25.192  1.00  0.00     0.056 A 
ATOM     10  C   UNL A   1      31.943  23.392  26.293  1.00  0.00     0.030 A 
ATOM     11  C   UNL A   1      30.784  24.146  26.496  1.00  0.00     0.041 A 
ATOM     12  C   UNL A   1      31.328  25.463  24.560  1.00  0.00     0.057 A 
ATOM     13  C   UNL A   1      30.476  25.161  25.610  1.00  0.00     0.124 A 
ATOM     14  F   UNL A   1      29.344  25.858  25.767  1.00  0.00    -0.207 F 
BRANCH   9  15
ATOM     15  N   UNL A   1      33.839  22.705  24.945  1.00  0.00    -0.337 N 
ATOM     16  C   UNL A   1      35.950  23.941  25.627  1.00  0.00     0.032 C 
ATOM     17  C   UNL A   1      35.086  22.698  25.769  1.00  0.00     0.089 C 
ATOM     18  C   UNL A   1      35.894  21.444  25.339  1.00  0.00     0.063 C 
ATOM     19  C   UNL A   1      34.797  20.557  24.868  1.00  0.00    -0.022 A 
ATOM     20  C   UNL A   1      33.660  21.325  24.615  1.00  0.00     0.045 A 
ATOM     21  C   UNL A   1      34.823  19.191  24.643  1.00  0.00     0.006 A 
ATOM     22  C   UNL A   1      32.516  20.720  24.112  1.00  0.00     0.026 A 
ATOM     23  C   UNL A   1      33.662  18.578  24.166  1.00  0.00     0.000 A 
ATOM     24  C   UNL A   1      32.514  19.337  23.903  1.00  0.00     0.002 A 
ENDBRANCH   9  15
ENDBRANCH   6   8
ENDBRANCH   5   6
ENDBRANCH   4   5
ENDBRANCH   3   4
ENDBRANCH   2   3
ENDBRANCH   1   2
BRANCH   1  25
ATOM     25  C   UNL A   1      31.657  30.732  25.663  1.00  0.00     0.261 C 
BRANCH  25  26
ATOM     26  O   UNL A   1      32.129  30.854  27.016  1.00  0.00    -0.460 OA
BRANCH  26  27
ATOM     27  C   UNL A   1      32.904  31.939  27.259  1.00  0.00     0.338 C 
ATOM     28  O   UNL A   1      32.556  33.115  27.219  1.00  0.00    -0.246 OA
BRANCH  27  29
ATOM     29  C   UNL A   1      34.236  31.528  27.730  1.00  0.00     0.060 A 
ATOM     30  C   UNL A   1      35.197  32.485  28.047  1.00  0.00     0.016 A 
ATOM     31  C   UNL A   1      34.479  30.170  27.977  1.00  0.00     0.016 A 
ATOM     32  C   UNL A   1      36.400  32.080  28.633  1.00  0.00     0.010 A 
ATOM     33  C   UNL A   1      35.686  29.770  28.557  1.00  0.00     0.010 A 
ATOM     34  C   UNL A   1      36.652  30.723  28.903  1.00  0.00    -0.014 A 
BRANCH  34  35
ATOM     35  C   UNL A   1      37.870  30.329  29.660  1.00  0.00     0.031 A 
ATOM     36  C   UNL A   1      38.127  30.836  31.048  1.00  0.00     0.074 A 
ATOM     37  C   UNL A   1      38.754  29.498  29.071  1.00  0.00     0.049 A 
ATOM     38  N   UNL A   1      39.089  30.508  31.873  1.00  0.00    -0.248 NA
ATOM     39  C   UNL A   1      37.192  31.837  31.583  1.00  0.00     0.031 C 
ATOM     40  C   UNL A   1      38.620  28.967  27.715  1.00  0.00     0.029 A 
ATOM     41  N   UNL A   1      39.925  28.948  29.530  1.00  0.00    -0.354 N 
ATOM     42  C   UNL A   1      38.868  31.244  33.031  1.00  0.00     0.074 A 
ATOM     43  C   UNL A   1      37.706  32.072  32.786  1.00  0.00     0.031 C 
ATOM     44  C   UNL A   1      39.643  28.138  27.465  1.00  0.00     0.029 A 
ATOM     45  C   UNL A   1      40.529  28.102  28.627  1.00  0.00     0.049 A 
ATOM     46  H   UNL A   1      40.299  29.140  30.422  1.00  0.00     0.167 HD
ATOM     47  C   UNL A   1      39.563  31.213  34.194  1.00  0.00     0.034 A 
ATOM     48  C   UNL A   1      41.661  27.372  28.724  1.00  0.00     0.034 A 
ATOM     49  C   UNL A   1      40.729  30.393  34.417  1.00  0.00     0.049 A 
ATOM     50  C   UNL A   1      42.438  27.397  30.017  1.00  0.00     0.074 A 
ATOM     51  C   UNL A   1      41.470  30.265  35.579  1.00  0.00     0.029 A 
ATOM     52  N   UNL A   1      41.331  29.576  33.471  1.00  0.00    -0.354 N 
ATOM     53  N   UNL A   1      42.152  28.009  31.140  1.00  0.00    -0.248 NA
ATOM     54  C   UNL A   1      43.687  26.622  30.061  1.00  0.00     0.031 C 
ATOM     55  C   UNL A   1      42.557  29.431  35.318  1.00  0.00     0.029 A 
ATOM     56  C   UNL A   1      42.452  28.969  34.016  1.00  0.00     0.049 A 
ATOM     57  H   UNL A   1      41.010  29.446  32.550  1.00  0.00     0.167 HD
ATOM     58  C   UNL A   1      43.161  27.664  32.034  1.00  0.00     0.074 A 
ATOM     59  C   UNL A   1      44.055  26.773  31.328  1.00  0.00     0.031 C 
ATOM     60  C   UNL A   1      43.330  28.057  33.322  1.00  0.00     0.034 A 
BRANCH  47  61
ATOM     61  C   UNL A   1      39.087  32.052  35.355  1.00  0.00     0.023 A 
ATOM     62  C   UNL A   1      39.546  33.374  35.508  1.00  0.00     0.031 A 
ATOM     63  C   UNL A   1      38.340  31.481  36.400  1.00  0.00     0.131 A 
ATOM     64  C   UNL A   1      39.301  34.061  36.703  1.00  0.00     0.055 A 
ATOM     65  C   UNL A   1      38.064  32.186  37.573  1.00  0.00     0.041 A 
ATOM     66  F   UNL A   1      37.880  30.223  36.302  1.00  0.00    -0.206 F 
ATOM     67  C   UNL A   1      38.560  33.475  37.735  1.00  0.00     0.022 A 
BRANCH  64  68
ATOM     68  S   UNL A   1      39.997  35.710  36.999  1.00  0.00     0.124 S 
ATOM     69  O   UNL A   1      39.285  36.124  38.206  1.00  0.00    -0.237 OA
ATOM     70  O   UNL A   1      41.415  35.413  37.181  1.00  0.00    -0.237 OA
ATOM     71  O   UNL A   1      39.656  36.456  35.792  1.00  0.00    -0.744 OA
ENDBRANCH  64  68
ENDBRANCH  47  61
BRANCH  48  72
ATOM     72  C   UNL A   1      42.069  26.495  27.587  1.00  0.00     0.023 A 
ATOM     73  C   UNL A   1      41.693  25.141  27.535  1.00  0.00     0.031 A 
ATOM     74  C   UNL A   1      42.912  26.985  26.574  1.00  0.00     0.131 A 
ATOM     75  C   UNL A   1      42.204  24.314  26.524  1.00  0.00     0.055 A 
ATOM     76  C   UNL A   1      43.361  26.174  25.530  1.00  0.00     0.041 A 
ATOM     77  F   UNL A   1      43.310  28.267  26.587  1.00  0.00    -0.206 F 
ATOM     78  C   UNL A   1      43.019  24.827  25.512  1.00  0.00     0.022 A 
BRANCH  75  79
ATOM     79  S   UNL A   1      41.928  22.521  26.562  1.00  0.00     0.124 S 
ATOM     80  O   UNL A   1      40.474  22.435  26.476  1.00  0.00    -0.237 OA
ATOM     81  O   UNL A   1      42.658  22.082  25.374  1.00  0.00    -0.237 OA
ATOM     82  O   UNL A   1      42.512  22.110  27.834  1.00  0.00    -0.744 OA
ENDBRANCH  75  79
ENDBRANCH  48  72
BRANCH  60  83
ATOM     83  C   UNL A   1      44.514  27.526  34.098  1.00  0.00     0.023 A 
ATOM     84  C   UNL A   1      44.386  26.340  34.850  1.00  0.00     0.031 A 
ATOM     85  C   UNL A   1      45.701  28.268  34.229  1.00  0.00     0.131 A 
ATOM     86  C   UNL A   1      45.405  25.958  35.732  1.00  0.00     0.055 A 
ATOM     87  C   UNL A   1      46.735  27.855  35.070  1.00  0.00     0.041 A 
ATOM     88  F   UNL A   1      45.868  29.412  33.546  1.00  0.00    -0.206 F 
ATOM     89  C   UNL A   1      46.582  26.704  35.839  1.00  0.00     0.022 A 
BRANCH  86  90
ATOM     90  S   UNL A   1      45.198  24.540  36.845  1.00  0.00     0.124 S 
ATOM     91  O   UNL A   1      44.773  23.491  35.921  1.00  0.00    -0.237 OA
ATOM     92  O   UNL A   1      46.543  24.380  37.392  1.00  0.00    -0.237 OA
ATOM     93  O   UNL A   1      44.183  24.981  37.795  1.00  0.00    -0.744 OA
ENDBRANCH  86  90
ENDBRANCH  60  83
ENDBRANCH  34  35
ENDBRANCH  27  29
ENDBRANCH  26  27
ENDBRANCH  25  26
ENDBRANCH   1  25
TORSDOF 18
ENDMDL
MODEL 3
REMARK VINA RESULT:     -11.9      4.922     10.099
REMARK SMILES C[C@@H]1Cc2ccccc2N1c1ccc(F)cc1C(=O)OCCOCCOC(=O)c1ccc(-c2c3nc(c(-c4cc(S(=O)(=O)[O-])ccc4F)c4ccc([nH]4)c(-c4cc(S(=O)(=O)[O-])ccc4F)c4nc(c(-c5cc(S(=O)(=O)[O-])ccc5F)c5ccc2[nH]5)C=C4)C=C3)cc1
REMARK SMILES IDX 24 1 23 2 22 3 21 4 20 5 18 6 19 7 17 8 11 9 12 10 13 11
REMARK SMILES IDX 16 12 14 13 15 14 10 15 1 16 2 17 3 18 4 19 9 20 5 21 8 22
REMARK SMILES IDX 6 23 7 24 25 25 26 26 27 27 28 28 29 29 30 30 91 31 31 32
REMARK SMILES IDX 90 33 32 34 33 35 34 36 84 37 35 38 89 39 83 40 85 41 36 42
REMARK SMILES IDX 88 43 82 44 81 45 37 47 69 48 49 49 68 50 50 51 53 52 67 53
REMARK SMILES IDX 86 54 51 55 52 56 66 58 87 59 54 60 38 61 39 62 47 63 40 64
REMARK SMILES IDX 46 65 48 66 45 67 41 68 42 69 43 70 44 71 70 72 71 73 79 74
REMARK SMILES IDX 72 75 78 76 80 77 77 78 73 79 74 80 75 81 76 82 55 83 56 84
REMARK SMILES IDX 64 85 57 86 63 87 65 88 62 89 58 90 59 91 60 92 61 93
REMARK H PARENT 85 46 53 57
REMARK Flexibility Score: inf
ROOT
ATOM      1  C   UNL A   1      31.952  28.584  27.246  1.00  0.00     0.202 C 
ENDROOT
BRANCH   1   2
ATOM      2  O   UNL A   1      32.022  27.628  26.190  1.00  0.00    -0.374 OA
BRANCH   2   3
ATOM      3  C   UNL A   1      31.050  26.587  26.160  1.00  0.00     0.202 C 
BRANCH   3   4
ATOM      4  C   UNL A   1      31.518  25.165  26.475  1.00  0.00     0.261 C 
BRANCH   4   5
ATOM      5  O   UNL A   1      32.805  24.858  25.922  1.00  0.00    -0.460 OA
BRANCH   5   6
ATOM      6  C   UNL A   1      33.360  23.702  26.358  1.00  0.00     0.340 C 
ATOM      7  O   UNL A   1      32.892  22.947  27.200  1.00  0.00    -0.246 OA
BRANCH   6   8
ATOM      8  C   UNL A   1      34.582  23.335  25.608  1.00  0.00     0.086 A 
ATOM      9  C   UNL A   1      34.618  22.533  24.451  1.00  0.00     0.056 A 
ATOM     10  C   UNL A   1      35.870  22.391  23.804  1.00  0.00     0.030 A 
ATOM     11  C   UNL A   1      37.044  22.934  24.331  1.00  0.00     0.041 A 
ATOM     12  C   UNL A   1      35.770  23.880  26.138  1.00  0.00     0.057 A 
ATOM     13  C   UNL A   1      36.984  23.654  25.510  1.00  0.00     0.124 A 
ATOM     14  F   UNL A   1      38.110  24.139  26.049  1.00  0.00    -0.207 F 
BRANCH   9  15
ATOM     15  N   UNL A   1      33.521  21.806  23.970  1.00  0.00    -0.337 N 
ATOM     16  C   UNL A   1      32.073  23.538  22.805  1.00  0.00     0.032 C 
ATOM     17  C   UNL A   1      32.806  22.208  22.720  1.00  0.00     0.089 C 
ATOM     18  C   UNL A   1      31.798  21.071  22.402  1.00  0.00     0.063 C 
ATOM     19  C   UNL A   1      32.477  19.913  23.041  1.00  0.00    -0.022 A 
ATOM     20  C   UNL A   1      33.420  20.380  23.957  1.00  0.00     0.045 A 
ATOM     21  C   UNL A   1      32.245  18.560  22.854  1.00  0.00     0.006 A 
ATOM     22  C   UNL A   1      34.147  19.476  24.721  1.00  0.00     0.026 A 
ATOM     23  C   UNL A   1      32.999  17.651  23.600  1.00  0.00     0.000 A 
ATOM     24  C   UNL A   1      33.946  18.106  24.528  1.00  0.00     0.002 A 
ENDBRANCH   9  15
ENDBRANCH   6   8
ENDBRANCH   5   6
ENDBRANCH   4   5
ENDBRANCH   3   4
ENDBRANCH   2   3
ENDBRANCH   1   2
BRANCH   1  25
ATOM     25  C   UNL A   1      31.798  30.069  26.887  1.00  0.00     0.261 C 
BRANCH  25  26
ATOM     26  O   UNL A   1      33.012  30.703  26.449  1.00  0.00    -0.460 OA
BRANCH  26  27
ATOM     27  C   UNL A   1      33.540  31.598  27.317  1.00  0.00     0.338 C 
ATOM     28  O   UNL A   1      32.972  32.571  27.806  1.00  0.00    -0.246 OA
BRANCH  27  29
ATOM     29  C   UNL A   1      34.887  31.182  27.735  1.00  0.00     0.060 A 
ATOM     30  C   UNL A   1      35.878  32.133  27.969  1.00  0.00     0.016 A 
ATOM     31  C   UNL A   1      35.123  29.830  28.017  1.00  0.00     0.016 A 
ATOM     32  C   UNL A   1      37.103  31.728  28.508  1.00  0.00     0.010 A 
ATOM     33  C   UNL A   1      36.351  29.429  28.550  1.00  0.00     0.010 A 
ATOM     34  C   UNL A   1      37.348  30.378  28.813  1.00  0.00    -0.014 A 
BRANCH  34  35
ATOM     35  C   UNL A   1      38.597  29.990  29.521  1.00  0.00     0.031 A 
ATOM     36  C   UNL A   1      38.945  30.560  30.865  1.00  0.00     0.074 A 
ATOM     37  C   UNL A   1      39.426  29.106  28.929  1.00  0.00     0.049 A 
ATOM     38  N   UNL A   1      39.943  30.249  31.651  1.00  0.00    -0.248 NA
ATOM     39  C   UNL A   1      38.066  31.613  31.397  1.00  0.00     0.031 C 
ATOM     40  C   UNL A   1      39.202  28.510  27.612  1.00  0.00     0.029 A 
ATOM     41  N   UNL A   1      40.607  28.548  29.351  1.00  0.00    -0.354 N 
ATOM     42  C   UNL A   1      39.806  31.048  32.779  1.00  0.00     0.074 A 
ATOM     43  C   UNL A   1      38.652  31.895  32.555  1.00  0.00     0.031 C 
ATOM     44  C   UNL A   1      40.189  27.641  27.351  1.00  0.00     0.029 A 
ATOM     45  C   UNL A   1      41.138  27.641  28.462  1.00  0.00     0.049 A 
ATOM     46  H   UNL A   1      41.035  28.775  30.209  1.00  0.00     0.167 HD
ATOM     47  C   UNL A   1      40.565  31.058  33.902  1.00  0.00     0.034 A 
ATOM     48  C   UNL A   1      42.255  26.886  28.534  1.00  0.00     0.034 A 
ATOM     49  C   UNL A   1      41.721  30.219  34.103  1.00  0.00     0.049 A 
ATOM     50  C   UNL A   1      43.105  26.955  29.779  1.00  0.00     0.074 A 
ATOM     51  C   UNL A   1      42.523  30.130  35.228  1.00  0.00     0.029 A 
ATOM     52  N   UNL A   1      42.248  29.338  33.170  1.00  0.00    -0.354 N 
ATOM     53  N   UNL A   1      42.897  27.632  30.883  1.00  0.00    -0.248 NA
ATOM     54  C   UNL A   1      44.334  26.150  29.795  1.00  0.00     0.031 C 
ATOM     55  C   UNL A   1      43.573  29.255  34.951  1.00  0.00     0.029 A 
ATOM     56  C   UNL A   1      43.383  28.730  33.683  1.00  0.00     0.049 A 
ATOM     57  H   UNL A   1      41.873  29.170  32.276  1.00  0.00     0.167 HD
ATOM     58  C   UNL A   1      43.947  27.306  31.737  1.00  0.00     0.074 A 
ATOM     59  C   UNL A   1      44.777  26.356  31.030  1.00  0.00     0.031 C 
ATOM     60  C   UNL A   1      44.198  27.759  32.991  1.00  0.00     0.034 A 
BRANCH  47  61
ATOM     61  C   UNL A   1      40.176  31.968  35.041  1.00  0.00     0.023 A 
ATOM     62  C   UNL A   1      39.323  31.503  36.059  1.00  0.00     0.031 A 
ATOM     63  C   UNL A   1      40.494  33.338  35.013  1.00  0.00     0.131 A 
ATOM     64  C   UNL A   1      38.771  32.411  36.973  1.00  0.00     0.055 A 
ATOM     65  C   UNL A   1      39.974  34.230  35.951  1.00  0.00     0.041 A 
ATOM     66  F   UNL A   1      41.304  33.830  34.061  1.00  0.00    -0.206 F 
ATOM     67  C   UNL A   1      39.095  33.771  36.926  1.00  0.00     0.022 A 
BRANCH  64  68
ATOM     68  S   UNL A   1      37.555  31.877  38.209  1.00  0.00     0.124 S 
ATOM     69  O   UNL A   1      36.466  32.826  37.986  1.00  0.00    -0.237 OA
ATOM     70  O   UNL A   1      37.282  30.505  37.793  1.00  0.00    -0.237 OA
ATOM     71  O   UNL A   1      38.256  32.027  39.479  1.00  0.00    -0.744 OA
ENDBRANCH  64  68
ENDBRANCH  47  61
BRANCH  48  72
ATOM     72  C   UNL A   1      42.577  25.940  27.424  1.00  0.00     0.023 A 
ATOM     73  C   UNL A   1      42.032  24.644  27.385  1.00  0.00     0.031 A 
ATOM     74  C   UNL A   1      43.500  26.299  26.427  1.00  0.00     0.131 A 
ATOM     75  C   UNL A   1      42.459  23.739  26.404  1.00  0.00     0.055 A 
ATOM     76  C   UNL A   1      43.869  25.416  25.410  1.00  0.00     0.041 A 
ATOM     77  F   UNL A   1      44.058  27.520  26.429  1.00  0.00    -0.206 F 
ATOM     78  C   UNL A   1      43.358  24.123  25.405  1.00  0.00     0.022 A 
BRANCH  75  79
ATOM     79  S   UNL A   1      41.956  21.996  26.464  1.00  0.00     0.124 S 
ATOM     80  O   UNL A   1      42.747  21.414  25.385  1.00  0.00    -0.237 OA
ATOM     81  O   UNL A   1      42.358  21.616  27.817  1.00  0.00    -0.237 OA
ATOM     82  O   UNL A   1      40.516  22.046  26.236  1.00  0.00    -0.744 OA
ENDBRANCH  75  79
ENDBRANCH  48  72
BRANCH  60  83
ATOM     83  C   UNL A   1      45.410  27.237  33.728  1.00  0.00     0.023 A 
ATOM     84  C   UNL A   1      45.287  26.122  34.582  1.00  0.00     0.031 A 
ATOM     85  C   UNL A   1      46.634  27.930  33.716  1.00  0.00     0.131 A 
ATOM     86  C   UNL A   1      46.348  25.764  35.422  1.00  0.00     0.055 A 
ATOM     87  C   UNL A   1      47.706  27.537  34.518  1.00  0.00     0.041 A 
ATOM     88  F   UNL A   1      46.799  29.006  32.931  1.00  0.00    -0.206 F 
ATOM     89  C   UNL A   1      47.561  26.459  35.388  1.00  0.00     0.022 A 
BRANCH  86  90
ATOM     90  S   UNL A   1      46.162  24.450  36.660  1.00  0.00     0.124 S 
ATOM     91  O   UNL A   1      47.353  23.640  36.422  1.00  0.00    -0.237 OA
ATOM     92  O   UNL A   1      46.160  25.204  37.910  1.00  0.00    -0.237 OA
ATOM     93  O   UNL A   1      44.897  23.813  36.310  1.00  0.00    -0.744 OA
ENDBRANCH  86  90
ENDBRANCH  60  83
ENDBRANCH  34  35
ENDBRANCH  27  29
ENDBRANCH  26  27
ENDBRANCH  25  26
ENDBRANCH   1  25
TORSDOF 18
ENDMDL
