MODEL 1
REMARK VINA RESULT:     -10.7      0.000      0.000
REMARK SMILES O=C(OCCOCCOC(=O)C1([NH+]2CCOCC2)CCC1)c1ccc(-c2c3nc(c(-c4cc(S(=O)(=O)[O-])ccc4F)c4ccc([nH]4)c(-c4cc(S(=O)(=O)[O-])ccc4F)c4nc(c(-c5cc(S(=O)(=O)[O-])ccc5F)c5ccc2[nH]5)C=C4)C=C3)cc1
REMARK SMILES IDX 5 1 4 2 3 3 2 4 1 5 22 6 23 7 84 8 24 9 83 10 25 11 26 12
REMARK SMILES IDX 27 13 77 14 28 15 82 16 76 17 78 18 29 19 81 20 75 21 74 22
REMARK SMILES IDX 30 24 62 25 42 26 61 27 43 28 46 29 60 30 79 31 44 32 45 33
REMARK SMILES IDX 59 35 80 36 47 37 31 38 32 39 40 40 33 41 39 42 41 43 38 44
REMARK SMILES IDX 34 45 35 46 36 47 37 48 63 49 64 50 72 51 65 52 71 53 73 54
REMARK SMILES IDX 70 55 66 56 67 57 68 58 69 59 48 60 49 61 57 62 50 63 56 64
REMARK SMILES IDX 58 65 55 66 51 67 52 68 53 69 54 70 6 71 7 72 8 73 9 74
REMARK SMILES IDX 10 75 11 76 12 77 19 78 21 79 20 80 13 81 14 82 18 83 15 85
REMARK SMILES IDX 17 86 16 87
REMARK H PARENT 78 23 46 34 13 84
REMARK Flexibility Score: inf
ROOT
ATOM      1  C   UNL A   1      32.121  30.630  26.367  1.00  0.00     0.202 C 
ENDROOT
BRANCH   1   2
ATOM      2  C   UNL A   1      31.519  31.931  26.952  1.00  0.00     0.261 C 
BRANCH   2   3
ATOM      3  O   UNL A   1      32.429  33.046  26.946  1.00  0.00    -0.460 OA
BRANCH   3   4
ATOM      4  C   UNL A   1      33.153  33.534  27.990  1.00  0.00     0.338 C 
ATOM      5  O   UNL A   1      32.732  34.524  28.587  1.00  0.00    -0.246 OA
BRANCH   4   6
ATOM      6  C   UNL A   1      34.472  32.964  28.405  1.00  0.00     0.060 A 
ATOM      7  C   UNL A   1      34.620  31.702  28.960  1.00  0.00     0.016 A 
ATOM      8  C   UNL A   1      35.643  33.704  28.176  1.00  0.00     0.016 A 
ATOM      9  C   UNL A   1      35.829  31.159  29.282  1.00  0.00     0.010 A 
ATOM     10  C   UNL A   1      36.899  33.177  28.521  1.00  0.00     0.010 A 
ATOM     11  C   UNL A   1      36.975  31.900  29.082  1.00  0.00    -0.014 A 
BRANCH  11  12
ATOM     12  C   UNL A   1      38.135  31.317  29.759  1.00  0.00     0.031 A 
ATOM     13  C   UNL A   1      38.255  31.596  31.224  1.00  0.00     0.074 A 
ATOM     14  C   UNL A   1      38.771  30.295  29.158  1.00  0.00     0.049 A 
ATOM     15  N   UNL A   1      39.123  31.149  32.083  1.00  0.00    -0.248 NA
ATOM     16  C   UNL A   1      37.220  32.469  31.812  1.00  0.00     0.031 C 
ATOM     17  C   UNL A   1      38.463  29.783  27.813  1.00  0.00     0.029 A 
ATOM     18  N   UNL A   1      39.732  29.443  29.620  1.00  0.00    -0.354 N 
ATOM     19  C   UNL A   1      38.777  31.730  33.297  1.00  0.00     0.074 A 
ATOM     20  C   UNL A   1      37.605  32.541  33.073  1.00  0.00     0.031 C 
ATOM     21  C   UNL A   1      39.205  28.692  27.577  1.00  0.00     0.029 A 
ATOM     22  C   UNL A   1      40.107  28.491  28.701  1.00  0.00     0.049 A 
ATOM     23  H   UNL A   1      40.118  29.505  30.523  1.00  0.00     0.167 HD
ATOM     24  C   UNL A   1      39.419  31.603  34.480  1.00  0.00     0.034 A 
ATOM     25  C   UNL A   1      41.113  27.600  28.765  1.00  0.00     0.034 A 
ATOM     26  C   UNL A   1      40.590  30.777  34.619  1.00  0.00     0.049 A 
ATOM     27  C   UNL A   1      41.927  27.606  30.034  1.00  0.00     0.074 A 
ATOM     28  C   UNL A   1      41.439  30.642  35.698  1.00  0.00     0.029 A 
ATOM     29  N   UNL A   1      41.077  29.940  33.615  1.00  0.00    -0.354 N 
ATOM     30  N   UNL A   1      41.719  28.287  31.142  1.00  0.00    -0.248 NA
ATOM     31  C   UNL A   1      43.110  26.747  30.063  1.00  0.00     0.031 C 
ATOM     32  C   UNL A   1      42.480  29.786  35.318  1.00  0.00     0.029 A 
ATOM     33  C   UNL A   1      42.232  29.310  34.037  1.00  0.00     0.049 A 
ATOM     34  H   UNL A   1      40.657  29.817  32.733  1.00  0.00     0.167 HD
ATOM     35  C   UNL A   1      42.735  27.916  32.014  1.00  0.00     0.074 A 
ATOM     36  C   UNL A   1      43.538  26.936  31.303  1.00  0.00     0.031 C 
ATOM     37  C   UNL A   1      42.992  28.340  33.280  1.00  0.00     0.034 A 
BRANCH  24  38
ATOM     38  C   UNL A   1      38.958  32.504  35.599  1.00  0.00     0.023 A 
ATOM     39  C   UNL A   1      39.389  33.837  35.726  1.00  0.00     0.031 A 
ATOM     40  C   UNL A   1      38.187  31.962  36.643  1.00  0.00     0.131 A 
ATOM     41  C   UNL A   1      39.125  34.546  36.910  1.00  0.00     0.055 A 
ATOM     42  C   UNL A   1      37.852  32.702  37.777  1.00  0.00     0.041 A 
ATOM     43  F   UNL A   1      37.786  30.681  36.602  1.00  0.00    -0.206 F 
ATOM     44  C   UNL A   1      38.338  33.998  37.925  1.00  0.00     0.022 A 
BRANCH  41  45
ATOM     45  S   UNL A   1      39.984  36.122  37.191  1.00  0.00     0.124 S 
ATOM     46  O   UNL A   1      41.330  35.666  37.533  1.00  0.00    -0.237 OA
ATOM     47  O   UNL A   1      39.845  36.793  35.904  1.00  0.00    -0.237 OA
ATOM     48  O   UNL A   1      39.240  36.727  38.293  1.00  0.00    -0.744 OA
ENDBRANCH  41  45
ENDBRANCH  24  38
BRANCH  25  49
ATOM     49  C   UNL A   1      41.469  26.744  27.594  1.00  0.00     0.023 A 
ATOM     50  C   UNL A   1      41.129  25.384  27.548  1.00  0.00     0.031 A 
ATOM     51  C   UNL A   1      42.227  27.262  26.524  1.00  0.00     0.131 A 
ATOM     52  C   UNL A   1      41.587  24.581  26.488  1.00  0.00     0.055 A 
ATOM     53  C   UNL A   1      42.623  26.476  25.441  1.00  0.00     0.041 A 
ATOM     54  F   UNL A   1      42.599  28.553  26.512  1.00  0.00    -0.206 F 
ATOM     55  C   UNL A   1      42.317  25.121  25.427  1.00  0.00     0.022 A 
BRANCH  52  56
ATOM     56  S   UNL A   1      41.306  22.791  26.569  1.00  0.00     0.124 S 
ATOM     57  O   UNL A   1      42.054  22.320  25.410  1.00  0.00    -0.237 OA
ATOM     58  O   UNL A   1      41.865  22.455  27.874  1.00  0.00    -0.237 OA
ATOM     59  O   UNL A   1      39.853  22.670  26.465  1.00  0.00    -0.744 OA
ENDBRANCH  52  56
ENDBRANCH  25  49
BRANCH  37  60
ATOM     60  C   UNL A   1      44.152  27.684  33.976  1.00  0.00     0.023 A 
ATOM     61  C   UNL A   1      43.988  26.522  34.749  1.00  0.00     0.031 A 
ATOM     62  C   UNL A   1      45.436  28.243  33.869  1.00  0.00     0.131 A 
ATOM     63  C   UNL A   1      45.083  25.999  35.447  1.00  0.00     0.055 A 
ATOM     64  C   UNL A   1      46.537  27.669  34.501  1.00  0.00     0.041 A 
ATOM     65  F   UNL A   1      45.641  29.353  33.143  1.00  0.00    -0.206 F 
ATOM     66  C   UNL A   1      46.360  26.550  35.309  1.00  0.00     0.022 A 
BRANCH  63  67
ATOM     67  S   UNL A   1      44.789  24.662  36.633  1.00  0.00     0.124 S 
ATOM     68  O   UNL A   1      43.776  25.250  37.505  1.00  0.00    -0.237 OA
ATOM     69  O   UNL A   1      44.334  23.575  35.772  1.00  0.00    -0.237 OA
ATOM     70  O   UNL A   1      46.097  24.459  37.250  1.00  0.00    -0.744 OA
ENDBRANCH  63  67
ENDBRANCH  37  60
ENDBRANCH  11  12
ENDBRANCH   4   6
ENDBRANCH   3   4
ENDBRANCH   2   3
ENDBRANCH   1   2
BRANCH   1  71
ATOM     71  O   UNL A   1      31.357  29.872  25.426  1.00  0.00    -0.374 OA
BRANCH  71  72
ATOM     72  C   UNL A   1      31.928  28.655  24.943  1.00  0.00     0.202 C 
BRANCH  72  73
ATOM     73  C   UNL A   1      32.051  27.623  26.048  1.00  0.00     0.261 C 
BRANCH  73  74
ATOM     74  O   UNL A   1      30.868  26.816  25.985  1.00  0.00    -0.459 OA
BRANCH  74  75
ATOM     75  C   UNL A   1      30.726  26.067  24.850  1.00  0.00     0.368 C 
ATOM     76  O   UNL A   1      30.064  26.438  23.879  1.00  0.00    -0.245 OA
BRANCH  75  77
ATOM     77  C   UNL A   1      31.540  24.692  24.960  1.00  0.00     0.196 C 
ATOM     78  C   UNL A   1      31.365  24.071  26.389  1.00  0.00     0.081 C 
ATOM     79  C   UNL A   1      30.952  23.364  24.386  1.00  0.00     0.081 C 
ATOM     80  C   UNL A   1      31.028  22.710  25.772  1.00  0.00     0.014 C 
BRANCH  77  81
ATOM     81  N   UNL A   1      32.981  24.885  24.611  1.00  0.00    -0.317 N 
ATOM     82  C   UNL A   1      33.176  25.464  23.263  1.00  0.00     0.292 C 
ATOM     83  C   UNL A   1      33.920  23.771  24.782  1.00  0.00     0.292 C 
ATOM     84  H   UNL A   1      33.235  25.539  25.350  1.00  0.00     0.349 HD
ATOM     85  C   UNL A   1      33.119  24.430  22.134  1.00  0.00     0.221 C 
ATOM     86  C   UNL A   1      34.045  22.789  23.600  1.00  0.00     0.221 C 
ATOM     87  O   UNL A   1      34.125  23.428  22.319  1.00  0.00    -0.370 OA
ENDBRANCH  77  81
ENDBRANCH  75  77
ENDBRANCH  74  75
ENDBRANCH  73  74
ENDBRANCH  72  73
ENDBRANCH  71  72
ENDBRANCH   1  71
TORSDOF 18
ENDMDL
MODEL 2
REMARK VINA RESULT:     -10.5      1.782      8.116
REMARK SMILES O=C(OCCOCCOC(=O)C1([NH+]2CCOCC2)CCC1)c1ccc(-c2c3nc(c(-c4cc(S(=O)(=O)[O-])ccc4F)c4ccc([nH]4)c(-c4cc(S(=O)(=O)[O-])ccc4F)c4nc(c(-c5cc(S(=O)(=O)[O-])ccc5F)c5ccc2[nH]5)C=C4)C=C3)cc1
REMARK SMILES IDX 5 1 4 2 3 3 2 4 1 5 22 6 23 7 84 8 24 9 83 10 25 11 26 12
REMARK SMILES IDX 27 13 77 14 28 15 82 16 76 17 78 18 29 19 81 20 75 21 74 22
REMARK SMILES IDX 30 24 62 25 42 26 61 27 43 28 46 29 60 30 79 31 44 32 45 33
REMARK SMILES IDX 59 35 80 36 47 37 31 38 32 39 40 40 33 41 39 42 41 43 38 44
REMARK SMILES IDX 34 45 35 46 36 47 37 48 63 49 64 50 72 51 65 52 71 53 73 54
REMARK SMILES IDX 70 55 66 56 67 57 68 58 69 59 48 60 49 61 57 62 50 63 56 64
REMARK SMILES IDX 58 65 55 66 51 67 52 68 53 69 54 70 6 71 7 72 8 73 9 74
REMARK SMILES IDX 10 75 11 76 12 77 19 78 21 79 20 80 13 81 14 82 18 83 15 85
REMARK SMILES IDX 17 86 16 87
REMARK H PARENT 78 23 46 34 13 84
REMARK Flexibility Score: inf
ROOT
ATOM      1  C   UNL A   1      31.769  29.122  25.856  1.00  0.00     0.202 C 
ENDROOT
BRANCH   1   2
ATOM      2  C   UNL A   1      33.025  29.990  26.116  1.00  0.00     0.261 C 
BRANCH   2   3
ATOM      3  O   UNL A   1      32.741  31.238  26.775  1.00  0.00    -0.460 OA
BRANCH   3   4
ATOM      4  C   UNL A   1      33.594  32.004  27.508  1.00  0.00     0.338 C 
ATOM      5  O   UNL A   1      33.345  33.201  27.643  1.00  0.00    -0.246 OA
BRANCH   4   6
ATOM      6  C   UNL A   1      34.859  31.473  28.104  1.00  0.00     0.060 A 
ATOM      7  C   UNL A   1      34.969  30.210  28.668  1.00  0.00     0.016 A 
ATOM      8  C   UNL A   1      36.025  32.252  28.049  1.00  0.00     0.016 A 
ATOM      9  C   UNL A   1      36.137  29.703  29.156  1.00  0.00     0.010 A 
ATOM     10  C   UNL A   1      37.236  31.763  28.567  1.00  0.00     0.010 A 
ATOM     11  C   UNL A   1      37.274  30.482  29.126  1.00  0.00    -0.014 A 
BRANCH  11  12
ATOM     12  C   UNL A   1      38.344  29.930  29.959  1.00  0.00     0.031 A 
ATOM     13  C   UNL A   1      39.358  29.082  29.258  1.00  0.00     0.074 A 
ATOM     14  C   UNL A   1      38.576  30.503  31.154  1.00  0.00     0.049 A 
ATOM     15  N   UNL A   1      40.443  28.537  29.722  1.00  0.00    -0.248 NA
ATOM     16  C   UNL A   1      39.138  28.855  27.816  1.00  0.00     0.031 C 
ATOM     17  C   UNL A   1      37.763  31.578  31.745  1.00  0.00     0.029 A 
ATOM     18  N   UNL A   1      39.601  30.343  32.040  1.00  0.00    -0.354 N 
ATOM     19  C   UNL A   1      41.005  27.855  28.648  1.00  0.00     0.074 A 
ATOM     20  C   UNL A   1      40.156  28.076  27.501  1.00  0.00     0.031 C 
ATOM     21  C   UNL A   1      38.341  31.992  32.882  1.00  0.00     0.029 A 
ATOM     22  C   UNL A   1      39.498  31.149  33.149  1.00  0.00     0.049 A 
ATOM     23  H   UNL A   1      40.343  29.712  31.897  1.00  0.00     0.167 HD
ATOM     24  C   UNL A   1      42.120  27.092  28.654  1.00  0.00     0.034 A 
ATOM     25  C   UNL A   1      40.238  31.147  34.272  1.00  0.00     0.034 A 
ATOM     26  C   UNL A   1      42.909  26.917  29.844  1.00  0.00     0.049 A 
ATOM     27  C   UNL A   1      41.372  30.155  34.318  1.00  0.00     0.074 A 
ATOM     28  C   UNL A   1      43.982  26.077  30.064  1.00  0.00     0.029 A 
ATOM     29  N   UNL A   1      42.689  27.609  31.034  1.00  0.00    -0.354 N 
ATOM     30  N   UNL A   1      41.813  29.363  33.362  1.00  0.00    -0.248 NA
ATOM     31  C   UNL A   1      42.096  30.039  35.584  1.00  0.00     0.031 C 
ATOM     32  C   UNL A   1      44.357  26.205  31.408  1.00  0.00     0.029 A 
ATOM     33  C   UNL A   1      43.584  27.194  32.002  1.00  0.00     0.049 A 
ATOM     34  H   UNL A   1      41.995  28.296  31.166  1.00  0.00     0.167 HD
ATOM     35  C   UNL A   1      42.888  28.671  33.906  1.00  0.00     0.074 A 
ATOM     36  C   UNL A   1      43.035  29.160  35.266  1.00  0.00     0.031 C 
ATOM     37  C   UNL A   1      43.682  27.720  33.346  1.00  0.00     0.034 A 
BRANCH  24  38
ATOM     38  C   UNL A   1      42.399  26.293  27.404  1.00  0.00     0.023 A 
ATOM     39  C   UNL A   1      41.989  24.955  27.253  1.00  0.00     0.031 A 
ATOM     40  C   UNL A   1      43.224  26.844  26.407  1.00  0.00     0.131 A 
ATOM     41  C   UNL A   1      42.484  24.191  26.182  1.00  0.00     0.055 A 
ATOM     42  C   UNL A   1      43.637  26.105  25.298  1.00  0.00     0.041 A 
ATOM     43  F   UNL A   1      43.685  28.100  26.519  1.00  0.00    -0.206 F 
ATOM     44  C   UNL A   1      43.284  24.764  25.190  1.00  0.00     0.022 A 
BRANCH  41  45
ATOM     45  S   UNL A   1      42.229  22.393  26.204  1.00  0.00     0.124 S 
ATOM     46  O   UNL A   1      42.794  22.032  27.503  1.00  0.00    -0.237 OA
ATOM     47  O   UNL A   1      40.780  22.277  26.083  1.00  0.00    -0.237 OA
ATOM     48  O   UNL A   1      42.990  21.923  25.049  1.00  0.00    -0.744 OA
ENDBRANCH  41  45
ENDBRANCH  24  38
BRANCH  25  49
ATOM     49  C   UNL A   1      39.876  31.998  35.445  1.00  0.00     0.023 A 
ATOM     50  C   UNL A   1      39.024  31.529  36.456  1.00  0.00     0.031 A 
ATOM     51  C   UNL A   1      40.323  33.332  35.536  1.00  0.00     0.131 A 
ATOM     52  C   UNL A   1      38.607  32.398  37.481  1.00  0.00     0.055 A 
ATOM     53  C   UNL A   1      39.958  34.171  36.591  1.00  0.00     0.041 A 
ATOM     54  F   UNL A   1      41.128  33.849  34.593  1.00  0.00    -0.206 F 
ATOM     55  C   UNL A   1      39.080  33.709  37.563  1.00  0.00     0.022 A 
BRANCH  52  56
ATOM     56  S   UNL A   1      37.345  31.820  38.650  1.00  0.00     0.124 S 
ATOM     57  O   UNL A   1      36.272  32.782  38.427  1.00  0.00    -0.237 OA
ATOM     58  O   UNL A   1      37.097  30.461  38.181  1.00  0.00    -0.237 OA
ATOM     59  O   UNL A   1      38.012  31.920  39.946  1.00  0.00    -0.744 OA
ENDBRANCH  52  56
ENDBRANCH  25  49
BRANCH  37  60
ATOM     60  C   UNL A   1      44.810  27.211  34.200  1.00  0.00     0.023 A 
ATOM     61  C   UNL A   1      44.691  26.032  34.954  1.00  0.00     0.031 A 
ATOM     62  C   UNL A   1      46.015  27.930  34.265  1.00  0.00     0.131 A 
ATOM     63  C   UNL A   1      45.737  25.646  35.800  1.00  0.00     0.055 A 
ATOM     64  C   UNL A   1      47.083  27.495  35.047  1.00  0.00     0.041 A 
ATOM     65  F   UNL A   1      46.175  29.064  33.564  1.00  0.00    -0.206 F 
ATOM     66  C   UNL A   1      46.941  26.356  35.834  1.00  0.00     0.022 A 
BRANCH  63  67
ATOM     67  S   UNL A   1      45.455  24.272  36.947  1.00  0.00     0.124 S 
ATOM     68  O   UNL A   1      44.676  24.915  38.001  1.00  0.00    -0.237 OA
ATOM     69  O   UNL A   1      44.732  23.315  36.116  1.00  0.00    -0.237 OA
ATOM     70  O   UNL A   1      46.805  23.866  37.331  1.00  0.00    -0.744 OA
ENDBRANCH  63  67
ENDBRANCH  37  60
ENDBRANCH  11  12
ENDBRANCH   4   6
ENDBRANCH   3   4
ENDBRANCH   2   3
ENDBRANCH   1   2
BRANCH   1  71
ATOM     71  O   UNL A   1      31.019  29.326  24.656  1.00  0.00    -0.374 OA
BRANCH  71  72
ATOM     72  C   UNL A   1      30.662  28.168  23.900  1.00  0.00     0.202 C 
BRANCH  72  73
ATOM     73  C   UNL A   1      31.609  27.952  22.735  1.00  0.00     0.261 C 
BRANCH  73  74
ATOM     74  O   UNL A   1      31.625  26.540  22.480  1.00  0.00    -0.459 OA
BRANCH  74  75
ATOM     75  C   UNL A   1      32.856  25.949  22.517  1.00  0.00     0.368 C 
ATOM     76  O   UNL A   1      33.684  26.064  21.611  1.00  0.00    -0.245 OA
BRANCH  75  77
ATOM     77  C   UNL A   1      33.063  25.130  23.877  1.00  0.00     0.196 C 
ATOM     78  C   UNL A   1      34.400  24.313  23.821  1.00  0.00     0.081 C 
ATOM     79  C   UNL A   1      33.622  25.828  25.157  1.00  0.00     0.081 C 
ATOM     80  C   UNL A   1      34.796  24.842  25.204  1.00  0.00     0.014 C 
BRANCH  77  81
ATOM     81  N   UNL A   1      31.887  24.252  24.165  1.00  0.00    -0.317 N 
ATOM     82  C   UNL A   1      31.144  24.660  25.378  1.00  0.00     0.292 C 
ATOM     83  C   UNL A   1      32.064  22.796  24.193  1.00  0.00     0.292 C 
ATOM     84  H   UNL A   1      31.353  24.421  23.313  1.00  0.00     0.349 HD
ATOM     85  C   UNL A   1      31.757  24.138  26.681  1.00  0.00     0.221 C 
ATOM     86  C   UNL A   1      32.507  22.182  25.536  1.00  0.00     0.221 C 
ATOM     87  O   UNL A   1      31.810  22.707  26.673  1.00  0.00    -0.370 OA
ENDBRANCH  77  81
ENDBRANCH  75  77
ENDBRANCH  74  75
ENDBRANCH  73  74
ENDBRANCH  72  73
ENDBRANCH  71  72
ENDBRANCH   1  71
TORSDOF 18
ENDMDL
MODEL 3
REMARK VINA RESULT:     -10.4      1.268      8.232
REMARK SMILES O=C(OCCOCCOC(=O)C1([NH+]2CCOCC2)CCC1)c1ccc(-c2c3nc(c(-c4cc(S(=O)(=O)[O-])ccc4F)c4ccc([nH]4)c(-c4cc(S(=O)(=O)[O-])ccc4F)c4nc(c(-c5cc(S(=O)(=O)[O-])ccc5F)c5ccc2[nH]5)C=C4)C=C3)cc1
REMARK SMILES IDX 5 1 4 2 3 3 2 4 1 5 22 6 23 7 84 8 24 9 83 10 25 11 26 12
REMARK SMILES IDX 27 13 77 14 28 15 82 16 76 17 78 18 29 19 81 20 75 21 74 22
REMARK SMILES IDX 30 24 62 25 42 26 61 27 43 28 46 29 60 30 79 31 44 32 45 33
REMARK SMILES IDX 59 35 80 36 47 37 31 38 32 39 40 40 33 41 39 42 41 43 38 44
REMARK SMILES IDX 34 45 35 46 36 47 37 48 63 49 64 50 72 51 65 52 71 53 73 54
REMARK SMILES IDX 70 55 66 56 67 57 68 58 69 59 48 60 49 61 57 62 50 63 56 64
REMARK SMILES IDX 58 65 55 66 51 67 52 68 53 69 54 70 6 71 7 72 8 73 9 74
REMARK SMILES IDX 10 75 11 76 12 77 19 78 21 79 20 80 13 81 14 82 18 83 15 85
REMARK SMILES IDX 17 86 16 87
REMARK H PARENT 78 23 46 34 13 84
REMARK Flexibility Score: inf
ROOT
ATOM      1  C   UNL A   1      31.343  29.476  25.009  1.00  0.00     0.202 C 
ENDROOT
BRANCH   1   2
ATOM      2  C   UNL A   1      31.748  30.135  26.350  1.00  0.00     0.261 C 
BRANCH   2   3
ATOM      3  O   UNL A   1      32.763  31.147  26.216  1.00  0.00    -0.460 OA
BRANCH   3   4
ATOM      4  C   UNL A   1      33.375  31.848  27.209  1.00  0.00     0.338 C 
ATOM      5  O   UNL A   1      32.895  32.928  27.551  1.00  0.00    -0.246 OA
BRANCH   4   6
ATOM      6  C   UNL A   1      34.645  31.400  27.860  1.00  0.00     0.060 A 
ATOM      7  C   UNL A   1      34.856  30.108  28.318  1.00  0.00     0.016 A 
ATOM      8  C   UNL A   1      35.716  32.301  27.970  1.00  0.00     0.016 A 
ATOM      9  C   UNL A   1      36.035  29.683  28.856  1.00  0.00     0.010 A 
ATOM     10  C   UNL A   1      36.933  31.895  28.543  1.00  0.00     0.010 A 
ATOM     11  C   UNL A   1      37.076  30.579  28.989  1.00  0.00    -0.014 A 
BRANCH  11  12
ATOM     12  C   UNL A   1      38.137  30.066  29.857  1.00  0.00     0.031 A 
ATOM     13  C   UNL A   1      39.211  29.266  29.189  1.00  0.00     0.074 A 
ATOM     14  C   UNL A   1      38.302  30.641  31.063  1.00  0.00     0.049 A 
ATOM     15  N   UNL A   1      40.300  28.763  29.689  1.00  0.00    -0.248 NA
ATOM     16  C   UNL A   1      39.052  29.040  27.739  1.00  0.00     0.031 C 
ATOM     17  C   UNL A   1      37.424  31.677  31.630  1.00  0.00     0.029 A 
ATOM     18  N   UNL A   1      39.301  30.518  31.984  1.00  0.00    -0.354 N 
ATOM     19  C   UNL A   1      40.928  28.113  28.632  1.00  0.00     0.074 A 
ATOM     20  C   UNL A   1      40.112  28.306  27.457  1.00  0.00     0.031 C 
ATOM     21  C   UNL A   1      37.944  32.107  32.789  1.00  0.00     0.029 A 
ATOM     22  C   UNL A   1      39.124  31.311  33.093  1.00  0.00     0.049 A 
ATOM     23  H   UNL A   1      40.073  29.919  31.865  1.00  0.00     0.167 HD
ATOM     24  C   UNL A   1      42.074  27.397  28.674  1.00  0.00     0.034 A 
ATOM     25  C   UNL A   1      39.823  31.333  34.242  1.00  0.00     0.034 A 
ATOM     26  C   UNL A   1      42.826  27.247  29.891  1.00  0.00     0.049 A 
ATOM     27  C   UNL A   1      40.995  30.388  34.324  1.00  0.00     0.074 A 
ATOM     28  C   UNL A   1      43.925  26.452  30.146  1.00  0.00     0.029 A 
ATOM     29  N   UNL A   1      42.535  27.922  31.076  1.00  0.00    -0.354 N 
ATOM     30  N   UNL A   1      41.503  29.622  33.380  1.00  0.00    -0.248 NA
ATOM     31  C   UNL A   1      41.678  30.294  35.614  1.00  0.00     0.031 C 
ATOM     32  C   UNL A   1      44.246  26.587  31.502  1.00  0.00     0.029 A 
ATOM     33  C   UNL A   1      43.411  27.538  32.074  1.00  0.00     0.049 A 
ATOM     34  H   UNL A   1      41.808  28.578  31.186  1.00  0.00     0.167 HD
ATOM     35  C   UNL A   1      42.586  28.972  33.958  1.00  0.00     0.074 A 
ATOM     36  C   UNL A   1      42.664  29.458  35.326  1.00  0.00     0.031 C 
ATOM     37  C   UNL A   1      43.439  28.059  33.423  1.00  0.00     0.034 A 
BRANCH  24  38
ATOM     38  C   UNL A   1      42.430  26.619  27.431  1.00  0.00     0.023 A 
ATOM     39  C   UNL A   1      42.029  25.285  27.231  1.00  0.00     0.031 A 
ATOM     40  C   UNL A   1      43.318  27.185  26.498  1.00  0.00     0.131 A 
ATOM     41  C   UNL A   1      42.590  24.538  26.181  1.00  0.00     0.055 A 
ATOM     42  C   UNL A   1      43.800  26.464  25.405  1.00  0.00     0.041 A 
ATOM     43  F   UNL A   1      43.773  28.437  26.662  1.00  0.00    -0.206 F 
ATOM     44  C   UNL A   1      43.452  25.126  25.252  1.00  0.00     0.022 A 
BRANCH  41  45
ATOM     45  S   UNL A   1      42.330  22.741  26.155  1.00  0.00     0.124 S 
ATOM     46  O   UNL A   1      40.878  22.652  26.294  1.00  0.00    -0.237 OA
ATOM     47  O   UNL A   1      42.872  22.360  24.856  1.00  0.00    -0.237 OA
ATOM     48  O   UNL A   1      43.089  22.268  27.310  1.00  0.00    -0.744 OA
ENDBRANCH  41  45
ENDBRANCH  24  38
BRANCH  25  49
ATOM     49  C   UNL A   1      39.384  32.159  35.405  1.00  0.00     0.023 A 
ATOM     50  C   UNL A   1      39.819  33.482  35.573  1.00  0.00     0.031 A 
ATOM     51  C   UNL A   1      38.569  31.609  36.416  1.00  0.00     0.131 A 
ATOM     52  C   UNL A   1      39.483  34.189  36.742  1.00  0.00     0.055 A 
ATOM     53  C   UNL A   1      38.185  32.337  37.544  1.00  0.00     0.041 A 
ATOM     54  F   UNL A   1      38.129  30.343  36.326  1.00  0.00    -0.206 F 
ATOM     55  C   UNL A   1      38.658  33.631  37.719  1.00  0.00     0.022 A 
BRANCH  52  56
ATOM     56  S   UNL A   1      40.236  35.817  37.019  1.00  0.00     0.124 S 
ATOM     57  O   UNL A   1      39.681  36.592  35.916  1.00  0.00    -0.237 OA
ATOM     58  O   UNL A   1      39.746  36.154  38.351  1.00  0.00    -0.237 OA
ATOM     59  O   UNL A   1      41.669  35.548  36.932  1.00  0.00    -0.744 OA
ENDBRANCH  52  56
ENDBRANCH  25  49
BRANCH  37  60
ATOM     60  C   UNL A   1      44.556  27.592  34.314  1.00  0.00     0.023 A 
ATOM     61  C   UNL A   1      44.420  26.462  35.138  1.00  0.00     0.031 A 
ATOM     62  C   UNL A   1      45.768  28.302  34.344  1.00  0.00     0.131 A 
ATOM     63  C   UNL A   1      45.457  26.118  36.013  1.00  0.00     0.055 A 
ATOM     64  C   UNL A   1      46.826  27.905  35.159  1.00  0.00     0.041 A 
ATOM     65  F   UNL A   1      45.944  29.389  33.576  1.00  0.00    -0.206 F 
ATOM     66  C   UNL A   1      46.667  26.817  36.012  1.00  0.00     0.022 A 
BRANCH  63  67
ATOM     67  S   UNL A   1      45.153  24.819  37.239  1.00  0.00     0.124 S 
ATOM     68  O   UNL A   1      45.309  23.608  36.440  1.00  0.00    -0.237 OA
ATOM     69  O   UNL A   1      46.200  25.070  38.225  1.00  0.00    -0.237 OA
ATOM     70  O   UNL A   1      43.792  25.093  37.695  1.00  0.00    -0.744 OA
ENDBRANCH  63  67
ENDBRANCH  37  60
ENDBRANCH  11  12
ENDBRANCH   4   6
ENDBRANCH   3   4
ENDBRANCH   2   3
ENDBRANCH   1   2
BRANCH   1  71
ATOM     71  O   UNL A   1      31.410  28.053  24.885  1.00  0.00    -0.374 OA
BRANCH  71  72
ATOM     72  C   UNL A   1      31.280  27.282  26.080  1.00  0.00     0.202 C 
BRANCH  72  73
ATOM     73  C   UNL A   1      30.482  26.015  25.838  1.00  0.00     0.261 C 
BRANCH  73  74
ATOM     74  O   UNL A   1      31.387  25.071  25.247  1.00  0.00    -0.459 OA
BRANCH  74  75
ATOM     75  C   UNL A   1      31.807  24.064  26.070  1.00  0.00     0.368 C 
ATOM     76  O   UNL A   1      31.475  23.981  27.254  1.00  0.00    -0.245 OA
BRANCH  75  77
ATOM     77  C   UNL A   1      32.747  23.031  25.286  1.00  0.00     0.196 C 
ATOM     78  C   UNL A   1      31.897  22.179  24.281  1.00  0.00     0.081 C 
ATOM     79  C   UNL A   1      33.602  23.494  24.063  1.00  0.00     0.081 C 
ATOM     80  C   UNL A   1      32.906  22.465  23.164  1.00  0.00     0.014 C 
BRANCH  77  81
ATOM     81  N   UNL A   1      33.516  22.169  26.235  1.00  0.00    -0.317 N 
ATOM     82  C   UNL A   1      34.645  22.879  26.877  1.00  0.00     0.292 C 
ATOM     83  C   UNL A   1      33.982  20.850  25.795  1.00  0.00     0.292 C 
ATOM     84  H   UNL A   1      32.768  21.960  26.896  1.00  0.00     0.349 HD
ATOM     85  C   UNL A   1      35.910  22.928  26.015  1.00  0.00     0.221 C 
ATOM     86  C   UNL A   1      35.346  20.807  25.077  1.00  0.00     0.221 C 
ATOM     87  O   UNL A   1      36.359  21.604  25.705  1.00  0.00    -0.370 OA
ENDBRANCH  77  81
ENDBRANCH  75  77
ENDBRANCH  74  75
ENDBRANCH  73  74
ENDBRANCH  72  73
ENDBRANCH  71  72
ENDBRANCH   1  71
TORSDOF 18
ENDMDL
