MODEL 1
REMARK VINA RESULT:     -10.3      0.000      0.000
REMARK SMILES CCOc1cc(N2CCC[C@@H](C(=O)OCCOCCOC(=O)c3ccc(-c4c5nc(c(-c6cc(S(=O)(=O)[O-])ccc6F)c6ccc([nH]6)c(-c6cc(S(=O)(=O)[O-])ccc6F)c6nc(c(-c7cc(S(=O)(=O)[O-])ccc7F)c7ccc4[nH]7)C=C6)C=C5)cc3)C2)nc(SC)n1
REMARK SMILES IDX 17 1 16 2 15 3 14 4 12 5 13 6 11 7 7 8 8 9 86 10 9 11 10 12
REMARK SMILES IDX 6 13 4 14 5 15 91 16 88 17 87 18 3 19 2 20 1 21 89 22 90 23
REMARK SMILES IDX 18 24 19 25 20 26 21 27 22 28 23 29 24 30 85 31 25 32 84 33
REMARK SMILES IDX 26 34 27 35 28 36 78 37 29 38 83 39 77 40 79 41 30 42 82 43
REMARK SMILES IDX 76 44 75 45 31 47 63 48 43 49 62 50 44 51 47 52 61 53 80 54
REMARK SMILES IDX 45 55 46 56 60 58 81 59 48 60 32 61 33 62 41 63 34 64 40 65
REMARK SMILES IDX 42 66 39 67 35 68 36 69 37 70 38 71 64 72 65 73 73 74 66 75
REMARK SMILES IDX 72 76 74 77 71 78 67 79 68 80 69 81 70 82 49 83 50 84 58 85
REMARK SMILES IDX 51 86 57 87 59 88 56 89 52 90 53 91 54 92 55 93
REMARK H PARENT 79 46 47 57
REMARK Flexibility Score: inf
ROOT
ATOM      1  O   UNL A   1      34.115  33.930  30.367  1.00  0.00    -0.374 OA
ENDROOT
BRANCH   1   2
ATOM      2  C   UNL A   1      35.013  33.987  29.260  1.00  0.00     0.202 C 
BRANCH   2   3
ATOM      3  C   UNL A   1      34.709  33.061  28.080  1.00  0.00     0.261 C 
BRANCH   3   4
ATOM      4  O   UNL A   1      34.627  31.686  28.497  1.00  0.00    -0.463 OA
BRANCH   4   5
ATOM      5  C   UNL A   1      35.126  30.782  27.616  1.00  0.00     0.310 C 
ATOM      6  O   UNL A   1      36.319  30.535  27.469  1.00  0.00    -0.252 OA
BRANCH   5   7
ATOM      7  C   UNL A   1      34.043  30.003  26.890  1.00  0.00     0.118 C 
ATOM      8  N   UNL A   1      33.005  27.856  26.357  1.00  0.00    -0.356 N 
ATOM      9  C   UNL A   1      31.698  28.237  26.883  1.00  0.00     0.118 C 
ATOM     10  C   UNL A   1      34.185  28.474  26.965  1.00  0.00     0.133 C 
ATOM     11  C   UNL A   1      31.528  29.741  26.741  1.00  0.00     0.022 C 
ATOM     12  C   UNL A   1      32.678  30.473  27.418  1.00  0.00     0.019 C 
BRANCH   8  13
ATOM     13  C   UNL A   1      33.042  26.808  25.468  1.00  0.00     0.137 A 
ATOM     14  C   UNL A   1      33.415  25.864  23.367  1.00  0.00     0.219 A 
ATOM     15  C   UNL A   1      33.242  26.999  24.123  1.00  0.00     0.115 A 
ATOM     16  N   UNL A   1      33.281  24.614  23.826  1.00  0.00    -0.187 NA
ATOM     17  C   UNL A   1      33.000  24.524  25.127  1.00  0.00     0.192 A 
ATOM     18  N   UNL A   1      32.920  25.566  25.969  1.00  0.00    -0.205 NA
BRANCH  14  19
ATOM     19  O   UNL A   1      33.712  25.996  22.033  1.00  0.00    -0.478 OA
BRANCH  19  20
ATOM     20  C   UNL A   1      33.100  24.944  21.274  1.00  0.00     0.228 C 
ATOM     21  C   UNL A   1      32.675  25.461  19.907  1.00  0.00     0.049 C 
ENDBRANCH  19  20
ENDBRANCH  14  19
BRANCH  17  22
ATOM     22  S   UNL A   1      32.715  22.896  25.785  1.00  0.00    -0.089 SA
ATOM     23  C   UNL A   1      33.631  23.031  27.343  1.00  0.00     0.094 C 
ENDBRANCH  17  22
ENDBRANCH   8  13
ENDBRANCH   5   7
ENDBRANCH   4   5
ENDBRANCH   3   4
ENDBRANCH   2   3
ENDBRANCH   1   2
BRANCH   1  24
ATOM     24  C   UNL A   1      34.559  34.447  31.621  1.00  0.00     0.202 C 
BRANCH  24  25
ATOM     25  C   UNL A   1      34.206  33.656  32.888  1.00  0.00     0.261 C 
BRANCH  25  26
ATOM     26  O   UNL A   1      34.824  32.357  32.933  1.00  0.00    -0.460 OA
BRANCH  26  27
ATOM     27  C   UNL A   1      36.107  32.367  33.373  1.00  0.00     0.338 C 
ATOM     28  O   UNL A   1      36.506  32.790  34.452  1.00  0.00    -0.246 OA
BRANCH  27  29
ATOM     29  C   UNL A   1      36.977  31.610  32.456  1.00  0.00     0.060 A 
ATOM     30  C   UNL A   1      38.022  30.871  33.026  1.00  0.00     0.016 A 
ATOM     31  C   UNL A   1      36.839  31.690  31.068  1.00  0.00     0.016 A 
ATOM     32  C   UNL A   1      38.965  30.252  32.210  1.00  0.00     0.010 A 
ATOM     33  C   UNL A   1      37.794  31.071  30.251  1.00  0.00     0.010 A 
ATOM     34  C   UNL A   1      38.882  30.381  30.818  1.00  0.00    -0.014 A 
BRANCH  34  35
ATOM     35  C   UNL A   1      40.022  29.922  29.984  1.00  0.00     0.031 A 
ATOM     36  C   UNL A   1      41.211  30.829  29.807  1.00  0.00     0.074 A 
ATOM     37  C   UNL A   1      40.026  28.687  29.449  1.00  0.00     0.049 A 
ATOM     38  N   UNL A   1      42.324  30.622  29.150  1.00  0.00    -0.248 NA
ATOM     39  C   UNL A   1      41.129  32.146  30.455  1.00  0.00     0.031 C 
ATOM     40  C   UNL A   1      38.950  27.706  29.587  1.00  0.00     0.029 A 
ATOM     41  N   UNL A   1      40.971  28.047  28.687  1.00  0.00    -0.354 N 
ATOM     42  C   UNL A   1      43.078  31.781  29.308  1.00  0.00     0.074 A 
ATOM     43  C   UNL A   1      42.273  32.701  30.083  1.00  0.00     0.031 C 
ATOM     44  C   UNL A   1      39.296  26.586  28.930  1.00  0.00     0.029 A 
ATOM     45  C   UNL A   1      40.602  26.778  28.302  1.00  0.00     0.049 A 
ATOM     46  H   UNL A   1      41.831  28.456  28.439  1.00  0.00     0.167 HD
ATOM     47  C   UNL A   1      44.331  32.047  28.861  1.00  0.00     0.034 A 
ATOM     48  C   UNL A   1      41.240  25.881  27.523  1.00  0.00     0.034 A 
ATOM     49  C   UNL A   1      45.117  31.122  28.078  1.00  0.00     0.049 A 
ATOM     50  C   UNL A   1      42.606  26.225  26.979  1.00  0.00     0.074 A 
ATOM     51  C   UNL A   1      46.397  31.287  27.576  1.00  0.00     0.029 A 
ATOM     52  N   UNL A   1      44.695  29.861  27.675  1.00  0.00    -0.354 N 
ATOM     53  N   UNL A   1      43.312  27.320  27.144  1.00  0.00    -0.248 NA
ATOM     54  C   UNL A   1      43.266  25.203  26.157  1.00  0.00     0.031 C 
ATOM     55  C   UNL A   1      46.720  30.159  26.814  1.00  0.00     0.029 A 
ATOM     56  C   UNL A   1      45.677  29.251  26.907  1.00  0.00     0.049 A 
ATOM     57  H   UNL A   1      43.825  29.459  27.900  1.00  0.00     0.167 HD
ATOM     58  C   UNL A   1      44.516  27.099  26.479  1.00  0.00     0.074 A 
ATOM     59  C   UNL A   1      44.443  25.765  25.921  1.00  0.00     0.031 C 
ATOM     60  C   UNL A   1      45.589  27.922  26.349  1.00  0.00     0.034 A 
BRANCH  47  61
ATOM     61  C   UNL A   1      44.900  33.412  29.166  1.00  0.00     0.023 A 
ATOM     62  C   UNL A   1      44.766  34.489  28.271  1.00  0.00     0.031 A 
ATOM     63  C   UNL A   1      45.616  33.633  30.356  1.00  0.00     0.131 A 
ATOM     64  C   UNL A   1      45.398  35.711  28.546  1.00  0.00     0.055 A 
ATOM     65  C   UNL A   1      46.175  34.875  30.661  1.00  0.00     0.041 A 
ATOM     66  F   UNL A   1      45.798  32.637  31.239  1.00  0.00    -0.206 F 
ATOM     67  C   UNL A   1      46.080  35.920  29.746  1.00  0.00     0.022 A 
BRANCH  64  68
ATOM     68  S   UNL A   1      45.439  36.977  27.247  1.00  0.00     0.124 S 
ATOM     69  O   UNL A   1      46.335  37.971  27.832  1.00  0.00    -0.237 OA
ATOM     70  O   UNL A   1      45.961  36.239  26.103  1.00  0.00    -0.237 OA
ATOM     71  O   UNL A   1      44.042  37.397  27.135  1.00  0.00    -0.744 OA
ENDBRANCH  64  68
ENDBRANCH  47  61
BRANCH  48  72
ATOM     72  C   UNL A   1      40.594  24.581  27.186  1.00  0.00     0.023 A 
ATOM     73  C   UNL A   1      39.407  24.526  26.438  1.00  0.00     0.031 A 
ATOM     74  C   UNL A   1      41.132  23.369  27.656  1.00  0.00     0.131 A 
ATOM     75  C   UNL A   1      38.771  23.293  26.224  1.00  0.00     0.055 A 
ATOM     76  C   UNL A   1      40.525  22.140  27.395  1.00  0.00     0.041 A 
ATOM     77  F   UNL A   1      42.267  23.364  28.374  1.00  0.00    -0.206 F 
ATOM     78  C   UNL A   1      39.329  22.099  26.687  1.00  0.00     0.022 A 
BRANCH  75  79
ATOM     79  S   UNL A   1      37.156  23.279  25.400  1.00  0.00     0.124 S 
ATOM     80  O   UNL A   1      37.537  23.363  23.996  1.00  0.00    -0.237 OA
ATOM     81  O   UNL A   1      36.603  22.002  25.841  1.00  0.00    -0.237 OA
ATOM     82  O   UNL A   1      36.489  24.462  25.940  1.00  0.00    -0.744 OA
ENDBRANCH  75  79
ENDBRANCH  48  72
BRANCH  60  83
ATOM     83  C   UNL A   1      46.793  27.372  25.619  1.00  0.00     0.023 A 
ATOM     84  C   UNL A   1      47.106  27.756  24.304  1.00  0.00     0.031 A 
ATOM     85  C   UNL A   1      47.627  26.429  26.248  1.00  0.00     0.131 A 
ATOM     86  C   UNL A   1      48.186  27.154  23.637  1.00  0.00     0.055 A 
ATOM     87  C   UNL A   1      48.736  25.882  25.602  1.00  0.00     0.041 A 
ATOM     88  F   UNL A   1      47.375  26.024  27.503  1.00  0.00    -0.206 F 
ATOM     89  C   UNL A   1      49.012  26.231  24.283  1.00  0.00     0.022 A 
BRANCH  86  90
ATOM     90  S   UNL A   1      48.431  27.513  21.876  1.00  0.00     0.124 S 
ATOM     91  O   UNL A   1      48.689  26.185  21.328  1.00  0.00    -0.237 OA
ATOM     92  O   UNL A   1      47.159  28.121  21.501  1.00  0.00    -0.237 OA
ATOM     93  O   UNL A   1      49.578  28.420  21.867  1.00  0.00    -0.744 OA
ENDBRANCH  86  90
ENDBRANCH  60  83
ENDBRANCH  34  35
ENDBRANCH  27  29
ENDBRANCH  26  27
ENDBRANCH  25  26
ENDBRANCH  24  25
ENDBRANCH   1  24
TORSDOF 21
ENDMDL
MODEL 2
REMARK VINA RESULT:      -9.9      2.847      9.316
REMARK SMILES CCOc1cc(N2CCC[C@@H](C(=O)OCCOCCOC(=O)c3ccc(-c4c5nc(c(-c6cc(S(=O)(=O)[O-])ccc6F)c6ccc([nH]6)c(-c6cc(S(=O)(=O)[O-])ccc6F)c6nc(c(-c7cc(S(=O)(=O)[O-])ccc7F)c7ccc4[nH]7)C=C6)C=C5)cc3)C2)nc(SC)n1
REMARK SMILES IDX 17 1 16 2 15 3 14 4 12 5 13 6 11 7 7 8 8 9 86 10 9 11 10 12
REMARK SMILES IDX 6 13 4 14 5 15 91 16 88 17 87 18 3 19 2 20 1 21 89 22 90 23
REMARK SMILES IDX 18 24 19 25 20 26 21 27 22 28 23 29 24 30 85 31 25 32 84 33
REMARK SMILES IDX 26 34 27 35 28 36 78 37 29 38 83 39 77 40 79 41 30 42 82 43
REMARK SMILES IDX 76 44 75 45 31 47 63 48 43 49 62 50 44 51 47 52 61 53 80 54
REMARK SMILES IDX 45 55 46 56 60 58 81 59 48 60 32 61 33 62 41 63 34 64 40 65
REMARK SMILES IDX 42 66 39 67 35 68 36 69 37 70 38 71 64 72 65 73 73 74 66 75
REMARK SMILES IDX 72 76 74 77 71 78 67 79 68 80 69 81 70 82 49 83 50 84 58 85
REMARK SMILES IDX 51 86 57 87 59 88 56 89 52 90 53 91 54 92 55 93
REMARK H PARENT 79 46 47 57
REMARK Flexibility Score: inf
ROOT
ATOM      1  O   UNL A   1      36.817  21.550  25.896  1.00  0.00    -0.374 OA
ENDROOT
BRANCH   1   2
ATOM      2  C   UNL A   1      36.299  22.805  25.456  1.00  0.00     0.202 C 
BRANCH   2   3
ATOM      3  C   UNL A   1      35.441  22.788  24.188  1.00  0.00     0.261 C 
BRANCH   3   4
ATOM      4  O   UNL A   1      34.459  21.738  24.232  1.00  0.00    -0.463 OA
BRANCH   4   5
ATOM      5  C   UNL A   1      33.202  22.102  23.868  1.00  0.00     0.310 C 
ATOM      6  O   UNL A   1      32.501  21.487  23.072  1.00  0.00    -0.252 OA
BRANCH   5   7
ATOM      7  C   UNL A   1      32.689  23.306  24.638  1.00  0.00     0.118 C 
ATOM      8  N   UNL A   1      31.170  25.216  24.772  1.00  0.00    -0.356 N 
ATOM      9  C   UNL A   1      30.545  24.768  26.012  1.00  0.00     0.118 C 
ATOM     10  C   UNL A   1      31.693  24.189  23.868  1.00  0.00     0.133 C 
ATOM     11  C   UNL A   1      31.554  23.955  26.808  1.00  0.00     0.022 C 
ATOM     12  C   UNL A   1      32.096  22.808  25.966  1.00  0.00     0.019 C 
BRANCH   8  13
ATOM     13  C   UNL A   1      31.050  26.548  24.454  1.00  0.00     0.137 A 
ATOM     14  C   UNL A   1      30.304  28.322  23.135  1.00  0.00     0.219 A 
ATOM     15  C   UNL A   1      30.511  26.969  23.264  1.00  0.00     0.115 A 
ATOM     16  N   UNL A   1      30.698  29.242  24.023  1.00  0.00    -0.187 NA
ATOM     17  C   UNL A   1      31.293  28.749  25.111  1.00  0.00     0.192 A 
ATOM     18  N   UNL A   1      31.443  27.442  25.379  1.00  0.00    -0.205 NA
BRANCH  14  19
ATOM     19  O   UNL A   1      29.680  28.792  22.006  1.00  0.00    -0.478 OA
BRANCH  19  20
ATOM     20  C   UNL A   1      29.106  30.084  22.247  1.00  0.00     0.228 C 
ATOM     21  C   UNL A   1      27.739  29.937  22.901  1.00  0.00     0.049 C 
ENDBRANCH  19  20
ENDBRANCH  14  19
BRANCH  17  22
ATOM     22  S   UNL A   1      31.928  29.921  26.290  1.00  0.00    -0.089 SA
ATOM     23  C   UNL A   1      33.695  29.530  26.186  1.00  0.00     0.094 C 
ENDBRANCH  17  22
ENDBRANCH   8  13
ENDBRANCH   5   7
ENDBRANCH   4   5
ENDBRANCH   3   4
ENDBRANCH   2   3
ENDBRANCH   1   2
BRANCH   1  24
ATOM     24  C   UNL A   1      38.031  21.081  25.311  1.00  0.00     0.202 C 
BRANCH  24  25
ATOM     25  C   UNL A   1      39.335  21.310  26.086  1.00  0.00     0.261 C 
BRANCH  25  26
ATOM     26  O   UNL A   1      39.866  20.105  26.667  1.00  0.00    -0.460 OA
BRANCH  26  27
ATOM     27  C   UNL A   1      41.135  19.815  26.283  1.00  0.00     0.338 C 
ATOM     28  O   UNL A   1      41.521  18.777  25.759  1.00  0.00    -0.246 OA
BRANCH  27  29
ATOM     29  C   UNL A   1      41.997  21.005  26.398  1.00  0.00     0.060 A 
ATOM     30  C   UNL A   1      42.297  21.458  27.689  1.00  0.00     0.016 A 
ATOM     31  C   UNL A   1      42.428  21.720  25.277  1.00  0.00     0.016 A 
ATOM     32  C   UNL A   1      42.983  22.656  27.867  1.00  0.00     0.010 A 
ATOM     33  C   UNL A   1      43.113  22.928  25.461  1.00  0.00     0.010 A 
ATOM     34  C   UNL A   1      43.361  23.420  26.755  1.00  0.00    -0.014 A 
BRANCH  34  35
ATOM     35  C   UNL A   1      43.873  24.798  26.971  1.00  0.00     0.031 A 
ATOM     36  C   UNL A   1      42.939  25.849  27.509  1.00  0.00     0.074 A 
ATOM     37  C   UNL A   1      45.168  25.090  26.754  1.00  0.00     0.049 A 
ATOM     38  N   UNL A   1      43.177  27.102  27.801  1.00  0.00    -0.248 NA
ATOM     39  C   UNL A   1      41.550  25.429  27.745  1.00  0.00     0.031 C 
ATOM     40  C   UNL A   1      46.175  24.144  26.272  1.00  0.00     0.029 A 
ATOM     41  N   UNL A   1      45.859  26.264  26.916  1.00  0.00    -0.354 N 
ATOM     42  C   UNL A   1      41.970  27.621  28.259  1.00  0.00     0.074 A 
ATOM     43  C   UNL A   1      40.993  26.557  28.160  1.00  0.00     0.031 C 
ATOM     44  C   UNL A   1      47.357  24.777  26.178  1.00  0.00     0.029 A 
ATOM     45  C   UNL A   1      47.187  26.177  26.565  1.00  0.00     0.049 A 
ATOM     46  H   UNL A   1      45.444  27.091  27.252  1.00  0.00     0.167 HD
ATOM     47  C   UNL A   1      41.704  28.864  28.731  1.00  0.00     0.034 A 
ATOM     48  C   UNL A   1      48.149  27.121  26.545  1.00  0.00     0.034 A 
ATOM     49  C   UNL A   1      42.687  29.920  28.813  1.00  0.00     0.049 A 
ATOM     50  C   UNL A   1      47.814  28.518  27.012  1.00  0.00     0.074 A 
ATOM     51  C   UNL A   1      42.527  31.214  29.277  1.00  0.00     0.029 A 
ATOM     52  N   UNL A   1      44.012  29.806  28.411  1.00  0.00    -0.354 N 
ATOM     53  N   UNL A   1      46.672  28.992  27.452  1.00  0.00    -0.248 NA
ATOM     54  C   UNL A   1      48.906  29.500  26.994  1.00  0.00     0.031 C 
ATOM     55  C   UNL A   1      43.732  31.900  29.092  1.00  0.00     0.029 A 
ATOM     56  C   UNL A   1      44.672  31.014  28.589  1.00  0.00     0.049 A 
ATOM     57  H   UNL A   1      44.423  28.987  28.050  1.00  0.00     0.167 HD
ATOM     58  C   UNL A   1      46.920  30.318  27.800  1.00  0.00     0.074 A 
ATOM     59  C   UNL A   1      48.321  30.562  27.528  1.00  0.00     0.031 C 
ATOM     60  C   UNL A   1      46.068  31.247  28.308  1.00  0.00     0.034 A 
BRANCH  47  61
ATOM     61  C   UNL A   1      40.282  29.159  29.145  1.00  0.00     0.023 A 
ATOM     62  C   UNL A   1      39.881  29.131  30.494  1.00  0.00     0.031 A 
ATOM     63  C   UNL A   1      39.304  29.440  28.175  1.00  0.00     0.131 A 
ATOM     64  C   UNL A   1      38.529  29.308  30.826  1.00  0.00     0.055 A 
ATOM     65  C   UNL A   1      37.975  29.695  28.520  1.00  0.00     0.041 A 
ATOM     66  F   UNL A   1      39.620  29.458  26.871  1.00  0.00    -0.206 F 
ATOM     67  C   UNL A   1      37.578  29.615  29.851  1.00  0.00     0.022 A 
BRANCH  64  68
ATOM     68  S   UNL A   1      38.007  28.988  32.534  1.00  0.00     0.124 S 
ATOM     69  O   UNL A   1      38.980  29.771  33.291  1.00  0.00    -0.237 OA
ATOM     70  O   UNL A   1      36.638  29.486  32.544  1.00  0.00    -0.237 OA
ATOM     71  O   UNL A   1      38.146  27.538  32.668  1.00  0.00    -0.744 OA
ENDBRANCH  64  68
ENDBRANCH  47  61
BRANCH  48  72
ATOM     72  C   UNL A   1      49.516  26.794  26.048  1.00  0.00     0.023 A 
ATOM     73  C   UNL A   1      49.931  27.160  24.758  1.00  0.00     0.031 A 
ATOM     74  C   UNL A   1      50.413  26.060  26.845  1.00  0.00     0.131 A 
ATOM     75  C   UNL A   1      51.188  26.750  24.285  1.00  0.00     0.055 A 
ATOM     76  C   UNL A   1      51.682  25.700  26.390  1.00  0.00     0.041 A 
ATOM     77  F   UNL A   1      50.067  25.687  28.088  1.00  0.00    -0.206 F 
ATOM     78  C   UNL A   1      52.070  26.034  25.096  1.00  0.00     0.022 A 
BRANCH  75  79
ATOM     79  S   UNL A   1      51.622  27.095  22.558  1.00  0.00     0.124 S 
ATOM     80  O   UNL A   1      51.859  28.533  22.593  1.00  0.00    -0.237 OA
ATOM     81  O   UNL A   1      52.800  26.255  22.369  1.00  0.00    -0.237 OA
ATOM     82  O   UNL A   1      50.434  26.675  21.818  1.00  0.00    -0.744 OA
ENDBRANCH  75  79
ENDBRANCH  48  72
BRANCH  60  83
ATOM     83  C   UNL A   1      46.652  32.598  28.654  1.00  0.00     0.023 A 
ATOM     84  C   UNL A   1      46.628  33.674  27.750  1.00  0.00     0.031 A 
ATOM     85  C   UNL A   1      47.261  32.801  29.906  1.00  0.00     0.131 A 
ATOM     86  C   UNL A   1      47.258  34.883  28.084  1.00  0.00     0.055 A 
ATOM     87  C   UNL A   1      47.830  34.027  30.257  1.00  0.00     0.041 A 
ATOM     88  F   UNL A   1      47.315  31.809  30.809  1.00  0.00    -0.206 F 
ATOM     89  C   UNL A   1      47.845  35.071  29.338  1.00  0.00     0.022 A 
BRANCH  86  90
ATOM     90  S   UNL A   1      47.395  36.173  26.817  1.00  0.00     0.124 S 
ATOM     91  O   UNL A   1      48.838  36.386  26.754  1.00  0.00    -0.237 OA
ATOM     92  O   UNL A   1      46.794  35.532  25.652  1.00  0.00    -0.237 OA
ATOM     93  O   UNL A   1      46.629  37.286  27.375  1.00  0.00    -0.744 OA
ENDBRANCH  86  90
ENDBRANCH  60  83
ENDBRANCH  34  35
ENDBRANCH  27  29
ENDBRANCH  26  27
ENDBRANCH  25  26
ENDBRANCH  24  25
ENDBRANCH   1  24
TORSDOF 21
ENDMDL
MODEL 3
REMARK VINA RESULT:      -9.7      2.095      2.612
REMARK SMILES CCOc1cc(N2CCC[C@@H](C(=O)OCCOCCOC(=O)c3ccc(-c4c5nc(c(-c6cc(S(=O)(=O)[O-])ccc6F)c6ccc([nH]6)c(-c6cc(S(=O)(=O)[O-])ccc6F)c6nc(c(-c7cc(S(=O)(=O)[O-])ccc7F)c7ccc4[nH]7)C=C6)C=C5)cc3)C2)nc(SC)n1
REMARK SMILES IDX 17 1 16 2 15 3 14 4 12 5 13 6 11 7 7 8 8 9 86 10 9 11 10 12
REMARK SMILES IDX 6 13 4 14 5 15 91 16 88 17 87 18 3 19 2 20 1 21 89 22 90 23
REMARK SMILES IDX 18 24 19 25 20 26 21 27 22 28 23 29 24 30 85 31 25 32 84 33
REMARK SMILES IDX 26 34 27 35 28 36 78 37 29 38 83 39 77 40 79 41 30 42 82 43
REMARK SMILES IDX 76 44 75 45 31 47 63 48 43 49 62 50 44 51 47 52 61 53 80 54
REMARK SMILES IDX 45 55 46 56 60 58 81 59 48 60 32 61 33 62 41 63 34 64 40 65
REMARK SMILES IDX 42 66 39 67 35 68 36 69 37 70 38 71 64 72 65 73 73 74 66 75
REMARK SMILES IDX 72 76 74 77 71 78 67 79 68 80 69 81 70 82 49 83 50 84 58 85
REMARK SMILES IDX 51 86 57 87 59 88 56 89 52 90 53 91 54 92 55 93
REMARK H PARENT 79 46 47 57
REMARK Flexibility Score: inf
ROOT
ATOM      1  O   UNL A   1      34.118  34.017  30.330  1.00  0.00    -0.374 OA
ENDROOT
BRANCH   1   2
ATOM      2  C   UNL A   1      35.055  34.101  29.257  1.00  0.00     0.202 C 
BRANCH   2   3
ATOM      3  C   UNL A   1      34.777  33.227  28.032  1.00  0.00     0.261 C 
BRANCH   3   4
ATOM      4  O   UNL A   1      34.485  31.870  28.409  1.00  0.00    -0.463 OA
BRANCH   4   5
ATOM      5  C   UNL A   1      35.074  30.915  27.644  1.00  0.00     0.310 C 
ATOM      6  O   UNL A   1      36.276  30.673  27.633  1.00  0.00    -0.252 OA
BRANCH   5   7
ATOM      7  C   UNL A   1      34.073  30.077  26.868  1.00  0.00     0.118 C 
ATOM      8  N   UNL A   1      33.082  27.892  26.405  1.00  0.00    -0.356 N 
ATOM      9  C   UNL A   1      31.728  28.315  26.745  1.00  0.00     0.118 C 
ATOM     10  C   UNL A   1      34.192  28.559  27.088  1.00  0.00     0.133 C 
ATOM     11  C   UNL A   1      31.588  29.801  26.459  1.00  0.00     0.022 C 
ATOM     12  C   UNL A   1      32.661  30.589  27.198  1.00  0.00     0.019 C 
BRANCH   8  13
ATOM     13  C   UNL A   1      33.211  26.772  25.616  1.00  0.00     0.137 A 
ATOM     14  C   UNL A   1      33.359  24.471  25.265  1.00  0.00     0.219 A 
ATOM     15  C   UNL A   1      33.404  25.522  26.149  1.00  0.00     0.115 A 
ATOM     16  N   UNL A   1      33.265  24.594  23.936  1.00  0.00    -0.187 NA
ATOM     17  C   UNL A   1      33.170  25.852  23.498  1.00  0.00     0.192 A 
ATOM     18  N   UNL A   1      33.095  26.936  24.286  1.00  0.00    -0.205 NA
BRANCH  14  19
ATOM     19  O   UNL A   1      33.450  23.191  25.754  1.00  0.00    -0.478 OA
BRANCH  19  20
ATOM     20  C   UNL A   1      33.891  22.290  24.728  1.00  0.00     0.228 C 
ATOM     21  C   UNL A   1      33.922  20.863  25.258  1.00  0.00     0.049 C 
ENDBRANCH  19  20
ENDBRANCH  14  19
BRANCH  17  22
ATOM     22  S   UNL A   1      33.139  26.097  21.736  1.00  0.00    -0.089 SA
ATOM     23  C   UNL A   1      33.565  27.857  21.666  1.00  0.00     0.094 C 
ENDBRANCH  17  22
ENDBRANCH   8  13
ENDBRANCH   5   7
ENDBRANCH   4   5
ENDBRANCH   3   4
ENDBRANCH   2   3
ENDBRANCH   1   2
BRANCH   1  24
ATOM     24  C   UNL A   1      34.553  34.396  31.635  1.00  0.00     0.202 C 
BRANCH  24  25
ATOM     25  C   UNL A   1      34.179  33.482  32.809  1.00  0.00     0.261 C 
BRANCH  25  26
ATOM     26  O   UNL A   1      34.901  32.237  32.808  1.00  0.00    -0.460 OA
BRANCH  26  27
ATOM     27  C   UNL A   1      36.197  32.346  33.197  1.00  0.00     0.338 C 
ATOM     28  O   UNL A   1      36.607  32.828  34.246  1.00  0.00    -0.246 OA
BRANCH  27  29
ATOM     29  C   UNL A   1      37.081  31.621  32.267  1.00  0.00     0.060 A 
ATOM     30  C   UNL A   1      37.919  30.640  32.812  1.00  0.00     0.016 A 
ATOM     31  C   UNL A   1      37.162  31.950  30.912  1.00  0.00     0.016 A 
ATOM     32  C   UNL A   1      38.879  30.021  32.016  1.00  0.00     0.010 A 
ATOM     33  C   UNL A   1      38.133  31.330  30.115  1.00  0.00     0.010 A 
ATOM     34  C   UNL A   1      39.021  30.391  30.673  1.00  0.00    -0.014 A 
BRANCH  34  35
ATOM     35  C   UNL A   1      40.198  29.898  29.912  1.00  0.00     0.031 A 
ATOM     36  C   UNL A   1      41.379  30.812  29.719  1.00  0.00     0.074 A 
ATOM     37  C   UNL A   1      40.240  28.631  29.459  1.00  0.00     0.049 A 
ATOM     38  N   UNL A   1      42.518  30.583  29.119  1.00  0.00    -0.248 NA
ATOM     39  C   UNL A   1      41.253  32.166  30.277  1.00  0.00     0.031 C 
ATOM     40  C   UNL A   1      39.174  27.643  29.621  1.00  0.00     0.029 A 
ATOM     41  N   UNL A   1      41.222  27.960  28.775  1.00  0.00    -0.354 N 
ATOM     42  C   UNL A   1      43.249  31.762  29.228  1.00  0.00     0.074 A 
ATOM     43  C   UNL A   1      42.402  32.716  29.912  1.00  0.00     0.031 C 
ATOM     44  C   UNL A   1      39.561  26.489  29.052  1.00  0.00     0.029 A 
ATOM     45  C   UNL A   1      40.887  26.663  28.460  1.00  0.00     0.049 A 
ATOM     46  H   UNL A   1      42.085  28.366  28.532  1.00  0.00     0.167 HD
ATOM     47  C   UNL A   1      44.513  32.019  28.810  1.00  0.00     0.034 A 
ATOM     48  C   UNL A   1      41.566  25.729  27.764  1.00  0.00     0.034 A 
ATOM     49  C   UNL A   1      45.342  31.060  28.118  1.00  0.00     0.049 A 
ATOM     50  C   UNL A   1      42.946  26.060  27.249  1.00  0.00     0.074 A 
ATOM     51  C   UNL A   1      46.637  31.215  27.654  1.00  0.00     0.029 A 
ATOM     52  N   UNL A   1      44.954  29.769  27.782  1.00  0.00    -0.354 N 
ATOM     53  N   UNL A   1      43.630  27.175  27.368  1.00  0.00    -0.248 NA
ATOM     54  C   UNL A   1      43.652  24.998  26.520  1.00  0.00     0.031 C 
ATOM     55  C   UNL A   1      47.005  30.046  26.978  1.00  0.00     0.029 A 
ATOM     56  C   UNL A   1      45.972  29.128  27.092  1.00  0.00     0.049 A 
ATOM     57  H   UNL A   1      44.082  29.367  28.001  1.00  0.00     0.167 HD
ATOM     58  C   UNL A   1      44.860  26.933  26.763  1.00  0.00     0.074 A 
ATOM     59  C   UNL A   1      44.828  25.565  26.290  1.00  0.00     0.031 C 
ATOM     60  C   UNL A   1      45.926  27.764  26.619  1.00  0.00     0.034 A 
BRANCH  47  61
ATOM     61  C   UNL A   1      45.051  33.411  29.047  1.00  0.00     0.023 A 
ATOM     62  C   UNL A   1      45.668  33.772  30.258  1.00  0.00     0.031 A 
ATOM     63  C   UNL A   1      44.915  34.402  28.059  1.00  0.00     0.131 A 
ATOM     64  C   UNL A   1      46.060  35.101  30.476  1.00  0.00     0.055 A 
ATOM     65  C   UNL A   1      45.379  35.704  28.252  1.00  0.00     0.041 A 
ATOM     66  F   UNL A   1      44.313  34.125  26.891  1.00  0.00    -0.206 F 
ATOM     67  C   UNL A   1      45.943  36.065  29.472  1.00  0.00     0.022 A 
BRANCH  64  68
ATOM     68  S   UNL A   1      46.590  35.587  32.142  1.00  0.00     0.124 S 
ATOM     69  O   UNL A   1      47.881  34.910  32.249  1.00  0.00    -0.237 OA
ATOM     70  O   UNL A   1      46.636  37.041  32.047  1.00  0.00    -0.237 OA
ATOM     71  O   UNL A   1      45.540  35.050  33.006  1.00  0.00    -0.744 OA
ENDBRANCH  64  68
ENDBRANCH  47  61
BRANCH  48  72
ATOM     72  C   UNL A   1      40.952  24.398  27.489  1.00  0.00     0.023 A 
ATOM     73  C   UNL A   1      39.823  24.271  26.664  1.00  0.00     0.031 A 
ATOM     74  C   UNL A   1      41.461  23.235  28.095  1.00  0.00     0.131 A 
ATOM     75  C   UNL A   1      39.211  23.017  26.507  1.00  0.00     0.055 A 
ATOM     76  C   UNL A   1      40.879  21.982  27.893  1.00  0.00     0.041 A 
ATOM     77  F   UNL A   1      42.540  23.301  28.891  1.00  0.00    -0.206 F 
ATOM     78  C   UNL A   1      39.738  21.871  27.105  1.00  0.00     0.022 A 
BRANCH  75  79
ATOM     79  S   UNL A   1      37.660  22.919  25.572  1.00  0.00     0.124 S 
ATOM     80  O   UNL A   1      37.734  21.575  25.013  1.00  0.00    -0.237 OA
ATOM     81  O   UNL A   1      36.663  23.125  26.619  1.00  0.00    -0.237 OA
ATOM     82  O   UNL A   1      37.777  24.008  24.604  1.00  0.00    -0.744 OA
ENDBRANCH  75  79
ENDBRANCH  48  72
BRANCH  60  83
ATOM     83  C   UNL A   1      47.164  27.189  25.970  1.00  0.00     0.023 A 
ATOM     84  C   UNL A   1      48.137  26.494  26.707  1.00  0.00     0.031 A 
ATOM     85  C   UNL A   1      47.378  27.361  24.590  1.00  0.00     0.131 A 
ATOM     86  C   UNL A   1      49.311  26.052  26.076  1.00  0.00     0.055 A 
ATOM     87  C   UNL A   1      48.518  26.862  23.955  1.00  0.00     0.041 A 
ATOM     88  F   UNL A   1      46.483  28.017  23.835  1.00  0.00    -0.206 F 
ATOM     89  C   UNL A   1      49.499  26.218  24.701  1.00  0.00     0.022 A 
BRANCH  86  90
ATOM     90  S   UNL A   1      50.638  25.352  27.094  1.00  0.00     0.124 S 
ATOM     91  O   UNL A   1      51.574  24.868  26.085  1.00  0.00    -0.237 OA
ATOM     92  O   UNL A   1      51.079  26.507  27.870  1.00  0.00    -0.237 OA
ATOM     93  O   UNL A   1      49.965  24.309  27.866  1.00  0.00    -0.744 OA
ENDBRANCH  86  90
ENDBRANCH  60  83
ENDBRANCH  34  35
ENDBRANCH  27  29
ENDBRANCH  26  27
ENDBRANCH  25  26
ENDBRANCH  24  25
ENDBRANCH   1  24
TORSDOF 21
ENDMDL
