MODEL 1
REMARK VINA RESULT:     -11.7      0.000      0.000
REMARK SMILES CC(C)Cc1cc2c(cc1Cl)C=C(C(=O)OCCOCCOC(=O)c1ccc(-c3c4nc(c(-c5cc(S(=O)(=O)[O-])ccc5F)c5ccc([nH]5)c(-c5cc(S(=O)(=O)[O-])ccc5F)c5nc(c(-c6cc(S(=O)(=O)[O-])ccc6F)c6ccc3[nH]6)C=C5)C=C4)cc1)[C@@H](C(F)(F)F)O2
REMARK SMILES IDX 20 1 19 2 18 3 17 4 16 5 14 6 15 7 13 8 5 9 6 10 10 11 7 12
REMARK SMILES IDX 9 13 11 14 8 15 93 16 12 17 88 18 4 19 2 20 1 21 3 22 89 23
REMARK SMILES IDX 90 24 91 25 92 26 21 27 22 28 23 29 24 30 25 31 26 32 87 33
REMARK SMILES IDX 27 34 86 35 28 36 29 37 30 38 80 39 31 40 85 41 79 42 81 43
REMARK SMILES IDX 32 44 84 45 78 46 77 47 33 49 65 50 45 51 64 52 46 53 49 54
REMARK SMILES IDX 63 55 82 56 47 57 48 58 62 60 83 61 50 62 34 63 35 64 43 65
REMARK SMILES IDX 36 66 42 67 44 68 41 69 37 70 38 71 39 72 40 73 66 74 67 75
REMARK SMILES IDX 75 76 68 77 74 78 76 79 73 80 69 81 70 82 71 83 72 84 51 85
REMARK SMILES IDX 52 86 60 87 53 88 59 89 61 90 58 91 54 92 55 93 56 94 57 95
REMARK H PARENT 81 48 49 59
REMARK Flexibility Score: inf
ROOT
ATOM      1  C   UNL A   1      31.323  29.996  25.864  1.00  0.00     0.202 C 
ENDROOT
BRANCH   1   2
ATOM      2  O   UNL A   1      31.239  29.920  24.442  1.00  0.00    -0.374 OA
BRANCH   2   3
ATOM      3  C   UNL A   1      31.774  28.776  23.782  1.00  0.00     0.202 C 
BRANCH   3   4
ATOM      4  C   UNL A   1      33.293  28.572  23.808  1.00  0.00     0.261 C 
BRANCH   4   5
ATOM      5  O   UNL A   1      33.656  27.273  24.294  1.00  0.00    -0.460 OA
BRANCH   5   6
ATOM      6  C   UNL A   1      33.709  26.317  23.338  1.00  0.00     0.338 C 
ATOM      7  O   UNL A   1      34.010  26.463  22.165  1.00  0.00    -0.246 OA
BRANCH   6   8
ATOM      8  C   UNL A   1      33.481  24.995  23.949  1.00  0.00     0.087 C 
ATOM      9  C   UNL A   1      34.000  20.148  25.010  1.00  0.00    -0.025 A 
ATOM     10  C   UNL A   1      32.924  21.054  25.076  1.00  0.00     0.052 A 
ATOM     11  C   UNL A   1      35.297  20.659  24.845  1.00  0.00     0.045 A 
ATOM     12  C   UNL A   1      33.121  22.414  24.848  1.00  0.00     0.128 A 
ATOM     13  C   UNL A   1      35.495  22.026  24.645  1.00  0.00     0.032 A 
ATOM     14  Cl  UNL A   1      36.696  19.646  24.806  1.00  0.00    -0.084 Cl
ATOM     15  C   UNL A   1      34.402  22.893  24.590  1.00  0.00     0.019 A 
ATOM     16  O   UNL A   1      32.007  23.203  24.862  1.00  0.00    -0.475 OA
ATOM     17  C   UNL A   1      34.582  24.263  24.158  1.00  0.00     0.027 C 
ATOM     18  C   UNL A   1      32.085  24.530  24.267  1.00  0.00     0.316 C 
BRANCH   9  19
ATOM     19  C   UNL A   1      33.686  18.667  24.988  1.00  0.00     0.040 C 
BRANCH  19  20
ATOM     20  C   UNL A   1      33.658  18.092  23.551  1.00  0.00    -0.013 C 
ATOM     21  C   UNL A   1      33.987  16.595  23.501  1.00  0.00     0.008 C 
ATOM     22  C   UNL A   1      32.290  18.337  22.915  1.00  0.00     0.008 C 
ENDBRANCH  19  20
ENDBRANCH   9  19
BRANCH  18  23
ATOM     23  C   UNL A   1      31.159  24.572  23.043  1.00  0.00     0.430 C 
ATOM     24  F   UNL A   1      30.574  25.787  22.911  1.00  0.00    -0.167 F 
ATOM     25  F   UNL A   1      31.831  24.333  21.894  1.00  0.00    -0.167 F 
ATOM     26  F   UNL A   1      30.168  23.654  23.132  1.00  0.00    -0.167 F 
ENDBRANCH  18  23
ENDBRANCH   6   8
ENDBRANCH   5   6
ENDBRANCH   4   5
ENDBRANCH   3   4
ENDBRANCH   2   3
ENDBRANCH   1   2
BRANCH   1  27
ATOM     27  C   UNL A   1      32.104  31.148  26.510  1.00  0.00     0.261 C 
BRANCH  27  28
ATOM     28  O   UNL A   1      33.332  30.727  27.123  1.00  0.00    -0.460 OA
BRANCH  28  29
ATOM     29  C   UNL A   1      34.059  31.732  27.677  1.00  0.00     0.338 C 
ATOM     30  O   UNL A   1      33.652  32.839  27.998  1.00  0.00    -0.246 OA
BRANCH  29  31
ATOM     31  C   UNL A   1      35.393  31.225  28.051  1.00  0.00     0.060 A 
ATOM     32  C   UNL A   1      36.457  32.094  28.292  1.00  0.00     0.016 A 
ATOM     33  C   UNL A   1      35.552  29.841  28.205  1.00  0.00     0.016 A 
ATOM     34  C   UNL A   1      37.678  31.569  28.727  1.00  0.00     0.010 A 
ATOM     35  C   UNL A   1      36.771  29.321  28.639  1.00  0.00     0.010 A 
ATOM     36  C   UNL A   1      37.837  30.184  28.930  1.00  0.00    -0.014 A 
BRANCH  36  37
ATOM     37  C   UNL A   1      39.045  29.668  29.621  1.00  0.00     0.031 A 
ATOM     38  C   UNL A   1      39.466  30.162  30.972  1.00  0.00     0.074 A 
ATOM     39  C   UNL A   1      39.792  28.749  28.977  1.00  0.00     0.049 A 
ATOM     40  N   UNL A   1      40.441  29.730  31.730  1.00  0.00    -0.248 NA
ATOM     41  C   UNL A   1      38.712  31.288  31.540  1.00  0.00     0.031 C 
ATOM     42  C   UNL A   1      39.517  28.257  27.626  1.00  0.00     0.029 A 
ATOM     43  N   UNL A   1      40.919  28.067  29.359  1.00  0.00    -0.354 N 
ATOM     44  C   UNL A   1      40.410  30.515  32.876  1.00  0.00     0.074 A 
ATOM     45  C   UNL A   1      39.352  31.486  32.687  1.00  0.00     0.031 C 
ATOM     46  C   UNL A   1      40.424  27.323  27.309  1.00  0.00     0.029 A 
ATOM     47  C   UNL A   1      41.369  27.175  28.414  1.00  0.00     0.049 A 
ATOM     48  H   UNL A   1      41.363  28.202  30.227  1.00  0.00     0.167 HD
ATOM     49  C   UNL A   1      41.179  30.411  33.987  1.00  0.00     0.034 A 
ATOM     50  C   UNL A   1      42.418  26.326  28.429  1.00  0.00     0.034 A 
ATOM     51  C   UNL A   1      42.237  29.439  34.147  1.00  0.00     0.049 A 
ATOM     52  C   UNL A   1      43.260  26.234  29.675  1.00  0.00     0.074 A 
ATOM     53  C   UNL A   1      43.022  29.211  35.264  1.00  0.00     0.029 A 
ATOM     54  N   UNL A   1      42.672  28.552  33.171  1.00  0.00    -0.354 N 
ATOM     55  N   UNL A   1      43.125  26.880  30.810  1.00  0.00    -0.248 NA
ATOM     56  C   UNL A   1      44.382  25.287  29.655  1.00  0.00     0.031 C 
ATOM     57  C   UNL A   1      43.982  28.252  34.938  1.00  0.00     0.029 A 
ATOM     58  C   UNL A   1      43.743  27.809  33.647  1.00  0.00     0.049 A 
ATOM     59  H   UNL A   1      42.278  28.463  32.273  1.00  0.00     0.167 HD
ATOM     60  C   UNL A   1      44.136  26.408  31.642  1.00  0.00     0.074 A 
ATOM     61  C   UNL A   1      44.844  25.389  30.895  1.00  0.00     0.031 C 
ATOM     62  C   UNL A   1      44.455  26.795  32.904  1.00  0.00     0.034 A 
BRANCH  49  63
ATOM     63  C   UNL A   1      40.909  31.333  35.154  1.00  0.00     0.023 A 
ATOM     64  C   UNL A   1      39.753  31.161  35.938  1.00  0.00     0.031 A 
ATOM     65  C   UNL A   1      41.696  32.478  35.375  1.00  0.00     0.131 A 
ATOM     66  C   UNL A   1      39.388  32.144  36.868  1.00  0.00     0.055 A 
ATOM     67  C   UNL A   1      41.354  33.429  36.337  1.00  0.00     0.041 A 
ATOM     68  F   UNL A   1      42.804  32.696  34.647  1.00  0.00    -0.206 F 
ATOM     69  C   UNL A   1      40.186  33.273  37.076  1.00  0.00     0.022 A 
BRANCH  66  70
ATOM     70  S   UNL A   1      37.819  32.044  37.774  1.00  0.00     0.124 S 
ATOM     71  O   UNL A   1      37.026  33.078  37.113  1.00  0.00    -0.237 OA
ATOM     72  O   UNL A   1      37.401  30.671  37.507  1.00  0.00    -0.237 OA
ATOM     73  O   UNL A   1      38.192  32.335  39.154  1.00  0.00    -0.744 OA
ENDBRANCH  66  70
ENDBRANCH  49  63
BRANCH  50  74
ATOM     74  C   UNL A   1      42.662  25.457  27.241  1.00  0.00     0.023 A 
ATOM     75  C   UNL A   1      42.127  24.157  27.177  1.00  0.00     0.031 A 
ATOM     76  C   UNL A   1      43.528  25.865  26.214  1.00  0.00     0.131 A 
ATOM     77  C   UNL A   1      42.525  23.289  26.152  1.00  0.00     0.055 A 
ATOM     78  C   UNL A   1      43.857  25.024  25.148  1.00  0.00     0.041 A 
ATOM     79  F   UNL A   1      44.079  27.088  26.239  1.00  0.00    -0.206 F 
ATOM     80  C   UNL A   1      43.370  23.720  25.126  1.00  0.00     0.022 A 
BRANCH  77  81
ATOM     81  S   UNL A   1      42.083  21.530  26.204  1.00  0.00     0.124 S 
ATOM     82  O   UNL A   1      40.695  21.551  25.753  1.00  0.00    -0.237 OA
ATOM     83  O   UNL A   1      43.043  20.956  25.264  1.00  0.00    -0.237 OA
ATOM     84  O   UNL A   1      42.289  21.164  27.601  1.00  0.00    -0.744 OA
ENDBRANCH  77  81
ENDBRANCH  50  74
BRANCH  62  85
ATOM     85  C   UNL A   1      45.642  26.142  33.581  1.00  0.00     0.023 A 
ATOM     86  C   UNL A   1      45.458  25.023  34.416  1.00  0.00     0.031 A 
ATOM     87  C   UNL A   1      46.929  26.707  33.509  1.00  0.00     0.131 A 
ATOM     88  C   UNL A   1      46.529  24.531  35.175  1.00  0.00     0.055 A 
ATOM     89  C   UNL A   1      48.007  26.176  34.219  1.00  0.00     0.041 A 
ATOM     90  F   UNL A   1      47.159  27.784  32.741  1.00  0.00    -0.206 F 
ATOM     91  C   UNL A   1      47.806  25.093  35.070  1.00  0.00     0.022 A 
BRANCH  88  92
ATOM     92  S   UNL A   1      46.289  23.210  36.395  1.00  0.00     0.124 S 
ATOM     93  O   UNL A   1      47.402  23.439  37.312  1.00  0.00    -0.237 OA
ATOM     94  O   UNL A   1      44.967  23.523  36.930  1.00  0.00    -0.237 OA
ATOM     95  O   UNL A   1      46.373  21.984  35.608  1.00  0.00    -0.744 OA
ENDBRANCH  88  92
ENDBRANCH  62  85
ENDBRANCH  36  37
ENDBRANCH  29  31
ENDBRANCH  28  29
ENDBRANCH  27  28
ENDBRANCH   1  27
TORSDOF 20
ENDMDL
MODEL 2
REMARK VINA RESULT:     -11.7      4.930     10.441
REMARK SMILES CC(C)Cc1cc2c(cc1Cl)C=C(C(=O)OCCOCCOC(=O)c1ccc(-c3c4nc(c(-c5cc(S(=O)(=O)[O-])ccc5F)c5ccc([nH]5)c(-c5cc(S(=O)(=O)[O-])ccc5F)c5nc(c(-c6cc(S(=O)(=O)[O-])ccc6F)c6ccc3[nH]6)C=C5)C=C4)cc1)[C@@H](C(F)(F)F)O2
REMARK SMILES IDX 20 1 19 2 18 3 17 4 16 5 14 6 15 7 13 8 5 9 6 10 10 11 7 12
REMARK SMILES IDX 9 13 11 14 8 15 93 16 12 17 88 18 4 19 2 20 1 21 3 22 89 23
REMARK SMILES IDX 90 24 91 25 92 26 21 27 22 28 23 29 24 30 25 31 26 32 87 33
REMARK SMILES IDX 27 34 86 35 28 36 29 37 30 38 80 39 31 40 85 41 79 42 81 43
REMARK SMILES IDX 32 44 84 45 78 46 77 47 33 49 65 50 45 51 64 52 46 53 49 54
REMARK SMILES IDX 63 55 82 56 47 57 48 58 62 60 83 61 50 62 34 63 35 64 43 65
REMARK SMILES IDX 36 66 42 67 44 68 41 69 37 70 38 71 39 72 40 73 66 74 67 75
REMARK SMILES IDX 75 76 68 77 74 78 76 79 73 80 69 81 70 82 71 83 72 84 51 85
REMARK SMILES IDX 52 86 60 87 53 88 59 89 61 90 58 91 54 92 55 93 56 94 57 95
REMARK H PARENT 81 48 49 59
REMARK Flexibility Score: inf
ROOT
ATOM      1  C   UNL A   1      36.283  20.350  25.141  1.00  0.00     0.202 C 
ENDROOT
BRANCH   1   2
ATOM      2  O   UNL A   1      35.686  21.168  26.146  1.00  0.00    -0.374 OA
BRANCH   2   3
ATOM      3  C   UNL A   1      34.943  22.315  25.746  1.00  0.00     0.202 C 
BRANCH   3   4
ATOM      4  C   UNL A   1      33.503  22.111  25.261  1.00  0.00     0.261 C 
BRANCH   4   5
ATOM      5  O   UNL A   1      32.731  23.318  25.333  1.00  0.00    -0.460 OA
BRANCH   5   6
ATOM      6  C   UNL A   1      31.832  23.461  24.334  1.00  0.00     0.338 C 
ATOM      7  O   UNL A   1      31.230  22.575  23.749  1.00  0.00    -0.246 OA
BRANCH   6   8
ATOM      8  C   UNL A   1      31.553  24.894  24.123  1.00  0.00     0.087 C 
ATOM      9  C   UNL A   1      29.196  29.082  22.786  1.00  0.00    -0.025 A 
ATOM     10  C   UNL A   1      30.550  28.735  22.961  1.00  0.00     0.052 A 
ATOM     11  C   UNL A   1      28.212  28.216  23.285  1.00  0.00     0.045 A 
ATOM     12  C   UNL A   1      30.905  27.498  23.496  1.00  0.00     0.128 A 
ATOM     13  C   UNL A   1      28.571  26.990  23.846  1.00  0.00     0.032 A 
ATOM     14  Cl  UNL A   1      26.523  28.566  23.176  1.00  0.00    -0.084 Cl
ATOM     15  C   UNL A   1      29.913  26.609  23.899  1.00  0.00     0.019 A 
ATOM     16  O   UNL A   1      32.241  27.224  23.561  1.00  0.00    -0.475 OA
ATOM     17  C   UNL A   1      30.271  25.255  24.265  1.00  0.00     0.027 C 
ATOM     18  C   UNL A   1      32.659  25.840  23.742  1.00  0.00     0.316 C 
BRANCH   9  19
ATOM     19  C   UNL A   1      28.875  30.305  21.953  1.00  0.00     0.040 C 
BRANCH  19  20
ATOM     20  C   UNL A   1      28.392  31.496  22.816  1.00  0.00    -0.013 C 
ATOM     21  C   UNL A   1      29.241  31.704  24.076  1.00  0.00     0.008 C 
ATOM     22  C   UNL A   1      28.388  32.779  21.984  1.00  0.00     0.008 C 
ENDBRANCH  19  20
ENDBRANCH   9  19
BRANCH  18  23
ATOM     23  C   UNL A   1      33.412  25.388  22.482  1.00  0.00     0.430 C 
ATOM     24  F   UNL A   1      34.369  24.478  22.782  1.00  0.00    -0.167 F 
ATOM     25  F   UNL A   1      32.585  24.807  21.584  1.00  0.00    -0.167 F 
ATOM     26  F   UNL A   1      34.021  26.425  21.862  1.00  0.00    -0.167 F 
ENDBRANCH  18  23
ENDBRANCH   6   8
ENDBRANCH   5   6
ENDBRANCH   4   5
ENDBRANCH   3   4
ENDBRANCH   2   3
ENDBRANCH   1   2
BRANCH   1  27
ATOM     27  C   UNL A   1      37.724  20.637  24.698  1.00  0.00     0.261 C 
BRANCH  27  28
ATOM     28  O   UNL A   1      38.278  21.817  25.301  1.00  0.00    -0.460 OA
BRANCH  28  29
ATOM     29  C   UNL A   1      39.343  21.587  26.112  1.00  0.00     0.338 C 
ATOM     30  O   UNL A   1      39.999  20.559  26.186  1.00  0.00    -0.246 OA
BRANCH  29  31
ATOM     31  C   UNL A   1      39.751  22.851  26.755  1.00  0.00     0.060 A 
ATOM     32  C   UNL A   1      40.781  22.886  27.694  1.00  0.00     0.016 A 
ATOM     33  C   UNL A   1      39.105  24.030  26.358  1.00  0.00     0.016 A 
ATOM     34  C   UNL A   1      41.188  24.120  28.211  1.00  0.00     0.010 A 
ATOM     35  C   UNL A   1      39.513  25.259  26.875  1.00  0.00     0.010 A 
ATOM     36  C   UNL A   1      40.577  25.317  27.787  1.00  0.00    -0.014 A 
BRANCH  36  37
ATOM     37  C   UNL A   1      41.175  26.627  28.150  1.00  0.00     0.031 A 
ATOM     38  C   UNL A   1      42.609  26.957  27.865  1.00  0.00     0.074 A 
ATOM     39  C   UNL A   1      40.392  27.519  28.788  1.00  0.00     0.049 A 
ATOM     40  N   UNL A   1      43.234  28.093  28.040  1.00  0.00    -0.248 NA
ATOM     41  C   UNL A   1      43.453  25.879  27.331  1.00  0.00     0.031 C 
ATOM     42  C   UNL A   1      39.006  27.270  29.184  1.00  0.00     0.029 A 
ATOM     43  N   UNL A   1      40.636  28.801  29.211  1.00  0.00    -0.354 N 
ATOM     44  C   UNL A   1      44.540  27.880  27.619  1.00  0.00     0.074 A 
ATOM     45  C   UNL A   1      44.631  26.487  27.233  1.00  0.00     0.031 C 
ATOM     46  C   UNL A   1      38.509  28.376  29.754  1.00  0.00     0.029 A 
ATOM     47  C   UNL A   1      39.549  29.402  29.801  1.00  0.00     0.049 A 
ATOM     48  H   UNL A   1      41.506  29.249  29.101  1.00  0.00     0.167 HD
ATOM     49  C   UNL A   1      45.556  28.774  27.544  1.00  0.00     0.034 A 
ATOM     50  C   UNL A   1      39.397  30.639  30.318  1.00  0.00     0.034 A 
ATOM     51  C   UNL A   1      45.443  30.157  27.946  1.00  0.00     0.049 A 
ATOM     52  C   UNL A   1      40.543  31.612  30.225  1.00  0.00     0.074 A 
ATOM     53  C   UNL A   1      46.396  31.156  27.839  1.00  0.00     0.029 A 
ATOM     54  N   UNL A   1      44.331  30.736  28.545  1.00  0.00    -0.354 N 
ATOM     55  N   UNL A   1      41.729  31.439  29.688  1.00  0.00    -0.248 NA
ATOM     56  C   UNL A   1      40.331  32.951  30.787  1.00  0.00     0.031 C 
ATOM     57  C   UNL A   1      45.896  32.309  28.447  1.00  0.00     0.029 A 
ATOM     58  C   UNL A   1      44.594  32.064  28.852  1.00  0.00     0.049 A 
ATOM     59  H   UNL A   1      43.482  30.272  28.724  1.00  0.00     0.167 HD
ATOM     60  C   UNL A   1      42.397  32.651  29.836  1.00  0.00     0.074 A 
ATOM     61  C   UNL A   1      41.466  33.561  30.471  1.00  0.00     0.031 C 
ATOM     62  C   UNL A   1      43.670  32.974  29.490  1.00  0.00     0.034 A 
BRANCH  49  63
ATOM     63  C   UNL A   1      46.883  28.329  26.974  1.00  0.00     0.023 A 
ATOM     64  C   UNL A   1      47.060  28.238  25.581  1.00  0.00     0.031 A 
ATOM     65  C   UNL A   1      47.902  27.829  27.806  1.00  0.00     0.131 A 
ATOM     66  C   UNL A   1      48.202  27.613  25.062  1.00  0.00     0.055 A 
ATOM     67  C   UNL A   1      49.060  27.253  27.282  1.00  0.00     0.041 A 
ATOM     68  F   UNL A   1      47.780  27.882  29.142  1.00  0.00    -0.206 F 
ATOM     69  C   UNL A   1      49.206  27.127  25.904  1.00  0.00     0.022 A 
BRANCH  66  70
ATOM     70  S   UNL A   1      48.387  27.323  23.280  1.00  0.00     0.124 S 
ATOM     71  O   UNL A   1      49.765  27.753  23.049  1.00  0.00    -0.237 OA
ATOM     72  O   UNL A   1      48.158  25.885  23.180  1.00  0.00    -0.237 OA
ATOM     73  O   UNL A   1      47.363  28.171  22.678  1.00  0.00    -0.744 OA
ENDBRANCH  66  70
ENDBRANCH  49  63
BRANCH  50  74
ATOM     74  C   UNL A   1      38.076  31.023  30.898  1.00  0.00     0.023 A 
ATOM     75  C   UNL A   1      37.094  31.641  30.103  1.00  0.00     0.031 A 
ATOM     76  C   UNL A   1      37.824  30.887  32.272  1.00  0.00     0.131 A 
ATOM     77  C   UNL A   1      35.943  32.170  30.702  1.00  0.00     0.055 A 
ATOM     78  C   UNL A   1      36.637  31.341  32.853  1.00  0.00     0.041 A 
ATOM     79  F   UNL A   1      38.737  30.321  33.076  1.00  0.00    -0.206 F 
ATOM     80  C   UNL A   1      35.699  32.006  32.069  1.00  0.00     0.022 A 
BRANCH  77  81
ATOM     81  S   UNL A   1      34.804  33.221  29.757  1.00  0.00     0.124 S 
ATOM     82  O   UNL A   1      34.012  33.839  30.814  1.00  0.00    -0.237 OA
ATOM     83  O   UNL A   1      35.732  34.109  29.060  1.00  0.00    -0.237 OA
ATOM     84  O   UNL A   1      34.093  32.275  28.903  1.00  0.00    -0.744 OA
ENDBRANCH  77  81
ENDBRANCH  50  74
BRANCH  62  85
ATOM     85  C   UNL A   1      44.171  34.368  29.800  1.00  0.00     0.023 A 
ATOM     86  C   UNL A   1      44.079  35.389  28.835  1.00  0.00     0.031 A 
ATOM     87  C   UNL A   1      44.859  34.650  30.995  1.00  0.00     0.131 A 
ATOM     88  C   UNL A   1      44.699  36.626  29.062  1.00  0.00     0.055 A 
ATOM     89  C   UNL A   1      45.422  35.903  31.242  1.00  0.00     0.041 A 
ATOM     90  F   UNL A   1      44.991  33.710  31.944  1.00  0.00    -0.206 F 
ATOM     91  C   UNL A   1      45.358  36.893  30.266  1.00  0.00     0.022 A 
BRANCH  88  92
ATOM     92  S   UNL A   1      44.758  37.900  27.770  1.00  0.00     0.124 S 
ATOM     93  O   UNL A   1      44.690  39.129  28.555  1.00  0.00    -0.237 OA
ATOM     94  O   UNL A   1      46.047  37.635  27.138  1.00  0.00    -0.237 OA
ATOM     95  O   UNL A   1      43.586  37.621  26.947  1.00  0.00    -0.744 OA
ENDBRANCH  88  92
ENDBRANCH  62  85
ENDBRANCH  36  37
ENDBRANCH  29  31
ENDBRANCH  28  29
ENDBRANCH  27  28
ENDBRANCH   1  27
TORSDOF 20
ENDMDL
MODEL 3
REMARK VINA RESULT:     -11.6      1.058      7.437
REMARK SMILES CC(C)Cc1cc2c(cc1Cl)C=C(C(=O)OCCOCCOC(=O)c1ccc(-c3c4nc(c(-c5cc(S(=O)(=O)[O-])ccc5F)c5ccc([nH]5)c(-c5cc(S(=O)(=O)[O-])ccc5F)c5nc(c(-c6cc(S(=O)(=O)[O-])ccc6F)c6ccc3[nH]6)C=C5)C=C4)cc1)[C@@H](C(F)(F)F)O2
REMARK SMILES IDX 20 1 19 2 18 3 17 4 16 5 14 6 15 7 13 8 5 9 6 10 10 11 7 12
REMARK SMILES IDX 9 13 11 14 8 15 93 16 12 17 88 18 4 19 2 20 1 21 3 22 89 23
REMARK SMILES IDX 90 24 91 25 92 26 21 27 22 28 23 29 24 30 25 31 26 32 87 33
REMARK SMILES IDX 27 34 86 35 28 36 29 37 30 38 80 39 31 40 85 41 79 42 81 43
REMARK SMILES IDX 32 44 84 45 78 46 77 47 33 49 65 50 45 51 64 52 46 53 49 54
REMARK SMILES IDX 63 55 82 56 47 57 48 58 62 60 83 61 50 62 34 63 35 64 43 65
REMARK SMILES IDX 36 66 42 67 44 68 41 69 37 70 38 71 39 72 40 73 66 74 67 75
REMARK SMILES IDX 75 76 68 77 74 78 76 79 73 80 69 81 70 82 71 83 72 84 51 85
REMARK SMILES IDX 52 86 60 87 53 88 59 89 61 90 58 91 54 92 55 93 56 94 57 95
REMARK H PARENT 81 48 49 59
REMARK Flexibility Score: inf
ROOT
ATOM      1  C   UNL A   1      31.066  31.902  26.302  1.00  0.00     0.202 C 
ENDROOT
BRANCH   1   2
ATOM      2  O   UNL A   1      31.515  30.570  26.545  1.00  0.00    -0.374 OA
BRANCH   2   3
ATOM      3  C   UNL A   1      32.342  29.936  25.573  1.00  0.00     0.202 C 
BRANCH   3   4
ATOM      4  C   UNL A   1      31.769  28.739  24.807  1.00  0.00     0.261 C 
BRANCH   4   5
ATOM      5  O   UNL A   1      32.261  27.489  25.309  1.00  0.00    -0.460 OA
BRANCH   5   6
ATOM      6  C   UNL A   1      33.098  26.843  24.466  1.00  0.00     0.338 C 
ATOM      7  O   UNL A   1      33.852  27.344  23.648  1.00  0.00    -0.246 OA
BRANCH   6   8
ATOM      8  C   UNL A   1      33.086  25.400  24.769  1.00  0.00     0.087 C 
ATOM      9  C   UNL A   1      34.462  20.607  24.895  1.00  0.00    -0.025 A 
ATOM     10  C   UNL A   1      33.227  21.273  25.010  1.00  0.00     0.052 A 
ATOM     11  C   UNL A   1      35.642  21.361  24.994  1.00  0.00     0.045 A 
ATOM     12  C   UNL A   1      33.170  22.663  25.083  1.00  0.00     0.128 A 
ATOM     13  C   UNL A   1      35.583  22.751  25.097  1.00  0.00     0.032 A 
ATOM     14  Cl  UNL A   1      37.212  20.643  24.924  1.00  0.00    -0.084 Cl
ATOM     15  C   UNL A   1      34.349  23.404  25.084  1.00  0.00     0.019 A 
ATOM     16  O   UNL A   1      31.925  23.222  25.120  1.00  0.00    -0.475 OA
ATOM     17  C   UNL A   1      34.289  24.845  24.959  1.00  0.00     0.027 C 
ATOM     18  C   UNL A   1      31.788  24.640  24.815  1.00  0.00     0.316 C 
BRANCH   9  19
ATOM     19  C   UNL A   1      34.450  19.136  24.540  1.00  0.00     0.040 C 
BRANCH  19  20
ATOM     20  C   UNL A   1      33.015  18.588  24.348  1.00  0.00    -0.013 C 
ATOM     21  C   UNL A   1      32.862  17.749  23.073  1.00  0.00     0.008 C 
ATOM     22  C   UNL A   1      32.604  17.754  25.562  1.00  0.00     0.008 C 
ENDBRANCH  19  20
ENDBRANCH   9  19
BRANCH  18  23
ATOM     23  C   UNL A   1      30.975  24.785  23.521  1.00  0.00     0.430 C 
ATOM     24  F   UNL A   1      30.126  25.839  23.591  1.00  0.00    -0.167 F 
ATOM     25  F   UNL A   1      31.770  24.992  22.447  1.00  0.00    -0.167 F 
ATOM     26  F   UNL A   1      30.230  23.684  23.270  1.00  0.00    -0.167 F 
ENDBRANCH  18  23
ENDBRANCH   6   8
ENDBRANCH   5   6
ENDBRANCH   4   5
ENDBRANCH   3   4
ENDBRANCH   2   3
ENDBRANCH   1   2
BRANCH   1  27
ATOM     27  C   UNL A   1      31.882  33.081  26.850  1.00  0.00     0.261 C 
BRANCH  27  28
ATOM     28  O   UNL A   1      32.920  32.679  27.756  1.00  0.00    -0.460 OA
BRANCH  28  29
ATOM     29  C   UNL A   1      33.985  33.521  27.802  1.00  0.00     0.338 C 
ATOM     30  O   UNL A   1      33.958  34.741  27.720  1.00  0.00    -0.246 OA
BRANCH  29  31
ATOM     31  C   UNL A   1      35.191  32.767  28.191  1.00  0.00     0.060 A 
ATOM     32  C   UNL A   1      36.431  33.395  28.312  1.00  0.00     0.016 A 
ATOM     33  C   UNL A   1      35.049  31.404  28.486  1.00  0.00     0.016 A 
ATOM     34  C   UNL A   1      37.526  32.654  28.767  1.00  0.00     0.010 A 
ATOM     35  C   UNL A   1      36.143  30.668  28.939  1.00  0.00     0.010 A 
ATOM     36  C   UNL A   1      37.386  31.294  29.109  1.00  0.00    -0.014 A 
BRANCH  36  37
ATOM     37  C   UNL A   1      38.484  30.589  29.819  1.00  0.00     0.031 A 
ATOM     38  C   UNL A   1      39.286  29.502  29.171  1.00  0.00     0.074 A 
ATOM     39  C   UNL A   1      38.725  30.933  31.099  1.00  0.00     0.049 A 
ATOM     40  N   UNL A   1      40.332  28.872  29.639  1.00  0.00    -0.248 NA
ATOM     41  C   UNL A   1      38.857  29.053  27.839  1.00  0.00     0.031 C 
ATOM     42  C   UNL A   1      37.953  31.923  31.852  1.00  0.00     0.029 A 
ATOM     43  N   UNL A   1      39.675  30.503  31.991  1.00  0.00    -0.354 N 
ATOM     44  C   UNL A   1      40.705  27.965  28.656  1.00  0.00     0.074 A 
ATOM     45  C   UNL A   1      39.735  28.089  27.587  1.00  0.00     0.031 C 
ATOM     46  C   UNL A   1      38.484  32.054  33.074  1.00  0.00     0.029 A 
ATOM     47  C   UNL A   1      39.610  31.133  33.211  1.00  0.00     0.049 A 
ATOM     48  H   UNL A   1      40.341  29.810  31.777  1.00  0.00     0.167 HD
ATOM     49  C   UNL A   1      41.771  27.128  28.644  1.00  0.00     0.034 A 
ATOM     50  C   UNL A   1      40.370  30.995  34.317  1.00  0.00     0.034 A 
ATOM     51  C   UNL A   1      42.718  27.014  29.729  1.00  0.00     0.049 A 
ATOM     52  C   UNL A   1      41.547  30.054  34.279  1.00  0.00     0.074 A 
ATOM     53  C   UNL A   1      43.869  26.246  29.778  1.00  0.00     0.029 A 
ATOM     54  N   UNL A   1      42.624  27.662  30.954  1.00  0.00    -0.354 N 
ATOM     55  N   UNL A   1      41.974  29.311  33.285  1.00  0.00    -0.248 NA
ATOM     56  C   UNL A   1      42.355  29.945  35.499  1.00  0.00     0.031 C 
ATOM     57  C   UNL A   1      44.421  26.361  31.055  1.00  0.00     0.029 A 
ATOM     58  C   UNL A   1      43.671  27.274  31.779  1.00  0.00     0.049 A 
ATOM     59  H   UNL A   1      41.917  28.301  31.201  1.00  0.00     0.167 HD
ATOM     60  C   UNL A   1      43.108  28.657  33.756  1.00  0.00     0.074 A 
ATOM     61  C   UNL A   1      43.326  29.129  35.108  1.00  0.00     0.031 C 
ATOM     62  C   UNL A   1      43.889  27.739  33.129  1.00  0.00     0.034 A 
BRANCH  49  63
ATOM     63  C   UNL A   1      42.023  26.280  27.419  1.00  0.00     0.023 A 
ATOM     64  C   UNL A   1      41.668  24.918  27.415  1.00  0.00     0.031 A 
ATOM     65  C   UNL A   1      42.769  26.773  26.332  1.00  0.00     0.131 A 
ATOM     66  C   UNL A   1      42.104  24.085  26.376  1.00  0.00     0.055 A 
ATOM     67  C   UNL A   1      43.158  25.949  25.275  1.00  0.00     0.041 A 
ATOM     68  F   UNL A   1      43.143  28.062  26.290  1.00  0.00    -0.206 F 
ATOM     69  C   UNL A   1      42.841  24.595  25.303  1.00  0.00     0.022 A 
BRANCH  66  70
ATOM     70  S   UNL A   1      41.814  22.294  26.422  1.00  0.00     0.124 S 
ATOM     71  O   UNL A   1      42.185  21.967  27.797  1.00  0.00    -0.237 OA
ATOM     72  O   UNL A   1      40.387  22.210  26.124  1.00  0.00    -0.237 OA
ATOM     73  O   UNL A   1      42.708  21.768  25.396  1.00  0.00    -0.744 OA
ENDBRANCH  66  70
ENDBRANCH  49  63
BRANCH  50  74
ATOM     74  C   UNL A   1      40.064  31.833  35.514  1.00  0.00     0.023 A 
ATOM     75  C   UNL A   1      39.145  31.393  36.485  1.00  0.00     0.031 A 
ATOM     76  C   UNL A   1      40.590  33.129  35.642  1.00  0.00     0.131 A 
ATOM     77  C   UNL A   1      38.723  32.270  37.493  1.00  0.00     0.055 A 
ATOM     78  C   UNL A   1      40.229  33.970  36.697  1.00  0.00     0.041 A 
ATOM     79  F   UNL A   1      41.455  33.601  34.732  1.00  0.00    -0.206 F 
ATOM     80  C   UNL A   1      39.274  33.548  37.617  1.00  0.00     0.022 A 
BRANCH  77  81
ATOM     81  S   UNL A   1      37.335  31.835  38.578  1.00  0.00     0.124 S 
ATOM     82  O   UNL A   1      37.923  31.995  39.904  1.00  0.00    -0.237 OA
ATOM     83  O   UNL A   1      36.341  32.838  38.202  1.00  0.00    -0.237 OA
ATOM     84  O   UNL A   1      37.011  30.466  38.190  1.00  0.00    -0.744 OA
ENDBRANCH  77  81
ENDBRANCH  50  74
BRANCH  62  85
ATOM     85  C   UNL A   1      45.056  27.144  33.888  1.00  0.00     0.023 A 
ATOM     86  C   UNL A   1      44.865  26.031  34.730  1.00  0.00     0.031 A 
ATOM     87  C   UNL A   1      46.322  27.759  33.885  1.00  0.00     0.131 A 
ATOM     88  C   UNL A   1      45.906  25.594  35.560  1.00  0.00     0.055 A 
ATOM     89  C   UNL A   1      47.374  27.282  34.669  1.00  0.00     0.041 A 
ATOM     90  F   UNL A   1      46.556  28.833  33.114  1.00  0.00    -0.206 F 
ATOM     91  C   UNL A   1      47.164  26.205  35.524  1.00  0.00     0.022 A 
BRANCH  88  92
ATOM     92  S   UNL A   1      45.644  24.282  36.787  1.00  0.00     0.124 S 
ATOM     93  O   UNL A   1      44.636  24.880  37.658  1.00  0.00    -0.237 OA
ATOM     94  O   UNL A   1      45.173  23.177  35.957  1.00  0.00    -0.237 OA
ATOM     95  O   UNL A   1      46.959  24.097  37.391  1.00  0.00    -0.744 OA
ENDBRANCH  88  92
ENDBRANCH  62  85
ENDBRANCH  36  37
ENDBRANCH  29  31
ENDBRANCH  28  29
ENDBRANCH  27  28
ENDBRANCH   1  27
TORSDOF 20
ENDMDL
