MODEL 1
REMARK VINA RESULT:      -7.8      0.000      0.000
REMARK SMILES COc1ccc(-c2ccc(/C=C3\SC(=S)N([C@H](Cc4ccccc4)C(=O)OCCOCCOC(=O)c4ccc(-c5c6nc(c(-c7cc(S(=O)(=O)[O-])ccc7F)c7ccc([nH]7)c(-c7cc(S(=O)(=O)[O-])ccc7F)c7nc(c(-c8cc(S(=O)(=O)[O-])ccc8F)c8ccc5[nH]8)C=C7)C=C6)cc4)C3=O)o2)cc1
REMARK SMILES IDX 29 1 28 2 27 3 25 4 26 5 17 6 16 7 11 8 12 9 13 10 99 11
REMARK SMILES IDX 14 12 100 13 15 14 10 15 7 16 8 17 101 18 9 19 6 20 3 21
REMARK SMILES IDX 4 22 103 23 5 24 102 25 2 26 1 27 18 28 19 29 20 30 24 31
REMARK SMILES IDX 21 32 23 33 22 34 30 35 31 36 32 37 33 38 34 39 35 40 36 41
REMARK SMILES IDX 37 42 98 43 38 44 97 45 39 46 40 47 41 48 91 49 42 50 96 51
REMARK SMILES IDX 90 52 92 53 43 54 95 55 89 56 88 57 44 59 76 60 56 61 75 62
REMARK SMILES IDX 57 63 60 64 74 65 93 66 58 67 59 68 73 70 94 71 61 72 45 73
REMARK SMILES IDX 46 74 54 75 47 76 53 77 55 78 52 79 48 80 49 81 50 82 51 83
REMARK SMILES IDX 77 84 78 85 86 86 79 87 85 88 87 89 84 90 80 91 81 92 82 93
REMARK SMILES IDX 83 94 62 95 63 96 71 97 64 98 70 99 72 100 69 101 65 102
REMARK SMILES IDX 66 103 67 104 68 105
REMARK H PARENT 92 58 60 69
REMARK Flexibility Score: inf
ROOT
ATOM      1  C   UNL A   1      48.825  45.614  23.447  1.00  0.00     0.202 C 
ENDROOT
BRANCH   1   2
ATOM      2  C   UNL A   1      48.349  46.362  22.206  1.00  0.00     0.261 C 
BRANCH   2   3
ATOM      3  O   UNL A   1      46.990  46.005  21.921  1.00  0.00    -0.462 OA
BRANCH   3   4
ATOM      4  C   UNL A   1      46.735  45.605  20.657  1.00  0.00     0.329 C 
ATOM      5  O   UNL A   1      47.407  45.903  19.673  1.00  0.00    -0.250 OA
BRANCH   4   6
ATOM      6  C   UNL A   1      45.452  44.787  20.533  1.00  0.00     0.206 C 
BRANCH   6   7
ATOM      7  N   UNL A   1      45.468  43.821  21.633  1.00  0.00    -0.278 N 
ATOM      8  C   UNL A   1      43.846  43.004  24.684  1.00  0.00     0.068 C 
ATOM      9  C   UNL A   1      44.648  42.922  23.622  1.00  0.00     0.084 C 
ATOM     10  S   UNL A   1      46.031  41.960  23.316  1.00  0.00    -0.054 SA
ATOM     11  C   UNL A   1      44.356  43.761  22.451  1.00  0.00     0.267 C 
ATOM     12  C   UNL A   1      46.410  42.839  21.836  1.00  0.00     0.149 C 
ATOM     13  O   UNL A   1      43.252  44.226  22.217  1.00  0.00    -0.268 OA
ATOM     14  S   UNL A   1      47.758  42.482  20.923  1.00  0.00    -0.052 S 
BRANCH   8  15
ATOM     15  C   UNL A   1      43.957  42.161  25.806  1.00  0.00     0.128 A 
ATOM     16  C   UNL A   1      44.142  41.704  27.959  1.00  0.00     0.134 A 
ATOM     17  C   UNL A   1      44.001  40.490  27.329  1.00  0.00     0.051 A 
ATOM     18  O   UNL A   1      44.152  42.701  27.045  1.00  0.00    -0.457 OA
ATOM     19  C   UNL A   1      43.884  40.781  25.948  1.00  0.00     0.051 A 
BRANCH  16  20
ATOM     20  C   UNL A   1      44.260  42.142  29.332  1.00  0.00     0.017 A 
ATOM     21  C   UNL A   1      44.539  42.961  31.997  1.00  0.00     0.118 A 
ATOM     22  C   UNL A   1      44.194  41.642  31.704  1.00  0.00     0.047 A 
ATOM     23  C   UNL A   1      44.738  43.873  30.959  1.00  0.00     0.047 A 
ATOM     24  C   UNL A   1      44.040  41.238  30.379  1.00  0.00     0.016 A 
ATOM     25  C   UNL A   1      44.604  43.462  29.630  1.00  0.00     0.016 A 
BRANCH  21  26
ATOM     26  O   UNL A   1      44.707  43.239  33.325  1.00  0.00    -0.497 OA
ATOM     27  C   UNL A   1      45.938  43.871  33.658  1.00  0.00     0.278 C 
ENDBRANCH  21  26
ENDBRANCH  16  20
ENDBRANCH   8  15
ENDBRANCH   6   7
BRANCH   6  28
ATOM     28  C   UNL A   1      44.977  44.235  19.164  1.00  0.00     0.073 C 
BRANCH  28  29
ATOM     29  C   UNL A   1      43.532  44.384  18.756  1.00  0.00    -0.045 A 
ATOM     30  C   UNL A   1      42.597  43.391  19.076  1.00  0.00     0.004 A 
ATOM     31  C   UNL A   1      43.088  45.536  18.087  1.00  0.00     0.004 A 
ATOM     32  C   UNL A   1      41.244  43.576  18.792  1.00  0.00     0.000 A 
ATOM     33  C   UNL A   1      41.733  45.712  17.798  1.00  0.00     0.000 A 
ATOM     34  C   UNL A   1      40.810  44.735  18.160  1.00  0.00     0.000 A 
ENDBRANCH  28  29
ENDBRANCH   6  28
ENDBRANCH   4   6
ENDBRANCH   3   4
ENDBRANCH   2   3
ENDBRANCH   1   2
BRANCH   1  35
ATOM     35  O   UNL A   1      49.381  46.424  24.483  1.00  0.00    -0.374 OA
BRANCH  35  36
ATOM     36  C   UNL A   1      49.150  46.023  25.833  1.00  0.00     0.202 C 
BRANCH  36  37
ATOM     37  C   UNL A   1      50.382  45.792  26.718  1.00  0.00     0.261 C 
BRANCH  37  38
ATOM     38  O   UNL A   1      50.079  45.030  27.901  1.00  0.00    -0.460 OA
BRANCH  38  39
ATOM     39  C   UNL A   1      50.828  43.910  28.068  1.00  0.00     0.338 C 
ATOM     40  O   UNL A   1      52.039  43.817  27.941  1.00  0.00    -0.246 OA
BRANCH  39  41
ATOM     41  C   UNL A   1      49.997  42.836  28.650  1.00  0.00     0.060 A 
ATOM     42  C   UNL A   1      48.618  43.063  28.771  1.00  0.00     0.016 A 
ATOM     43  C   UNL A   1      50.561  41.652  29.123  1.00  0.00     0.016 A 
ATOM     44  C   UNL A   1      47.802  42.121  29.401  1.00  0.00     0.010 A 
ATOM     45  C   UNL A   1      49.743  40.715  29.764  1.00  0.00     0.010 A 
ATOM     46  C   UNL A   1      48.366  40.956  29.935  1.00  0.00    -0.014 A 
BRANCH  46  47
ATOM     47  C   UNL A   1      47.578  40.086  30.846  1.00  0.00     0.031 A 
ATOM     48  C   UNL A   1      46.712  39.020  30.228  1.00  0.00     0.074 A 
ATOM     49  C   UNL A   1      47.617  40.229  32.183  1.00  0.00     0.049 A 
ATOM     50  N   UNL A   1      45.815  38.248  30.782  1.00  0.00    -0.248 NA
ATOM     51  C   UNL A   1      46.875  38.812  28.779  1.00  0.00     0.031 C 
ATOM     52  C   UNL A   1      48.465  41.171  32.911  1.00  0.00     0.029 A 
ATOM     53  N   UNL A   1      46.907  39.586  33.170  1.00  0.00    -0.354 N 
ATOM     54  C   UNL A   1      45.285  37.483  29.747  1.00  0.00     0.074 A 
ATOM     55  C   UNL A   1      45.941  37.907  28.530  1.00  0.00     0.031 C 
ATOM     56  C   UNL A   1      48.214  41.057  34.228  1.00  0.00     0.029 A 
ATOM     57  C   UNL A   1      47.149  40.076  34.435  1.00  0.00     0.049 A 
ATOM     58  H   UNL A   1      46.284  38.846  32.990  1.00  0.00     0.167 HD
ATOM     59  C   UNL A   1      44.341  36.513  29.809  1.00  0.00     0.034 A 
ATOM     60  C   UNL A   1      46.550  39.794  35.612  1.00  0.00     0.034 A 
ATOM     61  C   UNL A   1      43.703  36.093  31.031  1.00  0.00     0.049 A 
ATOM     62  C   UNL A   1      45.429  38.775  35.644  1.00  0.00     0.074 A 
ATOM     63  C   UNL A   1      42.746  35.110  31.207  1.00  0.00     0.029 A 
ATOM     64  N   UNL A   1      43.950  36.638  32.284  1.00  0.00    -0.354 N 
ATOM     65  N   UNL A   1      44.922  38.071  34.657  1.00  0.00    -0.248 NA
ATOM     66  C   UNL A   1      44.800  38.513  36.947  1.00  0.00     0.031 C 
ATOM     67  C   UNL A   1      42.357  35.114  32.550  1.00  0.00     0.029 A 
ATOM     68  C   UNL A   1      43.139  36.033  33.231  1.00  0.00     0.049 A 
ATOM     69  H   UNL A   1      44.605  37.348  32.472  1.00  0.00     0.167 HD
ATOM     70  C   UNL A   1      43.949  37.254  35.232  1.00  0.00     0.074 A 
ATOM     71  C   UNL A   1      43.938  37.552  36.648  1.00  0.00     0.031 C 
ATOM     72  C   UNL A   1      43.145  36.332  34.644  1.00  0.00     0.034 A 
BRANCH  59  73
ATOM     73  C   UNL A   1      43.903  35.884  28.509  1.00  0.00     0.023 A 
ATOM     74  C   UNL A   1      44.458  34.683  28.038  1.00  0.00     0.031 A 
ATOM     75  C   UNL A   1      42.927  36.515  27.716  1.00  0.00     0.131 A 
ATOM     76  C   UNL A   1      44.084  34.187  26.780  1.00  0.00     0.055 A 
ATOM     77  C   UNL A   1      42.498  35.970  26.505  1.00  0.00     0.041 A 
ATOM     78  F   UNL A   1      42.380  37.679  28.101  1.00  0.00    -0.206 F 
ATOM     79  C   UNL A   1      43.088  34.806  26.023  1.00  0.00     0.022 A 
BRANCH  76  80
ATOM     80  S   UNL A   1      45.022  32.800  26.084  1.00  0.00     0.124 S 
ATOM     81  O   UNL A   1      44.644  31.708  26.979  1.00  0.00    -0.237 OA
ATOM     82  O   UNL A   1      44.503  32.718  24.723  1.00  0.00    -0.237 OA
ATOM     83  O   UNL A   1      46.413  33.235  26.197  1.00  0.00    -0.744 OA
ENDBRANCH  76  80
ENDBRANCH  59  73
BRANCH  60  84
ATOM     84  C   UNL A   1      46.939  40.521  36.858  1.00  0.00     0.023 A 
ATOM     85  C   UNL A   1      46.471  41.819  37.119  1.00  0.00     0.031 A 
ATOM     86  C   UNL A   1      47.848  39.956  37.771  1.00  0.00     0.131 A 
ATOM     87  C   UNL A   1      46.956  42.529  38.230  1.00  0.00     0.055 A 
ATOM     88  C   UNL A   1      48.277  40.641  38.909  1.00  0.00     0.041 A 
ATOM     89  F   UNL A   1      48.339  38.723  37.566  1.00  0.00    -0.206 F 
ATOM     90  C   UNL A   1      47.842  41.943  39.136  1.00  0.00     0.022 A 
BRANCH  87  91
ATOM     91  S   UNL A   1      46.502  44.278  38.411  1.00  0.00     0.124 S 
ATOM     92  O   UNL A   1      46.337  44.685  37.021  1.00  0.00    -0.237 OA
ATOM     93  O   UNL A   1      45.281  44.193  39.205  1.00  0.00    -0.237 OA
ATOM     94  O   UNL A   1      47.653  44.858  39.099  1.00  0.00    -0.744 OA
ENDBRANCH  87  91
ENDBRANCH  60  84
BRANCH  72  95
ATOM     95  C   UNL A   1      42.238  35.516  35.534  1.00  0.00     0.023 A 
ATOM     96  C   UNL A   1      42.630  34.278  36.071  1.00  0.00     0.031 A 
ATOM     97  C   UNL A   1      40.971  36.019  35.884  1.00  0.00     0.131 A 
ATOM     98  C   UNL A   1      41.748  33.570  36.905  1.00  0.00     0.055 A 
ATOM     99  C   UNL A   1      40.123  35.337  36.756  1.00  0.00     0.041 A 
ATOM    100  F   UNL A   1      40.547  37.197  35.398  1.00  0.00    -0.206 F 
ATOM    101  C   UNL A   1      40.507  34.102  37.266  1.00  0.00     0.022 A 
BRANCH  98 102
ATOM    102  S   UNL A   1      42.219  31.912  37.472  1.00  0.00     0.124 S 
ATOM    103  O   UNL A   1      43.644  31.877  37.159  1.00  0.00    -0.237 OA
ATOM    104  O   UNL A   1      41.877  31.957  38.890  1.00  0.00    -0.237 OA
ATOM    105  O   UNL A   1      41.385  31.023  36.664  1.00  0.00    -0.744 OA
ENDBRANCH  98 102
ENDBRANCH  72  95
ENDBRANCH  46  47
ENDBRANCH  39  41
ENDBRANCH  38  39
ENDBRANCH  37  38
ENDBRANCH  36  37
ENDBRANCH  35  36
ENDBRANCH   1  35
TORSDOF 23
ENDMDL
MODEL 2
REMARK VINA RESULT:      -7.6      8.045     15.812
REMARK SMILES COc1ccc(-c2ccc(/C=C3\SC(=S)N([C@H](Cc4ccccc4)C(=O)OCCOCCOC(=O)c4ccc(-c5c6nc(c(-c7cc(S(=O)(=O)[O-])ccc7F)c7ccc([nH]7)c(-c7cc(S(=O)(=O)[O-])ccc7F)c7nc(c(-c8cc(S(=O)(=O)[O-])ccc8F)c8ccc5[nH]8)C=C7)C=C6)cc4)C3=O)o2)cc1
REMARK SMILES IDX 29 1 28 2 27 3 25 4 26 5 17 6 16 7 11 8 12 9 13 10 99 11
REMARK SMILES IDX 14 12 100 13 15 14 10 15 7 16 8 17 101 18 9 19 6 20 3 21
REMARK SMILES IDX 4 22 103 23 5 24 102 25 2 26 1 27 18 28 19 29 20 30 24 31
REMARK SMILES IDX 21 32 23 33 22 34 30 35 31 36 32 37 33 38 34 39 35 40 36 41
REMARK SMILES IDX 37 42 98 43 38 44 97 45 39 46 40 47 41 48 91 49 42 50 96 51
REMARK SMILES IDX 90 52 92 53 43 54 95 55 89 56 88 57 44 59 76 60 56 61 75 62
REMARK SMILES IDX 57 63 60 64 74 65 93 66 58 67 59 68 73 70 94 71 61 72 45 73
REMARK SMILES IDX 46 74 54 75 47 76 53 77 55 78 52 79 48 80 49 81 50 82 51 83
REMARK SMILES IDX 77 84 78 85 86 86 79 87 85 88 87 89 84 90 80 91 81 92 82 93
REMARK SMILES IDX 83 94 62 95 63 96 71 97 64 98 70 99 72 100 69 101 65 102
REMARK SMILES IDX 66 103 67 104 68 105
REMARK H PARENT 92 58 60 69
REMARK Flexibility Score: inf
ROOT
ATOM      1  C   UNL A   1      44.627  26.227  32.219  1.00  0.00     0.202 C 
ENDROOT
BRANCH   1   2
ATOM      2  C   UNL A   1      44.693  26.206  30.696  1.00  0.00     0.261 C 
BRANCH   2   3
ATOM      3  O   UNL A   1      43.411  25.846  30.164  1.00  0.00    -0.462 OA
BRANCH   3   4
ATOM      4  C   UNL A   1      43.403  24.831  29.274  1.00  0.00     0.329 C 
ATOM      5  O   UNL A   1      43.743  23.677  29.517  1.00  0.00    -0.250 OA
BRANCH   4   6
ATOM      6  C   UNL A   1      42.996  25.269  27.869  1.00  0.00     0.206 C 
BRANCH   6   7
ATOM      7  N   UNL A   1      41.632  24.782  27.660  1.00  0.00    -0.278 N 
ATOM      8  C   UNL A   1      39.773  22.223  26.047  1.00  0.00     0.068 C 
ATOM      9  C   UNL A   1      40.072  23.267  26.821  1.00  0.00     0.084 C 
ATOM     10  S   UNL A   1      39.082  24.470  27.533  1.00  0.00    -0.054 SA
ATOM     11  C   UNL A   1      41.475  23.491  27.194  1.00  0.00     0.267 C 
ATOM     12  C   UNL A   1      40.476  25.420  28.046  1.00  0.00     0.149 C 
ATOM     13  O   UNL A   1      42.321  22.612  27.183  1.00  0.00    -0.268 OA
ATOM     14  S   UNL A   1      40.302  26.881  28.829  1.00  0.00    -0.052 S 
BRANCH   8  15
ATOM     15  C   UNL A   1      38.455  21.842  25.732  1.00  0.00     0.128 A 
ATOM     16  C   UNL A   1      36.281  22.153  25.494  1.00  0.00     0.134 A 
ATOM     17  C   UNL A   1      36.532  20.883  25.029  1.00  0.00     0.051 A 
ATOM     18  O   UNL A   1      37.426  22.713  25.949  1.00  0.00    -0.457 OA
ATOM     19  C   UNL A   1      37.925  20.682  25.183  1.00  0.00     0.051 A 
BRANCH  16  20
ATOM     20  C   UNL A   1      35.114  23.002  25.588  1.00  0.00     0.017 A 
ATOM     21  C   UNL A   1      32.851  24.636  25.826  1.00  0.00     0.118 A 
ATOM     22  C   UNL A   1      32.726  23.251  25.923  1.00  0.00     0.047 A 
ATOM     23  C   UNL A   1      34.107  25.205  25.604  1.00  0.00     0.047 A 
ATOM     24  C   UNL A   1      33.849  22.436  25.789  1.00  0.00     0.016 A 
ATOM     25  C   UNL A   1      35.236  24.390  25.490  1.00  0.00     0.016 A 
BRANCH  21  26
ATOM     26  O   UNL A   1      31.696  25.341  26.016  1.00  0.00    -0.497 OA
ATOM     27  C   UNL A   1      30.513  24.553  26.095  1.00  0.00     0.278 C 
ENDBRANCH  21  26
ENDBRANCH  16  20
ENDBRANCH   8  15
ENDBRANCH   6   7
BRANCH   6  28
ATOM     28  C   UNL A   1      43.958  25.102  26.663  1.00  0.00     0.073 C 
BRANCH  28  29
ATOM     29  C   UNL A   1      44.840  26.253  26.244  1.00  0.00    -0.045 A 
ATOM     30  C   UNL A   1      45.629  26.161  25.091  1.00  0.00     0.004 A 
ATOM     31  C   UNL A   1      44.856  27.451  26.978  1.00  0.00     0.004 A 
ATOM     32  C   UNL A   1      46.363  27.260  24.646  1.00  0.00     0.000 A 
ATOM     33  C   UNL A   1      45.600  28.546  26.533  1.00  0.00     0.000 A 
ATOM     34  C   UNL A   1      46.346  28.453  25.361  1.00  0.00     0.000 A 
ENDBRANCH  28  29
ENDBRANCH   6  28
ENDBRANCH   4   6
ENDBRANCH   3   4
ENDBRANCH   2   3
ENDBRANCH   1   2
BRANCH   1  35
ATOM     35  O   UNL A   1      43.628  27.078  32.785  1.00  0.00    -0.374 OA
BRANCH  35  36
ATOM     36  C   UNL A   1      43.157  26.763  34.095  1.00  0.00     0.202 C 
BRANCH  36  37
ATOM     37  C   UNL A   1      41.854  27.433  34.552  1.00  0.00     0.261 C 
BRANCH  37  38
ATOM     38  O   UNL A   1      40.905  27.588  33.480  1.00  0.00    -0.460 OA
BRANCH  38  39
ATOM     39  C   UNL A   1      40.256  28.779  33.458  1.00  0.00     0.338 C 
ATOM     40  O   UNL A   1      39.292  29.096  34.137  1.00  0.00    -0.246 OA
BRANCH  39  41
ATOM     41  C   UNL A   1      41.015  29.747  32.641  1.00  0.00     0.060 A 
ATOM     42  C   UNL A   1      40.952  29.624  31.245  1.00  0.00     0.016 A 
ATOM     43  C   UNL A   1      41.822  30.722  33.227  1.00  0.00     0.016 A 
ATOM     44  C   UNL A   1      41.726  30.452  30.429  1.00  0.00     0.010 A 
ATOM     45  C   UNL A   1      42.605  31.542  32.408  1.00  0.00     0.010 A 
ATOM     46  C   UNL A   1      42.587  31.392  31.007  1.00  0.00    -0.014 A 
BRANCH  46  47
ATOM     47  C   UNL A   1      43.616  32.079  30.183  1.00  0.00     0.031 A 
ATOM     48  C   UNL A   1      44.895  31.340  29.893  1.00  0.00     0.074 A 
ATOM     49  C   UNL A   1      43.434  33.324  29.705  1.00  0.00     0.049 A 
ATOM     50  N   UNL A   1      46.001  31.769  29.345  1.00  0.00    -0.248 NA
ATOM     51  C   UNL A   1      44.929  29.923  30.292  1.00  0.00     0.031 C 
ATOM     52  C   UNL A   1      42.217  34.121  29.853  1.00  0.00     0.029 A 
ATOM     53  N   UNL A   1      44.289  34.145  29.007  1.00  0.00    -0.354 N 
ATOM     54  C   UNL A   1      46.874  30.686  29.361  1.00  0.00     0.074 A 
ATOM     55  C   UNL A   1      46.176  29.590  29.999  1.00  0.00     0.031 C 
ATOM     56  C   UNL A   1      42.411  35.322  29.278  1.00  0.00     0.029 A 
ATOM     57  C   UNL A   1      43.780  35.402  28.771  1.00  0.00     0.049 A 
ATOM     58  H   UNL A   1      45.181  33.859  28.704  1.00  0.00     0.167 HD
ATOM     59  C   UNL A   1      48.139  30.611  28.881  1.00  0.00     0.034 A 
ATOM     60  C   UNL A   1      44.366  36.500  28.247  1.00  0.00     0.034 A 
ATOM     61  C   UNL A   1      48.818  31.707  28.239  1.00  0.00     0.049 A 
ATOM     62  C   UNL A   1      45.814  36.423  27.805  1.00  0.00     0.074 A 
ATOM     63  C   UNL A   1      50.094  31.734  27.704  1.00  0.00     0.029 A 
ATOM     64  N   UNL A   1      48.281  32.974  28.051  1.00  0.00    -0.354 N 
ATOM     65  N   UNL A   1      46.637  35.399  27.841  1.00  0.00    -0.248 NA
ATOM     66  C   UNL A   1      46.411  37.649  27.253  1.00  0.00     0.031 C 
ATOM     67  C   UNL A   1      50.357  33.034  27.265  1.00  0.00     0.029 A 
ATOM     68  C   UNL A   1      49.213  33.797  27.439  1.00  0.00     0.049 A 
ATOM     69  H   UNL A   1      47.373  33.247  28.313  1.00  0.00     0.167 HD
ATOM     70  C   UNL A   1      47.830  35.849  27.275  1.00  0.00     0.074 A 
ATOM     71  C   UNL A   1      47.622  37.233  26.909  1.00  0.00     0.031 C 
ATOM     72  C   UNL A   1      48.989  35.174  27.068  1.00  0.00     0.034 A 
BRANCH  59  73
ATOM     73  C   UNL A   1      48.887  29.317  29.091  1.00  0.00     0.023 A 
ATOM     74  C   UNL A   1      48.796  28.249  28.182  1.00  0.00     0.031 A 
ATOM     75  C   UNL A   1      49.687  29.144  30.235  1.00  0.00     0.131 A 
ATOM     76  C   UNL A   1      49.438  27.034  28.467  1.00  0.00     0.055 A 
ATOM     77  C   UNL A   1      50.391  27.961  30.468  1.00  0.00     0.041 A 
ATOM     78  F   UNL A   1      49.791  30.119  31.151  1.00  0.00    -0.206 F 
ATOM     79  C   UNL A   1      50.257  26.891  29.589  1.00  0.00     0.022 A 
BRANCH  76  80
ATOM     80  S   UNL A   1      49.069  25.597  27.425  1.00  0.00     0.124 S 
ATOM     81  O   UNL A   1      47.693  25.295  27.814  1.00  0.00    -0.237 OA
ATOM     82  O   UNL A   1      49.250  26.126  26.079  1.00  0.00    -0.237 OA
ATOM     83  O   UNL A   1      50.059  24.606  27.846  1.00  0.00    -0.744 OA
ENDBRANCH  76  80
ENDBRANCH  59  73
BRANCH  60  84
ATOM     84  C   UNL A   1      43.624  37.793  28.161  1.00  0.00     0.023 A 
ATOM     85  C   UNL A   1      43.731  38.764  29.170  1.00  0.00     0.031 A 
ATOM     86  C   UNL A   1      42.732  38.046  27.101  1.00  0.00     0.131 A 
ATOM     87  C   UNL A   1      42.922  39.911  29.129  1.00  0.00     0.055 A 
ATOM     88  C   UNL A   1      41.978  39.219  27.031  1.00  0.00     0.041 A 
ATOM     89  F   UNL A   1      42.578  37.148  26.114  1.00  0.00    -0.206 F 
ATOM     90  C   UNL A   1      42.059  40.154  28.059  1.00  0.00     0.022 A 
BRANCH  87  91
ATOM     91  S   UNL A   1      42.926  41.030  30.559  1.00  0.00     0.124 S 
ATOM     92  O   UNL A   1      41.585  41.596  30.495  1.00  0.00    -0.237 OA
ATOM     93  O   UNL A   1      43.183  40.110  31.662  1.00  0.00    -0.237 OA
ATOM     94  O   UNL A   1      44.012  41.960  30.259  1.00  0.00    -0.744 OA
ENDBRANCH  87  91
ENDBRANCH  60  84
BRANCH  72  95
ATOM     95  C   UNL A   1      50.102  35.892  26.341  1.00  0.00     0.023 A 
ATOM     96  C   UNL A   1      51.164  36.513  27.021  1.00  0.00     0.031 A 
ATOM     97  C   UNL A   1      50.115  35.910  24.934  1.00  0.00     0.131 A 
ATOM     98  C   UNL A   1      52.179  37.154  26.291  1.00  0.00     0.055 A 
ATOM     99  C   UNL A   1      51.154  36.500  24.215  1.00  0.00     0.041 A 
ATOM    100  F   UNL A   1      49.125  35.333  24.235  1.00  0.00    -0.206 F 
ATOM    101  C   UNL A   1      52.190  37.133  24.893  1.00  0.00     0.022 A 
BRANCH  98 102
ATOM    102  S   UNL A   1      53.462  38.068  27.190  1.00  0.00     0.124 S 
ATOM    103  O   UNL A   1      52.972  39.440  27.109  1.00  0.00    -0.237 OA
ATOM    104  O   UNL A   1      53.418  37.452  28.512  1.00  0.00    -0.237 OA
ATOM    105  O   UNL A   1      54.677  37.798  26.423  1.00  0.00    -0.744 OA
ENDBRANCH  98 102
ENDBRANCH  72  95
ENDBRANCH  46  47
ENDBRANCH  39  41
ENDBRANCH  38  39
ENDBRANCH  37  38
ENDBRANCH  36  37
ENDBRANCH  35  36
ENDBRANCH   1  35
TORSDOF 23
ENDMDL
MODEL 3
REMARK VINA RESULT:      -7.4     13.222     22.971
REMARK SMILES COc1ccc(-c2ccc(/C=C3\SC(=S)N([C@H](Cc4ccccc4)C(=O)OCCOCCOC(=O)c4ccc(-c5c6nc(c(-c7cc(S(=O)(=O)[O-])ccc7F)c7ccc([nH]7)c(-c7cc(S(=O)(=O)[O-])ccc7F)c7nc(c(-c8cc(S(=O)(=O)[O-])ccc8F)c8ccc5[nH]8)C=C7)C=C6)cc4)C3=O)o2)cc1
REMARK SMILES IDX 29 1 28 2 27 3 25 4 26 5 17 6 16 7 11 8 12 9 13 10 99 11
REMARK SMILES IDX 14 12 100 13 15 14 10 15 7 16 8 17 101 18 9 19 6 20 3 21
REMARK SMILES IDX 4 22 103 23 5 24 102 25 2 26 1 27 18 28 19 29 20 30 24 31
REMARK SMILES IDX 21 32 23 33 22 34 30 35 31 36 32 37 33 38 34 39 35 40 36 41
REMARK SMILES IDX 37 42 98 43 38 44 97 45 39 46 40 47 41 48 91 49 42 50 96 51
REMARK SMILES IDX 90 52 92 53 43 54 95 55 89 56 88 57 44 59 76 60 56 61 75 62
REMARK SMILES IDX 57 63 60 64 74 65 93 66 58 67 59 68 73 70 94 71 61 72 45 73
REMARK SMILES IDX 46 74 54 75 47 76 53 77 55 78 52 79 48 80 49 81 50 82 51 83
REMARK SMILES IDX 77 84 78 85 86 86 79 87 85 88 87 89 84 90 80 91 81 92 82 93
REMARK SMILES IDX 83 94 62 95 63 96 71 97 64 98 70 99 72 100 69 101 65 102
REMARK SMILES IDX 66 103 67 104 68 105
REMARK H PARENT 92 58 60 69
REMARK Flexibility Score: inf
ROOT
ATOM      1  C   UNL A   1      48.387  24.247  39.319  1.00  0.00     0.202 C 
ENDROOT
BRANCH   1   2
ATOM      2  C   UNL A   1      47.428  23.165  38.835  1.00  0.00     0.261 C 
BRANCH   2   3
ATOM      3  O   UNL A   1      47.674  21.948  39.553  1.00  0.00    -0.462 OA
BRANCH   3   4
ATOM      4  C   UNL A   1      46.668  21.047  39.553  1.00  0.00     0.329 C 
ATOM      5  O   UNL A   1      45.619  21.160  40.181  1.00  0.00    -0.250 OA
BRANCH   4   6
ATOM      6  C   UNL A   1      46.986  19.793  38.742  1.00  0.00     0.206 C 
BRANCH   6   7
ATOM      7  N   UNL A   1      46.451  18.661  39.500  1.00  0.00    -0.278 N 
ATOM      8  C   UNL A   1      43.617  16.538  39.760  1.00  0.00     0.068 C 
ATOM      9  C   UNL A   1      44.836  17.043  39.954  1.00  0.00     0.084 C 
ATOM     10  S   UNL A   1      45.979  16.795  41.205  1.00  0.00    -0.054 SA
ATOM     11  C   UNL A   1      45.382  17.974  38.958  1.00  0.00     0.267 C 
ATOM     12  C   UNL A   1      47.013  18.098  40.622  1.00  0.00     0.149 C 
ATOM     13  O   UNL A   1      44.992  18.025  37.802  1.00  0.00    -0.268 OA
ATOM     14  S   UNL A   1      48.415  18.529  41.415  1.00  0.00    -0.052 S 
BRANCH   8  15
ATOM     15  C   UNL A   1      43.048  15.546  40.580  1.00  0.00     0.128 A 
ATOM     16  C   UNL A   1      42.867  14.316  42.406  1.00  0.00     0.134 A 
ATOM     17  C   UNL A   1      41.790  13.980  41.619  1.00  0.00     0.051 A 
ATOM     18  O   UNL A   1      43.639  15.226  41.769  1.00  0.00    -0.457 OA
ATOM     19  C   UNL A   1      41.906  14.766  40.447  1.00  0.00     0.051 A 
BRANCH  16  20
ATOM     20  C   UNL A   1      43.335  13.942  43.722  1.00  0.00     0.017 A 
ATOM     21  C   UNL A   1      44.275  13.177  46.248  1.00  0.00     0.118 A 
ATOM     22  C   UNL A   1      43.408  12.343  45.544  1.00  0.00     0.047 A 
ATOM     23  C   UNL A   1      44.668  14.397  45.693  1.00  0.00     0.047 A 
ATOM     24  C   UNL A   1      42.928  12.729  44.294  1.00  0.00     0.016 A 
ATOM     25  C   UNL A   1      44.202  14.775  44.431  1.00  0.00     0.016 A 
BRANCH  21  26
ATOM     26  O   UNL A   1      44.720  12.682  47.442  1.00  0.00    -0.497 OA
ATOM     27  C   UNL A   1      45.037  11.294  47.440  1.00  0.00     0.278 C 
ENDBRANCH  21  26
ENDBRANCH  16  20
ENDBRANCH   8  15
ENDBRANCH   6   7
BRANCH   6  28
ATOM     28  C   UNL A   1      48.387  19.575  38.112  1.00  0.00     0.073 C 
BRANCH  28  29
ATOM     29  C   UNL A   1      48.705  20.179  36.766  1.00  0.00    -0.045 A 
ATOM     30  C   UNL A   1      49.998  20.096  36.237  1.00  0.00     0.004 A 
ATOM     31  C   UNL A   1      47.703  20.798  36.001  1.00  0.00     0.004 A 
ATOM     32  C   UNL A   1      50.268  20.560  34.950  1.00  0.00     0.000 A 
ATOM     33  C   UNL A   1      47.980  21.270  34.716  1.00  0.00     0.000 A 
ATOM     34  C   UNL A   1      49.261  21.141  34.187  1.00  0.00     0.000 A 
ENDBRANCH  28  29
ENDBRANCH   6  28
ENDBRANCH   4   6
ENDBRANCH   3   4
ENDBRANCH   2   3
ENDBRANCH   1   2
BRANCH   1  35
ATOM     35  O   UNL A   1      47.805  25.284  40.109  1.00  0.00    -0.374 OA
BRANCH  35  36
ATOM     36  C   UNL A   1      47.319  26.440  39.429  1.00  0.00     0.202 C 
BRANCH  36  37
ATOM     37  C   UNL A   1      45.811  26.508  39.151  1.00  0.00     0.261 C 
BRANCH  37  38
ATOM     38  O   UNL A   1      45.492  27.353  38.029  1.00  0.00    -0.460 OA
BRANCH  38  39
ATOM     39  C   UNL A   1      44.447  26.930  37.273  1.00  0.00     0.338 C 
ATOM     40  O   UNL A   1      43.273  26.894  37.608  1.00  0.00    -0.246 OA
BRANCH  39  41
ATOM     41  C   UNL A   1      44.892  26.717  35.881  1.00  0.00     0.060 A 
ATOM     42  C   UNL A   1      45.554  25.518  35.577  1.00  0.00     0.016 A 
ATOM     43  C   UNL A   1      44.719  27.694  34.901  1.00  0.00     0.016 A 
ATOM     44  C   UNL A   1      46.079  25.307  34.301  1.00  0.00     0.010 A 
ATOM     45  C   UNL A   1      45.256  27.485  33.627  1.00  0.00     0.010 A 
ATOM     46  C   UNL A   1      45.966  26.306  33.327  1.00  0.00    -0.014 A 
BRANCH  46  47
ATOM     47  C   UNL A   1      46.752  26.225  32.068  1.00  0.00     0.031 A 
ATOM     48  C   UNL A   1      48.109  26.877  32.041  1.00  0.00     0.074 A 
ATOM     49  C   UNL A   1      46.285  25.597  30.973  1.00  0.00     0.049 A 
ATOM     50  N   UNL A   1      48.914  27.088  31.033  1.00  0.00    -0.248 NA
ATOM     51  C   UNL A   1      48.616  27.372  33.331  1.00  0.00     0.031 C 
ATOM     52  C   UNL A   1      45.022  24.866  30.889  1.00  0.00     0.029 A 
ATOM     53  N   UNL A   1      46.819  25.489  29.711  1.00  0.00    -0.354 N 
ATOM     54  C   UNL A   1      50.008  27.765  31.560  1.00  0.00     0.074 A 
ATOM     55  C   UNL A   1      49.748  27.955  32.971  1.00  0.00     0.031 C 
ATOM     56  C   UNL A   1      44.871  24.400  29.635  1.00  0.00     0.029 A 
ATOM     57  C   UNL A   1      45.996  24.846  28.814  1.00  0.00     0.049 A 
ATOM     58  H   UNL A   1      47.707  25.840  29.470  1.00  0.00     0.167 HD
ATOM     59  C   UNL A   1      51.130  28.186  30.926  1.00  0.00     0.034 A 
ATOM     60  C   UNL A   1      46.118  24.675  27.480  1.00  0.00     0.034 A 
ATOM     61  C   UNL A   1      51.380  27.981  29.523  1.00  0.00     0.049 A 
ATOM     62  C   UNL A   1      47.335  25.237  26.772  1.00  0.00     0.074 A 
ATOM     63  C   UNL A   1      52.490  28.352  28.784  1.00  0.00     0.029 A 
ATOM     64  N   UNL A   1      50.507  27.355  28.642  1.00  0.00    -0.354 N 
ATOM     65  N   UNL A   1      48.356  25.893  27.277  1.00  0.00    -0.248 NA
ATOM     66  C   UNL A   1      47.415  25.038  25.318  1.00  0.00     0.031 C 
ATOM     67  C   UNL A   1      52.254  28.025  27.445  1.00  0.00     0.029 A 
ATOM     68  C   UNL A   1      51.039  27.363  27.363  1.00  0.00     0.049 A 
ATOM     69  H   UNL A   1      49.638  26.965  28.890  1.00  0.00     0.167 HD
ATOM     70  C   UNL A   1      49.216  26.141  26.207  1.00  0.00     0.074 A 
ATOM     71  C   UNL A   1      48.596  25.569  25.032  1.00  0.00     0.031 C 
ATOM     72  C   UNL A   1      50.415  26.776  26.200  1.00  0.00     0.034 A 
BRANCH  59  73
ATOM     73  C   UNL A   1      52.139  28.961  31.738  1.00  0.00     0.023 A 
ATOM     74  C   UNL A   1      52.211  30.363  31.693  1.00  0.00     0.031 A 
ATOM     75  C   UNL A   1      53.060  28.278  32.553  1.00  0.00     0.131 A 
ATOM     76  C   UNL A   1      53.225  31.032  32.395  1.00  0.00     0.055 A 
ATOM     77  C   UNL A   1      54.012  28.957  33.315  1.00  0.00     0.041 A 
ATOM     78  F   UNL A   1      53.056  26.938  32.616  1.00  0.00    -0.206 F 
ATOM     79  C   UNL A   1      54.109  30.342  33.228  1.00  0.00     0.022 A 
BRANCH  76  80
ATOM     80  S   UNL A   1      53.464  32.804  32.089  1.00  0.00     0.124 S 
ATOM     81  O   UNL A   1      53.667  33.312  33.444  1.00  0.00    -0.237 OA
ATOM     82  O   UNL A   1      54.635  32.821  31.219  1.00  0.00    -0.237 OA
ATOM     83  O   UNL A   1      52.211  33.215  31.459  1.00  0.00    -0.744 OA
ENDBRANCH  76  80
ENDBRANCH  59  73
BRANCH  60  84
ATOM     84  C   UNL A   1      45.041  23.998  26.696  1.00  0.00     0.023 A 
ATOM     85  C   UNL A   1      45.130  22.638  26.361  1.00  0.00     0.031 A 
ATOM     86  C   UNL A   1      43.940  24.724  26.204  1.00  0.00     0.131 A 
ATOM     87  C   UNL A   1      44.171  22.060  25.512  1.00  0.00     0.055 A 
ATOM     88  C   UNL A   1      42.954  24.129  25.415  1.00  0.00     0.041 A 
ATOM     89  F   UNL A   1      43.809  26.031  26.481  1.00  0.00    -0.206 F 
ATOM     90  C   UNL A   1      43.075  22.791  25.052  1.00  0.00     0.022 A 
BRANCH  87  91
ATOM     91  S   UNL A   1      44.441  20.365  24.922  1.00  0.00     0.124 S 
ATOM     92  O   UNL A   1      45.570  19.943  25.742  1.00  0.00    -0.237 OA
ATOM     93  O   UNL A   1      43.160  19.733  25.220  1.00  0.00    -0.237 OA
ATOM     94  O   UNL A   1      44.732  20.541  23.501  1.00  0.00    -0.744 OA
ENDBRANCH  87  91
ENDBRANCH  60  84
BRANCH  72  95
ATOM     95  C   UNL A   1      51.182  26.819  24.900  1.00  0.00     0.023 A 
ATOM     96  C   UNL A   1      50.876  27.732  23.876  1.00  0.00     0.031 A 
ATOM     97  C   UNL A   1      52.274  25.951  24.708  1.00  0.00     0.131 A 
ATOM     98  C   UNL A   1      51.634  27.734  22.693  1.00  0.00     0.055 A 
ATOM     99  C   UNL A   1      53.057  25.996  23.554  1.00  0.00     0.041 A 
ATOM    100  F   UNL A   1      52.610  25.058  25.653  1.00  0.00    -0.206 F 
ATOM    101  C   UNL A   1      52.734  26.886  22.536  1.00  0.00     0.022 A 
BRANCH  98 102
ATOM    102  S   UNL A   1      51.132  28.824  21.332  1.00  0.00     0.124 S 
ATOM    103  O   UNL A   1      49.943  28.148  20.825  1.00  0.00    -0.237 OA
ATOM    104  O   UNL A   1      50.902  30.093  22.015  1.00  0.00    -0.237 OA
ATOM    105  O   UNL A   1      52.286  28.805  20.435  1.00  0.00    -0.744 OA
ENDBRANCH  98 102
ENDBRANCH  72  95
ENDBRANCH  46  47
ENDBRANCH  39  41
ENDBRANCH  38  39
ENDBRANCH  37  38
ENDBRANCH  36  37
ENDBRANCH  35  36
ENDBRANCH   1  35
TORSDOF 23
ENDMDL
