MODEL 1
REMARK VINA RESULT:     -10.7      0.000      0.000
REMARK SMILES C=C(c1ccccc1)[C@@H](C(=O)OCCOCCOC(=O)c1ccc(-c2c3nc(c(-c4cc(S(=O)(=O)[O-])ccc4F)c4ccc([nH]4)c(-c4cc(S(=O)(=O)[O-])ccc4F)c4nc(c(-c5cc(S(=O)(=O)[O-])ccc5F)c5ccc2[nH]5)C=C4)C=C3)cc1)S(C)(=O)=O
REMARK SMILES IDX 16 1 15 2 14 3 13 4 12 5 10 6 11 7 9 8 2 9 1 10 3 11 4 12
REMARK SMILES IDX 8 13 5 14 7 15 6 16 84 17 85 18 86 19 87 20 17 21 18 22
REMARK SMILES IDX 19 23 20 24 21 25 22 26 83 27 23 28 82 29 24 30 25 31 26 32
REMARK SMILES IDX 76 33 27 34 81 35 75 36 77 37 28 38 80 39 74 40 73 41 29 43
REMARK SMILES IDX 61 44 41 45 60 46 42 47 45 48 59 49 78 50 43 51 44 52 58 54
REMARK SMILES IDX 79 55 46 56 30 57 31 58 39 59 32 60 38 61 40 62 37 63 33 64
REMARK SMILES IDX 34 65 35 66 36 67 62 68 63 69 71 70 64 71 70 72 72 73 69 74
REMARK SMILES IDX 65 75 66 76 67 77 68 78 47 79 48 80 56 81 49 82 55 83 57 84
REMARK SMILES IDX 54 85 50 86 51 87 52 88 53 89
REMARK H PARENT 77 42 45 53
REMARK Flexibility Score: inf
ROOT
ATOM      1  C   UNL A   1      37.268  19.952  24.846  1.00  0.00     0.202 C 
ENDROOT
BRANCH   1   2
ATOM      2  O   UNL A   1      37.090  21.340  24.575  1.00  0.00    -0.374 OA
BRANCH   2   3
ATOM      3  C   UNL A   1      36.535  22.143  25.612  1.00  0.00     0.202 C 
BRANCH   3   4
ATOM      4  C   UNL A   1      36.395  23.646  25.345  1.00  0.00     0.261 C 
BRANCH   4   5
ATOM      5  O   UNL A   1      35.833  23.941  24.051  1.00  0.00    -0.462 OA
BRANCH   5   6
ATOM      6  C   UNL A   1      34.476  24.082  24.027  1.00  0.00     0.328 C 
ATOM      7  O   UNL A   1      33.718  23.196  23.647  1.00  0.00    -0.250 OA
BRANCH   6   8
ATOM      8  C   UNL A   1      33.998  25.472  24.419  1.00  0.00     0.247 C 
BRANCH   8   9
ATOM      9  C   UNL A   1      33.094  25.617  25.650  1.00  0.00    -0.019 C 
ATOM     10  C   UNL A   1      32.297  24.669  26.182  1.00  0.00     0.015 C 
BRANCH   9  11
ATOM     11  C   UNL A   1      32.996  26.965  26.269  1.00  0.00    -0.021 A 
ATOM     12  C   UNL A   1      34.112  27.811  26.347  1.00  0.00     0.008 A 
ATOM     13  C   UNL A   1      31.762  27.448  26.739  1.00  0.00     0.008 A 
ATOM     14  C   UNL A   1      33.995  29.103  26.869  1.00  0.00     0.001 A 
ATOM     15  C   UNL A   1      31.644  28.744  27.248  1.00  0.00     0.001 A 
ATOM     16  C   UNL A   1      32.761  29.571  27.311  1.00  0.00     0.000 A 
ENDBRANCH   9  11
ENDBRANCH   8   9
BRANCH   8  17
ATOM     17  S   UNL A   1      33.241  26.192  22.941  1.00  0.00     0.165 S 
ATOM     18  C   UNL A   1      31.561  25.618  22.973  1.00  0.00     0.159 C 
ATOM     19  O   UNL A   1      33.128  27.631  23.103  1.00  0.00    -0.228 OA
ATOM     20  O   UNL A   1      33.851  25.640  21.743  1.00  0.00    -0.228 OA
ENDBRANCH   8  17
ENDBRANCH   6   8
ENDBRANCH   5   6
ENDBRANCH   4   5
ENDBRANCH   3   4
ENDBRANCH   2   3
ENDBRANCH   1   2
BRANCH   1  21
ATOM     21  C   UNL A   1      38.704  19.455  25.077  1.00  0.00     0.261 C 
BRANCH  21  22
ATOM     22  O   UNL A   1      39.227  19.834  26.364  1.00  0.00    -0.460 OA
BRANCH  22  23
ATOM     23  C   UNL A   1      40.540  20.175  26.357  1.00  0.00     0.338 C 
ATOM     24  O   UNL A   1      41.458  19.540  25.852  1.00  0.00    -0.246 OA
BRANCH  23  25
ATOM     25  C   UNL A   1      40.728  21.541  26.882  1.00  0.00     0.060 A 
ATOM     26  C   UNL A   1      40.020  22.574  26.255  1.00  0.00     0.016 A 
ATOM     27  C   UNL A   1      41.635  21.825  27.906  1.00  0.00     0.016 A 
ATOM     28  C   UNL A   1      40.256  23.902  26.607  1.00  0.00     0.010 A 
ATOM     29  C   UNL A   1      41.877  23.161  28.253  1.00  0.00     0.010 A 
ATOM     30  C   UNL A   1      41.217  24.207  27.578  1.00  0.00    -0.014 A 
BRANCH  30  31
ATOM     31  C   UNL A   1      41.644  25.617  27.767  1.00  0.00     0.031 A 
ATOM     32  C   UNL A   1      42.945  26.068  27.154  1.00  0.00     0.074 A 
ATOM     33  C   UNL A   1      40.873  26.489  28.444  1.00  0.00     0.049 A 
ATOM     34  N   UNL A   1      43.535  27.232  27.223  1.00  0.00    -0.248 NA
ATOM     35  C   UNL A   1      43.678  25.068  26.360  1.00  0.00     0.031 C 
ATOM     36  C   UNL A   1      39.573  26.179  29.038  1.00  0.00     0.029 A 
ATOM     37  N   UNL A   1      41.076  27.811  28.753  1.00  0.00    -0.354 N 
ATOM     38  C   UNL A   1      44.717  27.102  26.499  1.00  0.00     0.074 A 
ATOM     39  C   UNL A   1      44.767  25.738  26.015  1.00  0.00     0.031 C 
ATOM     40  C   UNL A   1      39.103  27.277  29.655  1.00  0.00     0.029 A 
ATOM     41  C   UNL A   1      40.083  28.355  29.537  1.00  0.00     0.049 A 
ATOM     42  H   UNL A   1      41.858  28.323  28.444  1.00  0.00     0.167 HD
ATOM     43  C   UNL A   1      45.670  28.035  26.261  1.00  0.00     0.034 A 
ATOM     44  C   UNL A   1      39.993  29.571  30.114  1.00  0.00     0.034 A 
ATOM     45  C   UNL A   1      45.599  29.393  26.739  1.00  0.00     0.049 A 
ATOM     46  C   UNL A   1      41.103  30.572  29.885  1.00  0.00     0.074 A 
ATOM     47  C   UNL A   1      46.486  30.432  26.511  1.00  0.00     0.029 A 
ATOM     48  N   UNL A   1      44.594  29.899  27.552  1.00  0.00    -0.354 N 
ATOM     49  N   UNL A   1      42.197  30.445  29.167  1.00  0.00    -0.248 NA
ATOM     50  C   UNL A   1      40.964  31.883  30.534  1.00  0.00     0.031 C 
ATOM     51  C   UNL A   1      46.058  31.542  27.249  1.00  0.00     0.029 A 
ATOM     52  C   UNL A   1      44.862  31.221  27.871  1.00  0.00     0.049 A 
ATOM     53  H   UNL A   1      43.807  29.394  27.858  1.00  0.00     0.167 HD
ATOM     54  C   UNL A   1      42.851  31.673  29.251  1.00  0.00     0.074 A 
ATOM     55  C   UNL A   1      42.026  32.528  30.077  1.00  0.00     0.031 C 
ATOM     56  C   UNL A   1      44.027  32.062  28.694  1.00  0.00     0.034 A 
BRANCH  43  57
ATOM     57  C   UNL A   1      46.902  27.607  25.502  1.00  0.00     0.023 A 
ATOM     58  C   UNL A   1      47.094  27.922  24.146  1.00  0.00     0.031 A 
ATOM     59  C   UNL A   1      47.910  26.880  26.162  1.00  0.00     0.131 A 
ATOM     60  C   UNL A   1      48.245  27.471  23.483  1.00  0.00     0.055 A 
ATOM     61  C   UNL A   1      49.083  26.492  25.513  1.00  0.00     0.041 A 
ATOM     62  F   UNL A   1      47.768  26.532  27.451  1.00  0.00    -0.206 F 
ATOM     63  C   UNL A   1      49.252  26.780  24.162  1.00  0.00     0.022 A 
BRANCH  60  64
ATOM     64  S   UNL A   1      48.369  27.713  21.689  1.00  0.00     0.124 S 
ATOM     65  O   UNL A   1      46.989  28.043  21.340  1.00  0.00    -0.237 OA
ATOM     66  O   UNL A   1      49.334  28.801  21.583  1.00  0.00    -0.237 OA
ATOM     67  O   UNL A   1      48.834  26.416  21.199  1.00  0.00    -0.744 OA
ENDBRANCH  60  64
ENDBRANCH  43  57
BRANCH  44  68
ATOM     68  C   UNL A   1      38.850  29.908  31.015  1.00  0.00     0.023 A 
ATOM     69  C   UNL A   1      37.785  30.708  30.573  1.00  0.00     0.031 A 
ATOM     70  C   UNL A   1      38.854  29.507  32.363  1.00  0.00     0.131 A 
ATOM     71  C   UNL A   1      36.805  31.137  31.485  1.00  0.00     0.055 A 
ATOM     72  C   UNL A   1      37.844  29.883  33.251  1.00  0.00     0.041 A 
ATOM     73  F   UNL A   1      39.849  28.744  32.843  1.00  0.00    -0.206 F 
ATOM     74  C   UNL A   1      36.820  30.719  32.817  1.00  0.00     0.022 A 
BRANCH  71  75
ATOM     75  S   UNL A   1      35.579  32.355  30.932  1.00  0.00     0.124 S 
ATOM     76  O   UNL A   1      35.123  31.768  29.676  1.00  0.00    -0.237 OA
ATOM     77  O   UNL A   1      34.623  32.341  32.032  1.00  0.00    -0.237 OA
ATOM     78  O   UNL A   1      36.359  33.584  30.799  1.00  0.00    -0.744 OA
ENDBRANCH  71  75
ENDBRANCH  44  68
BRANCH  56  79
ATOM     79  C   UNL A   1      44.454  33.492  28.911  1.00  0.00     0.023 A 
ATOM     80  C   UNL A   1      43.884  34.555  28.190  1.00  0.00     0.031 A 
ATOM     81  C   UNL A   1      45.447  33.793  29.862  1.00  0.00     0.131 A 
ATOM     82  C   UNL A   1      44.347  35.865  28.393  1.00  0.00     0.055 A 
ATOM     83  C   UNL A   1      45.861  35.104  30.101  1.00  0.00     0.041 A 
ATOM     84  F   UNL A   1      46.024  32.816  30.580  1.00  0.00    -0.206 F 
ATOM     85  C   UNL A   1      45.319  36.146  29.357  1.00  0.00     0.022 A 
BRANCH  82  86
ATOM     86  S   UNL A   1      43.718  37.187  27.325  1.00  0.00     0.124 S 
ATOM     87  O   UNL A   1      42.890  36.446  26.379  1.00  0.00    -0.237 OA
ATOM     88  O   UNL A   1      43.001  38.039  28.269  1.00  0.00    -0.237 OA
ATOM     89  O   UNL A   1      44.930  37.778  26.758  1.00  0.00    -0.744 OA
ENDBRANCH  82  86
ENDBRANCH  56  79
ENDBRANCH  30  31
ENDBRANCH  23  25
ENDBRANCH  22  23
ENDBRANCH  21  22
ENDBRANCH   1  21
TORSDOF 20
ENDMDL
MODEL 2
REMARK VINA RESULT:     -10.5      4.853     10.711
REMARK SMILES C=C(c1ccccc1)[C@@H](C(=O)OCCOCCOC(=O)c1ccc(-c2c3nc(c(-c4cc(S(=O)(=O)[O-])ccc4F)c4ccc([nH]4)c(-c4cc(S(=O)(=O)[O-])ccc4F)c4nc(c(-c5cc(S(=O)(=O)[O-])ccc5F)c5ccc2[nH]5)C=C4)C=C3)cc1)S(C)(=O)=O
REMARK SMILES IDX 16 1 15 2 14 3 13 4 12 5 10 6 11 7 9 8 2 9 1 10 3 11 4 12
REMARK SMILES IDX 8 13 5 14 7 15 6 16 84 17 85 18 86 19 87 20 17 21 18 22
REMARK SMILES IDX 19 23 20 24 21 25 22 26 83 27 23 28 82 29 24 30 25 31 26 32
REMARK SMILES IDX 76 33 27 34 81 35 75 36 77 37 28 38 80 39 74 40 73 41 29 43
REMARK SMILES IDX 61 44 41 45 60 46 42 47 45 48 59 49 78 50 43 51 44 52 58 54
REMARK SMILES IDX 79 55 46 56 30 57 31 58 39 59 32 60 38 61 40 62 37 63 33 64
REMARK SMILES IDX 34 65 35 66 36 67 62 68 63 69 71 70 64 71 70 72 72 73 69 74
REMARK SMILES IDX 65 75 66 76 67 77 68 78 47 79 48 80 56 81 49 82 55 83 57 84
REMARK SMILES IDX 54 85 50 86 51 87 52 88 53 89
REMARK H PARENT 77 42 45 53
REMARK Flexibility Score: inf
ROOT
ATOM      1  C   UNL A   1      31.736  31.313  26.443  1.00  0.00     0.202 C 
ENDROOT
BRANCH   1   2
ATOM      2  O   UNL A   1      30.951  30.843  25.350  1.00  0.00    -0.374 OA
BRANCH   2   3
ATOM      3  C   UNL A   1      31.321  29.598  24.766  1.00  0.00     0.202 C 
BRANCH   3   4
ATOM      4  C   UNL A   1      32.724  29.063  25.074  1.00  0.00     0.261 C 
BRANCH   4   5
ATOM      5  O   UNL A   1      32.914  27.698  24.652  1.00  0.00    -0.462 OA
BRANCH   5   6
ATOM      6  C   UNL A   1      32.722  26.759  25.625  1.00  0.00     0.328 C 
ATOM      7  O   UNL A   1      32.579  27.043  26.808  1.00  0.00    -0.250 OA
BRANCH   6   8
ATOM      8  C   UNL A   1      32.805  25.326  25.117  1.00  0.00     0.247 C 
BRANCH   8   9
ATOM      9  C   UNL A   1      33.744  25.017  23.945  1.00  0.00    -0.019 C 
ATOM     10  C   UNL A   1      33.566  25.365  22.655  1.00  0.00     0.015 C 
BRANCH   9  11
ATOM     11  C   UNL A   1      34.922  24.155  24.224  1.00  0.00    -0.021 A 
ATOM     12  C   UNL A   1      35.474  23.335  23.229  1.00  0.00     0.008 A 
ATOM     13  C   UNL A   1      35.550  24.188  25.481  1.00  0.00     0.008 A 
ATOM     14  C   UNL A   1      36.623  22.579  23.479  1.00  0.00     0.001 A 
ATOM     15  C   UNL A   1      36.706  23.442  25.727  1.00  0.00     0.001 A 
ATOM     16  C   UNL A   1      37.243  22.639  24.725  1.00  0.00     0.000 A 
ENDBRANCH   9  11
ENDBRANCH   8   9
BRANCH   8  17
ATOM     17  S   UNL A   1      31.106  24.804  24.774  1.00  0.00     0.165 S 
ATOM     18  C   UNL A   1      30.481  24.254  26.343  1.00  0.00     0.159 C 
ATOM     19  O   UNL A   1      30.294  25.965  24.455  1.00  0.00    -0.228 OA
ATOM     20  O   UNL A   1      31.103  23.648  23.892  1.00  0.00    -0.228 OA
ENDBRANCH   8  17
ENDBRANCH   6   8
ENDBRANCH   5   6
ENDBRANCH   4   5
ENDBRANCH   3   4
ENDBRANCH   2   3
ENDBRANCH   1   2
BRANCH   1  21
ATOM     21  C   UNL A   1      31.793  32.831  26.671  1.00  0.00     0.261 C 
BRANCH  21  22
ATOM     22  O   UNL A   1      32.272  33.182  27.983  1.00  0.00    -0.460 OA
BRANCH  22  23
ATOM     23  C   UNL A   1      33.372  33.976  27.985  1.00  0.00     0.338 C 
ATOM     24  O   UNL A   1      33.392  35.199  27.909  1.00  0.00    -0.246 OA
BRANCH  23  25
ATOM     25  C   UNL A   1      34.584  33.190  28.286  1.00  0.00     0.060 A 
ATOM     26  C   UNL A   1      34.402  31.891  28.778  1.00  0.00     0.016 A 
ATOM     27  C   UNL A   1      35.867  33.729  28.173  1.00  0.00     0.016 A 
ATOM     28  C   UNL A   1      35.495  31.145  29.214  1.00  0.00     0.010 A 
ATOM     29  C   UNL A   1      36.965  32.982  28.620  1.00  0.00     0.010 A 
ATOM     30  C   UNL A   1      36.779  31.701  29.178  1.00  0.00    -0.014 A 
BRANCH  30  31
ATOM     31  C   UNL A   1      37.895  31.009  29.872  1.00  0.00     0.031 A 
ATOM     32  C   UNL A   1      38.178  31.354  31.311  1.00  0.00     0.074 A 
ATOM     33  C   UNL A   1      38.624  30.069  29.243  1.00  0.00     0.049 A 
ATOM     34  N   UNL A   1      39.121  30.913  32.101  1.00  0.00    -0.248 NA
ATOM     35  C   UNL A   1      37.275  32.332  31.941  1.00  0.00     0.031 C 
ATOM     36  C   UNL A   1      38.411  29.617  27.868  1.00  0.00     0.029 A 
ATOM     37  N   UNL A   1      39.696  29.329  29.675  1.00  0.00    -0.354 N 
ATOM     38  C   UNL A   1      38.939  31.570  33.315  1.00  0.00     0.074 A 
ATOM     39  C   UNL A   1      37.805  32.455  33.149  1.00  0.00     0.031 C 
ATOM     40  C   UNL A   1      39.337  28.691  27.565  1.00  0.00     0.029 A 
ATOM     41  C   UNL A   1      40.232  28.510  28.706  1.00  0.00     0.049 A 
ATOM     42  H   UNL A   1      40.051  29.379  30.593  1.00  0.00     0.167 HD
ATOM     43  C   UNL A   1      39.653  31.445  34.460  1.00  0.00     0.034 A 
ATOM     44  C   UNL A   1      41.333  27.731  28.731  1.00  0.00     0.034 A 
ATOM     45  C   UNL A   1      40.772  30.549  34.612  1.00  0.00     0.049 A 
ATOM     46  C   UNL A   1      42.149  27.659  30.002  1.00  0.00     0.074 A 
ATOM     47  C   UNL A   1      41.531  30.308  35.745  1.00  0.00     0.029 A 
ATOM     48  N   UNL A   1      41.302  29.758  33.602  1.00  0.00    -0.354 N 
ATOM     49  N   UNL A   1      41.942  28.260  31.153  1.00  0.00    -0.248 NA
ATOM     50  C   UNL A   1      43.340  26.800  29.983  1.00  0.00     0.031 C 
ATOM     51  C   UNL A   1      42.566  29.432  35.399  1.00  0.00     0.029 A 
ATOM     52  C   UNL A   1      42.405  29.063  34.073  1.00  0.00     0.049 A 
ATOM     53  H   UNL A   1      40.947  29.700  32.686  1.00  0.00     0.167 HD
ATOM     54  C   UNL A   1      42.956  27.818  32.000  1.00  0.00     0.074 A 
ATOM     55  C   UNL A   1      43.765  26.894  31.234  1.00  0.00     0.031 C 
ATOM     56  C   UNL A   1      43.198  28.142  33.296  1.00  0.00     0.034 A 
BRANCH  43  57
ATOM     57  C   UNL A   1      39.289  32.340  35.618  1.00  0.00     0.023 A 
ATOM     58  C   UNL A   1      39.735  33.669  35.707  1.00  0.00     0.031 A 
ATOM     59  C   UNL A   1      38.465  31.848  36.648  1.00  0.00     0.131 A 
ATOM     60  C   UNL A   1      39.390  34.447  36.824  1.00  0.00     0.055 A 
ATOM     61  C   UNL A   1      38.071  32.647  37.722  1.00  0.00     0.041 A 
ATOM     62  F   UNL A   1      38.030  30.578  36.625  1.00  0.00    -0.206 F 
ATOM     63  C   UNL A   1      38.542  33.953  37.819  1.00  0.00     0.022 A 
BRANCH  60  64
ATOM     64  S   UNL A   1      40.146  36.085  37.012  1.00  0.00     0.124 S 
ATOM     65  O   UNL A   1      39.396  36.628  38.143  1.00  0.00    -0.237 OA
ATOM     66  O   UNL A   1      41.544  35.760  37.269  1.00  0.00    -0.237 OA
ATOM     67  O   UNL A   1      39.881  36.735  35.730  1.00  0.00    -0.744 OA
ENDBRANCH  60  64
ENDBRANCH  43  57
BRANCH  44  68
ATOM     68  C   UNL A   1      41.778  26.997  27.509  1.00  0.00     0.023 A 
ATOM     69  C   UNL A   1      41.583  25.612  27.378  1.00  0.00     0.031 A 
ATOM     70  C   UNL A   1      42.490  27.657  26.491  1.00  0.00     0.131 A 
ATOM     71  C   UNL A   1      42.150  24.925  26.292  1.00  0.00     0.055 A 
ATOM     72  C   UNL A   1      42.996  26.980  25.380  1.00  0.00     0.041 A 
ATOM     73  F   UNL A   1      42.711  28.980  26.564  1.00  0.00    -0.206 F 
ATOM     74  C   UNL A   1      42.843  25.600  25.285  1.00  0.00     0.022 A 
BRANCH  71  75
ATOM     75  S   UNL A   1      42.076  23.111  26.279  1.00  0.00     0.124 S 
ATOM     76  O   UNL A   1      40.642  22.873  26.410  1.00  0.00    -0.237 OA
ATOM     77  O   UNL A   1      42.664  22.795  24.983  1.00  0.00    -0.237 OA
ATOM     78  O   UNL A   1      42.880  22.732  27.438  1.00  0.00    -0.744 OA
ENDBRANCH  71  75
ENDBRANCH  44  68
BRANCH  56  79
ATOM     79  C   UNL A   1      44.347  27.444  33.980  1.00  0.00     0.023 A 
ATOM     80  C   UNL A   1      44.159  26.282  34.749  1.00  0.00     0.031 A 
ATOM     81  C   UNL A   1      45.654  27.950  33.854  1.00  0.00     0.131 A 
ATOM     82  C   UNL A   1      45.252  25.694  35.405  1.00  0.00     0.055 A 
ATOM     83  C   UNL A   1      46.745  27.326  34.460  1.00  0.00     0.041 A 
ATOM     84  F   UNL A   1      45.891  29.055  33.130  1.00  0.00    -0.206 F 
ATOM     85  C   UNL A   1      46.545  26.199  35.250  1.00  0.00     0.022 A 
BRANCH  82  86
ATOM     86  S   UNL A   1      44.948  24.304  36.529  1.00  0.00     0.124 S 
ATOM     87  O   UNL A   1      46.211  24.218  37.254  1.00  0.00    -0.237 OA
ATOM     88  O   UNL A   1      43.799  24.769  37.300  1.00  0.00    -0.237 OA
ATOM     89  O   UNL A   1      44.674  23.186  35.626  1.00  0.00    -0.744 OA
ENDBRANCH  82  86
ENDBRANCH  56  79
ENDBRANCH  30  31
ENDBRANCH  23  25
ENDBRANCH  22  23
ENDBRANCH  21  22
ENDBRANCH   1  21
TORSDOF 20
ENDMDL
MODEL 3
REMARK VINA RESULT:     -10.5      4.957     10.830
REMARK SMILES C=C(c1ccccc1)[C@@H](C(=O)OCCOCCOC(=O)c1ccc(-c2c3nc(c(-c4cc(S(=O)(=O)[O-])ccc4F)c4ccc([nH]4)c(-c4cc(S(=O)(=O)[O-])ccc4F)c4nc(c(-c5cc(S(=O)(=O)[O-])ccc5F)c5ccc2[nH]5)C=C4)C=C3)cc1)S(C)(=O)=O
REMARK SMILES IDX 16 1 15 2 14 3 13 4 12 5 10 6 11 7 9 8 2 9 1 10 3 11 4 12
REMARK SMILES IDX 8 13 5 14 7 15 6 16 84 17 85 18 86 19 87 20 17 21 18 22
REMARK SMILES IDX 19 23 20 24 21 25 22 26 83 27 23 28 82 29 24 30 25 31 26 32
REMARK SMILES IDX 76 33 27 34 81 35 75 36 77 37 28 38 80 39 74 40 73 41 29 43
REMARK SMILES IDX 61 44 41 45 60 46 42 47 45 48 59 49 78 50 43 51 44 52 58 54
REMARK SMILES IDX 79 55 46 56 30 57 31 58 39 59 32 60 38 61 40 62 37 63 33 64
REMARK SMILES IDX 34 65 35 66 36 67 62 68 63 69 71 70 64 71 70 72 72 73 69 74
REMARK SMILES IDX 65 75 66 76 67 77 68 78 47 79 48 80 56 81 49 82 55 83 57 84
REMARK SMILES IDX 54 85 50 86 51 87 52 88 53 89
REMARK H PARENT 77 42 45 53
REMARK Flexibility Score: inf
ROOT
ATOM      1  C   UNL A   1      31.658  31.183  26.342  1.00  0.00     0.202 C 
ENDROOT
BRANCH   1   2
ATOM      2  O   UNL A   1      32.058  30.136  27.223  1.00  0.00    -0.374 OA
BRANCH   2   3
ATOM      3  C   UNL A   1      32.465  28.905  26.634  1.00  0.00     0.202 C 
BRANCH   3   4
ATOM      4  C   UNL A   1      33.518  28.967  25.523  1.00  0.00     0.261 C 
BRANCH   4   5
ATOM      5  O   UNL A   1      33.852  27.673  24.984  1.00  0.00    -0.462 OA
BRANCH   5   6
ATOM      6  C   UNL A   1      32.789  26.845  24.767  1.00  0.00     0.328 C 
ATOM      7  O   UNL A   1      32.571  25.845  25.442  1.00  0.00    -0.250 OA
BRANCH   6   8
ATOM      8  C   UNL A   1      31.959  27.221  23.547  1.00  0.00     0.247 C 
BRANCH   8   9
ATOM      9  C   UNL A   1      30.453  26.931  23.567  1.00  0.00    -0.019 C 
ATOM     10  C   UNL A   1      29.860  25.766  23.896  1.00  0.00     0.015 C 
BRANCH   9  11
ATOM     11  C   UNL A   1      29.546  28.002  23.076  1.00  0.00    -0.021 A 
ATOM     12  C   UNL A   1      28.164  27.947  23.313  1.00  0.00     0.008 A 
ATOM     13  C   UNL A   1      30.062  29.127  22.411  1.00  0.00     0.008 A 
ATOM     14  C   UNL A   1      27.327  28.990  22.907  1.00  0.00     0.001 A 
ATOM     15  C   UNL A   1      29.226  30.175  22.018  1.00  0.00     0.001 A 
ATOM     16  C   UNL A   1      27.859  30.107  22.268  1.00  0.00     0.000 A 
ENDBRANCH   9  11
ENDBRANCH   8   9
BRANCH   8  17
ATOM     17  S   UNL A   1      32.771  26.463  22.119  1.00  0.00     0.165 S 
ATOM     18  C   UNL A   1      33.453  24.947  22.743  1.00  0.00     0.159 C 
ATOM     19  O   UNL A   1      31.768  26.034  21.160  1.00  0.00    -0.228 OA
ATOM     20  O   UNL A   1      33.892  27.280  21.684  1.00  0.00    -0.228 OA
ENDBRANCH   8  17
ENDBRANCH   6   8
ENDBRANCH   5   6
ENDBRANCH   4   5
ENDBRANCH   3   4
ENDBRANCH   2   3
ENDBRANCH   1   2
BRANCH   1  21
ATOM     21  C   UNL A   1      31.687  32.618  26.889  1.00  0.00     0.261 C 
BRANCH  21  22
ATOM     22  O   UNL A   1      32.986  33.231  26.781  1.00  0.00    -0.460 OA
BRANCH  22  23
ATOM     23  C   UNL A   1      33.513  33.639  27.962  1.00  0.00     0.338 C 
ATOM     24  O   UNL A   1      32.996  34.399  28.771  1.00  0.00    -0.246 OA
BRANCH  23  25
ATOM     25  C   UNL A   1      34.749  32.892  28.268  1.00  0.00     0.060 A 
ATOM     26  C   UNL A   1      34.613  31.546  28.633  1.00  0.00     0.016 A 
ATOM     27  C   UNL A   1      36.004  33.504  28.282  1.00  0.00     0.016 A 
ATOM     28  C   UNL A   1      35.720  30.821  29.069  1.00  0.00     0.010 A 
ATOM     29  C   UNL A   1      37.114  32.777  28.729  1.00  0.00     0.010 A 
ATOM     30  C   UNL A   1      36.971  31.443  29.161  1.00  0.00    -0.014 A 
BRANCH  30  31
ATOM     31  C   UNL A   1      38.083  30.750  29.860  1.00  0.00     0.031 A 
ATOM     32  C   UNL A   1      38.303  31.027  31.324  1.00  0.00     0.074 A 
ATOM     33  C   UNL A   1      38.863  29.866  29.211  1.00  0.00     0.049 A 
ATOM     34  N   UNL A   1      39.231  30.574  32.125  1.00  0.00    -0.248 NA
ATOM     35  C   UNL A   1      37.347  31.944  31.969  1.00  0.00     0.031 C 
ATOM     36  C   UNL A   1      38.714  29.480  27.807  1.00  0.00     0.029 A 
ATOM     37  N   UNL A   1      39.942  29.136  29.644  1.00  0.00    -0.354 N 
ATOM     38  C   UNL A   1      38.985  31.161  33.363  1.00  0.00     0.074 A 
ATOM     39  C   UNL A   1      37.831  32.019  33.200  1.00  0.00     0.031 C 
ATOM     40  C   UNL A   1      39.678  28.599  27.492  1.00  0.00     0.029 A 
ATOM     41  C   UNL A   1      40.537  28.386  28.655  1.00  0.00     0.049 A 
ATOM     42  H   UNL A   1      40.263  29.149  30.575  1.00  0.00     0.167 HD
ATOM     43  C   UNL A   1      39.662  30.998  34.526  1.00  0.00     0.034 A 
ATOM     44  C   UNL A   1      41.661  27.640  28.681  1.00  0.00     0.034 A 
ATOM     45  C   UNL A   1      40.802  30.129  34.674  1.00  0.00     0.049 A 
ATOM     46  C   UNL A   1      42.433  27.526  29.976  1.00  0.00     0.074 A 
ATOM     47  C   UNL A   1      41.528  29.852  35.819  1.00  0.00     0.029 A 
ATOM     48  N   UNL A   1      41.392  29.408  33.645  1.00  0.00    -0.354 N 
ATOM     49  N   UNL A   1      42.167  28.060  31.147  1.00  0.00    -0.248 NA
ATOM     50  C   UNL A   1      43.651  26.705  29.957  1.00  0.00     0.031 C 
ATOM     51  C   UNL A   1      42.602  29.026  35.468  1.00  0.00     0.029 A 
ATOM     52  C   UNL A   1      42.500  28.722  34.120  1.00  0.00     0.049 A 
ATOM     53  H   UNL A   1      41.073  29.387  32.714  1.00  0.00     0.167 HD
ATOM     54  C   UNL A   1      43.164  27.604  32.008  1.00  0.00     0.074 A 
ATOM     55  C   UNL A   1      44.028  26.746  31.226  1.00  0.00     0.031 C 
ATOM     56  C   UNL A   1      43.349  27.867  33.327  1.00  0.00     0.034 A 
BRANCH  43  57
ATOM     57  C   UNL A   1      39.229  31.819  35.714  1.00  0.00     0.023 A 
ATOM     58  C   UNL A   1      38.459  31.279  36.758  1.00  0.00     0.031 A 
ATOM     59  C   UNL A   1      39.611  33.171  35.805  1.00  0.00     0.131 A 
ATOM     60  C   UNL A   1      38.059  32.099  37.825  1.00  0.00     0.055 A 
ATOM     61  C   UNL A   1      39.265  33.962  36.901  1.00  0.00     0.041 A 
ATOM     62  F   UNL A   1      40.326  33.745  34.824  1.00  0.00    -0.206 F 
ATOM     63  C   UNL A   1      38.477  33.429  37.916  1.00  0.00     0.022 A 
BRANCH  60  64
ATOM     64  S   UNL A   1      36.899  31.431  39.049  1.00  0.00     0.124 S 
ATOM     65  O   UNL A   1      35.768  32.347  38.914  1.00  0.00    -0.237 OA
ATOM     66  O   UNL A   1      36.681  30.072  38.570  1.00  0.00    -0.237 OA
ATOM     67  O   UNL A   1      37.630  31.539  40.310  1.00  0.00    -0.744 OA
ENDBRANCH  60  64
ENDBRANCH  43  57
BRANCH  44  68
ATOM     68  C   UNL A   1      42.172  26.984  27.440  1.00  0.00     0.023 A 
ATOM     69  C   UNL A   1      42.187  25.586  27.307  1.00  0.00     0.031 A 
ATOM     70  C   UNL A   1      42.741  27.747  26.404  1.00  0.00     0.131 A 
ATOM     71  C   UNL A   1      42.816  24.995  26.198  1.00  0.00     0.055 A 
ATOM     72  C   UNL A   1      43.307  27.156  25.273  1.00  0.00     0.041 A 
ATOM     73  F   UNL A   1      42.759  29.088  26.478  1.00  0.00    -0.206 F 
ATOM     74  C   UNL A   1      43.364  25.770  25.174  1.00  0.00     0.022 A 
BRANCH  71  75
ATOM     75  S   UNL A   1      43.019  23.191  26.177  1.00  0.00     0.124 S 
ATOM     76  O   UNL A   1      44.407  23.045  26.603  1.00  0.00    -0.237 OA
ATOM     77  O   UNL A   1      42.005  22.762  27.132  1.00  0.00    -0.237 OA
ATOM     78  O   UNL A   1      42.754  22.837  24.784  1.00  0.00    -0.744 OA
ENDBRANCH  71  75
ENDBRANCH  44  68
BRANCH  56  79
ATOM     79  C   UNL A   1      44.495  27.169  34.016  1.00  0.00     0.023 A 
ATOM     80  C   UNL A   1      44.365  25.872  34.543  1.00  0.00     0.031 A 
ATOM     81  C   UNL A   1      45.739  27.814  34.143  1.00  0.00     0.131 A 
ATOM     82  C   UNL A   1      45.445  25.281  35.217  1.00  0.00     0.055 A 
ATOM     83  C   UNL A   1      46.826  27.198  34.762  1.00  0.00     0.041 A 
ATOM     84  F   UNL A   1      45.918  29.053  33.657  1.00  0.00    -0.206 F 
ATOM     85  C   UNL A   1      46.680  25.929  35.314  1.00  0.00     0.022 A 
BRANCH  82  86
ATOM     86  S   UNL A   1      45.192  23.683  36.036  1.00  0.00     0.124 S 
ATOM     87  O   UNL A   1      45.168  24.063  37.445  1.00  0.00    -0.237 OA
ATOM     88  O   UNL A   1      43.921  23.240  35.473  1.00  0.00    -0.237 OA
ATOM     89  O   UNL A   1      46.356  22.899  35.626  1.00  0.00    -0.744 OA
ENDBRANCH  82  86
ENDBRANCH  56  79
ENDBRANCH  30  31
ENDBRANCH  23  25
ENDBRANCH  22  23
ENDBRANCH  21  22
ENDBRANCH   1  21
TORSDOF 20
ENDMDL
