MODEL 1
REMARK VINA RESULT:     -10.5      0.000      0.000
REMARK SMILES C/C=C/C[C@H](Cc1cccc(F)c1)C(=O)OCCOCCOC(=O)c1ccc(-c2c3nc(c(-c4cc(S(=O)(=O)[O-])ccc4F)c4ccc([nH]4)c(-c4cc(S(=O)(=O)[O-])ccc4F)c4nc(c(-c5cc(S(=O)(=O)[O-])ccc5F)c5ccc2[nH]5)C=C4)C=C3)cc1
REMARK SMILES IDX 20 1 19 2 18 3 17 4 16 5 14 6 15 7 5 8 4 9 3 10 1 11 2 12
REMARK SMILES IDX 6 13 7 14 8 15 13 16 9 17 11 18 10 19 12 20 21 21 22 22
REMARK SMILES IDX 23 23 24 24 25 25 26 26 87 27 27 28 86 29 28 30 29 31 30 32
REMARK SMILES IDX 80 33 31 34 85 35 79 36 81 37 32 38 84 39 78 40 77 41 33 43
REMARK SMILES IDX 65 44 45 45 64 46 46 47 49 48 63 49 82 50 47 51 48 52 62 54
REMARK SMILES IDX 83 55 50 56 34 57 35 58 43 59 36 60 42 61 44 62 41 63 37 64
REMARK SMILES IDX 38 65 39 66 40 67 66 68 67 69 75 70 68 71 74 72 76 73 73 74
REMARK SMILES IDX 69 75 70 76 71 77 72 78 51 79 52 80 60 81 53 82 59 83 61 84
REMARK SMILES IDX 58 85 54 86 55 87 56 88 57 89
REMARK H PARENT 81 42 49 53
REMARK Flexibility Score: inf
ROOT
ATOM      1  C   UNL A   1      32.316  29.734  25.318  1.00  0.00     0.202 C 
ENDROOT
BRANCH   1   2
ATOM      2  O   UNL A   1      31.327  29.219  24.444  1.00  0.00    -0.374 OA
BRANCH   2   3
ATOM      3  C   UNL A   1      31.492  27.899  23.944  1.00  0.00     0.202 C 
BRANCH   3   4
ATOM      4  C   UNL A   1      31.130  27.608  22.484  1.00  0.00     0.261 C 
BRANCH   4   5
ATOM      5  O   UNL A   1      31.290  26.240  22.040  1.00  0.00    -0.463 OA
BRANCH   5   6
ATOM      6  C   UNL A   1      32.575  25.840  21.831  1.00  0.00     0.309 C 
ATOM      7  O   UNL A   1      33.296  26.278  20.937  1.00  0.00    -0.252 OA
BRANCH   6   8
ATOM      8  C   UNL A   1      33.033  24.674  22.702  1.00  0.00     0.107 C 
BRANCH   8   9
ATOM      9  C   UNL A   1      31.764  23.918  23.181  1.00  0.00     0.042 C 
BRANCH   9  10
ATOM     10  C   UNL A   1      31.840  22.424  22.970  1.00  0.00    -0.031 C 
ATOM     11  C   UNL A   1      32.532  20.115  23.635  1.00  0.00     0.035 C 
ATOM     12  C   UNL A   1      32.241  21.557  23.913  1.00  0.00    -0.035 C 
ENDBRANCH   9  10
ENDBRANCH   8   9
BRANCH   8  13
ATOM     13  C   UNL A   1      33.982  24.935  23.884  1.00  0.00     0.051 C 
BRANCH  13  14
ATOM     14  C   UNL A   1      34.866  23.860  24.477  1.00  0.00    -0.044 A 
ATOM     15  C   UNL A   1      35.886  23.357  23.639  1.00  0.00     0.004 A 
ATOM     16  C   UNL A   1      34.681  23.264  25.728  1.00  0.00     0.043 A 
ATOM     17  C   UNL A   1      36.613  22.216  23.981  1.00  0.00     0.003 A 
ATOM     18  C   UNL A   1      35.410  22.115  26.056  1.00  0.00     0.123 A 
ATOM     19  C   UNL A   1      36.352  21.574  25.186  1.00  0.00     0.039 A 
ATOM     20  F   UNL A   1      35.130  21.465  27.194  1.00  0.00    -0.207 F 
ENDBRANCH  13  14
ENDBRANCH   8  13
ENDBRANCH   6   8
ENDBRANCH   5   6
ENDBRANCH   4   5
ENDBRANCH   3   4
ENDBRANCH   2   3
ENDBRANCH   1   2
BRANCH   1  21
ATOM     21  C   UNL A   1      31.973  30.917  26.228  1.00  0.00     0.261 C 
BRANCH  21  22
ATOM     22  O   UNL A   1      32.667  30.988  27.458  1.00  0.00    -0.460 OA
BRANCH  22  23
ATOM     23  C   UNL A   1      33.429  32.080  27.628  1.00  0.00     0.338 C 
ATOM     24  O   UNL A   1      33.156  33.244  27.428  1.00  0.00    -0.246 OA
BRANCH  23  25
ATOM     25  C   UNL A   1      34.730  31.565  28.047  1.00  0.00     0.060 A 
ATOM     26  C   UNL A   1      34.879  30.194  28.254  1.00  0.00     0.016 A 
ATOM     27  C   UNL A   1      35.784  32.465  28.225  1.00  0.00     0.016 A 
ATOM     28  C   UNL A   1      36.091  29.722  28.734  1.00  0.00     0.010 A 
ATOM     29  C   UNL A   1      37.002  31.985  28.686  1.00  0.00     0.010 A 
ATOM     30  C   UNL A   1      37.137  30.621  28.991  1.00  0.00    -0.014 A 
BRANCH  30  31
ATOM     31  C   UNL A   1      38.314  30.148  29.741  1.00  0.00     0.031 A 
ATOM     32  C   UNL A   1      38.509  30.651  31.143  1.00  0.00     0.074 A 
ATOM     33  C   UNL A   1      39.132  29.238  29.189  1.00  0.00     0.049 A 
ATOM     34  N   UNL A   1      39.460  30.372  31.993  1.00  0.00    -0.248 NA
ATOM     35  C   UNL A   1      37.499  31.592  31.659  1.00  0.00     0.031 C 
ATOM     36  C   UNL A   1      38.972  28.670  27.848  1.00  0.00     0.029 A 
ATOM     37  N   UNL A   1      40.245  28.619  29.687  1.00  0.00    -0.354 N 
ATOM     38  C   UNL A   1      39.163  31.098  33.140  1.00  0.00     0.074 A 
ATOM     39  C   UNL A   1      37.967  31.863  32.868  1.00  0.00     0.031 C 
ATOM     40  C   UNL A   1      39.943  27.766  27.641  1.00  0.00     0.029 A 
ATOM     41  C   UNL A   1      40.814  27.725  28.812  1.00  0.00     0.049 A 
ATOM     42  H   UNL A   1      40.603  28.795  30.586  1.00  0.00     0.167 HD
ATOM     43  C   UNL A   1      39.827  31.106  34.318  1.00  0.00     0.034 A 
ATOM     44  C   UNL A   1      41.925  26.975  28.944  1.00  0.00     0.034 A 
ATOM     45  C   UNL A   1      41.012  30.326  34.555  1.00  0.00     0.049 A 
ATOM     46  C   UNL A   1      42.689  27.060  30.238  1.00  0.00     0.074 A 
ATOM     47  C   UNL A   1      41.779  30.252  35.702  1.00  0.00     0.029 A 
ATOM     48  N   UNL A   1      41.602  29.483  33.622  1.00  0.00    -0.354 N 
ATOM     49  N   UNL A   1      42.416  27.775  31.307  1.00  0.00    -0.248 NA
ATOM     50  C   UNL A   1      43.904  26.245  30.350  1.00  0.00     0.031 C 
ATOM     51  C   UNL A   1      42.867  29.415  35.442  1.00  0.00     0.029 A 
ATOM     52  C   UNL A   1      42.739  28.906  34.157  1.00  0.00     0.049 A 
ATOM     53  H   UNL A   1      41.261  29.319  32.713  1.00  0.00     0.167 HD
ATOM     54  C   UNL A   1      43.417  27.482  32.226  1.00  0.00     0.074 A 
ATOM     55  C   UNL A   1      44.294  26.519  31.588  1.00  0.00     0.031 C 
ATOM     56  C   UNL A   1      43.595  27.958  33.485  1.00  0.00     0.034 A 
BRANCH  43  57
ATOM     57  C   UNL A   1      39.314  32.004  35.413  1.00  0.00     0.023 A 
ATOM     58  C   UNL A   1      39.777  33.321  35.568  1.00  0.00     0.031 A 
ATOM     59  C   UNL A   1      38.327  31.540  36.300  1.00  0.00     0.131 A 
ATOM     60  C   UNL A   1      39.273  34.121  36.605  1.00  0.00     0.055 A 
ATOM     61  C   UNL A   1      37.788  32.359  37.294  1.00  0.00     0.041 A 
ATOM     62  F   UNL A   1      37.867  30.282  36.213  1.00  0.00    -0.206 F 
ATOM     63  C   UNL A   1      38.264  33.657  37.453  1.00  0.00     0.022 A 
BRANCH  60  64
ATOM     64  S   UNL A   1      39.998  35.762  36.875  1.00  0.00     0.124 S 
ATOM     65  O   UNL A   1      39.651  36.445  35.632  1.00  0.00    -0.237 OA
ATOM     66  O   UNL A   1      39.303  36.222  38.072  1.00  0.00    -0.237 OA
ATOM     67  O   UNL A   1      41.423  35.483  37.051  1.00  0.00    -0.744 OA
ENDBRANCH  60  64
ENDBRANCH  43  57
BRANCH  44  68
ATOM     68  C   UNL A   1      42.376  26.111  27.818  1.00  0.00     0.023 A 
ATOM     69  C   UNL A   1      41.937  24.785  27.697  1.00  0.00     0.031 A 
ATOM     70  C   UNL A   1      43.238  26.617  26.828  1.00  0.00     0.131 A 
ATOM     71  C   UNL A   1      42.374  24.002  26.615  1.00  0.00     0.055 A 
ATOM     72  C   UNL A   1      43.638  25.848  25.734  1.00  0.00     0.041 A 
ATOM     73  F   UNL A   1      43.679  27.883  26.893  1.00  0.00    -0.206 F 
ATOM     74  C   UNL A   1      43.208  24.529  25.626  1.00  0.00     0.022 A 
BRANCH  71  75
ATOM     75  S   UNL A   1      41.853  22.268  26.528  1.00  0.00     0.124 S 
ATOM     76  O   UNL A   1      42.305  21.757  27.817  1.00  0.00    -0.237 OA
ATOM     77  O   UNL A   1      40.409  22.392  26.356  1.00  0.00    -0.237 OA
ATOM     78  O   UNL A   1      42.572  21.754  25.365  1.00  0.00    -0.744 OA
ENDBRANCH  71  75
ENDBRANCH  44  68
BRANCH  56  79
ATOM     79  C   UNL A   1      44.769  27.428  34.261  1.00  0.00     0.023 A 
ATOM     80  C   UNL A   1      44.659  26.275  35.052  1.00  0.00     0.031 A 
ATOM     81  C   UNL A   1      46.024  28.050  34.151  1.00  0.00     0.131 A 
ATOM     82  C   UNL A   1      45.785  25.790  35.730  1.00  0.00     0.055 A 
ATOM     83  C   UNL A   1      47.153  27.532  34.786  1.00  0.00     0.041 A 
ATOM     84  F   UNL A   1      46.178  29.152  33.400  1.00  0.00    -0.206 F 
ATOM     85  C   UNL A   1      47.035  26.399  35.585  1.00  0.00     0.022 A 
BRANCH  82  86
ATOM     86  S   UNL A   1      45.588  24.368  36.835  1.00  0.00     0.124 S 
ATOM     87  O   UNL A   1      45.295  23.293  35.893  1.00  0.00    -0.237 OA
ATOM     88  O   UNL A   1      46.887  24.298  37.497  1.00  0.00    -0.237 OA
ATOM     89  O   UNL A   1      44.474  24.756  37.699  1.00  0.00    -0.744 OA
ENDBRANCH  82  86
ENDBRANCH  56  79
ENDBRANCH  30  31
ENDBRANCH  23  25
ENDBRANCH  22  23
ENDBRANCH  21  22
ENDBRANCH   1  21
TORSDOF 21
ENDMDL
MODEL 2
REMARK VINA RESULT:     -10.4      5.050      8.107
REMARK SMILES C/C=C/C[C@H](Cc1cccc(F)c1)C(=O)OCCOCCOC(=O)c1ccc(-c2c3nc(c(-c4cc(S(=O)(=O)[O-])ccc4F)c4ccc([nH]4)c(-c4cc(S(=O)(=O)[O-])ccc4F)c4nc(c(-c5cc(S(=O)(=O)[O-])ccc5F)c5ccc2[nH]5)C=C4)C=C3)cc1
REMARK SMILES IDX 20 1 19 2 18 3 17 4 16 5 14 6 15 7 5 8 4 9 3 10 1 11 2 12
REMARK SMILES IDX 6 13 7 14 8 15 13 16 9 17 11 18 10 19 12 20 21 21 22 22
REMARK SMILES IDX 23 23 24 24 25 25 26 26 87 27 27 28 86 29 28 30 29 31 30 32
REMARK SMILES IDX 80 33 31 34 85 35 79 36 81 37 32 38 84 39 78 40 77 41 33 43
REMARK SMILES IDX 65 44 45 45 64 46 46 47 49 48 63 49 82 50 47 51 48 52 62 54
REMARK SMILES IDX 83 55 50 56 34 57 35 58 43 59 36 60 42 61 44 62 41 63 37 64
REMARK SMILES IDX 38 65 39 66 40 67 66 68 67 69 75 70 68 71 74 72 76 73 73 74
REMARK SMILES IDX 69 75 70 76 71 77 72 78 51 79 52 80 60 81 53 82 59 83 61 84
REMARK SMILES IDX 58 85 54 86 55 87 56 88 57 89
REMARK H PARENT 81 42 49 53
REMARK Flexibility Score: inf
ROOT
ATOM      1  C   UNL A   1      35.707  21.409  24.679  1.00  0.00     0.202 C 
ENDROOT
BRANCH   1   2
ATOM      2  O   UNL A   1      34.462  20.959  25.184  1.00  0.00    -0.374 OA
BRANCH   2   3
ATOM      3  C   UNL A   1      33.277  21.585  24.711  1.00  0.00     0.202 C 
BRANCH   3   4
ATOM      4  C   UNL A   1      32.178  21.946  25.714  1.00  0.00     0.261 C 
BRANCH   4   5
ATOM      5  O   UNL A   1      31.219  22.943  25.289  1.00  0.00    -0.463 OA
BRANCH   5   6
ATOM      6  C   UNL A   1      31.194  24.084  26.033  1.00  0.00     0.309 C 
ATOM      7  O   UNL A   1      31.114  24.106  27.258  1.00  0.00    -0.252 OA
BRANCH   6   8
ATOM      8  C   UNL A   1      31.117  25.374  25.222  1.00  0.00     0.107 C 
BRANCH   8   9
ATOM      9  C   UNL A   1      30.800  26.532  26.207  1.00  0.00     0.042 C 
BRANCH   9  10
ATOM     10  C   UNL A   1      31.883  27.584  26.263  1.00  0.00    -0.031 C 
ATOM     11  C   UNL A   1      32.799  29.861  25.787  1.00  0.00     0.035 C 
ATOM     12  C   UNL A   1      31.686  28.874  25.949  1.00  0.00    -0.035 C 
ENDBRANCH   9  10
ENDBRANCH   8   9
BRANCH   8  13
ATOM     13  C   UNL A   1      30.192  25.445  23.994  1.00  0.00     0.051 C 
BRANCH  13  14
ATOM     14  C   UNL A   1      29.718  26.754  23.401  1.00  0.00    -0.044 A 
ATOM     15  C   UNL A   1      30.694  27.526  22.731  1.00  0.00     0.004 A 
ATOM     16  C   UNL A   1      28.438  27.294  23.559  1.00  0.00     0.043 A 
ATOM     17  C   UNL A   1      30.440  28.843  22.345  1.00  0.00     0.003 A 
ATOM     18  C   UNL A   1      28.200  28.619  23.177  1.00  0.00     0.123 A 
ATOM     19  C   UNL A   1      29.193  29.403  22.597  1.00  0.00     0.039 A 
ATOM     20  F   UNL A   1      27.016  29.179  23.459  1.00  0.00    -0.207 F 
ENDBRANCH  13  14
ENDBRANCH   8  13
ENDBRANCH   6   8
ENDBRANCH   5   6
ENDBRANCH   4   5
ENDBRANCH   3   4
ENDBRANCH   2   3
ENDBRANCH   1   2
BRANCH   1  21
ATOM     21  C   UNL A   1      37.005  20.864  25.283  1.00  0.00     0.261 C 
BRANCH  21  22
ATOM     22  O   UNL A   1      38.114  21.741  25.287  1.00  0.00    -0.460 OA
BRANCH  22  23
ATOM     23  C   UNL A   1      39.101  21.416  26.138  1.00  0.00     0.338 C 
ATOM     24  O   UNL A   1      39.469  20.321  26.504  1.00  0.00    -0.246 OA
BRANCH  23  25
ATOM     25  C   UNL A   1      39.620  22.696  26.613  1.00  0.00     0.060 A 
ATOM     26  C   UNL A   1      39.062  23.876  26.121  1.00  0.00     0.016 A 
ATOM     27  C   UNL A   1      40.658  22.696  27.548  1.00  0.00     0.016 A 
ATOM     28  C   UNL A   1      39.614  25.086  26.510  1.00  0.00     0.010 A 
ATOM     29  C   UNL A   1      41.195  23.911  27.951  1.00  0.00     0.010 A 
ATOM     30  C   UNL A   1      40.707  25.102  27.390  1.00  0.00    -0.014 A 
BRANCH  30  31
ATOM     31  C   UNL A   1      41.445  26.364  27.586  1.00  0.00     0.031 A 
ATOM     32  C   UNL A   1      40.805  27.435  28.423  1.00  0.00     0.074 A 
ATOM     33  C   UNL A   1      42.681  26.495  27.080  1.00  0.00     0.049 A 
ATOM     34  N   UNL A   1      41.262  28.617  28.736  1.00  0.00    -0.248 NA
ATOM     35  C   UNL A   1      39.474  27.137  28.981  1.00  0.00     0.031 C 
ATOM     36  C   UNL A   1      43.381  25.473  26.299  1.00  0.00     0.029 A 
ATOM     37  N   UNL A   1      43.572  27.529  27.160  1.00  0.00    -0.354 N 
ATOM     38  C   UNL A   1      40.280  29.200  29.529  1.00  0.00     0.074 A 
ATOM     39  C   UNL A   1      39.184  28.263  29.615  1.00  0.00     0.031 C 
ATOM     40  C   UNL A   1      44.608  25.926  25.991  1.00  0.00     0.029 A 
ATOM     41  C   UNL A   1      44.759  27.282  26.513  1.00  0.00     0.049 A 
ATOM     42  H   UNL A   1      43.383  28.369  27.636  1.00  0.00     0.167 HD
ATOM     43  C   UNL A   1      40.309  30.407  30.139  1.00  0.00     0.034 A 
ATOM     44  C   UNL A   1      45.836  28.074  26.350  1.00  0.00     0.034 A 
ATOM     45  C   UNL A   1      41.422  31.313  30.034  1.00  0.00     0.049 A 
ATOM     46  C   UNL A   1      45.811  29.443  26.976  1.00  0.00     0.074 A 
ATOM     47  C   UNL A   1      41.569  32.565  30.600  1.00  0.00     0.029 A 
ATOM     48  N   UNL A   1      42.581  31.058  29.312  1.00  0.00    -0.354 N 
ATOM     49  N   UNL A   1      44.863  29.998  27.699  1.00  0.00    -0.248 NA
ATOM     50  C   UNL A   1      46.990  30.292  26.770  1.00  0.00     0.031 C 
ATOM     51  C   UNL A   1      42.788  33.094  30.168  1.00  0.00     0.029 A 
ATOM     52  C   UNL A   1      43.437  32.141  29.394  1.00  0.00     0.049 A 
ATOM     53  H   UNL A   1      42.767  30.229  28.815  1.00  0.00     0.167 HD
ATOM     54  C   UNL A   1      45.340  31.256  28.048  1.00  0.00     0.074 A 
ATOM     55  C   UNL A   1      46.662  31.373  27.465  1.00  0.00     0.031 C 
ATOM     56  C   UNL A   1      44.744  32.226  28.789  1.00  0.00     0.034 A 
BRANCH  43  57
ATOM     57  C   UNL A   1      39.099  30.827  30.932  1.00  0.00     0.023 A 
ATOM     58  C   UNL A   1      38.104  31.652  30.382  1.00  0.00     0.031 A 
ATOM     59  C   UNL A   1      38.929  30.374  32.252  1.00  0.00     0.131 A 
ATOM     60  C   UNL A   1      36.995  32.021  31.159  1.00  0.00     0.055 A 
ATOM     61  C   UNL A   1      37.796  30.697  33.000  1.00  0.00     0.041 A 
ATOM     62  F   UNL A   1      39.863  29.604  32.834  1.00  0.00    -0.206 F 
ATOM     63  C   UNL A   1      36.823  31.529  32.456  1.00  0.00     0.022 A 
BRANCH  60  64
ATOM     64  S   UNL A   1      35.804  33.206  30.477  1.00  0.00     0.124 S 
ATOM     65  O   UNL A   1      34.607  32.379  30.347  1.00  0.00    -0.237 OA
ATOM     66  O   UNL A   1      35.758  34.238  31.506  1.00  0.00    -0.237 OA
ATOM     67  O   UNL A   1      36.413  33.615  29.212  1.00  0.00    -0.744 OA
ENDBRANCH  60  64
ENDBRANCH  43  57
BRANCH  44  68
ATOM     68  C   UNL A   1      46.997  27.594  25.551  1.00  0.00     0.023 A 
ATOM     69  C   UNL A   1      47.111  27.886  24.184  1.00  0.00     0.031 A 
ATOM     70  C   UNL A   1      48.029  26.855  26.159  1.00  0.00     0.131 A 
ATOM     71  C   UNL A   1      48.226  27.428  23.464  1.00  0.00     0.055 A 
ATOM     72  C   UNL A   1      49.154  26.435  25.447  1.00  0.00     0.041 A 
ATOM     73  F   UNL A   1      47.972  26.557  27.466  1.00  0.00    -0.206 F 
ATOM     74  C   UNL A   1      49.254  26.718  24.089  1.00  0.00     0.022 A 
BRANCH  71  75
ATOM     75  S   UNL A   1      48.306  27.752  21.682  1.00  0.00     0.124 S 
ATOM     76  O   UNL A   1      49.437  28.670  21.597  1.00  0.00    -0.237 OA
ATOM     77  O   UNL A   1      48.521  26.415  21.138  1.00  0.00    -0.237 OA
ATOM     78  O   UNL A   1      47.001  28.339  21.384  1.00  0.00    -0.744 OA
ENDBRANCH  71  75
ENDBRANCH  44  68
BRANCH  56  79
ATOM     79  C   UNL A   1      45.527  33.487  29.028  1.00  0.00     0.023 A 
ATOM     80  C   UNL A   1      45.419  34.587  28.164  1.00  0.00     0.031 A 
ATOM     81  C   UNL A   1      46.337  33.607  30.171  1.00  0.00     0.131 A 
ATOM     82  C   UNL A   1      46.135  35.759  28.443  1.00  0.00     0.055 A 
ATOM     83  C   UNL A   1      47.005  34.794  30.470  1.00  0.00     0.041 A 
ATOM     84  F   UNL A   1      46.465  32.582  31.028  1.00  0.00    -0.206 F 
ATOM     85  C   UNL A   1      46.910  35.876  29.600  1.00  0.00     0.022 A 
BRANCH  82  86
ATOM     86  S   UNL A   1      46.067  37.122  27.250  1.00  0.00     0.124 S 
ATOM     87  O   UNL A   1      46.910  36.618  26.170  1.00  0.00    -0.237 OA
ATOM     88  O   UNL A   1      44.641  37.213  26.955  1.00  0.00    -0.237 OA
ATOM     89  O   UNL A   1      46.618  38.254  27.992  1.00  0.00    -0.744 OA
ENDBRANCH  82  86
ENDBRANCH  56  79
ENDBRANCH  30  31
ENDBRANCH  23  25
ENDBRANCH  22  23
ENDBRANCH  21  22
ENDBRANCH   1  21
TORSDOF 21
ENDMDL
MODEL 3
REMARK VINA RESULT:     -10.4      4.817     10.100
REMARK SMILES C/C=C/C[C@H](Cc1cccc(F)c1)C(=O)OCCOCCOC(=O)c1ccc(-c2c3nc(c(-c4cc(S(=O)(=O)[O-])ccc4F)c4ccc([nH]4)c(-c4cc(S(=O)(=O)[O-])ccc4F)c4nc(c(-c5cc(S(=O)(=O)[O-])ccc5F)c5ccc2[nH]5)C=C4)C=C3)cc1
REMARK SMILES IDX 20 1 19 2 18 3 17 4 16 5 14 6 15 7 5 8 4 9 3 10 1 11 2 12
REMARK SMILES IDX 6 13 7 14 8 15 13 16 9 17 11 18 10 19 12 20 21 21 22 22
REMARK SMILES IDX 23 23 24 24 25 25 26 26 87 27 27 28 86 29 28 30 29 31 30 32
REMARK SMILES IDX 80 33 31 34 85 35 79 36 81 37 32 38 84 39 78 40 77 41 33 43
REMARK SMILES IDX 65 44 45 45 64 46 46 47 49 48 63 49 82 50 47 51 48 52 62 54
REMARK SMILES IDX 83 55 50 56 34 57 35 58 43 59 36 60 42 61 44 62 41 63 37 64
REMARK SMILES IDX 38 65 39 66 40 67 66 68 67 69 75 70 68 71 74 72 76 73 73 74
REMARK SMILES IDX 69 75 70 76 71 77 72 78 51 79 52 80 60 81 53 82 59 83 61 84
REMARK SMILES IDX 58 85 54 86 55 87 56 88 57 89
REMARK H PARENT 81 42 49 53
REMARK Flexibility Score: inf
ROOT
ATOM      1  C   UNL A   1      36.343  19.473  25.011  1.00  0.00     0.202 C 
ENDROOT
BRANCH   1   2
ATOM      2  O   UNL A   1      35.067  19.867  24.538  1.00  0.00    -0.374 OA
BRANCH   2   3
ATOM      3  C   UNL A   1      34.189  20.529  25.438  1.00  0.00     0.202 C 
BRANCH   3   4
ATOM      4  C   UNL A   1      32.926  21.197  24.886  1.00  0.00     0.261 C 
BRANCH   4   5
ATOM      5  O   UNL A   1      32.023  21.773  25.859  1.00  0.00    -0.463 OA
BRANCH   5   6
ATOM      6  C   UNL A   1      32.561  22.738  26.655  1.00  0.00     0.309 C 
ATOM      7  O   UNL A   1      32.673  22.642  27.874  1.00  0.00    -0.252 OA
BRANCH   6   8
ATOM      8  C   UNL A   1      32.888  24.046  25.941  1.00  0.00     0.107 C 
BRANCH   8   9
ATOM      9  C   UNL A   1      34.339  24.444  26.325  1.00  0.00     0.042 C 
BRANCH   9  10
ATOM     10  C   UNL A   1      35.386  23.832  25.424  1.00  0.00    -0.031 C 
ATOM     11  C   UNL A   1      36.248  23.093  23.196  1.00  0.00     0.035 C 
ATOM     12  C   UNL A   1      35.341  23.887  24.083  1.00  0.00    -0.035 C 
ENDBRANCH   9  10
ENDBRANCH   8   9
BRANCH   8  13
ATOM     13  C   UNL A   1      31.943  25.252  26.093  1.00  0.00     0.051 C 
BRANCH  13  14
ATOM     14  C   UNL A   1      32.414  26.683  25.961  1.00  0.00    -0.044 A 
ATOM     15  C   UNL A   1      32.023  27.568  26.991  1.00  0.00     0.004 A 
ATOM     16  C   UNL A   1      33.102  27.207  24.862  1.00  0.00     0.043 A 
ATOM     17  C   UNL A   1      32.196  28.947  26.871  1.00  0.00     0.003 A 
ATOM     18  C   UNL A   1      33.261  28.593  24.749  1.00  0.00     0.123 A 
ATOM     19  C   UNL A   1      32.794  29.465  25.728  1.00  0.00     0.039 A 
ATOM     20  F   UNL A   1      33.793  29.101  23.629  1.00  0.00    -0.207 F 
ENDBRANCH  13  14
ENDBRANCH   8  13
ENDBRANCH   6   8
ENDBRANCH   5   6
ENDBRANCH   4   5
ENDBRANCH   3   4
ENDBRANCH   2   3
ENDBRANCH   1   2
BRANCH   1  21
ATOM     21  C   UNL A   1      37.571  20.312  24.650  1.00  0.00     0.261 C 
BRANCH  21  22
ATOM     22  O   UNL A   1      38.036  21.208  25.642  1.00  0.00    -0.460 OA
BRANCH  22  23
ATOM     23  C   UNL A   1      39.304  21.018  26.040  1.00  0.00     0.338 C 
ATOM     24  O   UNL A   1      39.975  20.009  26.007  1.00  0.00    -0.246 OA
BRANCH  23  25
ATOM     25  C   UNL A   1      39.710  22.298  26.612  1.00  0.00     0.060 A 
ATOM     26  C   UNL A   1      39.062  23.461  26.196  1.00  0.00     0.016 A 
ATOM     27  C   UNL A   1      40.736  22.317  27.561  1.00  0.00     0.016 A 
ATOM     28  C   UNL A   1      39.509  24.682  26.678  1.00  0.00     0.010 A 
ATOM     29  C   UNL A   1      41.167  23.540  28.057  1.00  0.00     0.010 A 
ATOM     30  C   UNL A   1      40.588  24.724  27.574  1.00  0.00    -0.014 A 
BRANCH  30  31
ATOM     31  C   UNL A   1      41.217  26.024  27.869  1.00  0.00     0.031 A 
ATOM     32  C   UNL A   1      42.583  26.294  27.305  1.00  0.00     0.074 A 
ATOM     33  C   UNL A   1      40.536  26.948  28.565  1.00  0.00     0.049 A 
ATOM     34  N   UNL A   1      43.327  27.360  27.425  1.00  0.00    -0.248 NA
ATOM     35  C   UNL A   1      43.193  25.222  26.497  1.00  0.00     0.031 C 
ATOM     36  C   UNL A   1      39.185  26.769  29.100  1.00  0.00     0.029 A 
ATOM     37  N   UNL A   1      40.875  28.223  28.924  1.00  0.00    -0.354 N 
ATOM     38  C   UNL A   1      44.487  27.090  26.708  1.00  0.00     0.074 A 
ATOM     39  C   UNL A   1      44.370  25.746  26.190  1.00  0.00     0.031 C 
ATOM     40  C   UNL A   1      38.801  27.906  29.702  1.00  0.00     0.029 A 
ATOM     41  C   UNL A   1      39.894  28.873  29.634  1.00  0.00     0.049 A 
ATOM     42  H   UNL A   1      41.739  28.637  28.696  1.00  0.00     0.167 HD
ATOM     43  C   UNL A   1      45.544  27.905  26.493  1.00  0.00     0.034 A 
ATOM     44  C   UNL A   1      39.892  30.105  30.177  1.00  0.00     0.034 A 
ATOM     45  C   UNL A   1      45.623  29.242  27.021  1.00  0.00     0.049 A 
ATOM     46  C   UNL A   1      41.114  30.965  29.988  1.00  0.00     0.074 A 
ATOM     47  C   UNL A   1      46.642  30.164  26.879  1.00  0.00     0.029 A 
ATOM     48  N   UNL A   1      44.639  29.844  27.795  1.00  0.00    -0.354 N 
ATOM     49  N   UNL A   1      42.220  30.688  29.334  1.00  0.00    -0.248 NA
ATOM     50  C   UNL A   1      41.093  32.297  30.604  1.00  0.00     0.031 C 
ATOM     51  C   UNL A   1      46.304  31.299  27.620  1.00  0.00     0.029 A 
ATOM     52  C   UNL A   1      45.039  31.116  28.162  1.00  0.00     0.049 A 
ATOM     53  H   UNL A   1      43.783  29.428  28.045  1.00  0.00     0.167 HD
ATOM     54  C   UNL A   1      43.020  31.820  29.445  1.00  0.00     0.074 A 
ATOM     55  C   UNL A   1      42.266  32.784  30.221  1.00  0.00     0.031 C 
ATOM     56  C   UNL A   1      44.263  32.046  28.947  1.00  0.00     0.034 A 
BRANCH  43  57
ATOM     57  C   UNL A   1      46.702  27.367  25.694  1.00  0.00     0.023 A 
ATOM     58  C   UNL A   1      46.954  27.794  24.379  1.00  0.00     0.031 A 
ATOM     59  C   UNL A   1      47.580  26.432  26.267  1.00  0.00     0.131 A 
ATOM     60  C   UNL A   1      48.043  27.264  23.670  1.00  0.00     0.055 A 
ATOM     61  C   UNL A   1      48.695  25.951  25.577  1.00  0.00     0.041 A 
ATOM     62  F   UNL A   1      47.370  25.971  27.510  1.00  0.00    -0.206 F 
ATOM     63  C   UNL A   1      48.929  26.364  24.269  1.00  0.00     0.022 A 
BRANCH  60  64
ATOM     64  S   UNL A   1      48.257  27.718  21.927  1.00  0.00     0.124 S 
ATOM     65  O   UNL A   1      48.497  26.415  21.311  1.00  0.00    -0.237 OA
ATOM     66  O   UNL A   1      46.984  28.351  21.606  1.00  0.00    -0.237 OA
ATOM     67  O   UNL A   1      49.411  28.615  21.945  1.00  0.00    -0.744 OA
ENDBRANCH  60  64
ENDBRANCH  43  57
BRANCH  44  68
ATOM     68  C   UNL A   1      38.714  30.572  30.957  1.00  0.00     0.023 A 
ATOM     69  C   UNL A   1      37.647  31.238  30.338  1.00  0.00     0.031 A 
ATOM     70  C   UNL A   1      38.629  30.330  32.341  1.00  0.00     0.131 A 
ATOM     71  C   UNL A   1      36.544  31.653  31.103  1.00  0.00     0.055 A 
ATOM     72  C   UNL A   1      37.515  30.710  33.091  1.00  0.00     0.041 A 
ATOM     73  F   UNL A   1      39.620  29.688  32.980  1.00  0.00    -0.206 F 
ATOM     74  C   UNL A   1      36.465  31.381  32.471  1.00  0.00     0.022 A 
BRANCH  71  75
ATOM     75  S   UNL A   1      35.218  32.582  30.288  1.00  0.00     0.124 S 
ATOM     76  O   UNL A   1      34.281  32.788  31.387  1.00  0.00    -0.237 OA
ATOM     77  O   UNL A   1      35.923  33.768  29.813  1.00  0.00    -0.237 OA
ATOM     78  O   UNL A   1      34.760  31.673  29.239  1.00  0.00    -0.744 OA
ENDBRANCH  71  75
ENDBRANCH  44  68
BRANCH  56  79
ATOM     79  C   UNL A   1      44.874  33.395  29.208  1.00  0.00     0.023 A 
ATOM     80  C   UNL A   1      45.724  33.611  30.303  1.00  0.00     0.031 A 
ATOM     81  C   UNL A   1      44.652  34.453  28.311  1.00  0.00     0.131 A 
ATOM     82  C   UNL A   1      46.304  34.872  30.490  1.00  0.00     0.055 A 
ATOM     83  C   UNL A   1      45.274  35.690  28.473  1.00  0.00     0.041 A 
ATOM     84  F   UNL A   1      43.851  34.290  27.246  1.00  0.00    -0.206 F 
ATOM     85  C   UNL A   1      46.102  35.906  29.571  1.00  0.00     0.022 A 
BRANCH  82  86
ATOM     86  S   UNL A   1      47.304  35.156  31.974  1.00  0.00     0.124 S 
ATOM     87  O   UNL A   1      46.365  35.861  32.840  1.00  0.00    -0.237 OA
ATOM     88  O   UNL A   1      47.654  33.799  32.385  1.00  0.00    -0.237 OA
ATOM     89  O   UNL A   1      48.423  35.961  31.486  1.00  0.00    -0.744 OA
ENDBRANCH  82  86
ENDBRANCH  56  79
ENDBRANCH  30  31
ENDBRANCH  23  25
ENDBRANCH  22  23
ENDBRANCH  21  22
ENDBRANCH   1  21
TORSDOF 21
ENDMDL
