MODEL 1
REMARK VINA RESULT:     -10.9      0.000      0.000
REMARK SMILES CC(C)[C@H](NS(=O)(=O)c1cccc(F)c1)C(=O)OCCOCCOC(=O)c1ccc(-c2c3nc(c(-c4cc(S(=O)(=O)[O-])ccc4F)c4ccc([nH]4)c(-c4cc(S(=O)(=O)[O-])ccc4F)c4nc(c(-c5cc(S(=O)(=O)[O-])ccc5F)c5ccc2[nH]5)C=C4)C=C3)cc1
REMARK SMILES IDX 21 1 20 2 19 3 18 4 16 5 17 6 4 7 2 8 1 9 3 10 5 11 6 13
REMARK SMILES IDX 7 14 8 15 9 16 10 17 15 18 11 19 13 20 12 21 14 22 22 23
REMARK SMILES IDX 23 24 24 25 25 26 26 27 27 28 28 29 89 30 29 31 88 32 30 33
REMARK SMILES IDX 31 34 32 35 82 36 33 37 87 38 81 39 83 40 34 41 86 42 80 43
REMARK SMILES IDX 79 44 35 46 67 47 47 48 66 49 48 50 51 51 65 52 84 53 49 54
REMARK SMILES IDX 50 55 64 57 85 58 52 59 36 60 37 61 45 62 38 63 44 64 46 65
REMARK SMILES IDX 43 66 39 67 40 68 41 69 42 70 68 71 69 72 77 73 70 74 76 75
REMARK SMILES IDX 78 76 75 77 71 78 72 79 73 80 74 81 53 82 54 83 62 84 55 85
REMARK SMILES IDX 61 86 63 87 60 88 56 89 57 90 58 91 59 92
REMARK H PARENT 5 12 83 45 51 56
REMARK Flexibility Score: inf
ROOT
ATOM      1  O   UNL A   1      31.405  27.860  25.898  1.00  0.00    -0.374 OA
ENDROOT
BRANCH   1   2
ATOM      2  C   UNL A   1      32.660  27.226  26.108  1.00  0.00     0.202 C 
BRANCH   2   3
ATOM      3  C   UNL A   1      33.415  26.680  24.889  1.00  0.00     0.261 C 
BRANCH   3   4
ATOM      4  O   UNL A   1      34.357  25.622  25.168  1.00  0.00    -0.462 OA
BRANCH   4   5
ATOM      5  C   UNL A   1      34.536  24.707  24.170  1.00  0.00     0.324 C 
ATOM      6  O   UNL A   1      34.378  24.940  22.976  1.00  0.00    -0.250 OA
BRANCH   5   7
ATOM      7  C   UNL A   1      34.861  23.308  24.688  1.00  0.00     0.182 C 
BRANCH   7   8
ATOM      8  C   UNL A   1      36.384  23.086  24.461  1.00  0.00     0.012 C 
ATOM      9  C   UNL A   1      37.264  23.717  25.538  1.00  0.00     0.009 C 
ATOM     10  C   UNL A   1      36.798  21.621  24.251  1.00  0.00     0.009 C 
ENDBRANCH   7   8
BRANCH   7  11
ATOM     11  N   UNL A   1      34.001  22.205  24.151  1.00  0.00    -0.197 NA
ATOM     12  H   UNL A   1      34.598  21.628  23.558  1.00  0.00     0.142 HD
BRANCH  11  13
ATOM     13  S   UNL A   1      33.205  21.151  25.224  1.00  0.00     0.241 S 
ATOM     14  O   UNL A   1      34.028  21.108  26.412  1.00  0.00    -0.207 OA
ATOM     15  O   UNL A   1      31.804  21.501  25.288  1.00  0.00    -0.207 OA
BRANCH  13  16
ATOM     16  C   UNL A   1      33.319  19.539  24.457  1.00  0.00     0.085 A 
ATOM     17  C   UNL A   1      34.286  18.617  24.899  1.00  0.00     0.022 A 
ATOM     18  C   UNL A   1      32.463  19.203  23.404  1.00  0.00     0.061 A 
ATOM     19  C   UNL A   1      34.457  17.403  24.219  1.00  0.00     0.004 A 
ATOM     20  C   UNL A   1      32.643  17.987  22.745  1.00  0.00     0.124 A 
ATOM     21  C   UNL A   1      33.643  17.095  23.125  1.00  0.00     0.039 A 
ATOM     22  F   UNL A   1      31.888  17.701  21.676  1.00  0.00    -0.207 F 
ENDBRANCH  13  16
ENDBRANCH  11  13
ENDBRANCH   7  11
ENDBRANCH   5   7
ENDBRANCH   4   5
ENDBRANCH   3   4
ENDBRANCH   2   3
ENDBRANCH   1   2
BRANCH   1  23
ATOM     23  C   UNL A   1      31.404  29.163  25.348  1.00  0.00     0.202 C 
BRANCH  23  24
ATOM     24  C   UNL A   1      31.844  30.347  26.207  1.00  0.00     0.261 C 
BRANCH  24  25
ATOM     25  O   UNL A   1      33.223  30.650  26.262  1.00  0.00    -0.460 OA
BRANCH  25  26
ATOM     26  C   UNL A   1      33.551  31.501  27.251  1.00  0.00     0.338 C 
ATOM     27  O   UNL A   1      32.975  32.513  27.621  1.00  0.00    -0.246 OA
BRANCH  26  28
ATOM     28  C   UNL A   1      34.825  31.051  27.774  1.00  0.00     0.060 A 
ATOM     29  C   UNL A   1      35.127  29.689  27.739  1.00  0.00     0.016 A 
ATOM     30  C   UNL A   1      35.679  32.000  28.340  1.00  0.00     0.016 A 
ATOM     31  C   UNL A   1      36.284  29.255  28.358  1.00  0.00     0.010 A 
ATOM     32  C   UNL A   1      36.852  31.564  28.930  1.00  0.00     0.010 A 
ATOM     33  C   UNL A   1      37.127  30.189  28.978  1.00  0.00    -0.014 A 
BRANCH  33  34
ATOM     34  C   UNL A   1      38.249  29.712  29.797  1.00  0.00     0.031 A 
ATOM     35  C   UNL A   1      38.369  30.212  31.203  1.00  0.00     0.074 A 
ATOM     36  C   UNL A   1      39.118  28.844  29.257  1.00  0.00     0.049 A 
ATOM     37  N   UNL A   1      39.316  30.002  32.073  1.00  0.00    -0.248 NA
ATOM     38  C   UNL A   1      37.282  31.080  31.691  1.00  0.00     0.031 C 
ATOM     39  C   UNL A   1      39.027  28.299  27.901  1.00  0.00     0.029 A 
ATOM     40  N   UNL A   1      40.245  28.275  29.777  1.00  0.00    -0.354 N 
ATOM     41  C   UNL A   1      38.952  30.723  33.204  1.00  0.00     0.074 A 
ATOM     42  C   UNL A   1      37.713  31.402  32.901  1.00  0.00     0.031 C 
ATOM     43  C   UNL A   1      40.058  27.465  27.698  1.00  0.00     0.029 A 
ATOM     44  C   UNL A   1      40.905  27.466  28.886  1.00  0.00     0.049 A 
ATOM     45  H   UNL A   1      40.553  28.429  30.700  1.00  0.00     0.167 HD
ATOM     46  C   UNL A   1      39.608  30.799  34.384  1.00  0.00     0.034 A 
ATOM     47  C   UNL A   1      42.081  26.827  29.015  1.00  0.00     0.034 A 
ATOM     48  C   UNL A   1      40.840  30.096  34.635  1.00  0.00     0.049 A 
ATOM     49  C   UNL A   1      42.815  26.966  30.317  1.00  0.00     0.074 A 
ATOM     50  C   UNL A   1      41.591  30.061  35.794  1.00  0.00     0.029 A 
ATOM     51  N   UNL A   1      41.505  29.309  33.701  1.00  0.00    -0.354 N 
ATOM     52  N   UNL A   1      42.470  27.653  31.385  1.00  0.00    -0.248 NA
ATOM     53  C   UNL A   1      44.087  26.252  30.438  1.00  0.00     0.031 C 
ATOM     54  C   UNL A   1      42.745  29.314  35.537  1.00  0.00     0.029 A 
ATOM     55  C   UNL A   1      42.678  28.816  34.243  1.00  0.00     0.049 A 
ATOM     56  H   UNL A   1      41.187  29.128  32.787  1.00  0.00     0.167 HD
ATOM     57  C   UNL A   1      43.485  27.450  32.312  1.00  0.00     0.074 A 
ATOM     58  C   UNL A   1      44.442  26.558  31.679  1.00  0.00     0.031 C 
ATOM     59  C   UNL A   1      43.620  27.951  33.567  1.00  0.00     0.034 A 
BRANCH  46  60
ATOM     60  C   UNL A   1      39.040  31.702  35.448  1.00  0.00     0.023 A 
ATOM     61  C   UNL A   1      38.401  31.197  36.594  1.00  0.00     0.031 A 
ATOM     62  C   UNL A   1      39.135  33.099  35.308  1.00  0.00     0.131 A 
ATOM     63  C   UNL A   1      37.845  32.081  37.533  1.00  0.00     0.055 A 
ATOM     64  C   UNL A   1      38.637  33.972  36.276  1.00  0.00     0.041 A 
ATOM     65  F   UNL A   1      39.708  33.638  34.220  1.00  0.00    -0.206 F 
ATOM     66  C   UNL A   1      37.980  33.464  37.394  1.00  0.00     0.022 A 
BRANCH  63  67
ATOM     67  S   UNL A   1      36.862  31.401  38.898  1.00  0.00     0.124 S 
ATOM     68  O   UNL A   1      37.768  31.579  40.029  1.00  0.00    -0.237 OA
ATOM     69  O   UNL A   1      35.678  32.251  38.889  1.00  0.00    -0.237 OA
ATOM     70  O   UNL A   1      36.637  30.014  38.500  1.00  0.00    -0.744 OA
ENDBRANCH  63  67
ENDBRANCH  46  60
BRANCH  47  71
ATOM     71  C   UNL A   1      42.617  26.047  27.871  1.00  0.00     0.023 A 
ATOM     72  C   UNL A   1      42.222  24.720  27.652  1.00  0.00     0.031 A 
ATOM     73  C   UNL A   1      43.479  26.648  26.933  1.00  0.00     0.131 A 
ATOM     74  C   UNL A   1      42.693  24.032  26.522  1.00  0.00     0.055 A 
ATOM     75  C   UNL A   1      43.916  25.971  25.795  1.00  0.00     0.041 A 
ATOM     76  F   UNL A   1      43.867  27.924  27.089  1.00  0.00    -0.206 F 
ATOM     77  C   UNL A   1      43.524  24.652  25.586  1.00  0.00     0.022 A 
BRANCH  74  78
ATOM     78  S   UNL A   1      42.193  22.305  26.287  1.00  0.00     0.124 S 
ATOM     79  O   UNL A   1      42.654  21.691  27.526  1.00  0.00    -0.237 OA
ATOM     80  O   UNL A   1      40.746  22.426  26.129  1.00  0.00    -0.237 OA
ATOM     81  O   UNL A   1      42.915  21.904  25.082  1.00  0.00    -0.744 OA
ENDBRANCH  74  78
ENDBRANCH  47  71
BRANCH  59  82
ATOM     82  C   UNL A   1      44.848  27.538  34.330  1.00  0.00     0.023 A 
ATOM     83  C   UNL A   1      44.858  26.370  35.110  1.00  0.00     0.031 A 
ATOM     84  C   UNL A   1      46.024  28.302  34.254  1.00  0.00     0.131 A 
ATOM     85  C   UNL A   1      46.013  26.022  35.822  1.00  0.00     0.055 A 
ATOM     86  C   UNL A   1      47.190  27.917  34.915  1.00  0.00     0.041 A 
ATOM     87  F   UNL A   1      46.063  29.426  33.520  1.00  0.00    -0.206 F 
ATOM     88  C   UNL A   1      47.185  26.776  35.714  1.00  0.00     0.022 A 
BRANCH  85  89
ATOM     89  S   UNL A   1      45.939  24.608  36.951  1.00  0.00     0.124 S 
ATOM     90  O   UNL A   1      44.932  25.044  37.915  1.00  0.00    -0.237 OA
ATOM     91  O   UNL A   1      45.542  23.518  36.064  1.00  0.00    -0.237 OA
ATOM     92  O   UNL A   1      47.300  24.515  37.474  1.00  0.00    -0.744 OA
ENDBRANCH  85  89
ENDBRANCH  59  82
ENDBRANCH  33  34
ENDBRANCH  26  28
ENDBRANCH  25  26
ENDBRANCH  24  25
ENDBRANCH  23  24
ENDBRANCH   1  23
TORSDOF 21
ENDMDL
MODEL 2
REMARK VINA RESULT:     -10.9      4.907      7.700
REMARK SMILES CC(C)[C@H](NS(=O)(=O)c1cccc(F)c1)C(=O)OCCOCCOC(=O)c1ccc(-c2c3nc(c(-c4cc(S(=O)(=O)[O-])ccc4F)c4ccc([nH]4)c(-c4cc(S(=O)(=O)[O-])ccc4F)c4nc(c(-c5cc(S(=O)(=O)[O-])ccc5F)c5ccc2[nH]5)C=C4)C=C3)cc1
REMARK SMILES IDX 21 1 20 2 19 3 18 4 16 5 17 6 4 7 2 8 1 9 3 10 5 11 6 13
REMARK SMILES IDX 7 14 8 15 9 16 10 17 15 18 11 19 13 20 12 21 14 22 22 23
REMARK SMILES IDX 23 24 24 25 25 26 26 27 27 28 28 29 89 30 29 31 88 32 30 33
REMARK SMILES IDX 31 34 32 35 82 36 33 37 87 38 81 39 83 40 34 41 86 42 80 43
REMARK SMILES IDX 79 44 35 46 67 47 47 48 66 49 48 50 51 51 65 52 84 53 49 54
REMARK SMILES IDX 50 55 64 57 85 58 52 59 36 60 37 61 45 62 38 63 44 64 46 65
REMARK SMILES IDX 43 66 39 67 40 68 41 69 42 70 68 71 69 72 77 73 70 74 76 75
REMARK SMILES IDX 78 76 75 77 71 78 72 79 73 80 74 81 53 82 54 83 62 84 55 85
REMARK SMILES IDX 61 86 63 87 60 88 56 89 57 90 58 91 59 92
REMARK H PARENT 5 12 83 45 51 56
REMARK Flexibility Score: inf
ROOT
ATOM      1  O   UNL A   1      34.865  21.009  25.985  1.00  0.00    -0.374 OA
ENDROOT
BRANCH   1   2
ATOM      2  C   UNL A   1      33.484  20.712  26.134  1.00  0.00     0.202 C 
BRANCH   2   3
ATOM      3  C   UNL A   1      32.500  21.879  26.299  1.00  0.00     0.261 C 
BRANCH   3   4
ATOM      4  O   UNL A   1      31.704  22.186  25.135  1.00  0.00    -0.462 OA
BRANCH   4   5
ATOM      5  C   UNL A   1      32.403  22.465  23.995  1.00  0.00     0.324 C 
ATOM      6  O   UNL A   1      32.630  21.654  23.103  1.00  0.00    -0.250 OA
BRANCH   5   7
ATOM      7  C   UNL A   1      32.975  23.880  23.970  1.00  0.00     0.182 C 
BRANCH   7   8
ATOM      8  C   UNL A   1      34.437  23.785  24.491  1.00  0.00     0.012 C 
ATOM      9  C   UNL A   1      35.477  23.648  23.381  1.00  0.00     0.009 C 
ATOM     10  C   UNL A   1      34.854  24.910  25.452  1.00  0.00     0.009 C 
ENDBRANCH   7   8
BRANCH   7  11
ATOM     11  N   UNL A   1      32.150  24.922  24.662  1.00  0.00    -0.197 NA
ATOM     12  H   UNL A   1      32.648  25.171  25.516  1.00  0.00     0.142 HD
BRANCH  11  13
ATOM     13  S   UNL A   1      31.780  26.378  23.864  1.00  0.00     0.241 S 
ATOM     14  O   UNL A   1      32.872  26.608  22.943  1.00  0.00    -0.207 OA
ATOM     15  O   UNL A   1      30.408  26.343  23.414  1.00  0.00    -0.207 OA
BRANCH  13  16
ATOM     16  C   UNL A   1      31.897  27.640  25.128  1.00  0.00     0.085 A 
ATOM     17  C   UNL A   1      32.231  27.284  26.447  1.00  0.00     0.022 A 
ATOM     18  C   UNL A   1      31.636  28.975  24.808  1.00  0.00     0.061 A 
ATOM     19  C   UNL A   1      32.203  28.253  27.461  1.00  0.00     0.004 A 
ATOM     20  C   UNL A   1      31.620  29.925  25.829  1.00  0.00     0.124 A 
ATOM     21  C   UNL A   1      31.878  29.576  27.152  1.00  0.00     0.039 A 
ATOM     22  F   UNL A   1      31.277  31.189  25.544  1.00  0.00    -0.207 F 
ENDBRANCH  13  16
ENDBRANCH  11  13
ENDBRANCH   7  11
ENDBRANCH   5   7
ENDBRANCH   4   5
ENDBRANCH   3   4
ENDBRANCH   2   3
ENDBRANCH   1   2
BRANCH   1  23
ATOM     23  C   UNL A   1      35.587  20.320  24.984  1.00  0.00     0.202 C 
BRANCH  23  24
ATOM     24  C   UNL A   1      37.113  20.393  24.965  1.00  0.00     0.261 C 
BRANCH  24  25
ATOM     25  O   UNL A   1      37.733  21.486  25.610  1.00  0.00    -0.460 OA
BRANCH  25  26
ATOM     26  C   UNL A   1      38.995  21.237  26.005  1.00  0.00     0.338 C 
ATOM     27  O   UNL A   1      39.612  20.183  25.995  1.00  0.00    -0.246 OA
BRANCH  26  28
ATOM     28  C   UNL A   1      39.500  22.473  26.569  1.00  0.00     0.060 A 
ATOM     29  C   UNL A   1      38.950  23.683  26.145  1.00  0.00     0.016 A 
ATOM     30  C   UNL A   1      40.555  22.400  27.480  1.00  0.00     0.016 A 
ATOM     31  C   UNL A   1      39.526  24.859  26.588  1.00  0.00     0.010 A 
ATOM     32  C   UNL A   1      41.108  23.580  27.947  1.00  0.00     0.010 A 
ATOM     33  C   UNL A   1      40.622  24.804  27.462  1.00  0.00    -0.014 A 
BRANCH  33  34
ATOM     34  C   UNL A   1      41.352  26.038  27.779  1.00  0.00     0.031 A 
ATOM     35  C   UNL A   1      40.660  27.087  28.594  1.00  0.00     0.074 A 
ATOM     36  C   UNL A   1      42.610  26.176  27.333  1.00  0.00     0.049 A 
ATOM     37  N   UNL A   1      41.071  28.281  28.916  1.00  0.00    -0.248 NA
ATOM     38  C   UNL A   1      39.318  26.751  29.100  1.00  0.00     0.031 C 
ATOM     39  C   UNL A   1      43.343  25.168  26.563  1.00  0.00     0.029 A 
ATOM     40  N   UNL A   1      43.489  27.213  27.457  1.00  0.00    -0.354 N 
ATOM     41  C   UNL A   1      40.034  28.848  29.647  1.00  0.00     0.074 A 
ATOM     42  C   UNL A   1      38.962  27.879  29.696  1.00  0.00     0.031 C 
ATOM     43  C   UNL A   1      44.568  25.639  26.287  1.00  0.00     0.029 A 
ATOM     44  C   UNL A   1      44.680  26.995  26.811  1.00  0.00     0.049 A 
ATOM     45  H   UNL A   1      43.287  28.035  27.960  1.00  0.00     0.167 HD
ATOM     46  C   UNL A   1      39.998  30.071  30.222  1.00  0.00     0.034 A 
ATOM     47  C   UNL A   1      45.727  27.821  26.640  1.00  0.00     0.034 A 
ATOM     48  C   UNL A   1      41.098  30.997  30.147  1.00  0.00     0.049 A 
ATOM     49  C   UNL A   1      45.644  29.193  27.245  1.00  0.00     0.074 A 
ATOM     50  C   UNL A   1      41.206  32.255  30.708  1.00  0.00     0.029 A 
ATOM     51  N   UNL A   1      42.283  30.763  29.456  1.00  0.00    -0.354 N 
ATOM     52  N   UNL A   1      44.659  29.729  27.934  1.00  0.00    -0.248 NA
ATOM     53  C   UNL A   1      46.802  30.070  27.056  1.00  0.00     0.031 C 
ATOM     54  C   UNL A   1      42.422  32.808  30.296  1.00  0.00     0.029 A 
ATOM     55  C   UNL A   1      43.111  31.867  29.543  1.00  0.00     0.049 A 
ATOM     56  H   UNL A   1      42.501  29.931  28.976  1.00  0.00     0.167 HD
ATOM     57  C   UNL A   1      45.081  31.010  28.266  1.00  0.00     0.074 A 
ATOM     58  C   UNL A   1      46.419  31.154  27.718  1.00  0.00     0.031 C 
ATOM     59  C   UNL A   1      44.428  31.980  28.956  1.00  0.00     0.034 A 
BRANCH  46  60
ATOM     60  C   UNL A   1      38.727  30.485  30.918  1.00  0.00     0.023 A 
ATOM     61  C   UNL A   1      37.675  31.122  30.235  1.00  0.00     0.031 A 
ATOM     62  C   UNL A   1      38.568  30.242  32.294  1.00  0.00     0.131 A 
ATOM     63  C   UNL A   1      36.531  31.533  30.939  1.00  0.00     0.055 A 
ATOM     64  C   UNL A   1      37.402  30.594  32.974  1.00  0.00     0.041 A 
ATOM     65  F   UNL A   1      39.551  29.664  33.002  1.00  0.00    -0.206 F 
ATOM     66  C   UNL A   1      36.377  31.251  32.298  1.00  0.00     0.022 A 
BRANCH  63  67
ATOM     67  S   UNL A   1      35.280  32.520  30.073  1.00  0.00     0.124 S 
ATOM     68  O   UNL A   1      34.292  32.733  31.126  1.00  0.00    -0.237 OA
ATOM     69  O   UNL A   1      36.036  33.696  29.659  1.00  0.00    -0.237 OA
ATOM     70  O   UNL A   1      34.846  31.645  28.987  1.00  0.00    -0.744 OA
ENDBRANCH  63  67
ENDBRANCH  46  60
BRANCH  47  71
ATOM     71  C   UNL A   1      46.895  27.365  25.844  1.00  0.00     0.023 A 
ATOM     72  C   UNL A   1      47.055  27.754  24.507  1.00  0.00     0.031 A 
ATOM     73  C   UNL A   1      47.910  26.590  26.438  1.00  0.00     0.131 A 
ATOM     74  C   UNL A   1      48.205  27.364  23.803  1.00  0.00     0.055 A 
ATOM     75  C   UNL A   1      49.066  26.234  25.743  1.00  0.00     0.041 A 
ATOM     76  F   UNL A   1      47.811  26.211  27.722  1.00  0.00    -0.206 F 
ATOM     77  C   UNL A   1      49.217  26.620  24.415  1.00  0.00     0.022 A 
BRANCH  74  78
ATOM     78  S   UNL A   1      48.366  27.853  22.064  1.00  0.00     0.124 S 
ATOM     79  O   UNL A   1      49.651  28.541  22.066  1.00  0.00    -0.237 OA
ATOM     80  O   UNL A   1      48.328  26.563  21.381  1.00  0.00    -0.237 OA
ATOM     81  O   UNL A   1      47.199  28.705  21.842  1.00  0.00    -0.744 OA
ENDBRANCH  74  78
ENDBRANCH  47  71
BRANCH  59  82
ATOM     82  C   UNL A   1      45.162  33.278  29.154  1.00  0.00     0.023 A 
ATOM     83  C   UNL A   1      45.965  33.492  30.286  1.00  0.00     0.031 A 
ATOM     84  C   UNL A   1      45.082  34.296  28.190  1.00  0.00     0.131 A 
ATOM     85  C   UNL A   1      46.622  34.718  30.449  1.00  0.00     0.055 A 
ATOM     86  C   UNL A   1      45.788  35.490  28.326  1.00  0.00     0.041 A 
ATOM     87  F   UNL A   1      44.327  34.136  27.089  1.00  0.00    -0.206 F 
ATOM     88  C   UNL A   1      46.556  35.710  29.467  1.00  0.00     0.022 A 
BRANCH  85  89
ATOM     89  S   UNL A   1      47.508  35.024  31.999  1.00  0.00     0.124 S 
ATOM     90  O   UNL A   1      48.785  35.544  31.517  1.00  0.00    -0.237 OA
ATOM     91  O   UNL A   1      46.641  35.987  32.672  1.00  0.00    -0.237 OA
ATOM     92  O   UNL A   1      47.572  33.705  32.624  1.00  0.00    -0.744 OA
ENDBRANCH  85  89
ENDBRANCH  59  82
ENDBRANCH  33  34
ENDBRANCH  26  28
ENDBRANCH  25  26
ENDBRANCH  24  25
ENDBRANCH  23  24
ENDBRANCH   1  23
TORSDOF 21
ENDMDL
MODEL 3
REMARK VINA RESULT:     -10.8      5.670      8.559
REMARK SMILES CC(C)[C@H](NS(=O)(=O)c1cccc(F)c1)C(=O)OCCOCCOC(=O)c1ccc(-c2c3nc(c(-c4cc(S(=O)(=O)[O-])ccc4F)c4ccc([nH]4)c(-c4cc(S(=O)(=O)[O-])ccc4F)c4nc(c(-c5cc(S(=O)(=O)[O-])ccc5F)c5ccc2[nH]5)C=C4)C=C3)cc1
REMARK SMILES IDX 21 1 20 2 19 3 18 4 16 5 17 6 4 7 2 8 1 9 3 10 5 11 6 13
REMARK SMILES IDX 7 14 8 15 9 16 10 17 15 18 11 19 13 20 12 21 14 22 22 23
REMARK SMILES IDX 23 24 24 25 25 26 26 27 27 28 28 29 89 30 29 31 88 32 30 33
REMARK SMILES IDX 31 34 32 35 82 36 33 37 87 38 81 39 83 40 34 41 86 42 80 43
REMARK SMILES IDX 79 44 35 46 67 47 47 48 66 49 48 50 51 51 65 52 84 53 49 54
REMARK SMILES IDX 50 55 64 57 85 58 52 59 36 60 37 61 45 62 38 63 44 64 46 65
REMARK SMILES IDX 43 66 39 67 40 68 41 69 42 70 68 71 69 72 77 73 70 74 76 75
REMARK SMILES IDX 78 76 75 77 71 78 72 79 73 80 74 81 53 82 54 83 62 84 55 85
REMARK SMILES IDX 61 86 63 87 60 88 56 89 57 90 58 91 59 92
REMARK H PARENT 5 12 83 45 51 56
REMARK Flexibility Score: inf
ROOT
ATOM      1  O   UNL A   1      38.121  22.401  26.081  1.00  0.00    -0.374 OA
ENDROOT
BRANCH   1   2
ATOM      2  C   UNL A   1      37.437  21.595  25.131  1.00  0.00     0.202 C 
BRANCH   2   3
ATOM      3  C   UNL A   1      37.036  22.227  23.791  1.00  0.00     0.261 C 
BRANCH   3   4
ATOM      4  O   UNL A   1      36.200  23.399  23.887  1.00  0.00    -0.462 OA
BRANCH   4   5
ATOM      5  C   UNL A   1      34.912  23.247  23.456  1.00  0.00     0.324 C 
ATOM      6  O   UNL A   1      34.523  23.504  22.322  1.00  0.00    -0.250 OA
BRANCH   5   7
ATOM      7  C   UNL A   1      33.955  22.812  24.563  1.00  0.00     0.182 C 
BRANCH   7   8
ATOM      8  C   UNL A   1      34.355  23.600  25.843  1.00  0.00     0.012 C 
ATOM      9  C   UNL A   1      33.816  25.028  25.878  1.00  0.00     0.009 C 
ATOM     10  C   UNL A   1      34.025  22.891  27.166  1.00  0.00     0.009 C 
ENDBRANCH   7   8
BRANCH   7  11
ATOM     11  N   UNL A   1      33.840  21.332  24.773  1.00  0.00    -0.197 NA
ATOM     12  H   UNL A   1      33.963  21.166  25.771  1.00  0.00     0.142 HD
BRANCH  11  13
ATOM     13  S   UNL A   1      32.421  20.517  24.307  1.00  0.00     0.241 S 
ATOM     14  O   UNL A   1      31.451  20.800  25.342  1.00  0.00    -0.207 OA
ATOM     15  O   UNL A   1      32.144  20.793  22.916  1.00  0.00    -0.207 OA
BRANCH  13  16
ATOM     16  C   UNL A   1      32.823  18.779  24.439  1.00  0.00     0.085 A 
ATOM     17  C   UNL A   1      32.574  18.088  25.639  1.00  0.00     0.022 A 
ATOM     18  C   UNL A   1      33.406  18.112  23.357  1.00  0.00     0.061 A 
ATOM     19  C   UNL A   1      33.001  16.760  25.784  1.00  0.00     0.004 A 
ATOM     20  C   UNL A   1      33.817  16.789  23.518  1.00  0.00     0.124 A 
ATOM     21  C   UNL A   1      33.642  16.114  24.724  1.00  0.00     0.039 A 
ATOM     22  F   UNL A   1      34.461  16.175  22.516  1.00  0.00    -0.207 F 
ENDBRANCH  13  16
ENDBRANCH  11  13
ENDBRANCH   7  11
ENDBRANCH   5   7
ENDBRANCH   4   5
ENDBRANCH   3   4
ENDBRANCH   2   3
ENDBRANCH   1   2
BRANCH   1  23
ATOM     23  C   UNL A   1      39.486  22.126  26.325  1.00  0.00     0.202 C 
BRANCH  23  24
ATOM     24  C   UNL A   1      39.952  20.678  26.476  1.00  0.00     0.261 C 
BRANCH  24  25
ATOM     25  O   UNL A   1      40.876  20.177  25.533  1.00  0.00    -0.460 OA
BRANCH  25  26
ATOM     26  C   UNL A   1      42.047  19.794  26.074  1.00  0.00     0.338 C 
ATOM     27  O   UNL A   1      42.439  18.670  26.346  1.00  0.00    -0.246 OA
BRANCH  26  28
ATOM     28  C   UNL A   1      42.770  21.009  26.390  1.00  0.00     0.060 A 
ATOM     29  C   UNL A   1      42.965  21.350  27.730  1.00  0.00     0.016 A 
ATOM     30  C   UNL A   1      43.197  21.817  25.336  1.00  0.00     0.016 A 
ATOM     31  C   UNL A   1      43.538  22.573  28.022  1.00  0.00     0.010 A 
ATOM     32  C   UNL A   1      43.799  23.027  25.632  1.00  0.00     0.010 A 
ATOM     33  C   UNL A   1      43.924  23.421  26.973  1.00  0.00    -0.014 A 
BRANCH  33  34
ATOM     34  C   UNL A   1      44.352  24.793  27.278  1.00  0.00     0.031 A 
ATOM     35  C   UNL A   1      43.333  25.759  27.797  1.00  0.00     0.074 A 
ATOM     36  C   UNL A   1      45.638  25.125  27.086  1.00  0.00     0.049 A 
ATOM     37  N   UNL A   1      43.459  27.032  28.046  1.00  0.00    -0.248 NA
ATOM     38  C   UNL A   1      41.984  25.223  28.054  1.00  0.00     0.031 C 
ATOM     39  C   UNL A   1      46.679  24.210  26.615  1.00  0.00     0.029 A 
ATOM     40  N   UNL A   1      46.284  26.315  27.259  1.00  0.00    -0.354 N 
ATOM     41  C   UNL A   1      42.205  27.455  28.472  1.00  0.00     0.074 A 
ATOM     42  C   UNL A   1      41.324  26.311  28.420  1.00  0.00     0.031 C 
ATOM     43  C   UNL A   1      47.841  24.876  26.541  1.00  0.00     0.029 A 
ATOM     44  C   UNL A   1      47.609  26.269  26.904  1.00  0.00     0.049 A 
ATOM     45  H   UNL A   1      45.843  27.125  27.604  1.00  0.00     0.167 HD
ATOM     46  C   UNL A   1      41.842  28.695  28.871  1.00  0.00     0.034 A 
ATOM     47  C   UNL A   1      48.518  27.258  26.851  1.00  0.00     0.034 A 
ATOM     48  C   UNL A   1      42.764  29.801  28.910  1.00  0.00     0.049 A 
ATOM     49  C   UNL A   1      48.077  28.637  27.251  1.00  0.00     0.074 A 
ATOM     50  C   UNL A   1      42.535  31.100  29.321  1.00  0.00     0.029 A 
ATOM     51  N   UNL A   1      44.095  29.734  28.512  1.00  0.00    -0.354 N 
ATOM     52  N   UNL A   1      46.889  29.036  27.650  1.00  0.00    -0.248 NA
ATOM     53  C   UNL A   1      49.088  29.696  27.197  1.00  0.00     0.031 C 
ATOM     54  C   UNL A   1      43.705  31.834  29.102  1.00  0.00     0.029 A 
ATOM     55  C   UNL A   1      44.690  30.977  28.629  1.00  0.00     0.049 A 
ATOM     56  H   UNL A   1      44.548  28.920  28.194  1.00  0.00     0.167 HD
ATOM     57  C   UNL A   1      47.009  30.397  27.900  1.00  0.00     0.074 A 
ATOM     58  C   UNL A   1      48.393  30.742  27.626  1.00  0.00     0.031 C 
ATOM     59  C   UNL A   1      46.068  31.284  28.316  1.00  0.00     0.034 A 
BRANCH  46  60
ATOM     60  C   UNL A   1      40.396  28.922  29.234  1.00  0.00     0.023 A 
ATOM     61  C   UNL A   1      39.950  28.906  30.567  1.00  0.00     0.031 A 
ATOM     62  C   UNL A   1      39.446  29.153  28.223  1.00  0.00     0.131 A 
ATOM     63  C   UNL A   1      38.584  29.074  30.850  1.00  0.00     0.055 A 
ATOM     64  C   UNL A   1      38.101  29.383  28.515  1.00  0.00     0.041 A 
ATOM     65  F   UNL A   1      39.811  29.149  26.931  1.00  0.00    -0.206 F 
ATOM     66  C   UNL A   1      37.662  29.337  29.835  1.00  0.00     0.022 A 
BRANCH  63  67
ATOM     67  S   UNL A   1      38.013  28.857  32.557  1.00  0.00     0.124 S 
ATOM     68  O   UNL A   1      36.649  29.373  32.479  1.00  0.00    -0.237 OA
ATOM     69  O   UNL A   1      38.141  27.419  32.754  1.00  0.00    -0.237 OA
ATOM     70  O   UNL A   1      38.939  29.677  33.335  1.00  0.00    -0.744 OA
ENDBRANCH  63  67
ENDBRANCH  46  60
BRANCH  47  71
ATOM     71  C   UNL A   1      49.893  26.962  26.375  1.00  0.00     0.023 A 
ATOM     72  C   UNL A   1      50.251  27.159  25.034  1.00  0.00     0.031 A 
ATOM     73  C   UNL A   1      50.891  26.548  27.277  1.00  0.00     0.131 A 
ATOM     74  C   UNL A   1      51.577  26.937  24.630  1.00  0.00     0.055 A 
ATOM     75  C   UNL A   1      52.214  26.361  26.876  1.00  0.00     0.041 A 
ATOM     76  F   UNL A   1      50.600  26.367  28.575  1.00  0.00    -0.206 F 
ATOM     77  C   UNL A   1      52.563  26.554  25.544  1.00  0.00     0.022 A 
BRANCH  74  78
ATOM     78  S   UNL A   1      52.002  27.165  22.882  1.00  0.00     0.124 S 
ATOM     79  O   UNL A   1      50.705  27.000  22.237  1.00  0.00    -0.237 OA
ATOM     80  O   UNL A   1      52.554  28.517  22.877  1.00  0.00    -0.237 OA
ATOM     81  O   UNL A   1      52.970  26.101  22.625  1.00  0.00    -0.744 OA
ENDBRANCH  74  78
ENDBRANCH  47  71
BRANCH  59  82
ATOM     82  C   UNL A   1      46.516  32.708  28.498  1.00  0.00     0.023 A 
ATOM     83  C   UNL A   1      46.415  33.640  27.453  1.00  0.00     0.031 A 
ATOM     84  C   UNL A   1      47.021  33.142  29.735  1.00  0.00     0.131 A 
ATOM     85  C   UNL A   1      46.857  34.954  27.650  1.00  0.00     0.055 A 
ATOM     86  C   UNL A   1      47.401  34.467  29.946  1.00  0.00     0.041 A 
ATOM     87  F   UNL A   1      47.135  32.287  30.765  1.00  0.00    -0.206 F 
ATOM     88  C   UNL A   1      47.330  35.379  28.895  1.00  0.00     0.022 A 
BRANCH  85  89
ATOM     89  S   UNL A   1      46.872  36.083  26.234  1.00  0.00     0.124 S 
ATOM     90  O   UNL A   1      46.194  35.291  25.212  1.00  0.00    -0.237 OA
ATOM     91  O   UNL A   1      46.134  37.235  26.742  1.00  0.00    -0.237 OA
ATOM     92  O   UNL A   1      48.295  36.315  25.996  1.00  0.00    -0.744 OA
ENDBRANCH  85  89
ENDBRANCH  59  82
ENDBRANCH  33  34
ENDBRANCH  26  28
ENDBRANCH  25  26
ENDBRANCH  24  25
ENDBRANCH  23  24
ENDBRANCH   1  23
TORSDOF 21
ENDMDL
