MODEL 1
REMARK VINA RESULT:     -10.8      0.000      0.000
REMARK SMILES Cc1cc(S(=O)(=O)Nc2ccc(F)c(F)c2)sc1C(=O)OCCOCCOC(=O)c1ccc(-c2c3nc(c(-c4cc(S(=O)(=O)[O-])ccc4F)c4ccc([nH]4)c(-c4cc(S(=O)(=O)[O-])ccc4F)c4nc(c(-c5cc(S(=O)(=O)[O-])ccc5F)c5ccc2[nH]5)C=C4)C=C3)cc1
REMARK SMILES IDX 24 1 23 2 22 3 21 4 19 5 20 6 18 7 1 8 2 9 3 10 4 11 17 12
REMARK SMILES IDX 5 13 6 14 7 15 8 16 9 18 10 19 16 20 11 21 14 22 12 23 15 24
REMARK SMILES IDX 13 25 25 26 26 27 27 28 28 29 29 30 30 31 31 32 92 33 32 34
REMARK SMILES IDX 91 35 33 36 34 37 35 38 85 39 36 40 90 41 84 42 86 43 37 44
REMARK SMILES IDX 89 45 83 46 82 47 38 49 70 50 50 51 69 52 51 53 54 54 68 55
REMARK SMILES IDX 87 56 52 57 53 58 67 60 88 61 55 62 39 63 40 64 48 65 41 66
REMARK SMILES IDX 47 67 49 68 46 69 42 70 43 71 44 72 45 73 71 74 72 75 80 76
REMARK SMILES IDX 73 77 79 78 81 79 78 80 74 81 75 82 76 83 77 84 56 85 57 86
REMARK SMILES IDX 65 87 58 88 64 89 66 90 63 91 59 92 60 93 61 94 62 95
REMARK H PARENT 8 17 86 48 54 59
REMARK Flexibility Score: inf
ROOT
ATOM      1  O   UNL A   1      31.744  30.680  26.753  1.00  0.00    -0.374 OA
ENDROOT
BRANCH   1   2
ATOM      2  C   UNL A   1      33.147  30.505  26.554  1.00  0.00     0.202 C 
BRANCH   2   3
ATOM      3  C   UNL A   1      33.580  29.146  25.997  1.00  0.00     0.261 C 
BRANCH   3   4
ATOM      4  O   UNL A   1      33.109  28.968  24.650  1.00  0.00    -0.459 OA
BRANCH   4   5
ATOM      5  C   UNL A   1      32.005  28.188  24.486  1.00  0.00     0.348 C 
ATOM      6  O   UNL A   1      30.907  28.615  24.142  1.00  0.00    -0.245 OA
BRANCH   5   7
ATOM      7  C   UNL A   1      32.354  26.778  24.635  1.00  0.00     0.116 A 
ATOM      8  C   UNL A   1      30.433  25.725  26.032  1.00  0.00     0.046 C 
ATOM      9  C   UNL A   1      31.760  25.730  25.337  1.00  0.00    -0.024 A 
ATOM     10  C   UNL A   1      32.614  24.574  25.336  1.00  0.00     0.038 A 
ATOM     11  C   UNL A   1      33.795  24.754  24.643  1.00  0.00     0.141 A 
ATOM     12  S   UNL A   1      33.784  26.241  23.827  1.00  0.00    -0.115 S 
BRANCH  11  13
ATOM     13  S   UNL A   1      35.184  23.661  24.450  1.00  0.00     0.271 S 
ATOM     14  O   UNL A   1      35.272  23.467  23.018  1.00  0.00    -0.200 OA
ATOM     15  O   UNL A   1      36.259  24.305  25.177  1.00  0.00    -0.200 OA
BRANCH  13  16
ATOM     16  N   UNL A   1      35.033  22.143  25.150  1.00  0.00    -0.279 N 
ATOM     17  H   UNL A   1      35.534  21.962  25.978  1.00  0.00     0.180 HD
BRANCH  16  18
ATOM     18  C   UNL A   1      34.227  21.104  24.618  1.00  0.00     0.052 A 
ATOM     19  C   UNL A   1      33.080  21.341  23.854  1.00  0.00     0.030 A 
ATOM     20  C   UNL A   1      34.643  19.793  24.867  1.00  0.00     0.069 A 
ATOM     21  C   UNL A   1      32.306  20.259  23.414  1.00  0.00     0.044 A 
ATOM     22  C   UNL A   1      33.873  18.727  24.419  1.00  0.00     0.160 A 
ATOM     23  C   UNL A   1      32.703  18.957  23.709  1.00  0.00     0.158 A 
ATOM     24  F   UNL A   1      34.273  17.476  24.685  1.00  0.00    -0.204 F 
ATOM     25  F   UNL A   1      31.957  17.927  23.292  1.00  0.00    -0.204 F 
ENDBRANCH  16  18
ENDBRANCH  13  16
ENDBRANCH  11  13
ENDBRANCH   5   7
ENDBRANCH   4   5
ENDBRANCH   3   4
ENDBRANCH   2   3
ENDBRANCH   1   2
BRANCH   1  26
ATOM     26  C   UNL A   1      31.225  32.002  26.618  1.00  0.00     0.202 C 
BRANCH  26  27
ATOM     27  C   UNL A   1      32.210  33.164  26.810  1.00  0.00     0.261 C 
BRANCH  27  28
ATOM     28  O   UNL A   1      32.232  33.657  28.160  1.00  0.00    -0.460 OA
BRANCH  28  29
ATOM     29  C   UNL A   1      33.225  34.549  28.418  1.00  0.00     0.338 C 
ATOM     30  O   UNL A   1      33.127  35.763  28.449  1.00  0.00    -0.246 OA
BRANCH  29  31
ATOM     31  C   UNL A   1      34.438  33.832  28.857  1.00  0.00     0.060 A 
ATOM     32  C   UNL A   1      34.264  32.638  29.571  1.00  0.00     0.016 A 
ATOM     33  C   UNL A   1      35.717  34.344  28.635  1.00  0.00     0.016 A 
ATOM     34  C   UNL A   1      35.369  31.973  30.099  1.00  0.00     0.010 A 
ATOM     35  C   UNL A   1      36.824  33.677  29.171  1.00  0.00     0.010 A 
ATOM     36  C   UNL A   1      36.654  32.505  29.931  1.00  0.00    -0.014 A 
BRANCH  36  37
ATOM     37  C   UNL A   1      37.803  31.905  30.657  1.00  0.00     0.031 A 
ATOM     38  C   UNL A   1      38.624  30.841  29.979  1.00  0.00     0.074 A 
ATOM     39  C   UNL A   1      38.125  32.320  31.897  1.00  0.00     0.049 A 
ATOM     40  N   UNL A   1      39.626  30.141  30.445  1.00  0.00    -0.248 NA
ATOM     41  C   UNL A   1      38.256  30.520  28.593  1.00  0.00     0.031 C 
ATOM     42  C   UNL A   1      37.435  33.375  32.637  1.00  0.00     0.029 A 
ATOM     43  N   UNL A   1      39.111  31.897  32.753  1.00  0.00    -0.354 N 
ATOM     44  C   UNL A   1      40.007  29.291  29.412  1.00  0.00     0.074 A 
ATOM     45  C   UNL A   1      39.098  29.537  28.311  1.00  0.00     0.031 C 
ATOM     46  C   UNL A   1      38.015  33.514  33.841  1.00  0.00     0.029 A 
ATOM     47  C   UNL A   1      39.086  32.527  33.976  1.00  0.00     0.049 A 
ATOM     48  H   UNL A   1      39.773  31.209  32.516  1.00  0.00     0.167 HD
ATOM     49  C   UNL A   1      41.028  28.398  29.380  1.00  0.00     0.034 A 
ATOM     50  C   UNL A   1      39.820  32.312  35.087  1.00  0.00     0.034 A 
ATOM     51  C   UNL A   1      41.919  28.159  30.491  1.00  0.00     0.049 A 
ATOM     52  C   UNL A   1      40.889  31.245  35.062  1.00  0.00     0.074 A 
ATOM     53  C   UNL A   1      42.993  27.289  30.562  1.00  0.00     0.029 A 
ATOM     54  N   UNL A   1      41.833  28.781  31.730  1.00  0.00    -0.354 N 
ATOM     55  N   UNL A   1      41.245  30.451  34.077  1.00  0.00    -0.248 NA
ATOM     56  C   UNL A   1      41.662  31.050  36.296  1.00  0.00     0.031 C 
ATOM     57  C   UNL A   1      43.502  27.323  31.864  1.00  0.00     0.029 A 
ATOM     58  C   UNL A   1      42.809  28.285  32.583  1.00  0.00     0.049 A 
ATOM     59  H   UNL A   1      41.175  29.474  31.969  1.00  0.00     0.167 HD
ATOM     60  C   UNL A   1      42.306  29.690  34.564  1.00  0.00     0.074 A 
ATOM     61  C   UNL A   1      42.539  30.130  35.925  1.00  0.00     0.031 C 
ATOM     62  C   UNL A   1      43.027  28.722  33.942  1.00  0.00     0.034 A 
BRANCH  49  63
ATOM     63  C   UNL A   1      41.197  27.578  28.122  1.00  0.00     0.023 A 
ATOM     64  C   UNL A   1      40.830  26.222  28.065  1.00  0.00     0.031 A 
ATOM     65  C   UNL A   1      41.754  28.157  26.968  1.00  0.00     0.131 A 
ATOM     66  C   UNL A   1      41.093  25.473  26.908  1.00  0.00     0.055 A 
ATOM     67  C   UNL A   1      41.935  27.428  25.791  1.00  0.00     0.041 A 
ATOM     68  F   UNL A   1      42.148  29.440  26.968  1.00  0.00    -0.206 F 
ATOM     69  C   UNL A   1      41.618  26.074  25.761  1.00  0.00     0.022 A 
BRANCH  66  70
ATOM     70  S   UNL A   1      40.883  23.672  26.974  1.00  0.00     0.124 S 
ATOM     71  O   UNL A   1      41.416  23.363  28.299  1.00  0.00    -0.237 OA
ATOM     72  O   UNL A   1      39.442  23.517  26.811  1.00  0.00    -0.237 OA
ATOM     73  O   UNL A   1      41.693  23.192  25.857  1.00  0.00    -0.744 OA
ENDBRANCH  66  70
ENDBRANCH  49  63
BRANCH  50  74
ATOM     74  C   UNL A   1      39.548  33.084  36.334  1.00  0.00     0.023 A 
ATOM     75  C   UNL A   1      38.737  32.560  37.353  1.00  0.00     0.031 A 
ATOM     76  C   UNL A   1      40.051  34.388  36.499  1.00  0.00     0.131 A 
ATOM     77  C   UNL A   1      38.413  33.352  38.466  1.00  0.00     0.055 A 
ATOM     78  C   UNL A   1      39.776  35.148  37.637  1.00  0.00     0.041 A 
ATOM     79  F   UNL A   1      40.829  34.941  35.554  1.00  0.00    -0.206 F 
ATOM     80  C   UNL A   1      38.940  34.636  38.622  1.00  0.00     0.022 A 
BRANCH  77  81
ATOM     81  S   UNL A   1      37.212  32.712  39.666  1.00  0.00     0.124 S 
ATOM     82  O   UNL A   1      37.832  31.453  40.062  1.00  0.00    -0.237 OA
ATOM     83  O   UNL A   1      37.202  33.768  40.673  1.00  0.00    -0.237 OA
ATOM     84  O   UNL A   1      35.985  32.587  38.884  1.00  0.00    -0.744 OA
ENDBRANCH  77  81
ENDBRANCH  50  74
BRANCH  62  85
ATOM     85  C   UNL A   1      44.173  28.109  34.713  1.00  0.00     0.023 A 
ATOM     86  C   UNL A   1      43.968  27.127  35.699  1.00  0.00     0.031 A 
ATOM     87  C   UNL A   1      45.494  28.522  34.461  1.00  0.00     0.131 A 
ATOM     88  C   UNL A   1      45.058  26.635  36.434  1.00  0.00     0.055 A 
ATOM     89  C   UNL A   1      46.581  27.980  35.148  1.00  0.00     0.041 A 
ATOM     90  F   UNL A   1      45.752  29.461  33.535  1.00  0.00    -0.206 F 
ATOM     91  C   UNL A   1      46.365  27.040  36.151  1.00  0.00     0.022 A 
BRANCH  88  92
ATOM     92  S   UNL A   1      44.736  25.531  37.837  1.00  0.00     0.124 S 
ATOM     93  O   UNL A   1      43.843  26.341  38.661  1.00  0.00    -0.237 OA
ATOM     94  O   UNL A   1      44.130  24.372  37.191  1.00  0.00    -0.237 OA
ATOM     95  O   UNL A   1      46.064  25.300  38.404  1.00  0.00    -0.744 OA
ENDBRANCH  88  92
ENDBRANCH  62  85
ENDBRANCH  36  37
ENDBRANCH  29  31
ENDBRANCH  28  29
ENDBRANCH  27  28
ENDBRANCH  26  27
ENDBRANCH   1  26
TORSDOF 20
ENDMDL
MODEL 2
REMARK VINA RESULT:     -10.8      5.433      9.000
REMARK SMILES Cc1cc(S(=O)(=O)Nc2ccc(F)c(F)c2)sc1C(=O)OCCOCCOC(=O)c1ccc(-c2c3nc(c(-c4cc(S(=O)(=O)[O-])ccc4F)c4ccc([nH]4)c(-c4cc(S(=O)(=O)[O-])ccc4F)c4nc(c(-c5cc(S(=O)(=O)[O-])ccc5F)c5ccc2[nH]5)C=C4)C=C3)cc1
REMARK SMILES IDX 24 1 23 2 22 3 21 4 19 5 20 6 18 7 1 8 2 9 3 10 4 11 17 12
REMARK SMILES IDX 5 13 6 14 7 15 8 16 9 18 10 19 16 20 11 21 14 22 12 23 15 24
REMARK SMILES IDX 13 25 25 26 26 27 27 28 28 29 29 30 30 31 31 32 92 33 32 34
REMARK SMILES IDX 91 35 33 36 34 37 35 38 85 39 36 40 90 41 84 42 86 43 37 44
REMARK SMILES IDX 89 45 83 46 82 47 38 49 70 50 50 51 69 52 51 53 54 54 68 55
REMARK SMILES IDX 87 56 52 57 53 58 67 60 88 61 55 62 39 63 40 64 48 65 41 66
REMARK SMILES IDX 47 67 49 68 46 69 42 70 43 71 44 72 45 73 71 74 72 75 80 76
REMARK SMILES IDX 73 77 79 78 81 79 78 80 74 81 75 82 76 83 77 84 56 85 57 86
REMARK SMILES IDX 65 87 58 88 64 89 66 90 63 91 59 92 60 93 61 94 62 95
REMARK H PARENT 8 17 86 48 54 59
REMARK Flexibility Score: inf
ROOT
ATOM      1  O   UNL A   1      36.268  22.578  25.049  1.00  0.00    -0.374 OA
ENDROOT
BRANCH   1   2
ATOM      2  C   UNL A   1      35.465  22.528  26.229  1.00  0.00     0.202 C 
BRANCH   2   3
ATOM      3  C   UNL A   1      34.389  21.438  26.261  1.00  0.00     0.261 C 
BRANCH   3   4
ATOM      4  O   UNL A   1      33.832  21.227  24.952  1.00  0.00    -0.459 OA
BRANCH   4   5
ATOM      5  C   UNL A   1      32.479  21.337  24.839  1.00  0.00     0.348 C 
ATOM      6  O   UNL A   1      31.686  20.478  25.211  1.00  0.00    -0.245 OA
BRANCH   5   7
ATOM      7  C   UNL A   1      32.117  22.667  24.354  1.00  0.00     0.116 A 
ATOM      8  C   UNL A   1      33.241  22.891  22.022  1.00  0.00     0.046 C 
ATOM      9  C   UNL A   1      32.477  23.383  23.214  1.00  0.00    -0.024 A 
ATOM     10  C   UNL A   1      32.016  24.741  23.304  1.00  0.00     0.038 A 
ATOM     11  C   UNL A   1      31.325  25.019  24.467  1.00  0.00     0.141 A 
ATOM     12  S   UNL A   1      31.057  23.596  25.353  1.00  0.00    -0.115 S 
BRANCH  11  13
ATOM     13  S   UNL A   1      30.659  26.557  25.061  1.00  0.00     0.271 S 
ATOM     14  O   UNL A   1      29.333  26.604  24.481  1.00  0.00    -0.200 OA
ATOM     15  O   UNL A   1      30.836  26.501  26.498  1.00  0.00    -0.200 OA
BRANCH  13  16
ATOM     16  N   UNL A   1      31.464  27.947  24.576  1.00  0.00    -0.279 N 
ATOM     17  H   UNL A   1      31.459  28.175  23.619  1.00  0.00     0.180 HD
BRANCH  16  18
ATOM     18  C   UNL A   1      32.151  28.813  25.465  1.00  0.00     0.052 A 
ATOM     19  C   UNL A   1      33.407  28.516  26.005  1.00  0.00     0.030 A 
ATOM     20  C   UNL A   1      31.526  30.024  25.775  1.00  0.00     0.069 A 
ATOM     21  C   UNL A   1      33.993  29.399  26.921  1.00  0.00     0.044 A 
ATOM     22  C   UNL A   1      32.119  30.896  26.679  1.00  0.00     0.160 A 
ATOM     23  C   UNL A   1      33.338  30.580  27.261  1.00  0.00     0.158 A 
ATOM     24  F   UNL A   1      31.496  32.043  26.982  1.00  0.00    -0.204 F 
ATOM     25  F   UNL A   1      33.899  31.418  28.142  1.00  0.00    -0.204 F 
ENDBRANCH  16  18
ENDBRANCH  13  16
ENDBRANCH  11  13
ENDBRANCH   5   7
ENDBRANCH   4   5
ENDBRANCH   3   4
ENDBRANCH   2   3
ENDBRANCH   1   2
BRANCH   1  26
ATOM     26  C   UNL A   1      36.769  21.340  24.547  1.00  0.00     0.202 C 
BRANCH  26  27
ATOM     27  C   UNL A   1      37.762  20.576  25.434  1.00  0.00     0.261 C 
BRANCH  27  28
ATOM     28  O   UNL A   1      39.097  21.104  25.355  1.00  0.00    -0.460 OA
BRANCH  28  29
ATOM     29  C   UNL A   1      39.828  20.958  26.491  1.00  0.00     0.338 C 
ATOM     30  O   UNL A   1      40.266  19.918  26.952  1.00  0.00    -0.246 OA
BRANCH  29  31
ATOM     31  C   UNL A   1      40.201  22.286  27.017  1.00  0.00     0.060 A 
ATOM     32  C   UNL A   1      39.537  23.402  26.494  1.00  0.00     0.016 A 
ATOM     33  C   UNL A   1      41.222  22.445  27.955  1.00  0.00     0.016 A 
ATOM     34  C   UNL A   1      39.918  24.687  26.878  1.00  0.00     0.010 A 
ATOM     35  C   UNL A   1      41.607  23.736  28.336  1.00  0.00     0.010 A 
ATOM     36  C   UNL A   1      40.978  24.864  27.777  1.00  0.00    -0.014 A 
BRANCH  36  37
ATOM     37  C   UNL A   1      41.510  26.228  28.033  1.00  0.00     0.031 A 
ATOM     38  C   UNL A   1      42.884  26.583  27.532  1.00  0.00     0.074 A 
ATOM     39  C   UNL A   1      40.769  27.145  28.682  1.00  0.00     0.049 A 
ATOM     40  N   UNL A   1      43.569  27.686  27.694  1.00  0.00    -0.248 NA
ATOM     41  C   UNL A   1      43.581  25.550  26.752  1.00  0.00     0.031 C 
ATOM     42  C   UNL A   1      39.408  26.933  29.171  1.00  0.00     0.029 A 
ATOM     43  N   UNL A   1      41.061  28.435  29.047  1.00  0.00    -0.354 N 
ATOM     44  C   UNL A   1      44.780  27.480  27.041  1.00  0.00     0.074 A 
ATOM     45  C   UNL A   1      44.749  26.129  26.519  1.00  0.00     0.031 C 
ATOM     46  C   UNL A   1      38.984  28.054  29.779  1.00  0.00     0.029 A 
ATOM     47  C   UNL A   1      40.058  29.045  29.764  1.00  0.00     0.049 A 
ATOM     48  H   UNL A   1      41.907  28.882  28.817  1.00  0.00     0.167 HD
ATOM     49  C   UNL A   1      45.815  28.342  26.883  1.00  0.00     0.034 A 
ATOM     50  C   UNL A   1      40.022  30.252  30.366  1.00  0.00     0.034 A 
ATOM     51  C   UNL A   1      45.833  29.682  27.419  1.00  0.00     0.049 A 
ATOM     52  C   UNL A   1      41.225  31.160  30.258  1.00  0.00     0.074 A 
ATOM     53  C   UNL A   1      46.823  30.642  27.305  1.00  0.00     0.029 A 
ATOM     54  N   UNL A   1      44.819  30.249  28.181  1.00  0.00    -0.354 N 
ATOM     55  N   UNL A   1      42.363  30.957  29.633  1.00  0.00    -0.248 NA
ATOM     56  C   UNL A   1      41.135  32.463  30.930  1.00  0.00     0.031 C 
ATOM     57  C   UNL A   1      46.447  31.754  28.065  1.00  0.00     0.029 A 
ATOM     58  C   UNL A   1      45.178  31.530  28.577  1.00  0.00     0.049 A 
ATOM     59  H   UNL A   1      43.969  29.807  28.408  1.00  0.00     0.167 HD
ATOM     60  C   UNL A   1      43.107  32.122  29.808  1.00  0.00     0.074 A 
ATOM     61  C   UNL A   1      42.284  33.025  30.585  1.00  0.00     0.031 C 
ATOM     62  C   UNL A   1      44.354  32.420  29.361  1.00  0.00     0.034 A 
BRANCH  49  63
ATOM     63  C   UNL A   1      47.033  27.837  26.145  1.00  0.00     0.023 A 
ATOM     64  C   UNL A   1      47.228  28.086  24.775  1.00  0.00     0.031 A 
ATOM     65  C   UNL A   1      48.005  27.075  26.818  1.00  0.00     0.131 A 
ATOM     66  C   UNL A   1      48.324  27.516  24.108  1.00  0.00     0.055 A 
ATOM     67  C   UNL A   1      49.138  26.583  26.167  1.00  0.00     0.041 A 
ATOM     68  F   UNL A   1      47.864  26.783  28.121  1.00  0.00    -0.206 F 
ATOM     69  C   UNL A   1      49.295  26.789  24.800  1.00  0.00     0.022 A 
BRANCH  66  70
ATOM     70  S   UNL A   1      48.379  27.609  22.297  1.00  0.00     0.124 S 
ATOM     71  O   UNL A   1      47.088  28.221  21.993  1.00  0.00    -0.237 OA
ATOM     72  O   UNL A   1      49.554  28.441  22.060  1.00  0.00    -0.237 OA
ATOM     73  O   UNL A   1      48.510  26.212  21.886  1.00  0.00    -0.744 OA
ENDBRANCH  66  70
ENDBRANCH  49  63
BRANCH  50  74
ATOM     74  C   UNL A   1      38.830  30.663  31.163  1.00  0.00     0.023 A 
ATOM     75  C   UNL A   1      37.861  31.527  30.630  1.00  0.00     0.031 A 
ATOM     76  C   UNL A   1      38.675  30.243  32.497  1.00  0.00     0.131 A 
ATOM     77  C   UNL A   1      36.807  31.981  31.439  1.00  0.00     0.055 A 
ATOM     78  C   UNL A   1      37.591  30.649  33.278  1.00  0.00     0.041 A 
ATOM     79  F   UNL A   1      39.574  29.420  33.060  1.00  0.00    -0.206 F 
ATOM     80  C   UNL A   1      36.657  31.535  32.754  1.00  0.00     0.022 A 
BRANCH  77  81
ATOM     81  S   UNL A   1      35.684  33.242  30.776  1.00  0.00     0.124 S 
ATOM     82  O   UNL A   1      36.160  33.368  29.403  1.00  0.00    -0.237 OA
ATOM     83  O   UNL A   1      34.382  32.606  30.949  1.00  0.00    -0.237 OA
ATOM     84  O   UNL A   1      35.929  34.399  31.632  1.00  0.00    -0.744 OA
ENDBRANCH  77  81
ENDBRANCH  50  74
BRANCH  62  85
ATOM     85  C   UNL A   1      44.883  33.805  29.658  1.00  0.00     0.023 A 
ATOM     86  C   UNL A   1      44.822  34.845  28.713  1.00  0.00     0.031 A 
ATOM     87  C   UNL A   1      45.466  34.085  30.907  1.00  0.00     0.131 A 
ATOM     88  C   UNL A   1      45.385  36.096  29.012  1.00  0.00     0.055 A 
ATOM     89  C   UNL A   1      45.964  35.350  31.222  1.00  0.00     0.041 A 
ATOM     90  F   UNL A   1      45.557  33.130  31.848  1.00  0.00    -0.206 F 
ATOM     91  C   UNL A   1      45.938  36.360  30.267  1.00  0.00     0.022 A 
BRANCH  88  92
ATOM     92  S   UNL A   1      45.481  37.344  27.699  1.00  0.00     0.124 S 
ATOM     93  O   UNL A   1      46.499  38.253  28.218  1.00  0.00    -0.237 OA
ATOM     94  O   UNL A   1      45.868  36.549  26.538  1.00  0.00    -0.237 OA
ATOM     95  O   UNL A   1      44.127  37.894  27.649  1.00  0.00    -0.744 OA
ENDBRANCH  88  92
ENDBRANCH  62  85
ENDBRANCH  36  37
ENDBRANCH  29  31
ENDBRANCH  28  29
ENDBRANCH  27  28
ENDBRANCH  26  27
ENDBRANCH   1  26
TORSDOF 20
ENDMDL
MODEL 3
REMARK VINA RESULT:     -10.8      1.835      7.661
REMARK SMILES Cc1cc(S(=O)(=O)Nc2ccc(F)c(F)c2)sc1C(=O)OCCOCCOC(=O)c1ccc(-c2c3nc(c(-c4cc(S(=O)(=O)[O-])ccc4F)c4ccc([nH]4)c(-c4cc(S(=O)(=O)[O-])ccc4F)c4nc(c(-c5cc(S(=O)(=O)[O-])ccc5F)c5ccc2[nH]5)C=C4)C=C3)cc1
REMARK SMILES IDX 24 1 23 2 22 3 21 4 19 5 20 6 18 7 1 8 2 9 3 10 4 11 17 12
REMARK SMILES IDX 5 13 6 14 7 15 8 16 9 18 10 19 16 20 11 21 14 22 12 23 15 24
REMARK SMILES IDX 13 25 25 26 26 27 27 28 28 29 29 30 30 31 31 32 92 33 32 34
REMARK SMILES IDX 91 35 33 36 34 37 35 38 85 39 36 40 90 41 84 42 86 43 37 44
REMARK SMILES IDX 89 45 83 46 82 47 38 49 70 50 50 51 69 52 51 53 54 54 68 55
REMARK SMILES IDX 87 56 52 57 53 58 67 60 88 61 55 62 39 63 40 64 48 65 41 66
REMARK SMILES IDX 47 67 49 68 46 69 42 70 43 71 44 72 45 73 71 74 72 75 80 76
REMARK SMILES IDX 73 77 79 78 81 79 78 80 74 81 75 82 76 83 77 84 56 85 57 86
REMARK SMILES IDX 65 87 58 88 64 89 66 90 63 91 59 92 60 93 61 94 62 95
REMARK H PARENT 8 17 86 48 54 59
REMARK Flexibility Score: inf
ROOT
ATOM      1  O   UNL A   1      32.859  30.155  27.376  1.00  0.00    -0.374 OA
ENDROOT
BRANCH   1   2
ATOM      2  C   UNL A   1      33.632  29.320  26.513  1.00  0.00     0.202 C 
BRANCH   2   3
ATOM      3  C   UNL A   1      32.839  28.490  25.499  1.00  0.00     0.261 C 
BRANCH   3   4
ATOM      4  O   UNL A   1      33.673  27.488  24.891  1.00  0.00    -0.459 OA
BRANCH   4   5
ATOM      5  C   UNL A   1      33.065  26.629  24.026  1.00  0.00     0.348 C 
ATOM      6  O   UNL A   1      32.930  26.845  22.826  1.00  0.00    -0.245 OA
BRANCH   5   7
ATOM      7  C   UNL A   1      32.737  25.376  24.702  1.00  0.00     0.116 A 
ATOM      8  C   UNL A   1      30.223  25.557  25.330  1.00  0.00     0.046 C 
ATOM      9  C   UNL A   1      31.578  24.920  25.328  1.00  0.00    -0.024 A 
ATOM     10  C   UNL A   1      31.834  23.692  26.029  1.00  0.00     0.038 A 
ATOM     11  C   UNL A   1      33.136  23.245  25.914  1.00  0.00     0.141 A 
ATOM     12  S   UNL A   1      33.994  24.195  24.800  1.00  0.00    -0.115 S 
BRANCH  11  13
ATOM     13  S   UNL A   1      33.937  21.850  26.673  1.00  0.00     0.271 S 
ATOM     14  O   UNL A   1      35.171  21.715  25.927  1.00  0.00    -0.200 OA
ATOM     15  O   UNL A   1      33.956  22.165  28.086  1.00  0.00    -0.200 OA
BRANCH  13  16
ATOM     16  N   UNL A   1      33.126  20.384  26.564  1.00  0.00    -0.279 N 
ATOM     17  H   UNL A   1      32.807  19.968  27.396  1.00  0.00     0.180 HD
BRANCH  16  18
ATOM     18  C   UNL A   1      32.876  19.708  25.342  1.00  0.00     0.052 A 
ATOM     19  C   UNL A   1      33.006  18.324  25.192  1.00  0.00     0.030 A 
ATOM     20  C   UNL A   1      32.457  20.492  24.263  1.00  0.00     0.069 A 
ATOM     21  C   UNL A   1      32.796  17.741  23.935  1.00  0.00     0.044 A 
ATOM     22  C   UNL A   1      32.243  19.903  23.023  1.00  0.00     0.160 A 
ATOM     23  C   UNL A   1      32.425  18.538  22.855  1.00  0.00     0.158 A 
ATOM     24  F   UNL A   1      31.862  20.671  21.994  1.00  0.00    -0.204 F 
ATOM     25  F   UNL A   1      32.231  17.978  21.654  1.00  0.00    -0.204 F 
ENDBRANCH  16  18
ENDBRANCH  13  16
ENDBRANCH  11  13
ENDBRANCH   5   7
ENDBRANCH   4   5
ENDBRANCH   3   4
ENDBRANCH   2   3
ENDBRANCH   1   2
BRANCH   1  26
ATOM     26  C   UNL A   1      31.920  31.037  26.763  1.00  0.00     0.202 C 
BRANCH  26  27
ATOM     27  C   UNL A   1      32.314  32.517  26.657  1.00  0.00     0.261 C 
BRANCH  27  28
ATOM     28  O   UNL A   1      32.414  33.158  27.940  1.00  0.00    -0.460 OA
BRANCH  28  29
ATOM     29  C   UNL A   1      33.503  33.957  28.088  1.00  0.00     0.338 C 
ATOM     30  O   UNL A   1      33.523  35.176  28.077  1.00  0.00    -0.246 OA
BRANCH  29  31
ATOM     31  C   UNL A   1      34.673  33.140  28.465  1.00  0.00     0.060 A 
ATOM     32  C   UNL A   1      34.442  31.983  29.220  1.00  0.00     0.016 A 
ATOM     33  C   UNL A   1      35.975  33.528  28.145  1.00  0.00     0.016 A 
ATOM     34  C   UNL A   1      35.515  31.229  29.691  1.00  0.00     0.010 A 
ATOM     35  C   UNL A   1      37.052  32.773  28.624  1.00  0.00     0.010 A 
ATOM     36  C   UNL A   1      36.829  31.637  29.424  1.00  0.00    -0.014 A 
BRANCH  36  37
ATOM     37  C   UNL A   1      37.966  30.949  30.089  1.00  0.00     0.031 A 
ATOM     38  C   UNL A   1      38.287  31.282  31.520  1.00  0.00     0.074 A 
ATOM     39  C   UNL A   1      38.687  30.022  29.431  1.00  0.00     0.049 A 
ATOM     40  N   UNL A   1      39.266  30.852  32.275  1.00  0.00    -0.248 NA
ATOM     41  C   UNL A   1      37.387  32.235  32.185  1.00  0.00     0.031 C 
ATOM     42  C   UNL A   1      38.441  29.581  28.059  1.00  0.00     0.029 A 
ATOM     43  N   UNL A   1      39.778  29.290  29.829  1.00  0.00    -0.354 N 
ATOM     44  C   UNL A   1      39.105  31.485  33.503  1.00  0.00     0.074 A 
ATOM     45  C   UNL A   1      37.958  32.361  33.375  1.00  0.00     0.031 C 
ATOM     46  C   UNL A   1      39.360  28.659  27.726  1.00  0.00     0.029 A 
ATOM     47  C   UNL A   1      40.287  28.478  28.843  1.00  0.00     0.049 A 
ATOM     48  H   UNL A   1      40.161  29.342  30.735  1.00  0.00     0.167 HD
ATOM     49  C   UNL A   1      39.838  31.340  34.635  1.00  0.00     0.034 A 
ATOM     50  C   UNL A   1      41.390  27.702  28.830  1.00  0.00     0.034 A 
ATOM     51  C   UNL A   1      40.985  30.469  34.742  1.00  0.00     0.049 A 
ATOM     52  C   UNL A   1      42.248  27.628  30.072  1.00  0.00     0.074 A 
ATOM     53  C   UNL A   1      41.789  30.237  35.843  1.00  0.00     0.029 A 
ATOM     54  N   UNL A   1      41.499  29.698  33.707  1.00  0.00    -0.354 N 
ATOM     55  N   UNL A   1      42.082  28.227  31.229  1.00  0.00    -0.248 NA
ATOM     56  C   UNL A   1      43.437  26.768  30.007  1.00  0.00     0.031 C 
ATOM     57  C   UNL A   1      42.835  29.393  35.454  1.00  0.00     0.029 A 
ATOM     58  C   UNL A   1      42.633  29.021  34.134  1.00  0.00     0.049 A 
ATOM     59  H   UNL A   1      41.116  29.640  32.802  1.00  0.00     0.167 HD
ATOM     60  C   UNL A   1      43.127  27.787  32.040  1.00  0.00     0.074 A 
ATOM     61  C   UNL A   1      43.907  26.863  31.242  1.00  0.00     0.031 C 
ATOM     62  C   UNL A   1      43.411  28.109  33.328  1.00  0.00     0.034 A 
BRANCH  49  63
ATOM     63  C   UNL A   1      39.451  32.184  35.827  1.00  0.00     0.023 A 
ATOM     64  C   UNL A   1      40.034  33.440  36.069  1.00  0.00     0.031 A 
ATOM     65  C   UNL A   1      38.499  31.714  36.749  1.00  0.00     0.131 A 
ATOM     66  C   UNL A   1      39.717  34.146  37.239  1.00  0.00     0.055 A 
ATOM     67  C   UNL A   1      38.123  32.461  37.867  1.00  0.00     0.041 A 
ATOM     68  F   UNL A   1      37.924  30.511  36.587  1.00  0.00    -0.206 F 
ATOM     69  C   UNL A   1      38.745  33.678  38.127  1.00  0.00     0.022 A 
BRANCH  66  70
ATOM     70  S   UNL A   1      40.703  35.609  37.663  1.00  0.00     0.124 S 
ATOM     71  O   UNL A   1      41.019  35.354  39.067  1.00  0.00    -0.237 OA
ATOM     72  O   UNL A   1      41.819  35.518  36.729  1.00  0.00    -0.237 OA
ATOM     73  O   UNL A   1      39.783  36.721  37.432  1.00  0.00    -0.744 OA
ENDBRANCH  66  70
ENDBRANCH  49  63
BRANCH  50  74
ATOM     74  C   UNL A   1      41.780  26.963  27.594  1.00  0.00     0.023 A 
ATOM     75  C   UNL A   1      41.599  25.575  27.489  1.00  0.00     0.031 A 
ATOM     76  C   UNL A   1      42.395  27.630  26.519  1.00  0.00     0.131 A 
ATOM     77  C   UNL A   1      42.073  24.892  26.357  1.00  0.00     0.055 A 
ATOM     78  C   UNL A   1      42.810  26.954  25.370  1.00  0.00     0.041 A 
ATOM     79  F   UNL A   1      42.596  28.957  26.568  1.00  0.00    -0.206 F 
ATOM     80  C   UNL A   1      42.662  25.574  25.290  1.00  0.00     0.022 A 
BRANCH  77  81
ATOM     81  S   UNL A   1      41.994  23.079  26.340  1.00  0.00     0.124 S 
ATOM     82  O   UNL A   1      42.817  22.738  27.494  1.00  0.00    -0.237 OA
ATOM     83  O   UNL A   1      40.561  22.839  26.478  1.00  0.00    -0.237 OA
ATOM     84  O   UNL A   1      42.561  22.726  25.041  1.00  0.00    -0.744 OA
ENDBRANCH  77  81
ENDBRANCH  50  74
BRANCH  62  85
ATOM     85  C   UNL A   1      44.589  27.415  33.972  1.00  0.00     0.023 A 
ATOM     86  C   UNL A   1      44.514  26.087  34.429  1.00  0.00     0.031 A 
ATOM     87  C   UNL A   1      45.806  28.100  34.138  1.00  0.00     0.131 A 
ATOM     88  C   UNL A   1      45.614  25.507  35.079  1.00  0.00     0.055 A 
ATOM     89  C   UNL A   1      46.919  27.495  34.725  1.00  0.00     0.041 A 
ATOM     90  F   UNL A   1      45.937  29.372  33.726  1.00  0.00    -0.206 F 
ATOM     91  C   UNL A   1      46.823  26.196  35.212  1.00  0.00     0.022 A 
BRANCH  88  92
ATOM     92  S   UNL A   1      45.414  23.874  35.843  1.00  0.00     0.124 S 
ATOM     93  O   UNL A   1      46.024  24.076  37.154  1.00  0.00    -0.237 OA
ATOM     94  O   UNL A   1      43.965  23.701  35.835  1.00  0.00    -0.237 OA
ATOM     95  O   UNL A   1      46.149  22.983  34.947  1.00  0.00    -0.744 OA
ENDBRANCH  88  92
ENDBRANCH  62  85
ENDBRANCH  36  37
ENDBRANCH  29  31
ENDBRANCH  28  29
ENDBRANCH  27  28
ENDBRANCH  26  27
ENDBRANCH   1  26
TORSDOF 20
ENDMDL
