MODEL 1
REMARK VINA RESULT:     -10.7      0.000      0.000
REMARK SMILES COc1ccc([C@H]2CC(c3ccc(S(C)(=O)=O)cc3)=NN2c2ccc(C(=O)OCCOCCOC(=O)c3ccc(-c4c5nc(c(-c6cc(S(=O)(=O)[O-])ccc6F)c6ccc([nH]6)c(-c6cc(S(=O)(=O)[O-])ccc6F)c6nc(c(-c7cc(S(=O)(=O)[O-])ccc7F)c7ccc4[nH]7)C=C6)C=C5)cc3)cc2)cc1OC
REMARK SMILES IDX 31 1 30 2 29 3 28 4 26 5 27 6 25 7 22 8 23 9 101 10 24 11
REMARK SMILES IDX 100 12 21 13 7 14 8 15 9 16 20 17 6 18 3 19 4 20 103 21 5 22
REMARK SMILES IDX 102 23 2 24 1 25 104 26 105 27 10 28 11 29 19 30 12 31 18 32
REMARK SMILES IDX 13 33 14 34 15 35 16 36 17 37 32 38 33 39 34 40 35 41 36 42
REMARK SMILES IDX 37 43 38 44 99 45 39 46 98 47 40 48 41 49 42 50 92 51 43 52
REMARK SMILES IDX 97 53 91 54 93 55 44 56 96 57 90 58 89 59 45 61 77 62 57 63
REMARK SMILES IDX 76 64 58 65 61 66 75 67 94 68 59 69 60 70 74 72 95 73 62 74
REMARK SMILES IDX 46 75 47 76 55 77 48 78 54 79 56 80 53 81 49 82 50 83 51 84
REMARK SMILES IDX 52 85 78 86 79 87 87 88 80 89 86 90 88 91 85 92 81 93 82 94
REMARK SMILES IDX 83 95 84 96 63 97 64 98 72 99 65 100 71 101 73 102 70 103
REMARK SMILES IDX 66 104 67 105 68 106 69 107
REMARK H PARENT 93 60 61 71
REMARK Flexibility Score: inf
ROOT
ATOM      1  O   UNL A   1      33.664  33.794  29.454  1.00  0.00    -0.374 OA
ENDROOT
BRANCH   1   2
ATOM      2  C   UNL A   1      33.522  33.252  28.140  1.00  0.00     0.202 C 
BRANCH   2   3
ATOM      3  C   UNL A   1      34.465  32.103  27.774  1.00  0.00     0.261 C 
BRANCH   3   4
ATOM      4  O   UNL A   1      33.749  30.881  27.538  1.00  0.00    -0.460 OA
BRANCH   4   5
ATOM      5  C   UNL A   1      34.491  29.757  27.675  1.00  0.00     0.338 C 
ATOM      6  O   UNL A   1      35.469  29.606  28.396  1.00  0.00    -0.246 OA
BRANCH   5   7
ATOM      7  C   UNL A   1      33.878  28.639  26.927  1.00  0.00     0.060 A 
ATOM      8  C   UNL A   1      32.736  26.347  25.766  1.00  0.00     0.060 A 
ATOM      9  C   UNL A   1      32.085  27.022  26.808  1.00  0.00     0.029 A 
ATOM     10  C   UNL A   1      33.909  26.912  25.243  1.00  0.00     0.029 A 
ATOM     11  C   UNL A   1      32.664  28.139  27.407  1.00  0.00     0.018 A 
ATOM     12  C   UNL A   1      34.477  28.061  25.807  1.00  0.00     0.018 A 
BRANCH   8  13
ATOM     13  N   UNL A   1      32.273  25.103  25.364  1.00  0.00    -0.257 N 
ATOM     14  C   UNL A   1      30.897  24.788  24.953  1.00  0.00     0.144 C 
ATOM     15  C   UNL A   1      31.100  23.484  24.173  1.00  0.00     0.091 C 
ATOM     16  C   UNL A   1      32.432  23.079  24.745  1.00  0.00     0.071 C 
ATOM     17  N   UNL A   1      33.101  24.021  25.333  1.00  0.00    -0.176 NA
BRANCH  14  18
ATOM     18  C   UNL A   1      30.194  25.873  24.152  1.00  0.00    -0.019 A 
ATOM     19  C   UNL A   1      28.919  28.055  22.887  1.00  0.00     0.160 A 
ATOM     20  C   UNL A   1      28.209  27.224  23.762  1.00  0.00     0.051 A 
ATOM     21  C   UNL A   1      30.266  27.793  22.613  1.00  0.00     0.161 A 
ATOM     22  C   UNL A   1      28.837  26.140  24.384  1.00  0.00     0.010 A 
ATOM     23  C   UNL A   1      30.878  26.689  23.230  1.00  0.00     0.056 A 
BRANCH  19  24
ATOM     24  O   UNL A   1      28.303  29.183  22.414  1.00  0.00    -0.493 OA
ATOM     25  C   UNL A   1      27.116  29.501  23.136  1.00  0.00     0.278 C 
ENDBRANCH  19  24
BRANCH  21  26
ATOM     26  O   UNL A   1      31.124  28.494  21.808  1.00  0.00    -0.493 OA
ATOM     27  C   UNL A   1      32.270  29.093  22.394  1.00  0.00     0.278 C 
ENDBRANCH  21  26
ENDBRANCH  14  18
BRANCH  16  28
ATOM     28  C   UNL A   1      32.919  21.698  24.652  1.00  0.00    -0.002 A 
ATOM     29  C   UNL A   1      32.001  20.700  24.304  1.00  0.00     0.011 A 
ATOM     30  C   UNL A   1      34.257  21.384  24.896  1.00  0.00     0.011 A 
ATOM     31  C   UNL A   1      32.426  19.376  24.178  1.00  0.00     0.021 A 
ATOM     32  C   UNL A   1      34.679  20.054  24.798  1.00  0.00     0.021 A 
ATOM     33  C   UNL A   1      33.762  19.058  24.440  1.00  0.00     0.067 A 
BRANCH  33  34
ATOM     34  S   UNL A   1      34.295  17.370  24.278  1.00  0.00     0.175 S 
ATOM     35  C   UNL A   1      33.139  16.440  25.250  1.00  0.00     0.163 C 
ATOM     36  O   UNL A   1      34.120  17.006  22.885  1.00  0.00    -0.224 OA
ATOM     37  O   UNL A   1      35.593  17.255  24.920  1.00  0.00    -0.224 OA
ENDBRANCH  33  34
ENDBRANCH  16  28
ENDBRANCH   8  13
ENDBRANCH   5   7
ENDBRANCH   4   5
ENDBRANCH   3   4
ENDBRANCH   2   3
ENDBRANCH   1   2
BRANCH   1  38
ATOM     38  C   UNL A   1      34.901  33.540  30.124  1.00  0.00     0.202 C 
BRANCH  38  39
ATOM     39  C   UNL A   1      34.841  32.590  31.326  1.00  0.00     0.261 C 
BRANCH  39  40
ATOM     40  O   UNL A   1      35.825  31.542  31.232  1.00  0.00    -0.460 OA
BRANCH  40  41
ATOM     41  C   UNL A   1      36.753  31.541  32.218  1.00  0.00     0.338 C 
ATOM     42  O   UNL A   1      36.550  31.420  33.419  1.00  0.00    -0.246 OA
BRANCH  41  43
ATOM     43  C   UNL A   1      38.109  31.519  31.634  1.00  0.00     0.060 A 
ATOM     44  C   UNL A   1      38.214  31.456  30.238  1.00  0.00     0.016 A 
ATOM     45  C   UNL A   1      39.256  31.501  32.430  1.00  0.00     0.016 A 
ATOM     46  C   UNL A   1      39.463  31.326  29.634  1.00  0.00     0.010 A 
ATOM     47  C   UNL A   1      40.510  31.360  31.821  1.00  0.00     0.010 A 
ATOM     48  C   UNL A   1      40.616  31.239  30.423  1.00  0.00    -0.014 A 
BRANCH  48  49
ATOM     49  C   UNL A   1      41.914  30.878  29.799  1.00  0.00     0.031 A 
ATOM     50  C   UNL A   1      42.204  29.427  29.517  1.00  0.00     0.074 A 
ATOM     51  C   UNL A   1      42.814  31.826  29.479  1.00  0.00     0.049 A 
ATOM     52  N   UNL A   1      43.290  28.875  29.042  1.00  0.00    -0.248 NA
ATOM     53  C   UNL A   1      41.125  28.471  29.814  1.00  0.00     0.031 C 
ATOM     54  C   UNL A   1      42.627  33.264  29.665  1.00  0.00     0.029 A 
ATOM     55  N   UNL A   1      44.074  31.720  28.943  1.00  0.00    -0.354 N 
ATOM     56  C   UNL A   1      43.035  27.508  29.002  1.00  0.00     0.074 A 
ATOM     57  C   UNL A   1      41.696  27.314  29.516  1.00  0.00     0.031 C 
ATOM     58  C   UNL A   1      43.740  33.905  29.269  1.00  0.00     0.029 A 
ATOM     59  C   UNL A   1      44.735  32.923  28.841  1.00  0.00     0.049 A 
ATOM     60  H   UNL A   1      44.468  30.864  28.658  1.00  0.00     0.167 HD
ATOM     61  C   UNL A   1      43.846  26.509  28.577  1.00  0.00     0.034 A 
ATOM     62  C   UNL A   1      46.006  33.195  28.478  1.00  0.00     0.034 A 
ATOM     63  C   UNL A   1      45.174  26.720  28.055  1.00  0.00     0.049 A 
ATOM     64  C   UNL A   1      46.910  32.053  28.067  1.00  0.00     0.074 A 
ATOM     65  C   UNL A   1      46.056  25.781  27.549  1.00  0.00     0.029 A 
ATOM     66  N   UNL A   1      45.817  27.948  27.988  1.00  0.00    -0.354 N 
ATOM     67  N   UNL A   1      46.640  30.768  28.000  1.00  0.00    -0.248 NA
ATOM     68  C   UNL A   1      48.284  32.397  27.678  1.00  0.00     0.031 C 
ATOM     69  C   UNL A   1      47.258  26.429  27.248  1.00  0.00     0.029 A 
ATOM     70  C   UNL A   1      47.100  27.784  27.488  1.00  0.00     0.049 A 
ATOM     71  H   UNL A   1      45.421  28.809  28.256  1.00  0.00     0.167 HD
ATOM     72  C   UNL A   1      47.801  30.162  27.522  1.00  0.00     0.074 A 
ATOM     73  C   UNL A   1      48.765  31.220  27.308  1.00  0.00     0.031 C 
ATOM     74  C   UNL A   1      48.049  28.850  27.276  1.00  0.00     0.034 A 
BRANCH  61  75
ATOM     75  C   UNL A   1      43.349  25.092  28.710  1.00  0.00     0.023 A 
ATOM     76  C   UNL A   1      42.516  24.497  27.748  1.00  0.00     0.031 A 
ATOM     77  C   UNL A   1      43.740  24.317  29.816  1.00  0.00     0.131 A 
ATOM     78  C   UNL A   1      42.069  23.179  27.931  1.00  0.00     0.055 A 
ATOM     79  C   UNL A   1      43.345  22.987  29.961  1.00  0.00     0.041 A 
ATOM     80  F   UNL A   1      44.517  24.843  30.777  1.00  0.00    -0.206 F 
ATOM     81  C   UNL A   1      42.498  22.413  29.018  1.00  0.00     0.022 A 
BRANCH  78  82
ATOM     82  S   UNL A   1      40.844  22.504  26.776  1.00  0.00     0.124 S 
ATOM     83  O   UNL A   1      39.930  23.634  26.622  1.00  0.00    -0.237 OA
ATOM     84  O   UNL A   1      41.656  22.175  25.610  1.00  0.00    -0.237 OA
ATOM     85  O   UNL A   1      40.291  21.358  27.494  1.00  0.00    -0.744 OA
ENDBRANCH  78  82
ENDBRANCH  61  75
BRANCH  62  86
ATOM     86  C   UNL A   1      46.539  34.589  28.537  1.00  0.00     0.023 A 
ATOM     87  C   UNL A   1      47.080  35.114  29.721  1.00  0.00     0.031 A 
ATOM     88  C   UNL A   1      46.424  35.451  27.430  1.00  0.00     0.131 A 
ATOM     89  C   UNL A   1      47.418  36.474  29.794  1.00  0.00     0.055 A 
ATOM     90  C   UNL A   1      46.824  36.788  27.488  1.00  0.00     0.041 A 
ATOM     91  F   UNL A   1      45.910  35.007  26.272  1.00  0.00    -0.206 F 
ATOM     92  C   UNL A   1      47.306  37.312  28.682  1.00  0.00     0.022 A 
BRANCH  89  93
ATOM     93  S   UNL A   1      47.880  37.168  31.406  1.00  0.00     0.124 S 
ATOM     94  O   UNL A   1      48.926  38.113  31.033  1.00  0.00    -0.237 OA
ATOM     95  O   UNL A   1      46.619  37.749  31.856  1.00  0.00    -0.237 OA
ATOM     96  O   UNL A   1      48.333  36.001  32.161  1.00  0.00    -0.744 OA
ENDBRANCH  89  93
ENDBRANCH  62  86
BRANCH  74  97
ATOM     97  C   UNL A   1      49.394  28.498  26.690  1.00  0.00     0.023 A 
ATOM     98  C   UNL A   1      49.603  28.420  25.302  1.00  0.00     0.031 A 
ATOM     99  C   UNL A   1      50.484  28.234  27.539  1.00  0.00     0.131 A 
ATOM    100  C   UNL A   1      50.859  28.039  24.805  1.00  0.00     0.055 A 
ATOM    101  C   UNL A   1      51.746  27.914  27.038  1.00  0.00     0.041 A 
ATOM    102  F   UNL A   1      50.341  28.293  28.873  1.00  0.00    -0.206 F 
ATOM    103  C   UNL A   1      51.936  27.802  25.664  1.00  0.00     0.022 A 
BRANCH 100 104
ATOM    104  S   UNL A   1      51.048  27.775  23.020  1.00  0.00     0.124 S 
ATOM    105  O   UNL A   1      51.173  29.140  22.523  1.00  0.00    -0.237 OA
ATOM    106  O   UNL A   1      52.256  26.958  22.952  1.00  0.00    -0.237 OA
ATOM    107  O   UNL A   1      49.814  27.087  22.642  1.00  0.00    -0.744 OA
ENDBRANCH 100 104
ENDBRANCH  74  97
ENDBRANCH  48  49
ENDBRANCH  41  43
ENDBRANCH  40  41
ENDBRANCH  39  40
ENDBRANCH  38  39
ENDBRANCH   1  38
TORSDOF 23
ENDMDL
MODEL 2
REMARK VINA RESULT:     -10.2      2.554      3.554
REMARK SMILES COc1ccc([C@H]2CC(c3ccc(S(C)(=O)=O)cc3)=NN2c2ccc(C(=O)OCCOCCOC(=O)c3ccc(-c4c5nc(c(-c6cc(S(=O)(=O)[O-])ccc6F)c6ccc([nH]6)c(-c6cc(S(=O)(=O)[O-])ccc6F)c6nc(c(-c7cc(S(=O)(=O)[O-])ccc7F)c7ccc4[nH]7)C=C6)C=C5)cc3)cc2)cc1OC
REMARK SMILES IDX 31 1 30 2 29 3 28 4 26 5 27 6 25 7 22 8 23 9 101 10 24 11
REMARK SMILES IDX 100 12 21 13 7 14 8 15 9 16 20 17 6 18 3 19 4 20 103 21 5 22
REMARK SMILES IDX 102 23 2 24 1 25 104 26 105 27 10 28 11 29 19 30 12 31 18 32
REMARK SMILES IDX 13 33 14 34 15 35 16 36 17 37 32 38 33 39 34 40 35 41 36 42
REMARK SMILES IDX 37 43 38 44 99 45 39 46 98 47 40 48 41 49 42 50 92 51 43 52
REMARK SMILES IDX 97 53 91 54 93 55 44 56 96 57 90 58 89 59 45 61 77 62 57 63
REMARK SMILES IDX 76 64 58 65 61 66 75 67 94 68 59 69 60 70 74 72 95 73 62 74
REMARK SMILES IDX 46 75 47 76 55 77 48 78 54 79 56 80 53 81 49 82 50 83 51 84
REMARK SMILES IDX 52 85 78 86 79 87 87 88 80 89 86 90 88 91 85 92 81 93 82 94
REMARK SMILES IDX 83 95 84 96 63 97 64 98 72 99 65 100 71 101 73 102 70 103
REMARK SMILES IDX 66 104 67 105 68 106 69 107
REMARK H PARENT 93 60 61 71
REMARK Flexibility Score: inf
ROOT
ATOM      1  O   UNL A   1      36.781  33.437  29.412  1.00  0.00    -0.374 OA
ENDROOT
BRANCH   1   2
ATOM      2  C   UNL A   1      36.081  32.684  28.422  1.00  0.00     0.202 C 
BRANCH   2   3
ATOM      3  C   UNL A   1      35.269  31.488  28.927  1.00  0.00     0.261 C 
BRANCH   3   4
ATOM      4  O   UNL A   1      34.934  30.584  27.863  1.00  0.00    -0.460 OA
BRANCH   4   5
ATOM      5  C   UNL A   1      33.634  30.616  27.486  1.00  0.00     0.338 C 
ATOM      6  O   UNL A   1      32.933  31.610  27.347  1.00  0.00    -0.246 OA
BRANCH   5   7
ATOM      7  C   UNL A   1      33.173  29.263  27.109  1.00  0.00     0.060 A 
ATOM      8  C   UNL A   1      32.312  26.785  26.097  1.00  0.00     0.060 A 
ATOM      9  C   UNL A   1      33.605  27.255  25.834  1.00  0.00     0.029 A 
ATOM     10  C   UNL A   1      31.503  27.526  26.972  1.00  0.00     0.029 A 
ATOM     11  C   UNL A   1      34.024  28.498  26.307  1.00  0.00     0.018 A 
ATOM     12  C   UNL A   1      31.930  28.755  27.491  1.00  0.00     0.018 A 
BRANCH   8  13
ATOM     13  N   UNL A   1      31.835  25.679  25.408  1.00  0.00    -0.257 N 
ATOM     14  C   UNL A   1      30.583  25.619  24.640  1.00  0.00     0.144 C 
ATOM     15  C   UNL A   1      30.836  24.405  23.738  1.00  0.00     0.091 C 
ATOM     16  C   UNL A   1      31.925  23.745  24.538  1.00  0.00     0.071 C 
ATOM     17  N   UNL A   1      32.521  24.501  25.407  1.00  0.00    -0.176 NA
BRANCH  14  18
ATOM     18  C   UNL A   1      30.230  26.884  23.873  1.00  0.00    -0.019 A 
ATOM     19  C   UNL A   1      29.581  29.079  22.216  1.00  0.00     0.160 A 
ATOM     20  C   UNL A   1      30.911  28.669  22.367  1.00  0.00     0.051 A 
ATOM     21  C   UNL A   1      28.562  28.416  22.909  1.00  0.00     0.161 A 
ATOM     22  C   UNL A   1      31.234  27.587  23.192  1.00  0.00     0.010 A 
ATOM     23  C   UNL A   1      28.905  27.342  23.749  1.00  0.00     0.056 A 
BRANCH  19  24
ATOM     24  O   UNL A   1      29.297  30.048  21.291  1.00  0.00    -0.493 OA
ATOM     25  C   UNL A   1      28.892  31.276  21.892  1.00  0.00     0.278 C 
ENDBRANCH  19  24
BRANCH  21  26
ATOM     26  O   UNL A   1      27.214  28.654  22.877  1.00  0.00    -0.493 OA
ATOM     27  C   UNL A   1      26.371  27.920  23.753  1.00  0.00     0.278 C 
ENDBRANCH  21  26
ENDBRANCH  14  18
BRANCH  16  28
ATOM     28  C   UNL A   1      32.267  22.330  24.351  1.00  0.00    -0.002 A 
ATOM     29  C   UNL A   1      32.796  21.633  25.444  1.00  0.00     0.011 A 
ATOM     30  C   UNL A   1      32.067  21.693  23.126  1.00  0.00     0.011 A 
ATOM     31  C   UNL A   1      33.110  20.279  25.320  1.00  0.00     0.021 A 
ATOM     32  C   UNL A   1      32.408  20.343  22.990  1.00  0.00     0.021 A 
ATOM     33  C   UNL A   1      32.927  19.644  24.088  1.00  0.00     0.067 A 
BRANCH  33  34
ATOM     34  S   UNL A   1      33.330  17.919  23.937  1.00  0.00     0.175 S 
ATOM     35  C   UNL A   1      32.479  17.141  25.284  1.00  0.00     0.163 C 
ATOM     36  O   UNL A   1      32.742  17.457  22.695  1.00  0.00    -0.224 OA
ATOM     37  O   UNL A   1      34.755  17.777  24.184  1.00  0.00    -0.224 OA
ENDBRANCH  33  34
ENDBRANCH  16  28
ENDBRANCH   8  13
ENDBRANCH   5   7
ENDBRANCH   4   5
ENDBRANCH   3   4
ENDBRANCH   2   3
ENDBRANCH   1   2
BRANCH   1  38
ATOM     38  C   UNL A   1      37.846  32.770  30.094  1.00  0.00     0.202 C 
BRANCH  38  39
ATOM     39  C   UNL A   1      38.614  33.599  31.130  1.00  0.00     0.261 C 
BRANCH  39  40
ATOM     40  O   UNL A   1      39.845  34.121  30.596  1.00  0.00    -0.460 OA
BRANCH  40  41
ATOM     41  C   UNL A   1      40.855  34.231  31.490  1.00  0.00     0.338 C 
ATOM     42  O   UNL A   1      40.761  34.542  32.671  1.00  0.00    -0.246 OA
BRANCH  41  43
ATOM     43  C   UNL A   1      42.112  33.734  30.897  1.00  0.00     0.060 A 
ATOM     44  C   UNL A   1      42.455  34.198  29.620  1.00  0.00     0.016 A 
ATOM     45  C   UNL A   1      42.912  32.790  31.545  1.00  0.00     0.016 A 
ATOM     46  C   UNL A   1      43.574  33.685  28.965  1.00  0.00     0.010 A 
ATOM     47  C   UNL A   1      44.029  32.269  30.880  1.00  0.00     0.010 A 
ATOM     48  C   UNL A   1      44.347  32.689  29.575  1.00  0.00    -0.014 A 
BRANCH  48  49
ATOM     49  C   UNL A   1      45.396  31.987  28.795  1.00  0.00     0.031 A 
ATOM     50  C   UNL A   1      45.075  30.644  28.192  1.00  0.00     0.074 A 
ATOM     51  C   UNL A   1      46.611  32.539  28.617  1.00  0.00     0.049 A 
ATOM     52  N   UNL A   1      45.851  29.824  27.533  1.00  0.00    -0.248 NA
ATOM     53  C   UNL A   1      43.695  30.162  28.359  1.00  0.00     0.031 C 
ATOM     54  C   UNL A   1      47.022  33.851  29.116  1.00  0.00     0.029 A 
ATOM     55  N   UNL A   1      47.728  32.059  27.980  1.00  0.00    -0.354 N 
ATOM     56  C   UNL A   1      45.063  28.721  27.224  1.00  0.00     0.074 A 
ATOM     57  C   UNL A   1      43.750  28.971  27.782  1.00  0.00     0.031 C 
ATOM     58  C   UNL A   1      48.307  34.061  28.785  1.00  0.00     0.029 A 
ATOM     59  C   UNL A   1      48.824  32.885  28.087  1.00  0.00     0.049 A 
ATOM     60  H   UNL A   1      47.745  31.204  27.492  1.00  0.00     0.167 HD
ATOM     61  C   UNL A   1      45.404  27.603  26.539  1.00  0.00     0.034 A 
ATOM     62  C   UNL A   1      50.103  32.697  27.697  1.00  0.00     0.034 A 
ATOM     63  C   UNL A   1      46.712  27.373  25.978  1.00  0.00     0.049 A 
ATOM     64  C   UNL A   1      50.471  31.411  26.989  1.00  0.00     0.074 A 
ATOM     65  C   UNL A   1      47.145  26.298  25.221  1.00  0.00     0.029 A 
ATOM     66  N   UNL A   1      47.801  28.221  26.125  1.00  0.00    -0.354 N 
ATOM     67  N   UNL A   1      49.702  30.394  26.672  1.00  0.00    -0.248 NA
ATOM     68  C   UNL A   1      51.873  31.252  26.581  1.00  0.00     0.031 C 
ATOM     69  C   UNL A   1      48.513  26.458  24.976  1.00  0.00     0.029 A 
ATOM     70  C   UNL A   1      48.916  27.672  25.508  1.00  0.00     0.049 A 
ATOM     71  H   UNL A   1      47.785  29.085  26.596  1.00  0.00     0.167 HD
ATOM     72  C   UNL A   1      50.524  29.496  25.993  1.00  0.00     0.074 A 
ATOM     73  C   UNL A   1      51.839  30.096  25.937  1.00  0.00     0.031 C 
ATOM     74  C   UNL A   1      50.221  28.285  25.457  1.00  0.00     0.034 A 
BRANCH  61  75
ATOM     75  C   UNL A   1      44.370  26.514  26.406  1.00  0.00     0.023 A 
ATOM     76  C   UNL A   1      44.303  25.432  27.299  1.00  0.00     0.031 A 
ATOM     77  C   UNL A   1      43.417  26.579  25.373  1.00  0.00     0.131 A 
ATOM     78  C   UNL A   1      43.329  24.437  27.118  1.00  0.00     0.055 A 
ATOM     79  C   UNL A   1      42.412  25.622  25.237  1.00  0.00     0.041 A 
ATOM     80  F   UNL A   1      43.448  27.579  24.478  1.00  0.00    -0.206 F 
ATOM     81  C   UNL A   1      42.369  24.538  26.108  1.00  0.00     0.022 A 
BRANCH  78  82
ATOM     82  S   UNL A   1      43.388  22.957  28.166  1.00  0.00     0.124 S 
ATOM     83  O   UNL A   1      42.954  21.918  27.235  1.00  0.00    -0.237 OA
ATOM     84  O   UNL A   1      44.788  22.910  28.569  1.00  0.00    -0.237 OA
ATOM     85  O   UNL A   1      42.441  23.259  29.238  1.00  0.00    -0.744 OA
ENDBRANCH  78  82
ENDBRANCH  61  75
BRANCH  62  86
ATOM     86  C   UNL A   1      51.156  33.709  28.010  1.00  0.00     0.023 A 
ATOM     87  C   UNL A   1      51.718  33.803  29.293  1.00  0.00     0.031 A 
ATOM     88  C   UNL A   1      51.545  34.662  27.051  1.00  0.00     0.131 A 
ATOM     89  C   UNL A   1      52.580  34.867  29.603  1.00  0.00     0.055 A 
ATOM     90  C   UNL A   1      52.455  35.680  27.346  1.00  0.00     0.041 A 
ATOM     91  F   UNL A   1      51.038  34.625  25.809  1.00  0.00    -0.206 F 
ATOM     92  C   UNL A   1      52.963  35.799  28.635  1.00  0.00     0.022 A 
BRANCH  89  93
ATOM     93  S   UNL A   1      53.090  35.095  31.330  1.00  0.00     0.124 S 
ATOM     94  O   UNL A   1      53.956  33.940  31.538  1.00  0.00    -0.237 OA
ATOM     95  O   UNL A   1      53.754  36.394  31.278  1.00  0.00    -0.237 OA
ATOM     96  O   UNL A   1      51.827  35.070  32.063  1.00  0.00    -0.744 OA
ENDBRANCH  89  93
ENDBRANCH  62  86
BRANCH  74  97
ATOM     97  C   UNL A   1      51.316  27.563  24.713  1.00  0.00     0.023 A 
ATOM     98  C   UNL A   1      51.689  27.922  23.406  1.00  0.00     0.031 A 
ATOM     99  C   UNL A   1      51.998  26.496  25.326  1.00  0.00     0.131 A 
ATOM    100  C   UNL A   1      52.679  27.187  22.735  1.00  0.00     0.055 A 
ATOM    101  C   UNL A   1      53.023  25.808  24.676  1.00  0.00     0.041 A 
ATOM    102  F   UNL A   1      51.683  26.111  26.573  1.00  0.00    -0.206 F 
ATOM    103  C   UNL A   1      53.360  26.144  23.368  1.00  0.00     0.022 A 
BRANCH 100 104
ATOM    104  S   UNL A   1      53.011  27.560  20.991  1.00  0.00     0.124 S 
ATOM    105  O   UNL A   1      51.737  28.118  20.552  1.00  0.00    -0.237 OA
ATOM    106  O   UNL A   1      54.123  28.501  21.079  1.00  0.00    -0.237 OA
ATOM    107  O   UNL A   1      53.347  26.256  20.420  1.00  0.00    -0.744 OA
ENDBRANCH 100 104
ENDBRANCH  74  97
ENDBRANCH  48  49
ENDBRANCH  41  43
ENDBRANCH  40  41
ENDBRANCH  39  40
ENDBRANCH  38  39
ENDBRANCH   1  38
TORSDOF 23
ENDMDL
MODEL 3
REMARK VINA RESULT:     -10.1      5.236      7.765
REMARK SMILES COc1ccc([C@H]2CC(c3ccc(S(C)(=O)=O)cc3)=NN2c2ccc(C(=O)OCCOCCOC(=O)c3ccc(-c4c5nc(c(-c6cc(S(=O)(=O)[O-])ccc6F)c6ccc([nH]6)c(-c6cc(S(=O)(=O)[O-])ccc6F)c6nc(c(-c7cc(S(=O)(=O)[O-])ccc7F)c7ccc4[nH]7)C=C6)C=C5)cc3)cc2)cc1OC
REMARK SMILES IDX 31 1 30 2 29 3 28 4 26 5 27 6 25 7 22 8 23 9 101 10 24 11
REMARK SMILES IDX 100 12 21 13 7 14 8 15 9 16 20 17 6 18 3 19 4 20 103 21 5 22
REMARK SMILES IDX 102 23 2 24 1 25 104 26 105 27 10 28 11 29 19 30 12 31 18 32
REMARK SMILES IDX 13 33 14 34 15 35 16 36 17 37 32 38 33 39 34 40 35 41 36 42
REMARK SMILES IDX 37 43 38 44 99 45 39 46 98 47 40 48 41 49 42 50 92 51 43 52
REMARK SMILES IDX 97 53 91 54 93 55 44 56 96 57 90 58 89 59 45 61 77 62 57 63
REMARK SMILES IDX 76 64 58 65 61 66 75 67 94 68 59 69 60 70 74 72 95 73 62 74
REMARK SMILES IDX 46 75 47 76 55 77 48 78 54 79 56 80 53 81 49 82 50 83 51 84
REMARK SMILES IDX 52 85 78 86 79 87 87 88 80 89 86 90 88 91 85 92 81 93 82 94
REMARK SMILES IDX 83 95 84 96 63 97 64 98 72 99 65 100 71 101 73 102 70 103
REMARK SMILES IDX 66 104 67 105 68 106 69 107
REMARK H PARENT 93 60 61 71
REMARK Flexibility Score: inf
ROOT
ATOM      1  O   UNL A   1      36.598  33.082  29.233  1.00  0.00    -0.374 OA
ENDROOT
BRANCH   1   2
ATOM      2  C   UNL A   1      35.806  32.433  28.237  1.00  0.00     0.202 C 
BRANCH   2   3
ATOM      3  C   UNL A   1      35.206  31.078  28.625  1.00  0.00     0.261 C 
BRANCH   3   4
ATOM      4  O   UNL A   1      34.805  30.325  27.471  1.00  0.00    -0.460 OA
BRANCH   4   5
ATOM      5  C   UNL A   1      33.471  30.319  27.238  1.00  0.00     0.338 C 
ATOM      6  O   UNL A   1      32.730  31.291  27.186  1.00  0.00    -0.246 OA
BRANCH   5   7
ATOM      7  C   UNL A   1      33.012  28.954  26.900  1.00  0.00     0.060 A 
ATOM      8  C   UNL A   1      32.148  26.449  25.961  1.00  0.00     0.060 A 
ATOM      9  C   UNL A   1      33.429  26.925  25.654  1.00  0.00     0.029 A 
ATOM     10  C   UNL A   1      31.356  27.201  26.844  1.00  0.00     0.029 A 
ATOM     11  C   UNL A   1      33.849  28.181  26.091  1.00  0.00     0.018 A 
ATOM     12  C   UNL A   1      31.785  28.444  27.326  1.00  0.00     0.018 A 
BRANCH   8  13
ATOM     13  N   UNL A   1      31.661  25.326  25.308  1.00  0.00    -0.257 N 
ATOM     14  C   UNL A   1      30.386  25.237  24.582  1.00  0.00     0.144 C 
ATOM     15  C   UNL A   1      30.624  24.011  23.693  1.00  0.00     0.091 C 
ATOM     16  C   UNL A   1      31.748  23.378  24.469  1.00  0.00     0.071 C 
ATOM     17  N   UNL A   1      32.362  24.156  25.305  1.00  0.00    -0.176 NA
BRANCH  14  18
ATOM     18  C   UNL A   1      29.993  26.484  23.806  1.00  0.00    -0.019 A 
ATOM     19  C   UNL A   1      29.242  28.932  22.610  1.00  0.00     0.160 A 
ATOM     20  C   UNL A   1      28.273  28.070  23.138  1.00  0.00     0.051 A 
ATOM     21  C   UNL A   1      30.594  28.573  22.650  1.00  0.00     0.161 A 
ATOM     22  C   UNL A   1      28.643  26.855  23.724  1.00  0.00     0.010 A 
ATOM     23  C   UNL A   1      30.948  27.340  23.225  1.00  0.00     0.056 A 
BRANCH  19  24
ATOM     24  O   UNL A   1      28.847  30.170  22.176  1.00  0.00    -0.493 OA
ATOM     25  C   UNL A   1      28.834  31.137  23.223  1.00  0.00     0.278 C 
ENDBRANCH  19  24
BRANCH  21  26
ATOM     26  O   UNL A   1      31.678  29.283  22.208  1.00  0.00    -0.493 OA
ATOM     27  C   UNL A   1      32.976  28.854  22.591  1.00  0.00     0.278 C 
ENDBRANCH  21  26
ENDBRANCH  14  18
BRANCH  16  28
ATOM     28  C   UNL A   1      32.101  21.964  24.295  1.00  0.00    -0.002 A 
ATOM     29  C   UNL A   1      32.527  21.251  25.423  1.00  0.00     0.011 A 
ATOM     30  C   UNL A   1      32.011  21.344  23.049  1.00  0.00     0.011 A 
ATOM     31  C   UNL A   1      32.847  19.897  25.309  1.00  0.00     0.021 A 
ATOM     32  C   UNL A   1      32.359  19.994  22.927  1.00  0.00     0.021 A 
ATOM     33  C   UNL A   1      32.774  19.279  24.058  1.00  0.00     0.067 A 
BRANCH  33  34
ATOM     34  S   UNL A   1      33.184  17.554  23.921  1.00  0.00     0.175 S 
ATOM     35  C   UNL A   1      34.910  17.472  24.322  1.00  0.00     0.163 C 
ATOM     36  O   UNL A   1      32.441  16.863  24.956  1.00  0.00    -0.224 OA
ATOM     37  O   UNL A   1      33.045  17.178  22.525  1.00  0.00    -0.224 OA
ENDBRANCH  33  34
ENDBRANCH  16  28
ENDBRANCH   8  13
ENDBRANCH   5   7
ENDBRANCH   4   5
ENDBRANCH   3   4
ENDBRANCH   2   3
ENDBRANCH   1   2
BRANCH   1  38
ATOM     38  C   UNL A   1      37.872  32.502  29.521  1.00  0.00     0.202 C 
BRANCH  38  39
ATOM     39  C   UNL A   1      38.660  33.130  30.677  1.00  0.00     0.261 C 
BRANCH  39  40
ATOM     40  O   UNL A   1      39.950  33.607  30.252  1.00  0.00    -0.460 OA
BRANCH  40  41
ATOM     41  C   UNL A   1      40.861  33.750  31.243  1.00  0.00     0.338 C 
ATOM     42  O   UNL A   1      40.772  34.476  32.224  1.00  0.00    -0.246 OA
BRANCH  41  43
ATOM     43  C   UNL A   1      41.936  32.750  31.088  1.00  0.00     0.060 A 
ATOM     44  C   UNL A   1      41.653  31.430  31.466  1.00  0.00     0.016 A 
ATOM     45  C   UNL A   1      43.212  33.099  30.640  1.00  0.00     0.016 A 
ATOM     46  C   UNL A   1      42.658  30.464  31.443  1.00  0.00     0.010 A 
ATOM     47  C   UNL A   1      44.222  32.128  30.628  1.00  0.00     0.010 A 
ATOM     48  C   UNL A   1      43.958  30.815  31.060  1.00  0.00    -0.014 A 
BRANCH  48  49
ATOM     49  C   UNL A   1      45.070  29.850  31.248  1.00  0.00     0.031 A 
ATOM     50  C   UNL A   1      45.781  29.813  32.575  1.00  0.00     0.074 A 
ATOM     51  C   UNL A   1      45.434  29.013  30.258  1.00  0.00     0.049 A 
ATOM     52  N   UNL A   1      46.817  29.104  32.942  1.00  0.00    -0.248 NA
ATOM     53  C   UNL A   1      45.255  30.697  33.628  1.00  0.00     0.031 C 
ATOM     54  C   UNL A   1      44.792  28.929  28.947  1.00  0.00     0.029 A 
ATOM     55  N   UNL A   1      46.444  28.085  30.196  1.00  0.00    -0.354 N 
ATOM     56  C   UNL A   1      47.081  29.470  34.258  1.00  0.00     0.074 A 
ATOM     57  C   UNL A   1      46.104  30.476  34.620  1.00  0.00     0.031 C 
ATOM     58  C   UNL A   1      45.437  28.014  28.203  1.00  0.00     0.029 A 
ATOM     59  C   UNL A   1      46.562  27.477  28.967  1.00  0.00     0.049 A 
ATOM     60  H   UNL A   1      47.028  27.873  30.959  1.00  0.00     0.167 HD
ATOM     61  C   UNL A   1      48.049  29.008  35.086  1.00  0.00     0.034 A 
ATOM     62  C   UNL A   1      47.491  26.615  28.503  1.00  0.00     0.034 A 
ATOM     63  C   UNL A   1      49.007  27.996  34.715  1.00  0.00     0.049 A 
ATOM     64  C   UNL A   1      48.599  26.164  29.430  1.00  0.00     0.074 A 
ATOM     65  C   UNL A   1      49.995  27.422  35.496  1.00  0.00     0.029 A 
ATOM     66  N   UNL A   1      49.110  27.421  33.456  1.00  0.00    -0.354 N 
ATOM     67  N   UNL A   1      48.811  26.492  30.685  1.00  0.00    -0.248 NA
ATOM     68  C   UNL A   1      49.586  25.224  28.882  1.00  0.00     0.031 C 
ATOM     69  C   UNL A   1      50.742  26.557  34.691  1.00  0.00     0.029 A 
ATOM     70  C   UNL A   1      50.171  26.529  33.429  1.00  0.00     0.049 A 
ATOM     71  H   UNL A   1      48.517  27.616  32.695  1.00  0.00     0.167 HD
ATOM     72  C   UNL A   1      49.932  25.765  31.082  1.00  0.00     0.074 A 
ATOM     73  C   UNL A   1      50.341  24.975  29.940  1.00  0.00     0.031 C 
ATOM     74  C   UNL A   1      50.565  25.745  32.283  1.00  0.00     0.034 A 
BRANCH  61  75
ATOM     75  C   UNL A   1      48.163  29.632  36.454  1.00  0.00     0.023 A 
ATOM     76  C   UNL A   1      47.383  29.202  37.540  1.00  0.00     0.031 A 
ATOM     77  C   UNL A   1      49.094  30.662  36.675  1.00  0.00     0.131 A 
ATOM     78  C   UNL A   1      47.519  29.830  38.788  1.00  0.00     0.055 A 
ATOM     79  C   UNL A   1      49.271  31.238  37.933  1.00  0.00     0.041 A 
ATOM     80  F   UNL A   1      49.851  31.126  35.668  1.00  0.00    -0.206 F 
ATOM     81  C   UNL A   1      48.474  30.828  38.997  1.00  0.00     0.022 A 
BRANCH  78  82
ATOM     82  S   UNL A   1      46.365  29.389  40.117  1.00  0.00     0.124 S 
ATOM     83  O   UNL A   1      47.181  28.489  40.929  1.00  0.00    -0.237 OA
ATOM     84  O   UNL A   1      46.057  30.684  40.712  1.00  0.00    -0.237 OA
ATOM     85  O   UNL A   1      45.258  28.748  39.410  1.00  0.00    -0.744 OA
ENDBRANCH  78  82
ENDBRANCH  61  75
BRANCH  62  86
ATOM     86  C   UNL A   1      47.470  26.157  27.081  1.00  0.00     0.023 A 
ATOM     87  C   UNL A   1      46.640  25.103  26.668  1.00  0.00     0.031 A 
ATOM     88  C   UNL A   1      48.356  26.705  26.135  1.00  0.00     0.131 A 
ATOM     89  C   UNL A   1      46.762  24.584  25.369  1.00  0.00     0.055 A 
ATOM     90  C   UNL A   1      48.426  26.228  24.825  1.00  0.00     0.041 A 
ATOM     91  F   UNL A   1      49.177  27.711  26.474  1.00  0.00    -0.206 F 
ATOM     92  C   UNL A   1      47.640  25.147  24.440  1.00  0.00     0.022 A 
BRANCH  89  93
ATOM     93  S   UNL A   1      45.851  23.071  24.950  1.00  0.00     0.124 S 
ATOM     94  O   UNL A   1      44.844  23.577  24.026  1.00  0.00    -0.237 OA
ATOM     95  O   UNL A   1      46.900  22.241  24.366  1.00  0.00    -0.237 OA
ATOM     96  O   UNL A   1      45.342  22.613  26.241  1.00  0.00    -0.744 OA
ENDBRANCH  89  93
ENDBRANCH  62  86
BRANCH  74  97
ATOM     97  C   UNL A   1      51.727  24.795  32.438  1.00  0.00     0.023 A 
ATOM     98  C   UNL A   1      51.540  23.436  32.749  1.00  0.00     0.031 A 
ATOM     99  C   UNL A   1      53.044  25.260  32.270  1.00  0.00     0.131 A 
ATOM    100  C   UNL A   1      52.654  22.603  32.933  1.00  0.00     0.055 A 
ATOM    101  C   UNL A   1      54.145  24.414  32.395  1.00  0.00     0.041 A 
ATOM    102  F   UNL A   1      53.280  26.548  31.972  1.00  0.00    -0.206 F 
ATOM    103  C   UNL A   1      53.954  23.079  32.741  1.00  0.00     0.022 A 
BRANCH 100 104
ATOM    104  S   UNL A   1      52.387  20.904  33.509  1.00  0.00     0.124 S 
ATOM    105  O   UNL A   1      52.450  21.060  34.957  1.00  0.00    -0.237 OA
ATOM    106  O   UNL A   1      51.071  20.591  32.959  1.00  0.00    -0.237 OA
ATOM    107  O   UNL A   1      53.498  20.161  32.915  1.00  0.00    -0.744 OA
ENDBRANCH 100 104
ENDBRANCH  74  97
ENDBRANCH  48  49
ENDBRANCH  41  43
ENDBRANCH  40  41
ENDBRANCH  39  40
ENDBRANCH  38  39
ENDBRANCH   1  38
TORSDOF 23
ENDMDL
