MODEL 1
REMARK VINA RESULT:     -11.5      0.000      0.000
REMARK SMILES Cc1c(C#N)c2ccccc2n1CC(=O)N1CC[C@H](O)C[C@@H]1C(=O)OCCOCCOC(=O)c1ccc(-c2c3nc(c(-c4cc(S(=O)(=O)[O-])ccc4F)c4ccc([nH]4)c(-c4cc(S(=O)(=O)[O-])ccc4F)c4nc(c(-c5cc(S(=O)(=O)[O-])ccc5F)c5ccc2[nH]5)C=C4)C=C3)cc1
REMARK SMILES IDX 27 1 26 2 25 3 23 4 24 5 22 6 16 7 17 8 18 9 21 10 19 11
REMARK SMILES IDX 14 12 15 13 13 14 12 15 1 16 2 17 3 18 6 19 11 20 7 21 10 22
REMARK SMILES IDX 8 23 9 24 4 25 5 26 20 27 28 29 29 30 30 31 31 32 32 33
REMARK SMILES IDX 33 34 34 35 35 36 96 37 36 38 95 39 37 40 38 41 39 42 89 43
REMARK SMILES IDX 40 44 94 45 88 46 90 47 41 48 93 49 87 50 86 51 42 53 74 54
REMARK SMILES IDX 54 55 73 56 55 57 58 58 72 59 91 60 56 61 57 62 71 64 92 65
REMARK SMILES IDX 59 66 43 67 44 68 52 69 45 70 51 71 53 72 50 73 46 74 47 75
REMARK SMILES IDX 48 76 49 77 75 78 76 79 84 80 77 81 83 82 85 83 82 84 78 85
REMARK SMILES IDX 79 86 80 87 81 88 60 89 61 90 69 91 62 92 68 93 70 94 67 95
REMARK SMILES IDX 63 96 64 97 65 98 66 99
REMARK H PARENT 20 28 90 52 58 63
REMARK Flexibility Score: inf
ROOT
ATOM      1  C   UNL A   1      36.311  20.152  25.003  1.00  0.00     0.202 C 
ENDROOT
BRANCH   1   2
ATOM      2  C   UNL A   1      34.782  20.261  24.926  1.00  0.00     0.261 C 
BRANCH   2   3
ATOM      3  O   UNL A   1      34.304  21.525  24.478  1.00  0.00    -0.462 OA
BRANCH   3   4
ATOM      4  C   UNL A   1      33.045  21.420  23.989  1.00  0.00     0.329 C 
ATOM      5  O   UNL A   1      32.429  20.358  23.919  1.00  0.00    -0.250 OA
BRANCH   4   6
ATOM      6  C   UNL A   1      32.424  22.786  23.659  1.00  0.00     0.197 C 
ATOM      7  N   UNL A   1      33.337  23.801  24.222  1.00  0.00    -0.327 N 
ATOM      8  C   UNL A   1      33.438  23.778  25.687  1.00  0.00     0.123 C 
ATOM      9  C   UNL A   1      32.068  23.791  26.369  1.00  0.00     0.053 C 
ATOM     10  C   UNL A   1      31.022  23.001  24.195  1.00  0.00     0.069 C 
ATOM     11  C   UNL A   1      31.005  22.909  25.715  1.00  0.00     0.118 C 
BRANCH   7  12
ATOM     12  C   UNL A   1      34.146  24.461  23.315  1.00  0.00     0.243 C 
ATOM     13  O   UNL A   1      35.143  23.883  22.854  1.00  0.00    -0.273 OA
BRANCH  12  14
ATOM     14  C   UNL A   1      34.018  25.947  23.028  1.00  0.00     0.222 C 
BRANCH  14  15
ATOM     15  N   UNL A   1      32.856  26.649  23.539  1.00  0.00    -0.334 N 
ATOM     16  C   UNL A   1      31.361  26.186  21.546  1.00  0.00     0.066 C 
ATOM     17  C   UNL A   1      31.638  26.763  22.894  1.00  0.00     0.034 A 
ATOM     18  C   UNL A   1      30.768  27.355  23.798  1.00  0.00     0.080 A 
ATOM     19  C   UNL A   1      31.495  27.691  24.975  1.00  0.00     0.018 A 
ATOM     20  C   UNL A   1      32.815  27.280  24.772  1.00  0.00     0.050 A 
ATOM     21  C   UNL A   1      31.153  28.282  26.211  1.00  0.00     0.012 A 
ATOM     22  C   UNL A   1      33.810  27.472  25.747  1.00  0.00     0.027 A 
ATOM     23  C   UNL A   1      32.136  28.467  27.188  1.00  0.00     0.001 A 
ATOM     24  C   UNL A   1      33.448  28.075  26.954  1.00  0.00     0.002 A 
BRANCH  18  25
ATOM     25  C   UNL A   1      29.359  27.534  23.589  1.00  0.00     0.102 C 
ATOM     26  N   UNL A   1      28.227  27.695  23.436  1.00  0.00    -0.192 NA
ENDBRANCH  18  25
ENDBRANCH  14  15
ENDBRANCH  12  14
ENDBRANCH   7  12
BRANCH  11  27
ATOM     27  O   UNL A   1      31.129  21.541  26.079  1.00  0.00    -0.393 OA
ATOM     28  H   UNL A   1      30.439  21.314  26.723  1.00  0.00     0.210 HD
ENDBRANCH  11  27
ENDBRANCH   4   6
ENDBRANCH   3   4
ENDBRANCH   2   3
ENDBRANCH   1   2
BRANCH   1  29
ATOM     29  O   UNL A   1      37.127  21.227  24.554  1.00  0.00    -0.374 OA
BRANCH  29  30
ATOM     30  C   UNL A   1      37.924  21.948  25.491  1.00  0.00     0.202 C 
BRANCH  30  31
ATOM     31  C   UNL A   1      39.258  21.386  26.029  1.00  0.00     0.261 C 
BRANCH  31  32
ATOM     32  O   UNL A   1      39.948  22.287  26.908  1.00  0.00    -0.460 OA
BRANCH  32  33
ATOM     33  C   UNL A   1      41.178  22.704  26.481  1.00  0.00     0.338 C 
ATOM     34  O   UNL A   1      41.883  22.162  25.648  1.00  0.00    -0.246 OA
BRANCH  33  35
ATOM     35  C   UNL A   1      41.313  24.120  26.904  1.00  0.00     0.060 A 
ATOM     36  C   UNL A   1      42.269  24.516  27.840  1.00  0.00     0.016 A 
ATOM     37  C   UNL A   1      40.231  24.961  26.588  1.00  0.00     0.016 A 
ATOM     38  C   UNL A   1      42.063  25.700  28.551  1.00  0.00     0.010 A 
ATOM     39  C   UNL A   1      39.993  26.101  27.353  1.00  0.00     0.010 A 
ATOM     40  C   UNL A   1      40.875  26.447  28.376  1.00  0.00    -0.014 A 
BRANCH  40  41
ATOM     41  C   UNL A   1      40.731  27.743  29.065  1.00  0.00     0.031 A 
ATOM     42  C   UNL A   1      41.690  28.713  28.464  1.00  0.00     0.074 A 
ATOM     43  C   UNL A   1      39.819  28.120  29.998  1.00  0.00     0.049 A 
ATOM     44  N   UNL A   1      42.769  29.167  29.008  1.00  0.00    -0.248 NA
ATOM     45  C   UNL A   1      41.591  28.988  27.017  1.00  0.00     0.031 C 
ATOM     46  C   UNL A   1      38.667  27.376  30.519  1.00  0.00     0.029 A 
ATOM     47  N   UNL A   1      39.685  29.324  30.652  1.00  0.00    -0.354 N 
ATOM     48  C   UNL A   1      43.350  29.989  28.047  1.00  0.00     0.074 A 
ATOM     49  C   UNL A   1      42.727  29.650  26.798  1.00  0.00     0.031 C 
ATOM     50  C   UNL A   1      37.836  28.217  31.187  1.00  0.00     0.029 A 
ATOM     51  C   UNL A   1      38.445  29.534  31.272  1.00  0.00     0.049 A 
ATOM     52  H   UNL A   1      40.410  29.990  30.682  1.00  0.00     0.167 HD
ATOM     53  C   UNL A   1      44.097  31.068  28.406  1.00  0.00     0.034 A 
ATOM     54  C   UNL A   1      37.939  30.707  31.771  1.00  0.00     0.034 A 
ATOM     55  C   UNL A   1      44.471  30.983  29.793  1.00  0.00     0.049 A 
ATOM     56  C   UNL A   1      39.069  31.644  31.970  1.00  0.00     0.074 A 
ATOM     57  C   UNL A   1      45.208  30.088  30.543  1.00  0.00     0.029 A 
ATOM     58  N   UNL A   1      43.709  31.697  30.685  1.00  0.00    -0.354 N 
ATOM     59  N   UNL A   1      39.965  31.487  32.900  1.00  0.00    -0.248 NA
ATOM     60  C   UNL A   1      39.470  32.428  30.810  1.00  0.00     0.031 C 
ATOM     61  C   UNL A   1      44.503  29.973  31.772  1.00  0.00     0.029 A 
ATOM     62  C   UNL A   1      43.452  30.889  31.761  1.00  0.00     0.049 A 
ATOM     63  H   UNL A   1      43.402  32.625  30.572  1.00  0.00     0.167 HD
ATOM     64  C   UNL A   1      41.156  31.682  32.226  1.00  0.00     0.074 A 
ATOM     65  C   UNL A   1      40.790  32.294  30.947  1.00  0.00     0.031 C 
ATOM     66  C   UNL A   1      42.296  31.046  32.611  1.00  0.00     0.034 A 
BRANCH  53  67
ATOM     67  C   UNL A   1      44.129  32.363  27.628  1.00  0.00     0.023 A 
ATOM     68  C   UNL A   1      43.434  33.525  28.018  1.00  0.00     0.031 A 
ATOM     69  C   UNL A   1      45.059  32.528  26.582  1.00  0.00     0.131 A 
ATOM     70  C   UNL A   1      43.654  34.759  27.393  1.00  0.00     0.055 A 
ATOM     71  C   UNL A   1      45.332  33.773  26.007  1.00  0.00     0.041 A 
ATOM     72  F   UNL A   1      45.779  31.490  26.127  1.00  0.00    -0.206 F 
ATOM     73  C   UNL A   1      44.628  34.898  26.412  1.00  0.00     0.022 A 
BRANCH  70  74
ATOM     74  S   UNL A   1      42.673  36.213  27.856  1.00  0.00     0.124 S 
ATOM     75  O   UNL A   1      41.439  35.606  28.341  1.00  0.00    -0.237 OA
ATOM     76  O   UNL A   1      43.522  36.822  28.877  1.00  0.00    -0.237 OA
ATOM     77  O   UNL A   1      42.566  36.967  26.610  1.00  0.00    -0.744 OA
ENDBRANCH  70  74
ENDBRANCH  53  67
BRANCH  54  78
ATOM     78  C   UNL A   1      36.574  31.281  31.540  1.00  0.00     0.023 A 
ATOM     79  C   UNL A   1      36.115  31.396  30.222  1.00  0.00     0.031 A 
ATOM     80  C   UNL A   1      35.918  32.071  32.514  1.00  0.00     0.131 A 
ATOM     81  C   UNL A   1      35.137  32.341  29.883  1.00  0.00     0.055 A 
ATOM     82  C   UNL A   1      34.902  32.984  32.179  1.00  0.00     0.041 A 
ATOM     83  F   UNL A   1      36.316  32.049  33.796  1.00  0.00    -0.206 F 
ATOM     84  C   UNL A   1      34.526  33.143  30.849  1.00  0.00     0.022 A 
BRANCH  81  85
ATOM     85  S   UNL A   1      34.775  32.648  28.134  1.00  0.00     0.124 S 
ATOM     86  O   UNL A   1      34.458  31.310  27.642  1.00  0.00    -0.237 OA
ATOM     87  O   UNL A   1      33.651  33.571  28.225  1.00  0.00    -0.237 OA
ATOM     88  O   UNL A   1      36.022  33.212  27.625  1.00  0.00    -0.744 OA
ENDBRANCH  81  85
ENDBRANCH  54  78
BRANCH  66  89
ATOM     89  C   UNL A   1      42.328  30.302  33.922  1.00  0.00     0.023 A 
ATOM     90  C   UNL A   1      42.967  30.973  34.974  1.00  0.00     0.031 A 
ATOM     91  C   UNL A   1      42.002  28.945  34.113  1.00  0.00     0.131 A 
ATOM     92  C   UNL A   1      43.334  30.292  36.134  1.00  0.00     0.055 A 
ATOM     93  C   UNL A   1      42.297  28.285  35.313  1.00  0.00     0.041 A 
ATOM     94  F   UNL A   1      41.482  28.201  33.126  1.00  0.00    -0.206 F 
ATOM     95  C   UNL A   1      42.988  28.953  36.321  1.00  0.00     0.022 A 
BRANCH  92  96
ATOM     96  S   UNL A   1      44.433  31.098  37.324  1.00  0.00     0.124 S 
ATOM     97  O   UNL A   1      44.586  32.430  36.745  1.00  0.00    -0.237 OA
ATOM     98  O   UNL A   1      43.655  31.036  38.560  1.00  0.00    -0.237 OA
ATOM     99  O   UNL A   1      45.635  30.270  37.314  1.00  0.00    -0.744 OA
ENDBRANCH  92  96
ENDBRANCH  66  89
ENDBRANCH  40  41
ENDBRANCH  33  35
ENDBRANCH  32  33
ENDBRANCH  31  32
ENDBRANCH  30  31
ENDBRANCH  29  30
ENDBRANCH   1  29
TORSDOF 22
ENDMDL
MODEL 2
REMARK VINA RESULT:     -11.4      1.631      2.351
REMARK SMILES Cc1c(C#N)c2ccccc2n1CC(=O)N1CC[C@H](O)C[C@@H]1C(=O)OCCOCCOC(=O)c1ccc(-c2c3nc(c(-c4cc(S(=O)(=O)[O-])ccc4F)c4ccc([nH]4)c(-c4cc(S(=O)(=O)[O-])ccc4F)c4nc(c(-c5cc(S(=O)(=O)[O-])ccc5F)c5ccc2[nH]5)C=C4)C=C3)cc1
REMARK SMILES IDX 27 1 26 2 25 3 23 4 24 5 22 6 16 7 17 8 18 9 21 10 19 11
REMARK SMILES IDX 14 12 15 13 13 14 12 15 1 16 2 17 3 18 6 19 11 20 7 21 10 22
REMARK SMILES IDX 8 23 9 24 4 25 5 26 20 27 28 29 29 30 30 31 31 32 32 33
REMARK SMILES IDX 33 34 34 35 35 36 96 37 36 38 95 39 37 40 38 41 39 42 89 43
REMARK SMILES IDX 40 44 94 45 88 46 90 47 41 48 93 49 87 50 86 51 42 53 74 54
REMARK SMILES IDX 54 55 73 56 55 57 58 58 72 59 91 60 56 61 57 62 71 64 92 65
REMARK SMILES IDX 59 66 43 67 44 68 52 69 45 70 51 71 53 72 50 73 46 74 47 75
REMARK SMILES IDX 48 76 49 77 75 78 76 79 84 80 77 81 83 82 85 83 82 84 78 85
REMARK SMILES IDX 79 86 80 87 81 88 60 89 61 90 69 91 62 92 68 93 70 94 67 95
REMARK SMILES IDX 63 96 64 97 65 98 66 99
REMARK H PARENT 20 28 90 52 58 63
REMARK Flexibility Score: inf
ROOT
ATOM      1  C   UNL A   1      37.134  21.452  24.985  1.00  0.00     0.202 C 
ENDROOT
BRANCH   1   2
ATOM      2  C   UNL A   1      35.670  21.451  25.449  1.00  0.00     0.261 C 
BRANCH   2   3
ATOM      3  O   UNL A   1      35.113  22.747  25.643  1.00  0.00    -0.462 OA
BRANCH   3   4
ATOM      4  C   UNL A   1      33.778  22.739  25.415  1.00  0.00     0.329 C 
ATOM      5  O   UNL A   1      33.101  21.712  25.376  1.00  0.00    -0.250 OA
BRANCH   4   6
ATOM      6  C   UNL A   1      33.182  24.152  25.344  1.00  0.00     0.197 C 
ATOM      7  N   UNL A   1      31.790  23.989  24.877  1.00  0.00    -0.327 N 
ATOM      8  C   UNL A   1      31.667  23.461  23.512  1.00  0.00     0.123 C 
ATOM      9  C   UNL A   1      32.529  24.228  22.507  1.00  0.00     0.053 C 
ATOM     10  C   UNL A   1      33.920  25.117  24.435  1.00  0.00     0.069 C 
ATOM     11  C   UNL A   1      33.925  24.610  22.999  1.00  0.00     0.118 C 
BRANCH   7  12
ATOM     12  C   UNL A   1      30.806  24.117  25.840  1.00  0.00     0.243 C 
ATOM     13  O   UNL A   1      30.311  23.096  26.345  1.00  0.00    -0.273 OA
BRANCH  12  14
ATOM     14  C   UNL A   1      30.123  25.437  26.149  1.00  0.00     0.222 C 
BRANCH  14  15
ATOM     15  N   UNL A   1      30.500  26.605  25.374  1.00  0.00    -0.334 N 
ATOM     16  C   UNL A   1      28.837  26.232  23.498  1.00  0.00     0.066 C 
ATOM     17  C   UNL A   1      29.926  26.995  24.177  1.00  0.00     0.034 A 
ATOM     18  C   UNL A   1      30.456  28.239  23.874  1.00  0.00     0.080 A 
ATOM     19  C   UNL A   1      31.436  28.567  24.853  1.00  0.00     0.018 A 
ATOM     20  C   UNL A   1      31.479  27.505  25.760  1.00  0.00     0.050 A 
ATOM     21  C   UNL A   1      32.275  29.681  25.074  1.00  0.00     0.012 A 
ATOM     22  C   UNL A   1      32.357  27.504  26.859  1.00  0.00     0.027 A 
ATOM     23  C   UNL A   1      33.143  29.690  26.171  1.00  0.00     0.001 A 
ATOM     24  C   UNL A   1      33.189  28.611  27.044  1.00  0.00     0.002 A 
BRANCH  18  25
ATOM     25  C   UNL A   1      30.030  29.073  22.784  1.00  0.00     0.102 C 
ATOM     26  N   UNL A   1      29.699  29.759  21.918  1.00  0.00    -0.192 NA
ENDBRANCH  18  25
ENDBRANCH  14  15
ENDBRANCH  12  14
ENDBRANCH   7  12
BRANCH  11  27
ATOM     27  O   UNL A   1      34.850  23.535  22.910  1.00  0.00    -0.393 OA
ATOM     28  H   UNL A   1      35.739  23.887  22.743  1.00  0.00     0.210 HD
ENDBRANCH  11  27
ENDBRANCH   4   6
ENDBRANCH   3   4
ENDBRANCH   2   3
ENDBRANCH   1   2
BRANCH   1  29
ATOM     29  O   UNL A   1      37.889  20.247  25.001  1.00  0.00    -0.374 OA
BRANCH  29  30
ATOM     30  C   UNL A   1      39.229  20.260  25.488  1.00  0.00     0.202 C 
BRANCH  30  31
ATOM     31  C   UNL A   1      39.689  21.243  26.586  1.00  0.00     0.261 C 
BRANCH  31  32
ATOM     32  O   UNL A   1      40.262  22.454  26.070  1.00  0.00    -0.460 OA
BRANCH  32  33
ATOM     33  C   UNL A   1      41.443  22.839  26.642  1.00  0.00     0.338 C 
ATOM     34  O   UNL A   1      42.565  22.578  26.244  1.00  0.00    -0.246 OA
BRANCH  33  35
ATOM     35  C   UNL A   1      41.118  23.945  27.576  1.00  0.00     0.060 A 
ATOM     36  C   UNL A   1      39.938  24.681  27.456  1.00  0.00     0.016 A 
ATOM     37  C   UNL A   1      42.188  24.432  28.347  1.00  0.00     0.016 A 
ATOM     38  C   UNL A   1      39.887  25.963  28.006  1.00  0.00     0.010 A 
ATOM     39  C   UNL A   1      42.157  25.739  28.829  1.00  0.00     0.010 A 
ATOM     40  C   UNL A   1      41.031  26.532  28.612  1.00  0.00    -0.014 A 
BRANCH  40  41
ATOM     41  C   UNL A   1      40.919  27.846  29.272  1.00  0.00     0.031 A 
ATOM     42  C   UNL A   1      41.812  28.811  28.570  1.00  0.00     0.074 A 
ATOM     43  C   UNL A   1      40.075  28.238  30.262  1.00  0.00     0.049 A 
ATOM     44  N   UNL A   1      42.923  29.296  29.015  1.00  0.00    -0.248 NA
ATOM     45  C   UNL A   1      41.598  29.041  27.128  1.00  0.00     0.031 C 
ATOM     46  C   UNL A   1      38.980  27.495  30.892  1.00  0.00     0.029 A 
ATOM     47  N   UNL A   1      39.973  29.460  30.889  1.00  0.00    -0.354 N 
ATOM     48  C   UNL A   1      43.414  30.097  27.988  1.00  0.00     0.074 A 
ATOM     49  C   UNL A   1      42.702  29.712  26.802  1.00  0.00     0.031 C 
ATOM     50  C   UNL A   1      38.190  28.344  31.597  1.00  0.00     0.029 A 
ATOM     51  C   UNL A   1      38.781  29.672  31.597  1.00  0.00     0.049 A 
ATOM     52  H   UNL A   1      40.687  30.137  30.843  1.00  0.00     0.167 HD
ATOM     53  C   UNL A   1      44.169  31.197  28.256  1.00  0.00     0.034 A 
ATOM     54  C   UNL A   1      38.296  30.852  32.099  1.00  0.00     0.034 A 
ATOM     55  C   UNL A   1      44.651  31.159  29.612  1.00  0.00     0.049 A 
ATOM     56  C   UNL A   1      39.422  31.810  32.182  1.00  0.00     0.074 A 
ATOM     57  C   UNL A   1      45.458  30.298  30.328  1.00  0.00     0.029 A 
ATOM     58  N   UNL A   1      43.948  31.889  30.540  1.00  0.00    -0.354 N 
ATOM     59  N   UNL A   1      40.390  31.694  33.044  1.00  0.00    -0.248 NA
ATOM     60  C   UNL A   1      39.720  32.564  30.972  1.00  0.00     0.031 C 
ATOM     61  C   UNL A   1      44.851  30.211  31.611  1.00  0.00     0.029 A 
ATOM     62  C   UNL A   1      43.788  31.111  31.655  1.00  0.00     0.049 A 
ATOM     63  H   UNL A   1      43.619  32.809  30.423  1.00  0.00     0.167 HD
ATOM     64  C   UNL A   1      41.522  31.886  32.274  1.00  0.00     0.074 A 
ATOM     65  C   UNL A   1      41.049  32.453  31.010  1.00  0.00     0.031 C 
ATOM     66  C   UNL A   1      42.699  31.277  32.588  1.00  0.00     0.034 A 
BRANCH  53  67
ATOM     67  C   UNL A   1      44.119  32.468  27.441  1.00  0.00     0.023 A 
ATOM     68  C   UNL A   1      43.512  33.658  27.887  1.00  0.00     0.031 A 
ATOM     69  C   UNL A   1      44.896  32.579  26.270  1.00  0.00     0.131 A 
ATOM     70  C   UNL A   1      43.669  34.868  27.198  1.00  0.00     0.055 A 
ATOM     71  C   UNL A   1      45.113  33.800  25.623  1.00  0.00     0.041 A 
ATOM     72  F   UNL A   1      45.522  31.510  25.752  1.00  0.00    -0.206 F 
ATOM     73  C   UNL A   1      44.498  34.954  26.087  1.00  0.00     0.022 A 
BRANCH  70  74
ATOM     74  S   UNL A   1      42.795  36.360  27.748  1.00  0.00     0.124 S 
ATOM     75  O   UNL A   1      43.750  36.945  28.682  1.00  0.00    -0.237 OA
ATOM     76  O   UNL A   1      42.624  37.077  26.486  1.00  0.00    -0.237 OA
ATOM     77  O   UNL A   1      41.564  35.841  28.336  1.00  0.00    -0.744 OA
ENDBRANCH  70  74
ENDBRANCH  53  67
BRANCH  54  78
ATOM     78  C   UNL A   1      36.909  31.399  31.959  1.00  0.00     0.023 A 
ATOM     79  C   UNL A   1      36.404  31.608  30.669  1.00  0.00     0.031 A 
ATOM     80  C   UNL A   1      36.262  32.085  33.014  1.00  0.00     0.131 A 
ATOM     81  C   UNL A   1      35.388  32.547  30.440  1.00  0.00     0.055 A 
ATOM     82  C   UNL A   1      35.210  32.989  32.788  1.00  0.00     0.041 A 
ATOM     83  F   UNL A   1      36.702  31.969  34.277  1.00  0.00    -0.206 F 
ATOM     84  C   UNL A   1      34.786  33.246  31.488  1.00  0.00     0.022 A 
BRANCH  81  85
ATOM     85  S   UNL A   1      34.960  32.985  28.734  1.00  0.00     0.124 S 
ATOM     86  O   UNL A   1      34.372  34.312  28.892  1.00  0.00    -0.237 OA
ATOM     87  O   UNL A   1      36.265  32.944  28.086  1.00  0.00    -0.237 OA
ATOM     88  O   UNL A   1      34.021  31.938  28.342  1.00  0.00    -0.744 OA
ENDBRANCH  81  85
ENDBRANCH  54  78
BRANCH  66  89
ATOM     89  C   UNL A   1      42.844  30.574  33.914  1.00  0.00     0.023 A 
ATOM     90  C   UNL A   1      42.491  29.217  33.911  1.00  0.00     0.031 A 
ATOM     91  C   UNL A   1      43.063  31.192  35.160  1.00  0.00     0.131 A 
ATOM     92  C   UNL A   1      42.287  28.533  35.109  1.00  0.00     0.055 A 
ATOM     93  C   UNL A   1      42.939  30.479  36.360  1.00  0.00     0.041 A 
ATOM     94  F   UNL A   1      43.306  32.507  35.261  1.00  0.00    -0.206 F 
ATOM     95  C   UNL A   1      42.526  29.149  36.338  1.00  0.00     0.022 A 
BRANCH  92  96
ATOM     96  S   UNL A   1      41.525  26.892  35.073  1.00  0.00     0.124 S 
ATOM     97  O   UNL A   1      41.037  26.753  36.442  1.00  0.00    -0.237 OA
ATOM     98  O   UNL A   1      40.493  27.050  34.050  1.00  0.00    -0.237 OA
ATOM     99  O   UNL A   1      42.621  26.000  34.706  1.00  0.00    -0.744 OA
ENDBRANCH  92  96
ENDBRANCH  66  89
ENDBRANCH  40  41
ENDBRANCH  33  35
ENDBRANCH  32  33
ENDBRANCH  31  32
ENDBRANCH  30  31
ENDBRANCH  29  30
ENDBRANCH   1  29
TORSDOF 22
ENDMDL
MODEL 3
REMARK VINA RESULT:     -11.3      3.177      8.899
REMARK SMILES Cc1c(C#N)c2ccccc2n1CC(=O)N1CC[C@H](O)C[C@@H]1C(=O)OCCOCCOC(=O)c1ccc(-c2c3nc(c(-c4cc(S(=O)(=O)[O-])ccc4F)c4ccc([nH]4)c(-c4cc(S(=O)(=O)[O-])ccc4F)c4nc(c(-c5cc(S(=O)(=O)[O-])ccc5F)c5ccc2[nH]5)C=C4)C=C3)cc1
REMARK SMILES IDX 27 1 26 2 25 3 23 4 24 5 22 6 16 7 17 8 18 9 21 10 19 11
REMARK SMILES IDX 14 12 15 13 13 14 12 15 1 16 2 17 3 18 6 19 11 20 7 21 10 22
REMARK SMILES IDX 8 23 9 24 4 25 5 26 20 27 28 29 29 30 30 31 31 32 32 33
REMARK SMILES IDX 33 34 34 35 35 36 96 37 36 38 95 39 37 40 38 41 39 42 89 43
REMARK SMILES IDX 40 44 94 45 88 46 90 47 41 48 93 49 87 50 86 51 42 53 74 54
REMARK SMILES IDX 54 55 73 56 55 57 58 58 72 59 91 60 56 61 57 62 71 64 92 65
REMARK SMILES IDX 59 66 43 67 44 68 52 69 45 70 51 71 53 72 50 73 46 74 47 75
REMARK SMILES IDX 48 76 49 77 75 78 76 79 84 80 77 81 83 82 85 83 82 84 78 85
REMARK SMILES IDX 79 86 80 87 81 88 60 89 61 90 69 91 62 92 68 93 70 94 67 95
REMARK SMILES IDX 63 96 64 97 65 98 66 99
REMARK H PARENT 20 28 90 52 58 63
REMARK Flexibility Score: inf
ROOT
ATOM      1  C   UNL A   1      34.148  29.468  27.215  1.00  0.00     0.202 C 
ENDROOT
BRANCH   1   2
ATOM      2  C   UNL A   1      34.152  28.808  25.829  1.00  0.00     0.261 C 
BRANCH   2   3
ATOM      3  O   UNL A   1      33.339  29.465  24.861  1.00  0.00    -0.462 OA
BRANCH   3   4
ATOM      4  C   UNL A   1      33.191  28.698  23.755  1.00  0.00     0.329 C 
ATOM      5  O   UNL A   1      33.717  28.955  22.673  1.00  0.00    -0.250 OA
BRANCH   4   6
ATOM      6  C   UNL A   1      32.405  27.407  24.032  1.00  0.00     0.197 C 
ATOM      7  N   UNL A   1      32.020  26.869  22.712  1.00  0.00    -0.327 N 
ATOM      8  C   UNL A   1      31.089  27.720  21.959  1.00  0.00     0.123 C 
ATOM      9  C   UNL A   1      29.875  28.140  22.790  1.00  0.00     0.053 C 
ATOM     10  C   UNL A   1      31.172  27.578  24.898  1.00  0.00     0.069 C 
ATOM     11  C   UNL A   1      30.175  28.521  24.240  1.00  0.00     0.118 C 
BRANCH   7  12
ATOM     12  C   UNL A   1      32.750  25.786  22.259  1.00  0.00     0.243 C 
ATOM     13  O   UNL A   1      33.553  25.940  21.324  1.00  0.00    -0.273 OA
BRANCH  12  14
ATOM     14  C   UNL A   1      32.455  24.358  22.683  1.00  0.00     0.222 C 
BRANCH  14  15
ATOM     15  N   UNL A   1      33.072  23.860  23.899  1.00  0.00    -0.334 N 
ATOM     16  C   UNL A   1      31.043  24.184  25.384  1.00  0.00     0.066 C 
ATOM     17  C   UNL A   1      32.452  23.759  25.132  1.00  0.00     0.034 A 
ATOM     18  C   UNL A   1      33.333  23.081  25.960  1.00  0.00     0.080 A 
ATOM     19  C   UNL A   1      34.543  22.851  25.246  1.00  0.00     0.018 A 
ATOM     20  C   UNL A   1      34.373  23.389  23.968  1.00  0.00     0.050 A 
ATOM     21  C   UNL A   1      35.762  22.209  25.553  1.00  0.00     0.012 A 
ATOM     22  C   UNL A   1      35.392  23.338  23.001  1.00  0.00     0.027 A 
ATOM     23  C   UNL A   1      36.776  22.147  24.592  1.00  0.00     0.001 A 
ATOM     24  C   UNL A   1      36.595  22.713  23.337  1.00  0.00     0.002 A 
BRANCH  18  25
ATOM     25  C   UNL A   1      33.035  22.638  27.294  1.00  0.00     0.102 C 
ATOM     26  N   UNL A   1      32.781  22.297  28.366  1.00  0.00    -0.192 NA
ENDBRANCH  18  25
ENDBRANCH  14  15
ENDBRANCH  12  14
ENDBRANCH   7  12
BRANCH  11  27
ATOM     27  O   UNL A   1      30.669  29.848  24.365  1.00  0.00    -0.393 OA
ATOM     28  H   UNL A   1      30.835  30.044  25.301  1.00  0.00     0.210 HD
ENDBRANCH  11  27
ENDBRANCH   4   6
ENDBRANCH   3   4
ENDBRANCH   2   3
ENDBRANCH   1   2
BRANCH   1  29
ATOM     29  O   UNL A   1      33.110  30.372  27.571  1.00  0.00    -0.374 OA
BRANCH  29  30
ATOM     30  C   UNL A   1      33.277  31.768  27.334  1.00  0.00     0.202 C 
BRANCH  30  31
ATOM     31  C   UNL A   1      34.361  32.595  28.058  1.00  0.00     0.261 C 
BRANCH  31  32
ATOM     32  O   UNL A   1      34.639  32.138  29.391  1.00  0.00    -0.460 OA
BRANCH  32  33
ATOM     33  C   UNL A   1      35.774  32.640  29.963  1.00  0.00     0.338 C 
ATOM     34  O   UNL A   1      35.837  33.413  30.902  1.00  0.00    -0.246 OA
BRANCH  33  35
ATOM     35  C   UNL A   1      36.892  31.774  29.510  1.00  0.00     0.060 A 
ATOM     36  C   UNL A   1      36.736  30.395  29.366  1.00  0.00     0.016 A 
ATOM     37  C   UNL A   1      38.175  32.347  29.570  1.00  0.00     0.016 A 
ATOM     38  C   UNL A   1      37.871  29.583  29.413  1.00  0.00     0.010 A 
ATOM     39  C   UNL A   1      39.294  31.527  29.691  1.00  0.00     0.010 A 
ATOM     40  C   UNL A   1      39.145  30.140  29.672  1.00  0.00    -0.014 A 
BRANCH  40  41
ATOM     41  C   UNL A   1      40.336  29.273  29.616  1.00  0.00     0.031 A 
ATOM     42  C   UNL A   1      40.662  28.820  30.999  1.00  0.00     0.074 A 
ATOM     43  C   UNL A   1      41.004  28.803  28.531  1.00  0.00     0.049 A 
ATOM     44  N   UNL A   1      41.657  29.210  31.723  1.00  0.00    -0.248 NA
ATOM     45  C   UNL A   1      39.632  28.078  31.752  1.00  0.00     0.031 C 
ATOM     46  C   UNL A   1      40.677  28.950  27.109  1.00  0.00     0.029 A 
ATOM     47  N   UNL A   1      42.122  28.002  28.473  1.00  0.00    -0.354 N 
ATOM     48  C   UNL A   1      41.506  28.557  32.942  1.00  0.00     0.074 A 
ATOM     49  C   UNL A   1      40.149  28.085  32.980  1.00  0.00     0.031 C 
ATOM     50  C   UNL A   1      41.405  28.071  26.373  1.00  0.00     0.029 A 
ATOM     51  C   UNL A   1      42.354  27.386  27.234  1.00  0.00     0.049 A 
ATOM     52  H   UNL A   1      42.716  27.870  29.247  1.00  0.00     0.167 HD
ATOM     53  C   UNL A   1      42.588  28.221  33.697  1.00  0.00     0.034 A 
ATOM     54  C   UNL A   1      43.222  26.363  26.950  1.00  0.00     0.034 A 
ATOM     55  C   UNL A   1      43.753  28.939  33.254  1.00  0.00     0.049 A 
ATOM     56  C   UNL A   1      44.215  26.288  28.046  1.00  0.00     0.074 A 
ATOM     57  C   UNL A   1      44.092  30.274  33.169  1.00  0.00     0.029 A 
ATOM     58  N   UNL A   1      44.612  28.269  32.417  1.00  0.00    -0.354 N 
ATOM     59  N   UNL A   1      45.137  27.187  28.230  1.00  0.00    -0.248 NA
ATOM     60  C   UNL A   1      43.832  25.505  29.212  1.00  0.00     0.031 C 
ATOM     61  C   UNL A   1      44.794  30.395  31.939  1.00  0.00     0.029 A 
ATOM     62  C   UNL A   1      44.959  29.120  31.400  1.00  0.00     0.049 A 
ATOM     63  H   UNL A   1      44.923  27.343  32.527  1.00  0.00     0.167 HD
ATOM     64  C   UNL A   1      45.063  27.441  29.587  1.00  0.00     0.074 A 
ATOM     65  C   UNL A   1      44.264  26.349  30.150  1.00  0.00     0.031 C 
ATOM     66  C   UNL A   1      45.370  28.666  30.093  1.00  0.00     0.034 A 
BRANCH  53  67
ATOM     67  C   UNL A   1      42.668  26.967  34.536  1.00  0.00     0.023 A 
ATOM     68  C   UNL A   1      43.431  25.837  34.179  1.00  0.00     0.031 A 
ATOM     69  C   UNL A   1      42.153  26.969  35.848  1.00  0.00     0.131 A 
ATOM     70  C   UNL A   1      43.649  24.784  35.076  1.00  0.00     0.055 A 
ATOM     71  C   UNL A   1      42.432  25.952  36.767  1.00  0.00     0.041 A 
ATOM     72  F   UNL A   1      41.412  27.994  36.298  1.00  0.00    -0.206 F 
ATOM     73  C   UNL A   1      43.185  24.851  36.383  1.00  0.00     0.022 A 
BRANCH  70  74
ATOM     74  S   UNL A   1      44.555  23.302  34.551  1.00  0.00     0.124 S 
ATOM     75  O   UNL A   1      45.740  23.875  33.925  1.00  0.00    -0.237 OA
ATOM     76  O   UNL A   1      44.777  22.630  35.830  1.00  0.00    -0.237 OA
ATOM     77  O   UNL A   1      43.622  22.628  33.653  1.00  0.00    -0.744 OA
ENDBRANCH  70  74
ENDBRANCH  53  67
BRANCH  54  78
ATOM     78  C   UNL A   1      42.936  25.119  26.166  1.00  0.00     0.023 A 
ATOM     79  C   UNL A   1      41.865  24.310  26.569  1.00  0.00     0.031 A 
ATOM     80  C   UNL A   1      43.907  24.519  25.329  1.00  0.00     0.131 A 
ATOM     81  C   UNL A   1      41.839  22.945  26.250  1.00  0.00     0.055 A 
ATOM     82  C   UNL A   1      43.853  23.161  24.970  1.00  0.00     0.041 A 
ATOM     83  F   UNL A   1      44.984  25.211  24.924  1.00  0.00    -0.206 F 
ATOM     84  C   UNL A   1      42.826  22.358  25.457  1.00  0.00     0.022 A 
BRANCH  81  85
ATOM     85  S   UNL A   1      40.588  21.884  27.021  1.00  0.00     0.124 S 
ATOM     86  O   UNL A   1      41.121  21.704  28.369  1.00  0.00    -0.237 OA
ATOM     87  O   UNL A   1      39.395  22.715  26.918  1.00  0.00    -0.237 OA
ATOM     88  O   UNL A   1      40.602  20.685  26.187  1.00  0.00    -0.744 OA
ENDBRANCH  81  85
ENDBRANCH  54  78
BRANCH  66  89
ATOM     89  C   UNL A   1      46.024  29.697  29.207  1.00  0.00     0.023 A 
ATOM     90  C   UNL A   1      45.140  30.558  28.541  1.00  0.00     0.031 A 
ATOM     91  C   UNL A   1      47.376  29.713  28.814  1.00  0.00     0.131 A 
ATOM     92  C   UNL A   1      45.579  31.342  27.475  1.00  0.00     0.055 A 
ATOM     93  C   UNL A   1      47.830  30.565  27.798  1.00  0.00     0.041 A 
ATOM     94  F   UNL A   1      48.269  28.854  29.326  1.00  0.00    -0.206 F 
ATOM     95  C   UNL A   1      46.925  31.367  27.107  1.00  0.00     0.022 A 
BRANCH  92  96
ATOM     96  S   UNL A   1      44.361  32.189  26.439  1.00  0.00     0.124 S 
ATOM     97  O   UNL A   1      43.463  31.099  26.071  1.00  0.00    -0.237 OA
ATOM     98  O   UNL A   1      43.805  33.180  27.358  1.00  0.00    -0.237 OA
ATOM     99  O   UNL A   1      45.152  32.744  25.344  1.00  0.00    -0.744 OA
ENDBRANCH  92  96
ENDBRANCH  66  89
ENDBRANCH  40  41
ENDBRANCH  33  35
ENDBRANCH  32  33
ENDBRANCH  31  32
ENDBRANCH  30  31
ENDBRANCH  29  30
ENDBRANCH   1  29
TORSDOF 22
ENDMDL
