MODEL 1
REMARK VINA RESULT:     -13.8      0.000      0.000
REMARK SMILES O=C(CNC(=O)[C@@H](CC1=c2ccccc2=NC1)N1C(=O)N=C2C=CC=C[C@H]2C1=O)OCCOCCOC(=O)c1ccc(-c2c3nc(c(-c4cc(S(=O)(=O)[O-])ccc4F)c4ccc([nH]4)c(-c4cc(S(=O)(=O)[O-])ccc4F)c4nc(c(-c5cc(S(=O)(=O)[O-])ccc5F)c5ccc2[nH]5)C=C4)C=C3)cc1
REMARK SMILES IDX 32 1 31 2 30 3 2 4 1 5 3 6 4 7 5 8 6 10 7 11 8 12 9 13 10 14
REMARK SMILES IDX 17 15 11 16 15 17 16 18 12 19 14 20 13 21 18 22 19 23 28 24
REMARK SMILES IDX 21 25 20 26 27 27 29 28 22 29 26 30 23 31 25 32 24 33 33 34
REMARK SMILES IDX 34 35 35 36 36 37 37 38 38 39 39 40 40 41 101 42 41 43
REMARK SMILES IDX 100 44 42 45 43 46 44 47 94 48 45 49 99 50 93 51 95 52 46 53
REMARK SMILES IDX 98 54 92 55 91 56 47 58 79 59 59 60 78 61 60 62 63 63 77 64
REMARK SMILES IDX 96 65 61 66 62 67 76 69 97 70 64 71 48 72 49 73 57 74 50 75
REMARK SMILES IDX 56 76 58 77 55 78 51 79 52 80 53 81 54 82 80 83 81 84 89 85
REMARK SMILES IDX 82 86 88 87 90 88 87 89 83 90 84 91 85 92 86 93 65 94 66 95
REMARK SMILES IDX 74 96 67 97 73 98 75 99 72 100 68 101 69 102 70 103 71 104
REMARK H PARENT 4 9 95 57 63 68
REMARK Flexibility Score: inf
ROOT
ATOM      1  C   UNL A   1      49.172  21.509  38.324  1.00  0.00     0.202 C 
ENDROOT
BRANCH   1   2
ATOM      2  C   UNL A   1      48.738  19.751  39.219  1.00  0.00     0.261 C 
BRANCH   2   3
ATOM      3  O   UNL A   1      47.284  18.583  38.752  1.00  0.00    -0.462 OA
BRANCH   3   4
ATOM      4  C   UNL A   1      45.761  17.701  39.564  1.00  0.00     0.325 C 
ATOM      5  O   UNL A   1      44.711  17.275  39.010  1.00  0.00    -0.250 OA
BRANCH   4   6
ATOM      6  C   UNL A   1      45.492  17.645  41.338  1.00  0.00     0.238 C 
BRANCH   6   7
ATOM      7  N   UNL A   1      46.125  16.850  42.430  1.00  0.00    -0.343 N 
ATOM      8  C   UNL A   1      45.913  16.653  43.766  1.00  0.00     0.244 C 
ATOM      9  H   UNL A   1      46.895  16.333  42.103  1.00  0.00     0.164 HD
ATOM     10  O   UNL A   1      46.858  16.159  44.393  1.00  0.00    -0.273 OA
BRANCH   8  11
ATOM     11  C   UNL A   1      44.650  17.130  44.542  1.00  0.00     0.188 C 
BRANCH  11  12
ATOM     12  C   UNL A   1      43.883  15.837  44.948  1.00  0.00     0.069 C 
BRANCH  12  13
ATOM     13  C   UNL A   1      43.356  14.621  43.762  1.00  0.00    -0.037 C 
ATOM     14  C   UNL A   1      42.721  13.784  44.618  1.00  0.00     0.001 A 
ATOM     15  C   UNL A   1      42.822  14.948  41.670  1.00  0.00     0.174 C 
ATOM     16  C   UNL A   1      43.855  12.658  45.757  1.00  0.00     0.010 A 
ATOM     17  C   UNL A   1      41.478  12.893  43.328  1.00  0.00     0.065 A 
ATOM     18  N   UNL A   1      41.190  13.679  41.941  1.00  0.00    -0.280 NA
ATOM     19  C   UNL A   1      43.880  11.094  45.535  1.00  0.00     0.001 A 
ATOM     20  C   UNL A   1      41.841  10.983  43.307  1.00  0.00     0.028 A 
ATOM     21  C   UNL A   1      42.862  10.281  44.217  1.00  0.00     0.002 A 
ENDBRANCH  12  13
ENDBRANCH  11  12
BRANCH  11  22
ATOM     22  N   UNL A   1      45.029  18.157  45.515  1.00  0.00    -0.249 N 
ATOM     23  C   UNL A   1      44.839  19.402  45.011  1.00  0.00     0.351 C 
ATOM     24  C   UNL A   1      44.720  18.217  46.861  1.00  0.00     0.244 C 
ATOM     25  N   UNL A   1      45.843  20.256  45.296  1.00  0.00    -0.197 NA
ATOM     26  O   UNL A   1      43.856  19.748  44.372  1.00  0.00    -0.246 OA
ATOM     27  C   UNL A   1      45.383  19.453  47.604  1.00  0.00     0.151 C 
ATOM     28  O   UNL A   1      43.980  17.428  47.444  1.00  0.00    -0.273 OA
ATOM     29  C   UNL A   1      45.958  20.427  46.571  1.00  0.00     0.062 C 
ATOM     30  C   UNL A   1      44.541  20.283  48.554  1.00  0.00    -0.007 C 
ATOM     31  C   UNL A   1      46.364  21.795  46.901  1.00  0.00     0.025 C 
ATOM     32  C   UNL A   1      44.601  21.629  48.586  1.00  0.00    -0.003 C 
ATOM     33  C   UNL A   1      45.491  22.382  47.728  1.00  0.00     0.002 C 
ENDBRANCH  11  22
ENDBRANCH   8  11
ENDBRANCH   6   7
ENDBRANCH   4   6
ENDBRANCH   3   4
ENDBRANCH   2   3
ENDBRANCH   1   2
BRANCH   1  34
ATOM     34  O   UNL A   1      47.755  22.629  37.667  1.00  0.00    -0.374 OA
BRANCH  34  35
ATOM     35  C   UNL A   1      47.765  22.502  35.696  1.00  0.00     0.202 C 
BRANCH  35  36
ATOM     36  C   UNL A   1      47.731  24.757  35.468  1.00  0.00     0.261 C 
BRANCH  36  37
ATOM     37  O   UNL A   1      47.269  25.925  36.457  1.00  0.00    -0.460 OA
BRANCH  37  38
ATOM     38  C   UNL A   1      46.245  26.146  37.311  1.00  0.00     0.338 C 
ATOM     39  O   UNL A   1      46.046  25.694  38.417  1.00  0.00    -0.246 OA
BRANCH  38  40
ATOM     40  C   UNL A   1      45.318  26.950  36.491  1.00  0.00     0.060 A 
ATOM     41  C   UNL A   1      44.061  26.385  36.320  1.00  0.00     0.016 A 
ATOM     42  C   UNL A   1      45.757  28.019  35.684  1.00  0.00     0.016 A 
ATOM     43  C   UNL A   1      43.265  26.827  35.278  1.00  0.00     0.010 A 
ATOM     44  C   UNL A   1      44.963  28.451  34.625  1.00  0.00     0.010 A 
ATOM     45  C   UNL A   1      43.716  27.851  34.424  1.00  0.00    -0.014 A 
BRANCH  45  46
ATOM     46  C   UNL A   1      42.731  28.467  33.521  1.00  0.00     0.031 A 
ATOM     47  C   UNL A   1      42.595  28.076  32.093  1.00  0.00     0.074 A 
ATOM     48  C   UNL A   1      41.915  29.360  34.104  1.00  0.00     0.049 A 
ATOM     49  N   UNL A   1      41.645  28.398  31.259  1.00  0.00    -0.248 NA
ATOM     50  C   UNL A   1      43.648  27.226  31.519  1.00  0.00     0.031 C 
ATOM     51  C   UNL A   1      42.036  29.785  35.502  1.00  0.00     0.029 A 
ATOM     52  N   UNL A   1      40.827  30.037  33.636  1.00  0.00    -0.354 N 
ATOM     53  C   UNL A   1      41.974  27.791  30.056  1.00  0.00     0.074 A 
ATOM     54  C   UNL A   1      43.234  27.107  30.262  1.00  0.00     0.031 C 
ATOM     55  C   UNL A   1      41.030  30.612  35.793  1.00  0.00     0.029 A 
ATOM     56  C   UNL A   1      40.227  30.817  34.594  1.00  0.00     0.049 A 
ATOM     57  H   UNL A   1      40.506  29.974  32.708  1.00  0.00     0.167 HD
ATOM     58  C   UNL A   1      41.265  27.818  28.903  1.00  0.00     0.034 A 
ATOM     59  C   UNL A   1      39.144  31.610  34.519  1.00  0.00     0.034 A 
ATOM     60  C   UNL A   1      40.020  28.537  28.765  1.00  0.00     0.049 A 
ATOM     61  C   UNL A   1      38.379  31.622  33.231  1.00  0.00     0.074 A 
ATOM     62  C   UNL A   1      39.177  28.581  27.670  1.00  0.00     0.029 A 
ATOM     63  N   UNL A   1      39.449  29.354  29.738  1.00  0.00    -0.354 N 
ATOM     64  N   UNL A   1      38.628  30.949  32.130  1.00  0.00    -0.248 NA
ATOM     65  C   UNL A   1      37.188  32.471  33.165  1.00  0.00     0.031 C 
ATOM     66  C   UNL A   1      38.168  29.505  27.938  1.00  0.00     0.029 A 
ATOM     67  C   UNL A   1      38.302  29.952  29.245  1.00  0.00     0.049 A 
ATOM     68  H   UNL A   1      39.810  29.487  30.645  1.00  0.00     0.167 HD
ATOM     69  C   UNL A   1      37.616  31.282  31.241  1.00  0.00     0.074 A 
ATOM     70  C   UNL A   1      36.740  32.201  31.944  1.00  0.00     0.031 C 
ATOM     71  C   UNL A   1      37.435  30.865  29.962  1.00  0.00     0.034 A 
BRANCH  58  72
ATOM     72  C   UNL A   1      41.794  27.084  27.691  1.00  0.00     0.023 A 
ATOM     73  C   UNL A   1      41.589  25.695  27.576  1.00  0.00     0.031 A 
ATOM     74  C   UNL A   1      42.613  27.709  26.735  1.00  0.00     0.131 A 
ATOM     75  C   UNL A   1      42.225  24.973  26.560  1.00  0.00     0.055 A 
ATOM     76  C   UNL A   1      43.203  26.993  25.690  1.00  0.00     0.041 A 
ATOM     77  F   UNL A   1      42.855  29.029  26.800  1.00  0.00    -0.206 F 
ATOM     78  C   UNL A   1      43.023  25.616  25.608  1.00  0.00     0.022 A 
BRANCH  75  79
ATOM     79  S   UNL A   1      42.117  23.163  26.487  1.00  0.00     0.124 S 
ATOM     80  O   UNL A   1      42.846  22.773  27.692  1.00  0.00    -0.237 OA
ATOM     81  O   UNL A   1      40.674  22.943  26.533  1.00  0.00    -0.237 OA
ATOM     82  O   UNL A   1      42.769  22.823  25.229  1.00  0.00    -0.744 OA
ENDBRANCH  75  79
ENDBRANCH  58  72
BRANCH  59  83
ATOM     83  C   UNL A   1      38.744  32.360  35.739  1.00  0.00     0.023 A 
ATOM     84  C   UNL A   1      39.209  33.675  35.937  1.00  0.00     0.031 A 
ATOM     85  C   UNL A   1      38.107  31.713  36.808  1.00  0.00     0.131 A 
ATOM     86  C   UNL A   1      39.134  34.255  37.208  1.00  0.00     0.055 A 
ATOM     87  C   UNL A   1      37.956  32.331  38.052  1.00  0.00     0.041 A 
ATOM     88  F   UNL A   1      37.672  30.451  36.672  1.00  0.00    -0.206 F 
ATOM     89  C   UNL A   1      38.496  33.598  38.263  1.00  0.00     0.022 A 
BRANCH  86  90
ATOM     90  S   UNL A   1      40.034  35.788  37.576  1.00  0.00     0.124 S 
ATOM     91  O   UNL A   1      39.513  36.140  38.893  1.00  0.00    -0.237 OA
ATOM     92  O   UNL A   1      41.422  35.332  37.545  1.00  0.00    -0.237 OA
ATOM     93  O   UNL A   1      39.653  36.682  36.488  1.00  0.00    -0.744 OA
ENDBRANCH  86  90
ENDBRANCH  59  83
BRANCH  71  94
ATOM     94  C   UNL A   1      36.244  31.388  29.198  1.00  0.00     0.023 A 
ATOM     95  C   UNL A   1      35.265  30.484  28.744  1.00  0.00     0.031 A 
ATOM     96  C   UNL A   1      36.191  32.715  28.742  1.00  0.00     0.131 A 
ATOM     97  C   UNL A   1      34.328  30.897  27.792  1.00  0.00     0.055 A 
ATOM     98  C   UNL A   1      35.209  33.140  27.846  1.00  0.00     0.041 A 
ATOM     99  F   UNL A   1      37.106  33.611  29.143  1.00  0.00    -0.206 F 
ATOM    100  C   UNL A   1      34.288  32.222  27.348  1.00  0.00     0.022 A 
BRANCH  97 101
ATOM    101  S   UNL A   1      33.221  29.699  26.998  1.00  0.00     0.124 S 
ATOM    102  O   UNL A   1      33.651  28.441  27.606  1.00  0.00    -0.237 OA
ATOM    103  O   UNL A   1      31.906  30.175  27.415  1.00  0.00    -0.237 OA
ATOM    104  O   UNL A   1      33.517  29.833  25.576  1.00  0.00    -0.744 OA
ENDBRANCH  97 101
ENDBRANCH  71  94
ENDBRANCH  45  46
ENDBRANCH  38  40
ENDBRANCH  37  38
ENDBRANCH  36  37
ENDBRANCH  35  36
ENDBRANCH  34  35
ENDBRANCH   1  34
TORSDOF 22
ENDMDL
MODEL 2
REMARK VINA RESULT:     -13.8     11.166     18.362
REMARK SMILES O=C(CNC(=O)[C@@H](CC1=c2ccccc2=NC1)N1C(=O)N=C2C=CC=C[C@H]2C1=O)OCCOCCOC(=O)c1ccc(-c2c3nc(c(-c4cc(S(=O)(=O)[O-])ccc4F)c4ccc([nH]4)c(-c4cc(S(=O)(=O)[O-])ccc4F)c4nc(c(-c5cc(S(=O)(=O)[O-])ccc5F)c5ccc2[nH]5)C=C4)C=C3)cc1
REMARK SMILES IDX 32 1 31 2 30 3 2 4 1 5 3 6 4 7 5 8 6 10 7 11 8 12 9 13 10 14
REMARK SMILES IDX 17 15 11 16 15 17 16 18 12 19 14 20 13 21 18 22 19 23 28 24
REMARK SMILES IDX 21 25 20 26 27 27 29 28 22 29 26 30 23 31 25 32 24 33 33 34
REMARK SMILES IDX 34 35 35 36 36 37 37 38 38 39 39 40 40 41 101 42 41 43
REMARK SMILES IDX 100 44 42 45 43 46 44 47 94 48 45 49 99 50 93 51 95 52 46 53
REMARK SMILES IDX 98 54 92 55 91 56 47 58 79 59 59 60 78 61 60 62 63 63 77 64
REMARK SMILES IDX 96 65 61 66 62 67 76 69 97 70 64 71 48 72 49 73 57 74 50 75
REMARK SMILES IDX 56 76 58 77 55 78 51 79 52 80 53 81 54 82 80 83 81 84 89 85
REMARK SMILES IDX 82 86 88 87 90 88 87 89 83 90 84 91 85 92 86 93 65 94 66 95
REMARK SMILES IDX 74 96 67 97 73 98 75 99 72 100 68 101 69 102 70 103 71 104
REMARK H PARENT 4 9 95 57 63 68
REMARK Flexibility Score: inf
ROOT
ATOM      1  C   UNL A   1      34.632  29.173  27.414  1.00  0.00     0.202 C 
ENDROOT
BRANCH   1   2
ATOM      2  C   UNL A   1      33.854  29.256  25.551  1.00  0.00     0.261 C 
BRANCH   2   3
ATOM      3  O   UNL A   1      33.918  27.846  24.245  1.00  0.00    -0.462 OA
BRANCH   3   4
ATOM      4  C   UNL A   1      33.785  27.583  22.330  1.00  0.00     0.325 C 
ATOM      5  O   UNL A   1      34.450  28.137  21.411  1.00  0.00    -0.250 OA
BRANCH   4   6
ATOM      6  C   UNL A   1      32.427  26.703  21.553  1.00  0.00     0.238 C 
BRANCH   6   7
ATOM      7  N   UNL A   1      31.569  25.570  22.003  1.00  0.00    -0.343 N 
ATOM      8  C   UNL A   1      30.881  25.233  23.136  1.00  0.00     0.244 C 
ATOM      9  H   UNL A   1      31.472  24.886  21.301  1.00  0.00     0.164 HD
ATOM     10  O   UNL A   1      30.546  24.046  23.228  1.00  0.00    -0.273 OA
BRANCH   8  11
ATOM     11  C   UNL A   1      30.632  26.191  24.338  1.00  0.00     0.188 C 
BRANCH  11  12
ATOM     12  C   UNL A   1      31.764  25.894  25.365  1.00  0.00     0.069 C 
BRANCH  12  13
ATOM     13  C   UNL A   1      32.181  24.244  25.883  1.00  0.00    -0.037 C 
ATOM     14  C   UNL A   1      33.530  24.380  25.883  1.00  0.00     0.001 A 
ATOM     15  C   UNL A   1      31.034  22.934  27.202  1.00  0.00     0.174 C 
ATOM     16  C   UNL A   1      34.415  24.405  24.132  1.00  0.00     0.010 A 
ATOM     17  C   UNL A   1      33.997  22.922  27.170  1.00  0.00     0.065 A 
ATOM     18  N   UNL A   1      32.814  22.423  28.159  1.00  0.00    -0.280 NA
ATOM     19  C   UNL A   1      35.354  23.206  23.713  1.00  0.00     0.001 A 
ATOM     20  C   UNL A   1      35.130  21.619  26.275  1.00  0.00     0.028 A 
ATOM     21  C   UNL A   1      35.648  21.761  24.834  1.00  0.00     0.002 A 
ENDBRANCH  12  13
ENDBRANCH  11  12
BRANCH  11  22
ATOM     22  N   UNL A   1      30.356  27.540  23.842  1.00  0.00    -0.249 N 
ATOM     23  C   UNL A   1      29.121  27.614  23.285  1.00  0.00     0.351 C 
ATOM     24  C   UNL A   1      30.584  28.749  24.474  1.00  0.00     0.244 C 
ATOM     25  N   UNL A   1      29.090  28.322  22.137  1.00  0.00    -0.197 NA
ATOM     26  O   UNL A   1      28.115  27.111  23.762  1.00  0.00    -0.246 OA
ATOM     27  C   UNL A   1      30.223  30.007  23.575  1.00  0.00     0.151 C 
ATOM     28  O   UNL A   1      30.990  28.869  25.627  1.00  0.00    -0.273 OA
ATOM     29  C   UNL A   1      29.436  29.550  22.342  1.00  0.00     0.062 C 
ATOM     30  C   UNL A   1      29.436  31.150  24.187  1.00  0.00    -0.007 C 
ATOM     31  C   UNL A   1      28.699  30.474  21.477  1.00  0.00     0.025 C 
ATOM     32  C   UNL A   1      28.432  31.768  23.533  1.00  0.00    -0.003 C 
ATOM     33  C   UNL A   1      28.045  31.399  22.188  1.00  0.00     0.002 C 
ENDBRANCH  11  22
ENDBRANCH   8  11
ENDBRANCH   6   7
ENDBRANCH   4   6
ENDBRANCH   3   4
ENDBRANCH   2   3
ENDBRANCH   1   2
BRANCH   1  34
ATOM     34  O   UNL A   1      36.501  28.806  27.661  1.00  0.00    -0.374 OA
BRANCH  34  35
ATOM     35  C   UNL A   1      37.371  30.498  28.192  1.00  0.00     0.202 C 
BRANCH  35  36
ATOM     36  C   UNL A   1      36.622  30.311  30.323  1.00  0.00     0.261 C 
BRANCH  36  37
ATOM     37  O   UNL A   1      37.361  30.457  31.733  1.00  0.00    -0.460 OA
BRANCH  37  38
ATOM     38  C   UNL A   1      37.563  29.686  32.825  1.00  0.00     0.338 C 
ATOM     39  O   UNL A   1      37.268  28.528  33.022  1.00  0.00    -0.246 OA
BRANCH  38  40
ATOM     40  C   UNL A   1      38.083  30.658  33.806  1.00  0.00     0.060 A 
ATOM     41  C   UNL A   1      39.048  30.149  34.666  1.00  0.00     0.016 A 
ATOM     42  C   UNL A   1      37.436  31.882  34.073  1.00  0.00     0.016 A 
ATOM     43  C   UNL A   1      39.311  30.819  35.848  1.00  0.00     0.010 A 
ATOM     44  C   UNL A   1      37.689  32.545  35.271  1.00  0.00     0.010 A 
ATOM     45  C   UNL A   1      38.628  32.009  36.158  1.00  0.00    -0.014 A 
BRANCH  45  46
ATOM     46  C   UNL A   1      39.140  32.817  37.275  1.00  0.00     0.031 A 
ATOM     47  C   UNL A   1      40.282  33.757  37.130  1.00  0.00     0.074 A 
ATOM     48  C   UNL A   1      38.451  32.693  38.421  1.00  0.00     0.049 A 
ATOM     49  N   UNL A   1      40.694  34.660  37.977  1.00  0.00    -0.248 NA
ATOM     50  C   UNL A   1      41.070  33.681  35.891  1.00  0.00     0.031 C 
ATOM     51  C   UNL A   1      37.335  31.760  38.606  1.00  0.00     0.029 A 
ATOM     52  N   UNL A   1      38.544  33.350  39.614  1.00  0.00    -0.354 N 
ATOM     53  C   UNL A   1      41.787  35.270  37.383  1.00  0.00     0.074 A 
ATOM     54  C   UNL A   1      41.997  34.608  36.111  1.00  0.00     0.031 C 
ATOM     55  C   UNL A   1      36.815  31.940  39.821  1.00  0.00     0.029 A 
ATOM     56  C   UNL A   1      37.589  32.959  40.519  1.00  0.00     0.049 A 
ATOM     57  H   UNL A   1      39.227  34.033  39.805  1.00  0.00     0.167 HD
ATOM     58  C   UNL A   1      42.527  36.291  37.876  1.00  0.00     0.034 A 
ATOM     59  C   UNL A   1      37.357  33.377  41.776  1.00  0.00     0.034 A 
ATOM     60  C   UNL A   1      42.269  36.894  39.164  1.00  0.00     0.049 A 
ATOM     61  C   UNL A   1      38.190  34.508  42.297  1.00  0.00     0.074 A 
ATOM     62  C   UNL A   1      42.904  37.978  39.740  1.00  0.00     0.029 A 
ATOM     63  N   UNL A   1      41.319  36.455  40.083  1.00  0.00    -0.354 N 
ATOM     64  N   UNL A   1      39.148  35.165  41.683  1.00  0.00    -0.248 NA
ATOM     65  C   UNL A   1      37.916  34.971  43.659  1.00  0.00     0.031 C 
ATOM     66  C   UNL A   1      42.421  38.121  41.041  1.00  0.00     0.029 A 
ATOM     67  C   UNL A   1      41.397  37.208  41.243  1.00  0.00     0.049 A 
ATOM     68  H   UNL A   1      40.686  35.717  39.930  1.00  0.00     0.167 HD
ATOM     69  C   UNL A   1      39.584  36.131  42.577  1.00  0.00     0.074 A 
ATOM     70  C   UNL A   1      38.768  35.985  43.768  1.00  0.00     0.031 C 
ATOM     71  C   UNL A   1      40.570  37.051  42.423  1.00  0.00     0.034 A 
BRANCH  58  72
ATOM     72  C   UNL A   1      43.687  36.825  37.067  1.00  0.00     0.023 A 
ATOM     73  C   UNL A   1      43.436  37.638  35.944  1.00  0.00     0.031 A 
ATOM     74  C   UNL A   1      45.013  36.423  37.304  1.00  0.00     0.131 A 
ATOM     75  C   UNL A   1      44.481  37.987  35.082  1.00  0.00     0.055 A 
ATOM     76  C   UNL A   1      46.062  36.819  36.471  1.00  0.00     0.041 A 
ATOM     77  F   UNL A   1      45.313  35.638  38.352  1.00  0.00    -0.206 F 
ATOM     78  C   UNL A   1      45.796  37.592  35.344  1.00  0.00     0.022 A 
BRANCH  75  79
ATOM     79  S   UNL A   1      44.162  38.888  33.540  1.00  0.00     0.124 S 
ATOM     80  O   UNL A   1      44.214  37.814  32.551  1.00  0.00    -0.237 OA
ATOM     81  O   UNL A   1      42.835  39.448  33.783  1.00  0.00    -0.237 OA
ATOM     82  O   UNL A   1      45.251  39.855  33.466  1.00  0.00    -0.744 OA
ENDBRANCH  75  79
ENDBRANCH  58  72
BRANCH  59  83
ATOM     83  C   UNL A   1      36.245  32.738  42.528  1.00  0.00     0.023 A 
ATOM     84  C   UNL A   1      34.926  33.202  42.357  1.00  0.00     0.031 A 
ATOM     85  C   UNL A   1      36.503  31.840  43.574  1.00  0.00     0.131 A 
ATOM     86  C   UNL A   1      33.942  32.858  43.290  1.00  0.00     0.055 A 
ATOM     87  C   UNL A   1      35.496  31.430  44.451  1.00  0.00     0.041 A 
ATOM     88  F   UNL A   1      37.749  31.392  43.790  1.00  0.00    -0.206 F 
ATOM     89  C   UNL A   1      34.213  31.962  44.326  1.00  0.00     0.022 A 
BRANCH  86  90
ATOM     90  S   UNL A   1      32.341  33.715  43.298  1.00  0.00     0.124 S 
ATOM     91  O   UNL A   1      31.747  33.265  42.043  1.00  0.00    -0.237 OA
ATOM     92  O   UNL A   1      31.727  33.185  44.514  1.00  0.00    -0.237 OA
ATOM     93  O   UNL A   1      32.704  35.127  43.355  1.00  0.00    -0.744 OA
ENDBRANCH  86  90
ENDBRANCH  59  83
BRANCH  71  94
ATOM     94  C   UNL A   1      40.856  37.996  43.564  1.00  0.00     0.023 A 
ATOM     95  C   UNL A   1      40.200  39.240  43.610  1.00  0.00     0.031 A 
ATOM     96  C   UNL A   1      41.912  37.763  44.460  1.00  0.00     0.131 A 
ATOM     97  C   UNL A   1      40.664  40.238  44.473  1.00  0.00     0.055 A 
ATOM     98  C   UNL A   1      42.325  38.738  45.369  1.00  0.00     0.041 A 
ATOM     99  F   UNL A   1      42.571  36.594  44.449  1.00  0.00    -0.206 F 
ATOM    100  C   UNL A   1      41.717  39.990  45.360  1.00  0.00     0.022 A 
BRANCH  97 101
ATOM    101  S   UNL A   1      40.010  41.927  44.377  1.00  0.00     0.124 S 
ATOM    102  O   UNL A   1      41.071  42.699  45.021  1.00  0.00    -0.237 OA
ATOM    103  O   UNL A   1      39.882  42.123  42.937  1.00  0.00    -0.237 OA
ATOM    104  O   UNL A   1      38.754  41.861  45.117  1.00  0.00    -0.744 OA
ENDBRANCH  97 101
ENDBRANCH  71  94
ENDBRANCH  45  46
ENDBRANCH  38  40
ENDBRANCH  37  38
ENDBRANCH  36  37
ENDBRANCH  35  36
ENDBRANCH  34  35
ENDBRANCH   1  34
TORSDOF 22
ENDMDL
MODEL 3
REMARK VINA RESULT:     -13.5      8.215     17.316
REMARK SMILES O=C(CNC(=O)[C@@H](CC1=c2ccccc2=NC1)N1C(=O)N=C2C=CC=C[C@H]2C1=O)OCCOCCOC(=O)c1ccc(-c2c3nc(c(-c4cc(S(=O)(=O)[O-])ccc4F)c4ccc([nH]4)c(-c4cc(S(=O)(=O)[O-])ccc4F)c4nc(c(-c5cc(S(=O)(=O)[O-])ccc5F)c5ccc2[nH]5)C=C4)C=C3)cc1
REMARK SMILES IDX 32 1 31 2 30 3 2 4 1 5 3 6 4 7 5 8 6 10 7 11 8 12 9 13 10 14
REMARK SMILES IDX 17 15 11 16 15 17 16 18 12 19 14 20 13 21 18 22 19 23 28 24
REMARK SMILES IDX 21 25 20 26 27 27 29 28 22 29 26 30 23 31 25 32 24 33 33 34
REMARK SMILES IDX 34 35 35 36 36 37 37 38 38 39 39 40 40 41 101 42 41 43
REMARK SMILES IDX 100 44 42 45 43 46 44 47 94 48 45 49 99 50 93 51 95 52 46 53
REMARK SMILES IDX 98 54 92 55 91 56 47 58 79 59 59 60 78 61 60 62 63 63 77 64
REMARK SMILES IDX 96 65 61 66 62 67 76 69 97 70 64 71 48 72 49 73 57 74 50 75
REMARK SMILES IDX 56 76 58 77 55 78 51 79 52 80 53 81 54 82 80 83 81 84 89 85
REMARK SMILES IDX 82 86 88 87 90 88 87 89 83 90 84 91 85 92 86 93 65 94 66 95
REMARK SMILES IDX 74 96 67 97 73 98 75 99 72 100 68 101 69 102 70 103 71 104
REMARK H PARENT 4 9 95 57 63 68
REMARK Flexibility Score: inf
ROOT
ATOM      1  C   UNL A   1      34.272  34.381  29.451  1.00  0.00     0.202 C 
ENDROOT
BRANCH   1   2
ATOM      2  C   UNL A   1      34.499  32.399  29.133  1.00  0.00     0.261 C 
BRANCH   2   3
ATOM      3  O   UNL A   1      33.606  31.371  27.776  1.00  0.00    -0.462 OA
BRANCH   3   4
ATOM      4  C   UNL A   1      33.679  29.624  26.940  1.00  0.00     0.325 C 
ATOM      5  O   UNL A   1      34.181  28.557  27.391  1.00  0.00    -0.250 OA
BRANCH   4   6
ATOM      6  C   UNL A   1      33.299  29.348  25.208  1.00  0.00     0.238 C 
BRANCH   6   7
ATOM      7  N   UNL A   1      33.971  28.552  24.141  1.00  0.00    -0.343 N 
ATOM      8  C   UNL A   1      33.738  27.377  23.481  1.00  0.00     0.244 C 
ATOM      9  H   UNL A   1      34.797  28.987  23.830  1.00  0.00     0.164 HD
ATOM     10  O   UNL A   1      34.706  26.898  22.880  1.00  0.00    -0.273 OA
BRANCH   8  11
ATOM     11  C   UNL A   1      32.411  26.565  23.561  1.00  0.00     0.188 C 
BRANCH  11  12
ATOM     12  C   UNL A   1      32.615  25.524  24.701  1.00  0.00     0.069 C 
BRANCH  12  13
ATOM     13  C   UNL A   1      32.965  23.809  24.384  1.00  0.00    -0.037 C 
ATOM     14  C   UNL A   1      33.806  23.591  25.425  1.00  0.00     0.001 A 
ATOM     15  C   UNL A   1      31.638  22.324  23.488  1.00  0.00     0.174 C 
ATOM     16  C   UNL A   1      35.617  24.328  25.266  1.00  0.00     0.010 A 
ATOM     17  C   UNL A   1      33.592  21.610  25.598  1.00  0.00     0.065 A 
ATOM     18  N   UNL A   1      32.256  20.967  24.945  1.00  0.00    -0.280 NA
ATOM     19  C   UNL A   1      36.850  23.352  25.126  1.00  0.00     0.001 A 
ATOM     20  C   UNL A   1      35.317  20.756  25.324  1.00  0.00     0.028 A 
ATOM     21  C   UNL A   1      36.638  21.511  25.105  1.00  0.00     0.002 A 
ENDBRANCH  12  13
ENDBRANCH  11  12
BRANCH  11  22
ATOM     22  N   UNL A   1      31.271  27.483  23.530  1.00  0.00    -0.249 N 
ATOM     23  C   UNL A   1      31.064  27.963  22.278  1.00  0.00     0.351 C 
ATOM     24  C   UNL A   1      30.026  27.322  24.109  1.00  0.00     0.244 C 
ATOM     25  N   UNL A   1      30.780  29.281  22.248  1.00  0.00    -0.197 NA
ATOM     26  O   UNL A   1      31.108  27.287  21.261  1.00  0.00    -0.246 OA
ATOM     27  C   UNL A   1      29.076  28.580  23.919  1.00  0.00     0.151 C 
ATOM     28  O   UNL A   1      29.650  26.306  24.688  1.00  0.00    -0.273 OA
ATOM     29  C   UNL A   1      29.686  29.534  22.886  1.00  0.00     0.062 C 
ATOM     30  C   UNL A   1      27.634  28.360  23.502  1.00  0.00    -0.007 C 
ATOM     31  C   UNL A   1      28.932  30.624  22.263  1.00  0.00     0.025 C 
ATOM     32  C   UNL A   1      27.023  29.133  22.583  1.00  0.00    -0.003 C 
ATOM     33  C   UNL A   1      27.691  30.243  21.939  1.00  0.00     0.002 C 
ENDBRANCH  11  22
ENDBRANCH   8  11
ENDBRANCH   6   7
ENDBRANCH   4   6
ENDBRANCH   3   4
ENDBRANCH   2   3
ENDBRANCH   1   2
BRANCH   1  34
ATOM     34  O   UNL A   1      32.807  35.023  30.514  1.00  0.00    -0.374 OA
BRANCH  34  35
ATOM     35  C   UNL A   1      33.185  36.907  30.970  1.00  0.00     0.202 C 
BRANCH  35  36
ATOM     36  C   UNL A   1      34.115  36.326  32.955  1.00  0.00     0.261 C 
BRANCH  36  37
ATOM     37  O   UNL A   1      34.638  34.926  33.522  1.00  0.00    -0.460 OA
BRANCH  37  38
ATOM     38  C   UNL A   1      34.459  33.617  33.235  1.00  0.00     0.338 C 
ATOM     39  O   UNL A   1      33.436  32.973  33.165  1.00  0.00    -0.246 OA
BRANCH  38  40
ATOM     40  C   UNL A   1      35.843  33.109  33.197  1.00  0.00     0.060 A 
ATOM     41  C   UNL A   1      36.770  33.915  33.847  1.00  0.00     0.016 A 
ATOM     42  C   UNL A   1      36.250  32.089  32.313  1.00  0.00     0.016 A 
ATOM     43  C   UNL A   1      38.113  33.764  33.548  1.00  0.00     0.010 A 
ATOM     44  C   UNL A   1      37.600  31.950  32.000  1.00  0.00     0.010 A 
ATOM     45  C   UNL A   1      38.530  32.791  32.619  1.00  0.00    -0.014 A 
BRANCH  45  46
ATOM     46  C   UNL A   1      39.967  32.488  32.550  1.00  0.00     0.031 A 
ATOM     47  C   UNL A   1      40.592  31.377  33.315  1.00  0.00     0.074 A 
ATOM     48  C   UNL A   1      40.662  33.248  31.687  1.00  0.00     0.049 A 
ATOM     49  N   UNL A   1      41.795  30.890  33.188  1.00  0.00    -0.248 NA
ATOM     50  C   UNL A   1      39.780  30.730  34.357  1.00  0.00     0.031 C 
ATOM     51  C   UNL A   1      40.084  34.365  30.935  1.00  0.00     0.029 A 
ATOM     52  N   UNL A   1      41.960  33.192  31.269  1.00  0.00    -0.354 N 
ATOM     53  C   UNL A   1      41.896  29.873  34.126  1.00  0.00     0.074 A 
ATOM     54  C   UNL A   1      40.637  29.837  34.842  1.00  0.00     0.031 C 
ATOM     55  C   UNL A   1      41.009  34.857  30.108  1.00  0.00     0.029 A 
ATOM     56  C   UNL A   1      42.256  34.129  30.310  1.00  0.00     0.049 A 
ATOM     57  H   UNL A   1      42.616  32.547  31.619  1.00  0.00     0.167 HD
ATOM     58  C   UNL A   1      42.955  29.058  34.344  1.00  0.00     0.034 A 
ATOM     59  C   UNL A   1      43.406  34.375  29.658  1.00  0.00     0.034 A 
ATOM     60  C   UNL A   1      44.189  29.163  33.599  1.00  0.00     0.049 A 
ATOM     61  C   UNL A   1      44.562  33.459  29.918  1.00  0.00     0.074 A 
ATOM     62  C   UNL A   1      45.305  28.352  33.681  1.00  0.00     0.029 A 
ATOM     63  N   UNL A   1      44.481  30.147  32.658  1.00  0.00    -0.354 N 
ATOM     64  N   UNL A   1      44.614  32.421  30.721  1.00  0.00    -0.248 NA
ATOM     65  C   UNL A   1      45.803  33.721  29.187  1.00  0.00     0.031 C 
ATOM     66  C   UNL A   1      46.303  28.907  32.881  1.00  0.00     0.029 A 
ATOM     67  C   UNL A   1      45.780  29.997  32.200  1.00  0.00     0.049 A 
ATOM     68  H   UNL A   1      43.856  30.847  32.361  1.00  0.00     0.167 HD
ATOM     69  C   UNL A   1      45.889  31.894  30.584  1.00  0.00     0.074 A 
ATOM     70  C   UNL A   1      46.569  32.719  29.602  1.00  0.00     0.031 C 
ATOM     71  C   UNL A   1      46.443  30.827  31.215  1.00  0.00     0.034 A 
BRANCH  58  72
ATOM     72  C   UNL A   1      42.867  28.000  35.419  1.00  0.00     0.023 A 
ATOM     73  C   UNL A   1      43.682  28.104  36.564  1.00  0.00     0.031 A 
ATOM     74  C   UNL A   1      42.104  26.831  35.260  1.00  0.00     0.131 A 
ATOM     75  C   UNL A   1      43.747  27.045  37.478  1.00  0.00     0.055 A 
ATOM     76  C   UNL A   1      42.131  25.799  36.202  1.00  0.00     0.041 A 
ATOM     77  F   UNL A   1      41.317  26.669  34.183  1.00  0.00    -0.206 F 
ATOM     78  C   UNL A   1      42.967  25.897  37.310  1.00  0.00     0.022 A 
BRANCH  75  79
ATOM     79  S   UNL A   1      44.913  27.078  38.868  1.00  0.00     0.124 S 
ATOM     80  O   UNL A   1      45.158  28.510  39.017  1.00  0.00    -0.237 OA
ATOM     81  O   UNL A   1      44.129  26.466  39.937  1.00  0.00    -0.237 OA
ATOM     82  O   UNL A   1      46.049  26.299  38.391  1.00  0.00    -0.744 OA
ENDBRANCH  75  79
ENDBRANCH  58  72
BRANCH  59  83
ATOM     83  C   UNL A   1      43.423  35.491  28.675  1.00  0.00     0.023 A 
ATOM     84  C   UNL A   1      43.567  36.819  29.125  1.00  0.00     0.031 A 
ATOM     85  C   UNL A   1      43.067  35.279  27.335  1.00  0.00     0.131 A 
ATOM     86  C   UNL A   1      43.243  37.880  28.273  1.00  0.00     0.055 A 
ATOM     87  C   UNL A   1      42.829  36.345  26.464  1.00  0.00     0.041 A 
ATOM     88  F   UNL A   1      42.893  34.032  26.871  1.00  0.00    -0.206 F 
ATOM     89  C   UNL A   1      42.891  37.653  26.941  1.00  0.00     0.022 A 
BRANCH  86  90
ATOM     90  S   UNL A   1      43.079  39.567  28.925  1.00  0.00     0.124 S 
ATOM     91  O   UNL A   1      43.250  39.358  30.360  1.00  0.00    -0.237 OA
ATOM     92  O   UNL A   1      44.178  40.254  28.250  1.00  0.00    -0.237 OA
ATOM     93  O   UNL A   1      41.743  39.973  28.502  1.00  0.00    -0.744 OA
ENDBRANCH  86  90
ENDBRANCH  59  83
BRANCH  71  94
ATOM     94  C   UNL A   1      47.869  30.460  30.889  1.00  0.00     0.023 A 
ATOM     95  C   UNL A   1      48.123  29.470  29.921  1.00  0.00     0.031 A 
ATOM     96  C   UNL A   1      48.941  30.920  31.671  1.00  0.00     0.131 A 
ATOM     97  C   UNL A   1      49.399  28.907  29.821  1.00  0.00     0.055 A 
ATOM     98  C   UNL A   1      50.229  30.406  31.518  1.00  0.00     0.041 A 
ATOM     99  F   UNL A   1      48.747  31.859  32.610  1.00  0.00    -0.206 F 
ATOM    100  C   UNL A   1      50.456  29.377  30.607  1.00  0.00     0.022 A 
BRANCH  97 101
ATOM    101  S   UNL A   1      49.696  27.460  28.770  1.00  0.00     0.124 S 
ATOM    102  O   UNL A   1      48.362  27.198  28.232  1.00  0.00    -0.237 OA
ATOM    103  O   UNL A   1      50.667  27.974  27.809  1.00  0.00    -0.237 OA
ATOM    104  O   UNL A   1      50.200  26.450  29.695  1.00  0.00    -0.744 OA
ENDBRANCH  97 101
ENDBRANCH  71  94
ENDBRANCH  45  46
ENDBRANCH  38  40
ENDBRANCH  37  38
ENDBRANCH  36  37
ENDBRANCH  35  36
ENDBRANCH  34  35
ENDBRANCH   1  34
TORSDOF 22
ENDMDL
