MODEL 1
REMARK VINA RESULT:     -10.7      0.000      0.000
REMARK SMILES CC(C)CCNC(=O)[C@@H](C)Oc1ccc(N)cc1C(=O)OCCOCCOC(=O)c1ccc(-c2c3nc(c(-c4cc(S(=O)(=O)[O-])ccc4F)c4ccc([nH]4)c(-c4cc(S(=O)(=O)[O-])ccc4F)c4nc(c(-c5cc(S(=O)(=O)[O-])ccc5F)c5ccc2[nH]5)C=C4)C=C3)cc1
REMARK SMILES IDX 22 1 21 2 19 3 20 4 18 5 12 6 13 7 14 8 17 9 15 10 11 11
REMARK SMILES IDX 9 12 10 13 7 14 6 15 8 17 5 18 4 19 2 20 1 21 3 22 16 23
REMARK SMILES IDX 23 26 24 27 25 28 26 29 27 30 28 31 29 32 30 33 31 34 92 35
REMARK SMILES IDX 32 36 91 37 33 38 34 39 35 40 85 41 36 42 90 43 84 44 86 45
REMARK SMILES IDX 37 46 89 47 83 48 82 49 38 51 70 52 50 53 69 54 51 55 54 56
REMARK SMILES IDX 68 57 87 58 52 59 53 60 67 62 88 63 55 64 39 65 40 66 48 67
REMARK SMILES IDX 41 68 47 69 49 70 46 71 42 72 43 73 44 74 45 75 71 76 72 77
REMARK SMILES IDX 80 78 73 79 79 80 81 81 78 82 74 83 75 84 76 85 77 86 56 87
REMARK SMILES IDX 57 88 65 89 58 90 64 91 66 92 63 93 59 94 60 95 61 96 62 97
REMARK H PARENT 6 16 16 24 16 25 86 50 54 61
REMARK Flexibility Score: inf
ROOT
ATOM      1  C   UNL A   1      34.168  22.755  25.835  1.00  0.00     0.261 C 
ENDROOT
BRANCH   1   2
ATOM      2  O   UNL A   1      33.038  23.352  26.495  1.00  0.00    -0.460 OA
BRANCH   2   3
ATOM      3  C   UNL A   1      32.333  24.192  25.705  1.00  0.00     0.342 C 
ATOM      4  O   UNL A   1      31.228  23.966  25.228  1.00  0.00    -0.246 OA
BRANCH   3   5
ATOM      5  C   UNL A   1      32.958  25.524  25.546  1.00  0.00     0.104 A 
ATOM      6  C   UNL A   1      33.598  25.997  24.398  1.00  0.00     0.135 A 
ATOM      7  C   UNL A   1      33.643  27.376  24.219  1.00  0.00     0.049 A 
ATOM      8  C   UNL A   1      33.364  28.246  25.282  1.00  0.00     0.029 A 
ATOM      9  C   UNL A   1      32.747  26.396  26.631  1.00  0.00     0.045 A 
ATOM     10  C   UNL A   1      33.054  27.747  26.540  1.00  0.00     0.032 A 
BRANCH   6  11
ATOM     11  O   UNL A   1      34.059  25.165  23.426  1.00  0.00    -0.480 OA
BRANCH  11  12
ATOM     12  C   UNL A   1      33.118  24.731  22.428  1.00  0.00     0.258 C 
ATOM     13  C   UNL A   1      33.248  23.233  22.127  1.00  0.00     0.064 C 
BRANCH  12  14
ATOM     14  C   UNL A   1      32.694  25.567  21.167  1.00  0.00     0.260 C 
ATOM     15  N   UNL A   1      31.792  26.596  21.194  1.00  0.00    -0.353 N 
ATOM     16  H   UNL A   1      31.845  27.219  20.434  1.00  0.00     0.163 HD
ATOM     17  O   UNL A   1      33.182  25.311  20.059  1.00  0.00    -0.271 OA
BRANCH  15  18
ATOM     18  C   UNL A   1      30.774  26.907  22.174  1.00  0.00     0.116 C 
BRANCH  18  19
ATOM     19  C   UNL A   1      30.509  28.394  22.378  1.00  0.00     0.024 C 
BRANCH  19  20
ATOM     20  C   UNL A   1      29.222  28.741  23.161  1.00  0.00    -0.016 C 
ATOM     21  C   UNL A   1      28.269  29.669  22.397  1.00  0.00     0.007 C 
ATOM     22  C   UNL A   1      28.483  27.444  23.505  1.00  0.00     0.007 C 
ENDBRANCH  19  20
ENDBRANCH  18  19
ENDBRANCH  15  18
ENDBRANCH  12  14
ENDBRANCH  11  12
ENDBRANCH   6  11
BRANCH  10  23
ATOM     23  N   UNL A   1      32.887  28.587  27.627  1.00  0.00    -0.399 N 
ATOM     24  H   UNL A   1      32.033  28.594  28.116  1.00  0.00     0.156 HD
ATOM     25  H   UNL A   1      33.622  29.177  27.909  1.00  0.00     0.156 HD
ENDBRANCH  10  23
ENDBRANCH   3   5
ENDBRANCH   2   3
ENDBRANCH   1   2
BRANCH   1  26
ATOM     26  C   UNL A   1      33.916  21.279  25.520  1.00  0.00     0.202 C 
BRANCH  26  27
ATOM     27  O   UNL A   1      35.027  20.528  25.029  1.00  0.00    -0.374 OA
BRANCH  27  28
ATOM     28  C   UNL A   1      36.296  21.183  25.001  1.00  0.00     0.202 C 
BRANCH  28  29
ATOM     29  C   UNL A   1      37.527  20.333  25.336  1.00  0.00     0.261 C 
BRANCH  29  30
ATOM     30  O   UNL A   1      38.754  21.056  25.129  1.00  0.00    -0.460 OA
BRANCH  30  31
ATOM     31  C   UNL A   1      39.663  20.933  26.126  1.00  0.00     0.338 C 
ATOM     32  O   UNL A   1      40.289  19.923  26.424  1.00  0.00    -0.246 OA
BRANCH  31  33
ATOM     33  C   UNL A   1      39.968  22.260  26.692  1.00  0.00     0.060 A 
ATOM     34  C   UNL A   1      39.257  23.361  26.198  1.00  0.00     0.016 A 
ATOM     35  C   UNL A   1      40.972  22.434  27.648  1.00  0.00     0.016 A 
ATOM     36  C   UNL A   1      39.583  24.650  26.613  1.00  0.00     0.010 A 
ATOM     37  C   UNL A   1      41.303  23.730  28.057  1.00  0.00     0.010 A 
ATOM     38  C   UNL A   1      40.640  24.845  27.511  1.00  0.00    -0.014 A 
BRANCH  38  39
ATOM     39  C   UNL A   1      41.179  26.209  27.730  1.00  0.00     0.031 A 
ATOM     40  C   UNL A   1      42.544  26.534  27.187  1.00  0.00     0.074 A 
ATOM     41  C   UNL A   1      40.464  27.146  28.378  1.00  0.00     0.049 A 
ATOM     42  N   UNL A   1      43.264  27.617  27.332  1.00  0.00    -0.248 NA
ATOM     43  C   UNL A   1      43.187  25.486  26.379  1.00  0.00     0.031 C 
ATOM     44  C   UNL A   1      39.109  26.967  28.894  1.00  0.00     0.029 A 
ATOM     45  N   UNL A   1      40.788  28.435  28.721  1.00  0.00    -0.354 N 
ATOM     46  C   UNL A   1      44.450  27.377  26.646  1.00  0.00     0.074 A 
ATOM     47  C   UNL A   1      44.366  26.032  26.119  1.00  0.00     0.031 C 
ATOM     48  C   UNL A   1      38.721  28.101  29.502  1.00  0.00     0.029 A 
ATOM     49  C   UNL A   1      39.816  29.069  29.459  1.00  0.00     0.049 A 
ATOM     50  H   UNL A   1      41.635  28.865  28.463  1.00  0.00     0.167 HD
ATOM     51  C   UNL A   1      45.507  28.206  26.467  1.00  0.00     0.034 A 
ATOM     52  C   UNL A   1      39.827  30.277  30.059  1.00  0.00     0.034 A 
ATOM     53  C   UNL A   1      45.574  29.543  27.005  1.00  0.00     0.049 A 
ATOM     54  C   UNL A   1      41.053  31.150  29.927  1.00  0.00     0.074 A 
ATOM     55  C   UNL A   1      46.590  30.474  26.879  1.00  0.00     0.029 A 
ATOM     56  N   UNL A   1      44.588  30.137  27.783  1.00  0.00    -0.354 N 
ATOM     57  N   UNL A   1      42.174  30.912  29.283  1.00  0.00    -0.248 NA
ATOM     58  C   UNL A   1      41.013  32.456  30.598  1.00  0.00     0.031 C 
ATOM     59  C   UNL A   1      46.253  31.597  27.642  1.00  0.00     0.029 A 
ATOM     60  C   UNL A   1      44.987  31.407  28.173  1.00  0.00     0.049 A 
ATOM     61  H   UNL A   1      43.730  29.717  28.024  1.00  0.00     0.167 HD
ATOM     62  C   UNL A   1      42.954  32.056  29.441  1.00  0.00     0.074 A 
ATOM     63  C   UNL A   1      42.174  32.983  30.234  1.00  0.00     0.031 C 
ATOM     64  C   UNL A   1      44.200  32.320  28.968  1.00  0.00     0.034 A 
BRANCH  51  65
ATOM     65  C   UNL A   1      46.694  27.663  25.706  1.00  0.00     0.023 A 
ATOM     66  C   UNL A   1      46.986  28.069  24.393  1.00  0.00     0.031 A 
ATOM     67  C   UNL A   1      47.525  26.692  26.294  1.00  0.00     0.131 A 
ATOM     68  C   UNL A   1      48.031  27.456  23.685  1.00  0.00     0.055 A 
ATOM     69  C   UNL A   1      48.617  26.148  25.615  1.00  0.00     0.041 A 
ATOM     70  F   UNL A   1      47.282  26.244  27.536  1.00  0.00    -0.206 F 
ATOM     71  C   UNL A   1      48.865  26.517  24.296  1.00  0.00     0.022 A 
BRANCH  68  72
ATOM     72  S   UNL A   1      48.190  27.789  21.909  1.00  0.00     0.124 S 
ATOM     73  O   UNL A   1      46.945  28.503  21.631  1.00  0.00    -0.237 OA
ATOM     74  O   UNL A   1      49.410  28.583  21.845  1.00  0.00    -0.237 OA
ATOM     75  O   UNL A   1      48.279  26.456  21.317  1.00  0.00    -0.744 OA
ENDBRANCH  68  72
ENDBRANCH  51  65
BRANCH  52  76
ATOM     76  C   UNL A   1      38.664  30.724  30.880  1.00  0.00     0.023 A 
ATOM     77  C   UNL A   1      37.563  31.368  30.292  1.00  0.00     0.031 A 
ATOM     78  C   UNL A   1      38.664  30.565  32.277  1.00  0.00     0.131 A 
ATOM     79  C   UNL A   1      36.532  31.869  31.102  1.00  0.00     0.055 A 
ATOM     80  C   UNL A   1      37.608  31.015  33.073  1.00  0.00     0.041 A 
ATOM     81  F   UNL A   1      39.694  29.961  32.892  1.00  0.00    -0.206 F 
ATOM     82  C   UNL A   1      36.541  31.685  32.486  1.00  0.00     0.022 A 
BRANCH  79  83
ATOM     83  S   UNL A   1      35.221  32.855  30.326  1.00  0.00     0.124 S 
ATOM     84  O   UNL A   1      35.960  34.024  29.866  1.00  0.00    -0.237 OA
ATOM     85  O   UNL A   1      34.738  31.951  29.287  1.00  0.00    -0.237 OA
ATOM     86  O   UNL A   1      34.284  33.098  31.421  1.00  0.00    -0.744 OA
ENDBRANCH  79  83
ENDBRANCH  52  76
BRANCH  64  87
ATOM     87  C   UNL A   1      44.768  33.693  29.244  1.00  0.00     0.023 A 
ATOM     88  C   UNL A   1      44.569  34.774  28.370  1.00  0.00     0.031 A 
ATOM     89  C   UNL A   1      45.524  33.917  30.410  1.00  0.00     0.131 A 
ATOM     90  C   UNL A   1      45.164  36.015  28.647  1.00  0.00     0.055 A 
ATOM     91  C   UNL A   1      46.060  35.169  30.712  1.00  0.00     0.041 A 
ATOM     92  F   UNL A   1      45.750  32.919  31.281  1.00  0.00    -0.206 F 
ATOM     93  C   UNL A   1      45.891  36.225  29.821  1.00  0.00     0.022 A 
BRANCH  90  94
ATOM     94  S   UNL A   1      45.051  37.334  27.406  1.00  0.00     0.124 S 
ATOM     95  O   UNL A   1      46.113  36.965  26.474  1.00  0.00    -0.237 OA
ATOM     96  O   UNL A   1      43.687  37.181  26.911  1.00  0.00    -0.237 OA
ATOM     97  O   UNL A   1      45.298  38.552  28.175  1.00  0.00    -0.744 OA
ENDBRANCH  90  94
ENDBRANCH  64  87
ENDBRANCH  38  39
ENDBRANCH  31  33
ENDBRANCH  30  31
ENDBRANCH  29  30
ENDBRANCH  28  29
ENDBRANCH  27  28
ENDBRANCH  26  27
ENDBRANCH   1  26
TORSDOF 24
ENDMDL
MODEL 2
REMARK VINA RESULT:      -9.9      2.092      2.376
REMARK SMILES CC(C)CCNC(=O)[C@@H](C)Oc1ccc(N)cc1C(=O)OCCOCCOC(=O)c1ccc(-c2c3nc(c(-c4cc(S(=O)(=O)[O-])ccc4F)c4ccc([nH]4)c(-c4cc(S(=O)(=O)[O-])ccc4F)c4nc(c(-c5cc(S(=O)(=O)[O-])ccc5F)c5ccc2[nH]5)C=C4)C=C3)cc1
REMARK SMILES IDX 22 1 21 2 19 3 20 4 18 5 12 6 13 7 14 8 17 9 15 10 11 11
REMARK SMILES IDX 9 12 10 13 7 14 6 15 8 17 5 18 4 19 2 20 1 21 3 22 16 23
REMARK SMILES IDX 23 26 24 27 25 28 26 29 27 30 28 31 29 32 30 33 31 34 92 35
REMARK SMILES IDX 32 36 91 37 33 38 34 39 35 40 85 41 36 42 90 43 84 44 86 45
REMARK SMILES IDX 37 46 89 47 83 48 82 49 38 51 70 52 50 53 69 54 51 55 54 56
REMARK SMILES IDX 68 57 87 58 52 59 53 60 67 62 88 63 55 64 39 65 40 66 48 67
REMARK SMILES IDX 41 68 47 69 49 70 46 71 42 72 43 73 44 74 45 75 71 76 72 77
REMARK SMILES IDX 80 78 73 79 79 80 81 81 78 82 74 83 75 84 76 85 77 86 56 87
REMARK SMILES IDX 57 88 65 89 58 90 64 91 66 92 63 93 59 94 60 95 61 96 62 97
REMARK H PARENT 6 16 16 24 16 25 86 50 54 61
REMARK Flexibility Score: inf
ROOT
ATOM      1  C   UNL A   1      34.958  23.134  26.259  1.00  0.00     0.261 C 
ENDROOT
BRANCH   1   2
ATOM      2  O   UNL A   1      33.815  23.742  26.883  1.00  0.00    -0.460 OA
BRANCH   2   3
ATOM      3  C   UNL A   1      32.979  24.344  26.009  1.00  0.00     0.342 C 
ATOM      4  O   UNL A   1      31.879  23.927  25.668  1.00  0.00    -0.246 OA
BRANCH   3   5
ATOM      5  C   UNL A   1      33.444  25.676  25.561  1.00  0.00     0.104 A 
ATOM      6  C   UNL A   1      33.887  25.999  24.277  1.00  0.00     0.135 A 
ATOM      7  C   UNL A   1      33.773  27.329  23.881  1.00  0.00     0.049 A 
ATOM      8  C   UNL A   1      33.544  28.339  24.826  1.00  0.00     0.029 A 
ATOM      9  C   UNL A   1      33.284  26.698  26.517  1.00  0.00     0.045 A 
ATOM     10  C   UNL A   1      33.443  28.034  26.176  1.00  0.00     0.032 A 
BRANCH   6  11
ATOM     11  O   UNL A   1      34.303  25.056  23.390  1.00  0.00    -0.480 OA
BRANCH  11  12
ATOM     12  C   UNL A   1      33.300  24.435  22.567  1.00  0.00     0.258 C 
ATOM     13  C   UNL A   1      33.322  22.906  22.686  1.00  0.00     0.064 C 
BRANCH  12  14
ATOM     14  C   UNL A   1      32.884  24.924  21.133  1.00  0.00     0.260 C 
ATOM     15  N   UNL A   1      32.139  26.046  20.889  1.00  0.00    -0.353 N 
ATOM     16  H   UNL A   1      32.209  26.404  19.975  1.00  0.00     0.163 HD
ATOM     17  O   UNL A   1      33.231  24.283  20.133  1.00  0.00    -0.271 OA
BRANCH  15  18
ATOM     18  C   UNL A   1      31.265  26.785  21.774  1.00  0.00     0.116 C 
BRANCH  18  19
ATOM     19  C   UNL A   1      30.562  25.946  22.834  1.00  0.00     0.024 C 
BRANCH  19  20
ATOM     20  C   UNL A   1      29.633  26.724  23.794  1.00  0.00    -0.016 C 
ATOM     21  C   UNL A   1      29.792  26.320  25.265  1.00  0.00     0.007 C 
ATOM     22  C   UNL A   1      29.918  28.222  23.656  1.00  0.00     0.007 C 
ENDBRANCH  19  20
ENDBRANCH  18  19
ENDBRANCH  15  18
ENDBRANCH  12  14
ENDBRANCH  11  12
ENDBRANCH   6  11
BRANCH  10  23
ATOM     23  N   UNL A   1      33.330  29.028  27.132  1.00  0.00    -0.399 N 
ATOM     24  H   UNL A   1      33.488  28.818  28.081  1.00  0.00     0.156 HD
ATOM     25  H   UNL A   1      33.091  29.944  26.864  1.00  0.00     0.156 HD
ENDBRANCH  10  23
ENDBRANCH   3   5
ENDBRANCH   2   3
ENDBRANCH   1   2
BRANCH   1  26
ATOM     26  C   UNL A   1      34.845  21.608  26.248  1.00  0.00     0.202 C 
BRANCH  26  27
ATOM     27  O   UNL A   1      35.831  20.895  25.502  1.00  0.00    -0.374 OA
BRANCH  27  28
ATOM     28  C   UNL A   1      37.160  21.418  25.509  1.00  0.00     0.202 C 
BRANCH  28  29
ATOM     29  C   UNL A   1      38.300  20.430  25.240  1.00  0.00     0.261 C 
BRANCH  29  30
ATOM     30  O   UNL A   1      39.593  21.040  25.409  1.00  0.00    -0.460 OA
BRANCH  30  31
ATOM     31  C   UNL A   1      40.095  20.969  26.665  1.00  0.00     0.338 C 
ATOM     32  O   UNL A   1      40.400  19.952  27.276  1.00  0.00    -0.246 OA
BRANCH  31  33
ATOM     33  C   UNL A   1      40.436  22.322  27.144  1.00  0.00     0.060 A 
ATOM     34  C   UNL A   1      39.821  23.412  26.516  1.00  0.00     0.016 A 
ATOM     35  C   UNL A   1      41.382  22.524  28.152  1.00  0.00     0.016 A 
ATOM     36  C   UNL A   1      40.190  24.713  26.850  1.00  0.00     0.010 A 
ATOM     37  C   UNL A   1      41.757  23.831  28.480  1.00  0.00     0.010 A 
ATOM     38  C   UNL A   1      41.194  24.928  27.802  1.00  0.00    -0.014 A 
BRANCH  38  39
ATOM     39  C   UNL A   1      41.793  26.278  27.950  1.00  0.00     0.031 A 
ATOM     40  C   UNL A   1      43.185  26.503  27.427  1.00  0.00     0.074 A 
ATOM     41  C   UNL A   1      41.108  27.286  28.517  1.00  0.00     0.049 A 
ATOM     42  N   UNL A   1      43.952  27.559  27.523  1.00  0.00    -0.248 NA
ATOM     43  C   UNL A   1      43.797  25.377  26.704  1.00  0.00     0.031 C 
ATOM     44  C   UNL A   1      39.733  27.204  29.005  1.00  0.00     0.029 A 
ATOM     45  N   UNL A   1      41.485  28.578  28.787  1.00  0.00    -0.354 N 
ATOM     46  C   UNL A   1      45.142  27.220  26.887  1.00  0.00     0.074 A 
ATOM     47  C   UNL A   1      45.007  25.849  26.444  1.00  0.00     0.031 C 
ATOM     48  C   UNL A   1      39.385  28.392  29.529  1.00  0.00     0.029 A 
ATOM     49  C   UNL A   1      40.526  29.303  29.456  1.00  0.00     0.049 A 
ATOM     50  H   UNL A   1      42.358  28.951  28.527  1.00  0.00     0.167 HD
ATOM     51  C   UNL A   1      46.242  27.986  26.686  1.00  0.00     0.034 A 
ATOM     52  C   UNL A   1      40.580  30.545  29.979  1.00  0.00     0.034 A 
ATOM     53  C   UNL A   1      46.360  29.351  27.141  1.00  0.00     0.049 A 
ATOM     54  C   UNL A   1      41.850  31.350  29.827  1.00  0.00     0.074 A 
ATOM     55  C   UNL A   1      47.422  30.223  26.985  1.00  0.00     0.029 A 
ATOM     56  N   UNL A   1      45.384  30.038  27.852  1.00  0.00    -0.354 N 
ATOM     57  N   UNL A   1      42.973  31.020  29.231  1.00  0.00    -0.248 NA
ATOM     58  C   UNL A   1      41.856  32.697  30.413  1.00  0.00     0.031 C 
ATOM     59  C   UNL A   1      47.121  31.408  27.666  1.00  0.00     0.029 A 
ATOM     60  C   UNL A   1      45.834  31.310  28.172  1.00  0.00     0.049 A 
ATOM     61  H   UNL A   1      44.502  29.675  28.095  1.00  0.00     0.167 HD
ATOM     62  C   UNL A   1      43.803  32.134  29.339  1.00  0.00     0.074 A 
ATOM     63  C   UNL A   1      43.049  33.145  30.049  1.00  0.00     0.031 C 
ATOM     64  C   UNL A   1      45.072  32.309  28.885  1.00  0.00     0.034 A 
BRANCH  51  65
ATOM     65  C   UNL A   1      47.420  27.341  25.995  1.00  0.00     0.023 A 
ATOM     66  C   UNL A   1      48.374  26.585  26.699  1.00  0.00     0.031 A 
ATOM     67  C   UNL A   1      47.613  27.518  24.613  1.00  0.00     0.131 A 
ATOM     68  C   UNL A   1      49.511  26.099  26.036  1.00  0.00     0.055 A 
ATOM     69  C   UNL A   1      48.702  26.959  23.942  1.00  0.00     0.041 A 
ATOM     70  F   UNL A   1      46.751  28.252  23.890  1.00  0.00    -0.206 F 
ATOM     71  C   UNL A   1      49.668  26.258  24.657  1.00  0.00     0.022 A 
BRANCH  68  72
ATOM     72  S   UNL A   1      50.856  25.390  27.025  1.00  0.00     0.124 S 
ATOM     73  O   UNL A   1      51.328  26.561  27.762  1.00  0.00    -0.237 OA
ATOM     74  O   UNL A   1      50.167  24.375  27.813  1.00  0.00    -0.237 OA
ATOM     75  O   UNL A   1      51.788  24.878  26.022  1.00  0.00    -0.744 OA
ENDBRANCH  68  72
ENDBRANCH  51  65
BRANCH  52  76
ATOM     76  C   UNL A   1      39.419  31.097  30.737  1.00  0.00     0.023 A 
ATOM     77  C   UNL A   1      39.435  31.171  32.139  1.00  0.00     0.031 A 
ATOM     78  C   UNL A   1      38.251  31.507  30.071  1.00  0.00     0.131 A 
ATOM     79  C   UNL A   1      38.291  31.597  32.830  1.00  0.00     0.055 A 
ATOM     80  C   UNL A   1      37.134  31.984  30.760  1.00  0.00     0.041 A 
ATOM     81  F   UNL A   1      38.179  31.453  28.730  1.00  0.00    -0.206 F 
ATOM     82  C   UNL A   1      37.146  32.018  32.150  1.00  0.00     0.022 A 
BRANCH  79  83
ATOM     83  S   UNL A   1      38.286  31.503  34.643  1.00  0.00     0.124 S 
ATOM     84  O   UNL A   1      37.057  32.215  34.973  1.00  0.00    -0.237 OA
ATOM     85  O   UNL A   1      38.274  30.062  34.870  1.00  0.00    -0.237 OA
ATOM     86  O   UNL A   1      39.523  32.182  35.022  1.00  0.00    -0.744 OA
ENDBRANCH  79  83
ENDBRANCH  52  76
BRANCH  64  87
ATOM     87  C   UNL A   1      45.699  33.668  29.091  1.00  0.00     0.023 A 
ATOM     88  C   UNL A   1      45.666  34.664  28.101  1.00  0.00     0.031 A 
ATOM     89  C   UNL A   1      46.342  33.967  30.307  1.00  0.00     0.131 A 
ATOM     90  C   UNL A   1      46.309  35.891  28.322  1.00  0.00     0.055 A 
ATOM     91  C   UNL A   1      46.925  35.212  30.546  1.00  0.00     0.041 A 
ATOM     92  F   UNL A   1      46.407  33.052  31.289  1.00  0.00    -0.206 F 
ATOM     93  C   UNL A   1      46.922  36.179  29.545  1.00  0.00     0.022 A 
BRANCH  90  94
ATOM     94  S   UNL A   1      46.416  37.081  26.956  1.00  0.00     0.124 S 
ATOM     95  O   UNL A   1      46.598  36.203  25.803  1.00  0.00    -0.237 OA
ATOM     96  O   UNL A   1      45.131  37.767  27.038  1.00  0.00    -0.237 OA
ATOM     97  O   UNL A   1      47.577  37.898  27.302  1.00  0.00    -0.744 OA
ENDBRANCH  90  94
ENDBRANCH  64  87
ENDBRANCH  38  39
ENDBRANCH  31  33
ENDBRANCH  30  31
ENDBRANCH  29  30
ENDBRANCH  28  29
ENDBRANCH  27  28
ENDBRANCH  26  27
ENDBRANCH   1  26
TORSDOF 24
ENDMDL
MODEL 3
REMARK VINA RESULT:      -9.6      1.742      7.799
REMARK SMILES CC(C)CCNC(=O)[C@@H](C)Oc1ccc(N)cc1C(=O)OCCOCCOC(=O)c1ccc(-c2c3nc(c(-c4cc(S(=O)(=O)[O-])ccc4F)c4ccc([nH]4)c(-c4cc(S(=O)(=O)[O-])ccc4F)c4nc(c(-c5cc(S(=O)(=O)[O-])ccc5F)c5ccc2[nH]5)C=C4)C=C3)cc1
REMARK SMILES IDX 22 1 21 2 19 3 20 4 18 5 12 6 13 7 14 8 17 9 15 10 11 11
REMARK SMILES IDX 9 12 10 13 7 14 6 15 8 17 5 18 4 19 2 20 1 21 3 22 16 23
REMARK SMILES IDX 23 26 24 27 25 28 26 29 27 30 28 31 29 32 30 33 31 34 92 35
REMARK SMILES IDX 32 36 91 37 33 38 34 39 35 40 85 41 36 42 90 43 84 44 86 45
REMARK SMILES IDX 37 46 89 47 83 48 82 49 38 51 70 52 50 53 69 54 51 55 54 56
REMARK SMILES IDX 68 57 87 58 52 59 53 60 67 62 88 63 55 64 39 65 40 66 48 67
REMARK SMILES IDX 41 68 47 69 49 70 46 71 42 72 43 73 44 74 45 75 71 76 72 77
REMARK SMILES IDX 80 78 73 79 79 80 81 81 78 82 74 83 75 84 76 85 77 86 56 87
REMARK SMILES IDX 57 88 65 89 58 90 64 91 66 92 63 93 59 94 60 95 61 96 62 97
REMARK H PARENT 6 16 16 24 16 25 86 50 54 61
REMARK Flexibility Score: inf
ROOT
ATOM      1  C   UNL A   1      35.627  22.001  24.265  1.00  0.00     0.261 C 
ENDROOT
BRANCH   1   2
ATOM      2  O   UNL A   1      35.047  23.047  23.467  1.00  0.00    -0.460 OA
BRANCH   2   3
ATOM      3  C   UNL A   1      33.810  23.412  23.872  1.00  0.00     0.342 C 
ATOM      4  O   UNL A   1      33.136  22.839  24.718  1.00  0.00    -0.246 OA
BRANCH   3   5
ATOM      5  C   UNL A   1      33.347  24.690  23.288  1.00  0.00     0.104 A 
ATOM      6  C   UNL A   1      33.448  25.949  23.886  1.00  0.00     0.135 A 
ATOM      7  C   UNL A   1      33.475  27.054  23.041  1.00  0.00     0.049 A 
ATOM      8  C   UNL A   1      33.087  26.938  21.699  1.00  0.00     0.029 A 
ATOM      9  C   UNL A   1      32.890  24.590  21.959  1.00  0.00     0.045 A 
ATOM     10  C   UNL A   1      32.652  25.721  21.192  1.00  0.00     0.032 A 
BRANCH   6  11
ATOM     11  O   UNL A   1      33.634  26.106  25.224  1.00  0.00    -0.480 OA
BRANCH  11  12
ATOM     12  C   UNL A   1      32.499  26.521  26.004  1.00  0.00     0.258 C 
ATOM     13  C   UNL A   1      31.214  25.802  25.578  1.00  0.00     0.064 C 
BRANCH  12  14
ATOM     14  C   UNL A   1      32.236  27.988  26.501  1.00  0.00     0.260 C 
ATOM     15  N   UNL A   1      31.563  28.936  25.778  1.00  0.00    -0.353 N 
ATOM     16  H   UNL A   1      31.204  29.686  26.305  1.00  0.00     0.163 HD
ATOM     17  O   UNL A   1      32.645  28.351  27.611  1.00  0.00    -0.271 OA
BRANCH  15  18
ATOM     18  C   UNL A   1      31.301  28.999  24.357  1.00  0.00     0.116 C 
BRANCH  18  19
ATOM     19  C   UNL A   1      29.827  28.944  23.971  1.00  0.00     0.024 C 
BRANCH  19  20
ATOM     20  C   UNL A   1      29.323  30.112  23.092  1.00  0.00    -0.016 C 
ATOM     21  C   UNL A   1      29.827  30.054  21.645  1.00  0.00     0.007 C 
ATOM     22  C   UNL A   1      27.792  30.105  23.086  1.00  0.00     0.007 C 
ENDBRANCH  19  20
ENDBRANCH  18  19
ENDBRANCH  15  18
ENDBRANCH  12  14
ENDBRANCH  11  12
ENDBRANCH   6  11
BRANCH  10  23
ATOM     23  N   UNL A   1      32.158  25.613  19.904  1.00  0.00    -0.399 N 
ATOM     24  H   UNL A   1      32.622  26.060  19.160  1.00  0.00     0.156 HD
ATOM     25  H   UNL A   1      31.343  25.089  19.732  1.00  0.00     0.156 HD
ENDBRANCH  10  23
ENDBRANCH   3   5
ENDBRANCH   2   3
ENDBRANCH   1   2
BRANCH   1  26
ATOM     26  C   UNL A   1      37.001  22.404  24.803  1.00  0.00     0.202 C 
BRANCH  26  27
ATOM     27  O   UNL A   1      37.652  21.474  25.669  1.00  0.00    -0.374 OA
BRANCH  27  28
ATOM     28  C   UNL A   1      37.943  20.181  25.137  1.00  0.00     0.202 C 
BRANCH  28  29
ATOM     29  C   UNL A   1      39.256  19.524  25.581  1.00  0.00     0.261 C 
BRANCH  29  30
ATOM     30  O   UNL A   1      40.311  20.489  25.749  1.00  0.00    -0.460 OA
BRANCH  30  31
ATOM     31  C   UNL A   1      40.895  20.486  26.971  1.00  0.00     0.338 C 
ATOM     32  O   UNL A   1      41.347  19.513  27.564  1.00  0.00    -0.246 OA
BRANCH  31  33
ATOM     33  C   UNL A   1      41.115  21.871  27.425  1.00  0.00     0.060 A 
ATOM     34  C   UNL A   1      40.681  22.909  26.590  1.00  0.00     0.016 A 
ATOM     35  C   UNL A   1      41.784  22.153  28.618  1.00  0.00     0.016 A 
ATOM     36  C   UNL A   1      40.965  24.234  26.914  1.00  0.00     0.010 A 
ATOM     37  C   UNL A   1      42.075  23.483  28.938  1.00  0.00     0.010 A 
ATOM     38  C   UNL A   1      41.704  24.525  28.067  1.00  0.00    -0.014 A 
BRANCH  38  39
ATOM     39  C   UNL A   1      42.256  25.888  28.264  1.00  0.00     0.031 A 
ATOM     40  C   UNL A   1      41.376  26.930  28.900  1.00  0.00     0.074 A 
ATOM     41  C   UNL A   1      43.516  26.190  27.904  1.00  0.00     0.049 A 
ATOM     42  N   UNL A   1      41.596  28.206  29.090  1.00  0.00    -0.248 NA
ATOM     43  C   UNL A   1      40.065  26.468  29.379  1.00  0.00     0.031 C 
ATOM     44  C   UNL A   1      44.479  25.249  27.336  1.00  0.00     0.029 A 
ATOM     45  N   UNL A   1      44.197  27.380  27.957  1.00  0.00    -0.354 N 
ATOM     46  C   UNL A   1      40.447  28.702  29.696  1.00  0.00     0.074 A 
ATOM     47  C   UNL A   1      39.520  27.596  29.807  1.00  0.00     0.031 C 
ATOM     48  C   UNL A   1      45.625  25.903  27.078  1.00  0.00     0.029 A 
ATOM     49  C   UNL A   1      45.461  27.315  27.419  1.00  0.00     0.049 A 
ATOM     50  H   UNL A   1      43.817  28.202  28.343  1.00  0.00     0.167 HD
ATOM     51  C   UNL A   1      40.194  29.962  30.126  1.00  0.00     0.034 A 
ATOM     52  C   UNL A   1      46.365  28.292  27.197  1.00  0.00     0.034 A 
ATOM     53  C   UNL A   1      41.130  31.053  30.001  1.00  0.00     0.049 A 
ATOM     54  C   UNL A   1      46.026  29.708  27.598  1.00  0.00     0.074 A 
ATOM     55  C   UNL A   1      40.983  32.366  30.411  1.00  0.00     0.029 A 
ATOM     56  N   UNL A   1      42.385  30.959  29.413  1.00  0.00    -0.354 N 
ATOM     57  N   UNL A   1      44.934  30.171  28.164  1.00  0.00    -0.248 NA
ATOM     58  C   UNL A   1      47.044  30.734  27.336  1.00  0.00     0.031 C 
ATOM     59  C   UNL A   1      42.114  33.082  30.002  1.00  0.00     0.029 A 
ATOM     60  C   UNL A   1      43.008  32.198  29.417  1.00  0.00     0.049 A 
ATOM     61  H   UNL A   1      42.776  30.133  29.046  1.00  0.00     0.167 HD
ATOM     62  C   UNL A   1      45.153  31.533  28.359  1.00  0.00     0.074 A 
ATOM     63  C   UNL A   1      46.482  31.815  27.857  1.00  0.00     0.031 C 
ATOM     64  C   UNL A   1      44.333  32.466  28.910  1.00  0.00     0.034 A 
BRANCH  51  65
ATOM     65  C   UNL A   1      38.829  30.232  30.716  1.00  0.00     0.023 A 
ATOM     66  C   UNL A   1      37.795  30.816  29.963  1.00  0.00     0.031 A 
ATOM     67  C   UNL A   1      38.572  29.936  32.067  1.00  0.00     0.131 A 
ATOM     68  C   UNL A   1      36.581  31.152  30.582  1.00  0.00     0.055 A 
ATOM     69  C   UNL A   1      37.332  30.194  32.655  1.00  0.00     0.041 A 
ATOM     70  F   UNL A   1      39.527  29.403  32.844  1.00  0.00    -0.206 F 
ATOM     71  C   UNL A   1      36.333  30.820  31.916  1.00  0.00     0.022 A 
BRANCH  68  72
ATOM     72  S   UNL A   1      35.390  32.164  29.663  1.00  0.00     0.124 S 
ATOM     73  O   UNL A   1      34.396  32.458  30.694  1.00  0.00    -0.237 OA
ATOM     74  O   UNL A   1      36.205  33.290  29.223  1.00  0.00    -0.237 OA
ATOM     75  O   UNL A   1      34.929  31.273  28.601  1.00  0.00    -0.744 OA
ENDBRANCH  68  72
ENDBRANCH  51  65
BRANCH  52  76
ATOM     76  C   UNL A   1      47.660  27.984  26.522  1.00  0.00     0.023 A 
ATOM     77  C   UNL A   1      47.741  27.865  25.126  1.00  0.00     0.031 A 
ATOM     78  C   UNL A   1      48.826  27.748  27.272  1.00  0.00     0.131 A 
ATOM     79  C   UNL A   1      48.948  27.473  24.527  1.00  0.00     0.055 A 
ATOM     80  C   UNL A   1      50.039  27.414  26.667  1.00  0.00     0.041 A 
ATOM     81  F   UNL A   1      48.803  27.844  28.611  1.00  0.00    -0.206 F 
ATOM     82  C   UNL A   1      50.101  27.261  25.286  1.00  0.00     0.022 A 
BRANCH  79  83
ATOM     83  S   UNL A   1      48.967  27.151  22.741  1.00  0.00     0.124 S 
ATOM     84  O   UNL A   1      48.288  25.863  22.665  1.00  0.00    -0.237 OA
ATOM     85  O   UNL A   1      48.229  28.297  22.220  1.00  0.00    -0.237 OA
ATOM     86  O   UNL A   1      50.391  27.128  22.413  1.00  0.00    -0.744 OA
ENDBRANCH  79  83
ENDBRANCH  52  76
BRANCH  64  87
ATOM     87  C   UNL A   1      44.879  33.868  29.054  1.00  0.00     0.023 A 
ATOM     88  C   UNL A   1      45.593  34.278  30.192  1.00  0.00     0.031 A 
ATOM     89  C   UNL A   1      44.678  34.808  28.026  1.00  0.00     0.131 A 
ATOM     90  C   UNL A   1      46.033  35.606  30.300  1.00  0.00     0.055 A 
ATOM     91  C   UNL A   1      45.173  36.110  28.111  1.00  0.00     0.041 A 
ATOM     92  F   UNL A   1      44.000  34.473  26.915  1.00  0.00    -0.206 F 
ATOM     93  C   UNL A   1      45.845  36.519  29.259  1.00  0.00     0.022 A 
BRANCH  90  94
ATOM     94  S   UNL A   1      46.779  36.156  31.860  1.00  0.00     0.124 S 
ATOM     95  O   UNL A   1      46.811  37.605  31.687  1.00  0.00    -0.237 OA
ATOM     96  O   UNL A   1      45.834  35.653  32.852  1.00  0.00    -0.237 OA
ATOM     97  O   UNL A   1      48.087  35.503  31.865  1.00  0.00    -0.744 OA
ENDBRANCH  90  94
ENDBRANCH  64  87
ENDBRANCH  38  39
ENDBRANCH  31  33
ENDBRANCH  30  31
ENDBRANCH  29  30
ENDBRANCH  28  29
ENDBRANCH  27  28
ENDBRANCH  26  27
ENDBRANCH   1  26
TORSDOF 24
ENDMDL
