MODEL 1
REMARK VINA RESULT:     -10.7      0.000      0.000
REMARK SMILES O=C(OCCOCCOC(=O)[C@]12COc3ccccc3[C@H]1C[N@H+](CCO)C2)c1ccc(-c2c3nc(c(-c4cc(S(=O)(=O)[O-])ccc4F)c4ccc([nH]4)c(-c4cc(S(=O)(=O)[O-])ccc4F)c4nc(c(-c5cc(S(=O)(=O)[O-])ccc5F)c5ccc2[nH]5)C=C4)C=C3)cc1
REMARK SMILES IDX 6 1 5 2 4 3 3 4 2 5 1 6 28 7 29 8 90 9 30 10 89 11 31 12
REMARK SMILES IDX 32 13 33 14 83 15 34 16 88 17 82 18 84 19 35 20 87 21 81 22
REMARK SMILES IDX 80 23 36 25 68 26 48 27 67 28 49 29 52 30 66 31 85 32 50 33
REMARK SMILES IDX 51 34 65 36 86 37 53 38 37 39 38 40 46 41 39 42 45 43 47 44
REMARK SMILES IDX 44 45 40 46 41 47 42 48 43 49 69 50 70 51 78 52 71 53 77 54
REMARK SMILES IDX 79 55 76 56 72 57 73 58 74 59 75 60 54 61 55 62 63 63 56 64
REMARK SMILES IDX 62 65 64 66 61 67 57 68 58 69 59 70 60 71 7 72 8 73 9 74
REMARK SMILES IDX 10 75 11 76 12 77 13 78 21 79 27 80 14 81 20 82 22 83 23 84
REMARK SMILES IDX 15 85 19 86 16 88 18 89 17 90 24 91 25 92 26 93
REMARK H PARENT 84 24 52 35 23 87 26 94
REMARK Flexibility Score: inf
ROOT
ATOM      1  O   UNL A   1      33.127  27.305  24.485  1.00  0.00    -0.374 OA
ENDROOT
BRANCH   1   2
ATOM      2  C   UNL A   1      32.855  28.460  25.281  1.00  0.00     0.202 C 
BRANCH   2   3
ATOM      3  C   UNL A   1      33.685  28.896  26.499  1.00  0.00     0.261 C 
BRANCH   3   4
ATOM      4  O   UNL A   1      33.574  30.264  26.869  1.00  0.00    -0.460 OA
BRANCH   4   5
ATOM      5  C   UNL A   1      34.531  30.995  27.487  1.00  0.00     0.338 C 
ATOM      6  O   UNL A   1      34.484  32.219  27.387  1.00  0.00    -0.246 OA
BRANCH   5   7
ATOM      7  C   UNL A   1      35.740  30.360  28.102  1.00  0.00     0.060 A 
ATOM      8  C   UNL A   1      36.915  30.395  27.332  1.00  0.00     0.016 A 
ATOM      9  C   UNL A   1      35.793  29.717  29.341  1.00  0.00     0.016 A 
ATOM     10  C   UNL A   1      38.083  29.774  27.779  1.00  0.00     0.010 A 
ATOM     11  C   UNL A   1      36.928  29.050  29.771  1.00  0.00     0.010 A 
ATOM     12  C   UNL A   1      38.079  29.092  28.999  1.00  0.00    -0.014 A 
BRANCH  12  13
ATOM     13  C   UNL A   1      39.314  28.613  29.625  1.00  0.00     0.031 A 
ATOM     14  C   UNL A   1      39.880  29.296  30.824  1.00  0.00     0.074 A 
ATOM     15  C   UNL A   1      39.971  27.645  28.964  1.00  0.00     0.049 A 
ATOM     16  N   UNL A   1      40.905  28.941  31.545  1.00  0.00    -0.248 NA
ATOM     17  C   UNL A   1      39.236  30.547  31.257  1.00  0.00     0.031 C 
ATOM     18  C   UNL A   1      39.526  27.064  27.691  1.00  0.00     0.029 A 
ATOM     19  N   UNL A   1      41.141  26.998  29.235  1.00  0.00    -0.354 N 
ATOM     20  C   UNL A   1      41.016  29.902  32.540  1.00  0.00     0.074 A 
ATOM     21  C   UNL A   1      39.994  30.894  32.292  1.00  0.00     0.031 C 
ATOM     22  C   UNL A   1      40.398  26.123  27.311  1.00  0.00     0.029 A 
ATOM     23  C   UNL A   1      41.456  26.032  28.309  1.00  0.00     0.049 A 
ATOM     24  H   UNL A   1      41.704  27.202  30.016  1.00  0.00     0.167 HD
ATOM     25  C   UNL A   1      41.891  29.913  33.571  1.00  0.00     0.034 A 
ATOM     26  C   UNL A   1      42.465  25.142  28.300  1.00  0.00     0.034 A 
ATOM     27  C   UNL A   1      42.904  28.898  33.732  1.00  0.00     0.049 A 
ATOM     28  C   UNL A   1      43.370  25.125  29.501  1.00  0.00     0.074 A 
ATOM     29  C   UNL A   1      43.801  28.739  34.771  1.00  0.00     0.029 A 
ATOM     30  N   UNL A   1      43.159  27.879  32.822  1.00  0.00    -0.354 N 
ATOM     31  N   UNL A   1      43.366  25.927  30.542  1.00  0.00    -0.248 NA
ATOM     32  C   UNL A   1      44.382  24.067  29.561  1.00  0.00     0.031 C 
ATOM     33  C   UNL A   1      44.647  27.677  34.452  1.00  0.00     0.029 A 
ATOM     34  C   UNL A   1      44.215  27.102  33.265  1.00  0.00     0.049 A 
ATOM     35  H   UNL A   1      42.662  27.731  31.986  1.00  0.00     0.167 HD
ATOM     36  C   UNL A   1      44.341  25.444  31.404  1.00  0.00     0.074 A 
ATOM     37  C   UNL A   1      44.901  24.268  30.766  1.00  0.00     0.031 C 
ATOM     38  C   UNL A   1      44.736  25.922  32.611  1.00  0.00     0.034 A 
BRANCH  25  39
ATOM     39  C   UNL A   1      41.792  30.990  34.625  1.00  0.00     0.023 A 
ATOM     40  C   UNL A   1      40.674  31.039  35.480  1.00  0.00     0.031 A 
ATOM     41  C   UNL A   1      42.698  32.066  34.658  1.00  0.00     0.131 A 
ATOM     42  C   UNL A   1      40.457  32.168  36.281  1.00  0.00     0.055 A 
ATOM     43  C   UNL A   1      42.502  33.166  35.496  1.00  0.00     0.041 A 
ATOM     44  F   UNL A   1      43.779  32.074  33.863  1.00  0.00    -0.206 F 
ATOM     45  C   UNL A   1      41.367  33.228  36.298  1.00  0.00     0.022 A 
BRANCH  42  46
ATOM     46  S   UNL A   1      38.940  32.344  37.260  1.00  0.00     0.124 S 
ATOM     47  O   UNL A   1      39.470  32.541  38.608  1.00  0.00    -0.237 OA
ATOM     48  O   UNL A   1      38.322  33.520  36.655  1.00  0.00    -0.237 OA
ATOM     49  O   UNL A   1      38.239  31.081  37.050  1.00  0.00    -0.744 OA
ENDBRANCH  42  46
ENDBRANCH  25  39
BRANCH  26  50
ATOM     50  C   UNL A   1      42.519  24.125  27.213  1.00  0.00     0.023 A 
ATOM     51  C   UNL A   1      41.875  22.880  27.348  1.00  0.00     0.031 A 
ATOM     52  C   UNL A   1      43.351  24.318  26.097  1.00  0.00     0.131 A 
ATOM     53  C   UNL A   1      42.124  21.861  26.418  1.00  0.00     0.055 A 
ATOM     54  C   UNL A   1      43.538  23.325  25.134  1.00  0.00     0.041 A 
ATOM     55  F   UNL A   1      44.019  25.472  25.943  1.00  0.00    -0.206 F 
ATOM     56  C   UNL A   1      42.936  22.082  25.302  1.00  0.00     0.022 A 
BRANCH  53  57
ATOM     57  S   UNL A   1      41.534  20.169  26.712  1.00  0.00     0.124 S 
ATOM     58  O   UNL A   1      42.684  19.557  27.370  1.00  0.00    -0.237 OA
ATOM     59  O   UNL A   1      40.368  20.400  27.562  1.00  0.00    -0.237 OA
ATOM     60  O   UNL A   1      41.232  19.673  25.373  1.00  0.00    -0.744 OA
ENDBRANCH  53  57
ENDBRANCH  26  50
BRANCH  38  61
ATOM     61  C   UNL A   1      45.811  25.171  33.356  1.00  0.00     0.023 A 
ATOM     62  C   UNL A   1      47.163  25.472  33.104  1.00  0.00     0.031 A 
ATOM     63  C   UNL A   1      45.513  24.068  34.173  1.00  0.00     0.131 A 
ATOM     64  C   UNL A   1      48.166  24.650  33.624  1.00  0.00     0.055 A 
ATOM     65  C   UNL A   1      46.519  23.290  34.743  1.00  0.00     0.041 A 
ATOM     66  F   UNL A   1      44.239  23.730  34.426  1.00  0.00    -0.206 F 
ATOM     67  C   UNL A   1      47.853  23.570  34.455  1.00  0.00     0.022 A 
BRANCH  64  68
ATOM     68  S   UNL A   1      49.900  24.883  33.149  1.00  0.00     0.124 S 
ATOM     69  O   UNL A   1      49.816  24.875  31.690  1.00  0.00    -0.237 OA
ATOM     70  O   UNL A   1      50.212  26.178  33.748  1.00  0.00    -0.237 OA
ATOM     71  O   UNL A   1      50.586  23.738  33.739  1.00  0.00    -0.744 OA
ENDBRANCH  64  68
ENDBRANCH  38  61
ENDBRANCH  12  13
ENDBRANCH   5   7
ENDBRANCH   4   5
ENDBRANCH   3   4
ENDBRANCH   2   3
ENDBRANCH   1   2
BRANCH   1  72
ATOM     72  C   UNL A   1      32.763  27.245  23.105  1.00  0.00     0.202 C 
BRANCH  72  73
ATOM     73  C   UNL A   1      33.276  25.971  22.393  1.00  0.00     0.261 C 
BRANCH  73  74
ATOM     74  O   UNL A   1      32.846  24.788  23.102  1.00  0.00    -0.463 OA
BRANCH  74  75
ATOM     75  C   UNL A   1      33.438  23.599  22.774  1.00  0.00     0.322 C 
ATOM     76  O   UNL A   1      33.789  23.328  21.633  1.00  0.00    -0.251 OA
BRANCH  75  77
ATOM     77  C   UNL A   1      33.613  22.706  23.997  1.00  0.00     0.162 C 
ATOM     78  C   UNL A   1      33.481  23.655  25.207  1.00  0.00     0.255 C 
ATOM     79  C   UNL A   1      34.867  21.841  24.106  1.00  0.00     0.105 C 
ATOM     80  C   UNL A   1      32.609  21.540  23.785  1.00  0.00     0.285 C 
ATOM     81  O   UNL A   1      34.662  24.140  25.861  1.00  0.00    -0.492 OA
ATOM     82  C   UNL A   1      36.035  22.462  24.792  1.00  0.00     0.004 A 
ATOM     83  C   UNL A   1      34.402  20.615  24.941  1.00  0.00     0.272 C 
ATOM     84  N   UNL A   1      32.967  20.483  24.712  1.00  0.00    -0.331 N 
ATOM     85  C   UNL A   1      35.854  23.537  25.646  1.00  0.00     0.123 A 
ATOM     86  C   UNL A   1      37.310  21.889  24.662  1.00  0.00     0.008 A 
ATOM     87  H   UNL A   1      32.468  20.594  25.595  1.00  0.00     0.348 HD
ATOM     88  C   UNL A   1      36.937  24.054  26.357  1.00  0.00     0.047 A 
ATOM     89  C   UNL A   1      38.393  22.406  25.370  1.00  0.00     0.001 A 
ATOM     90  C   UNL A   1      38.207  23.495  26.216  1.00  0.00     0.004 A 
BRANCH  84  91
ATOM     91  C   UNL A   1      32.497  19.141  24.334  1.00  0.00     0.290 C 
BRANCH  91  92
ATOM     92  C   UNL A   1      32.643  17.978  25.342  1.00  0.00     0.217 C 
BRANCH  92  93
ATOM     93  O   UNL A   1      31.797  16.878  25.035  1.00  0.00    -0.391 OA
ATOM     94  H   UNL A   1      31.207  16.704  25.785  1.00  0.00     0.210 HD
ENDBRANCH  92  93
ENDBRANCH  91  92
ENDBRANCH  84  91
ENDBRANCH  75  77
ENDBRANCH  74  75
ENDBRANCH  73  74
ENDBRANCH  72  73
ENDBRANCH   1  72
TORSDOF 20
ENDMDL
MODEL 2
REMARK VINA RESULT:     -10.6      2.110      3.051
REMARK SMILES O=C(OCCOCCOC(=O)[C@]12COc3ccccc3[C@H]1C[N@H+](CCO)C2)c1ccc(-c2c3nc(c(-c4cc(S(=O)(=O)[O-])ccc4F)c4ccc([nH]4)c(-c4cc(S(=O)(=O)[O-])ccc4F)c4nc(c(-c5cc(S(=O)(=O)[O-])ccc5F)c5ccc2[nH]5)C=C4)C=C3)cc1
REMARK SMILES IDX 6 1 5 2 4 3 3 4 2 5 1 6 28 7 29 8 90 9 30 10 89 11 31 12
REMARK SMILES IDX 32 13 33 14 83 15 34 16 88 17 82 18 84 19 35 20 87 21 81 22
REMARK SMILES IDX 80 23 36 25 68 26 48 27 67 28 49 29 52 30 66 31 85 32 50 33
REMARK SMILES IDX 51 34 65 36 86 37 53 38 37 39 38 40 46 41 39 42 45 43 47 44
REMARK SMILES IDX 44 45 40 46 41 47 42 48 43 49 69 50 70 51 78 52 71 53 77 54
REMARK SMILES IDX 79 55 76 56 72 57 73 58 74 59 75 60 54 61 55 62 63 63 56 64
REMARK SMILES IDX 62 65 64 66 61 67 57 68 58 69 59 70 60 71 7 72 8 73 9 74
REMARK SMILES IDX 10 75 11 76 12 77 13 78 21 79 27 80 14 81 20 82 22 83 23 84
REMARK SMILES IDX 15 85 19 86 16 88 18 89 17 90 24 91 25 92 26 93
REMARK H PARENT 84 24 52 35 23 87 26 94
REMARK Flexibility Score: inf
ROOT
ATOM      1  O   UNL A   1      31.455  28.422  26.491  1.00  0.00    -0.374 OA
ENDROOT
BRANCH   1   2
ATOM      2  C   UNL A   1      31.539  29.603  25.691  1.00  0.00     0.202 C 
BRANCH   2   3
ATOM      3  C   UNL A   1      32.146  30.934  26.160  1.00  0.00     0.261 C 
BRANCH   3   4
ATOM      4  O   UNL A   1      32.872  30.888  27.382  1.00  0.00    -0.460 OA
BRANCH   4   5
ATOM      5  C   UNL A   1      33.921  31.679  27.706  1.00  0.00     0.338 C 
ATOM      6  O   UNL A   1      33.887  32.860  27.365  1.00  0.00    -0.246 OA
BRANCH   5   7
ATOM      7  C   UNL A   1      35.191  31.121  28.273  1.00  0.00     0.060 A 
ATOM      8  C   UNL A   1      36.294  31.991  28.291  1.00  0.00     0.016 A 
ATOM      9  C   UNL A   1      35.380  29.820  28.746  1.00  0.00     0.016 A 
ATOM     10  C   UNL A   1      37.543  31.554  28.734  1.00  0.00     0.010 A 
ATOM     11  C   UNL A   1      36.625  29.358  29.136  1.00  0.00     0.010 A 
ATOM     12  C   UNL A   1      37.705  30.229  29.147  1.00  0.00    -0.014 A 
BRANCH  12  13
ATOM     13  C   UNL A   1      38.920  29.768  29.825  1.00  0.00     0.031 A 
ATOM     14  C   UNL A   1      39.325  30.337  31.142  1.00  0.00     0.074 A 
ATOM     15  C   UNL A   1      39.708  28.940  29.118  1.00  0.00     0.049 A 
ATOM     16  N   UNL A   1      40.313  29.973  31.908  1.00  0.00    -0.248 NA
ATOM     17  C   UNL A   1      38.545  31.475  31.656  1.00  0.00     0.031 C 
ATOM     18  C   UNL A   1      39.420  28.489  27.751  1.00  0.00     0.029 A 
ATOM     19  N   UNL A   1      40.902  28.352  29.419  1.00  0.00    -0.354 N 
ATOM     20  C   UNL A   1      40.261  30.809  33.014  1.00  0.00     0.074 A 
ATOM     21  C   UNL A   1      39.183  31.746  32.790  1.00  0.00     0.031 C 
ATOM     22  C   UNL A   1      40.397  27.668  27.346  1.00  0.00     0.029 A 
ATOM     23  C   UNL A   1      41.372  27.534  28.420  1.00  0.00     0.049 A 
ATOM     24  H   UNL A   1      41.379  28.499  30.267  1.00  0.00     0.167 HD
ATOM     25  C   UNL A   1      41.044  30.757  34.116  1.00  0.00     0.034 A 
ATOM     26  C   UNL A   1      42.450  26.728  28.400  1.00  0.00     0.034 A 
ATOM     27  C   UNL A   1      42.121  29.808  34.249  1.00  0.00     0.049 A 
ATOM     28  C   UNL A   1      43.251  26.630  29.669  1.00  0.00     0.074 A 
ATOM     29  C   UNL A   1      42.940  29.588  35.341  1.00  0.00     0.029 A 
ATOM     30  N   UNL A   1      42.536  28.930  33.255  1.00  0.00    -0.354 N 
ATOM     31  N   UNL A   1      43.093  27.295  30.792  1.00  0.00    -0.248 NA
ATOM     32  C   UNL A   1      44.340  25.650  29.699  1.00  0.00     0.031 C 
ATOM     33  C   UNL A   1      43.896  28.638  34.979  1.00  0.00     0.029 A 
ATOM     34  C   UNL A   1      43.613  28.185  33.699  1.00  0.00     0.049 A 
ATOM     35  H   UNL A   1      42.124  28.850  32.364  1.00  0.00     0.167 HD
ATOM     36  C   UNL A   1      44.031  26.782  31.678  1.00  0.00     0.074 A 
ATOM     37  C   UNL A   1      44.739  25.739  30.961  1.00  0.00     0.031 C 
ATOM     38  C   UNL A   1      44.284  27.136  32.964  1.00  0.00     0.034 A 
BRANCH  25  39
ATOM     39  C   UNL A   1      40.768  31.685  35.274  1.00  0.00     0.023 A 
ATOM     40  C   UNL A   1      39.698  31.421  36.150  1.00  0.00     0.031 A 
ATOM     41  C   UNL A   1      41.435  32.918  35.398  1.00  0.00     0.131 A 
ATOM     42  C   UNL A   1      39.285  32.400  37.064  1.00  0.00     0.055 A 
ATOM     43  C   UNL A   1      41.052  33.870  36.346  1.00  0.00     0.041 A 
ATOM     44  F   UNL A   1      42.460  33.225  34.587  1.00  0.00    -0.206 F 
ATOM     45  C   UNL A   1      39.960  33.619  37.171  1.00  0.00     0.022 A 
BRANCH  42  46
ATOM     46  S   UNL A   1      37.803  32.164  38.084  1.00  0.00     0.124 S 
ATOM     47  O   UNL A   1      36.890  33.160  37.526  1.00  0.00    -0.237 OA
ATOM     48  O   UNL A   1      37.458  30.774  37.801  1.00  0.00    -0.237 OA
ATOM     49  O   UNL A   1      38.264  32.440  39.440  1.00  0.00    -0.744 OA
ENDBRANCH  42  46
ENDBRANCH  25  39
BRANCH  26  50
ATOM     50  C   UNL A   1      42.679  25.859  27.212  1.00  0.00     0.023 A 
ATOM     51  C   UNL A   1      42.184  24.542  27.167  1.00  0.00     0.031 A 
ATOM     52  C   UNL A   1      43.535  26.276  26.178  1.00  0.00     0.131 A 
ATOM     53  C   UNL A   1      42.599  23.675  26.146  1.00  0.00     0.055 A 
ATOM     54  C   UNL A   1      43.887  25.433  25.124  1.00  0.00     0.041 A 
ATOM     55  F   UNL A   1      44.065  27.509  26.196  1.00  0.00    -0.206 F 
ATOM     56  C   UNL A   1      43.432  24.118  25.114  1.00  0.00     0.022 A 
BRANCH  53  57
ATOM     57  S   UNL A   1      42.204  21.904  26.211  1.00  0.00     0.124 S 
ATOM     58  O   UNL A   1      42.571  21.563  27.582  1.00  0.00    -0.237 OA
ATOM     59  O   UNL A   1      40.772  21.904  25.922  1.00  0.00    -0.237 OA
ATOM     60  O   UNL A   1      43.043  21.326  25.167  1.00  0.00    -0.744 OA
ENDBRANCH  53  57
ENDBRANCH  26  50
BRANCH  38  61
ATOM     61  C   UNL A   1      45.353  26.380  33.711  1.00  0.00     0.023 A 
ATOM     62  C   UNL A   1      44.983  25.308  34.546  1.00  0.00     0.031 A 
ATOM     63  C   UNL A   1      46.690  26.811  33.729  1.00  0.00     0.131 A 
ATOM     64  C   UNL A   1      45.929  24.735  35.401  1.00  0.00     0.055 A 
ATOM     65  C   UNL A   1      47.644  26.193  34.536  1.00  0.00     0.041 A 
ATOM     66  F   UNL A   1      47.085  27.841  32.965  1.00  0.00    -0.206 F 
ATOM     67  C   UNL A   1      47.261  25.162  35.390  1.00  0.00     0.022 A 
BRANCH  64  68
ATOM     68  S   UNL A   1      45.441  23.501  36.636  1.00  0.00     0.124 S 
ATOM     69  O   UNL A   1      44.684  24.311  37.588  1.00  0.00    -0.237 OA
ATOM     70  O   UNL A   1      44.647  22.568  35.841  1.00  0.00    -0.237 OA
ATOM     71  O   UNL A   1      46.709  22.978  37.134  1.00  0.00    -0.744 OA
ENDBRANCH  64  68
ENDBRANCH  38  61
ENDBRANCH  12  13
ENDBRANCH   5   7
ENDBRANCH   4   5
ENDBRANCH   3   4
ENDBRANCH   2   3
ENDBRANCH   1   2
BRANCH   1  72
ATOM     72  C   UNL A   1      32.263  27.275  26.220  1.00  0.00     0.202 C 
BRANCH  72  73
ATOM     73  C   UNL A   1      31.587  25.943  26.622  1.00  0.00     0.261 C 
BRANCH  73  74
ATOM     74  O   UNL A   1      32.555  24.871  26.642  1.00  0.00    -0.463 OA
BRANCH  74  75
ATOM     75  C   UNL A   1      32.105  23.602  26.404  1.00  0.00     0.322 C 
ATOM     76  O   UNL A   1      31.507  22.943  27.246  1.00  0.00    -0.251 OA
BRANCH  75  77
ATOM     77  C   UNL A   1      32.421  23.155  24.981  1.00  0.00     0.162 C 
ATOM     78  C   UNL A   1      32.260  21.620  24.999  1.00  0.00     0.255 C 
ATOM     79  C   UNL A   1      33.754  23.563  24.357  1.00  0.00     0.105 C 
ATOM     80  C   UNL A   1      31.521  24.041  24.077  1.00  0.00     0.285 C 
ATOM     81  O   UNL A   1      33.420  20.785  25.116  1.00  0.00    -0.492 OA
ATOM     82  C   UNL A   1      34.890  22.622  24.562  1.00  0.00     0.004 A 
ATOM     83  C   UNL A   1      33.445  23.637  22.836  1.00  0.00     0.272 C 
ATOM     84  N   UNL A   1      32.020  23.925  22.719  1.00  0.00    -0.331 N 
ATOM     85  C   UNL A   1      34.651  21.297  24.888  1.00  0.00     0.123 A 
ATOM     86  C   UNL A   1      36.206  23.047  24.315  1.00  0.00     0.008 A 
ATOM     87  H   UNL A   1      31.555  23.161  22.228  1.00  0.00     0.348 HD
ATOM     88  C   UNL A   1      35.715  20.400  24.986  1.00  0.00     0.047 A 
ATOM     89  C   UNL A   1      37.268  22.152  24.415  1.00  0.00     0.001 A 
ATOM     90  C   UNL A   1      37.023  20.825  24.757  1.00  0.00     0.004 A 
BRANCH  84  91
ATOM     91  C   UNL A   1      31.659  25.040  21.829  1.00  0.00     0.290 C 
BRANCH  91  92
ATOM     92  C   UNL A   1      32.737  26.079  21.445  1.00  0.00     0.217 C 
BRANCH  92  93
ATOM     93  O   UNL A   1      33.181  25.936  20.102  1.00  0.00    -0.391 OA
ATOM     94  H   UNL A   1      33.954  26.503  19.954  1.00  0.00     0.210 HD
ENDBRANCH  92  93
ENDBRANCH  91  92
ENDBRANCH  84  91
ENDBRANCH  75  77
ENDBRANCH  74  75
ENDBRANCH  73  74
ENDBRANCH  72  73
ENDBRANCH   1  72
TORSDOF 20
ENDMDL
MODEL 3
REMARK VINA RESULT:     -10.5      2.853      8.605
REMARK SMILES O=C(OCCOCCOC(=O)[C@]12COc3ccccc3[C@H]1C[N@H+](CCO)C2)c1ccc(-c2c3nc(c(-c4cc(S(=O)(=O)[O-])ccc4F)c4ccc([nH]4)c(-c4cc(S(=O)(=O)[O-])ccc4F)c4nc(c(-c5cc(S(=O)(=O)[O-])ccc5F)c5ccc2[nH]5)C=C4)C=C3)cc1
REMARK SMILES IDX 6 1 5 2 4 3 3 4 2 5 1 6 28 7 29 8 90 9 30 10 89 11 31 12
REMARK SMILES IDX 32 13 33 14 83 15 34 16 88 17 82 18 84 19 35 20 87 21 81 22
REMARK SMILES IDX 80 23 36 25 68 26 48 27 67 28 49 29 52 30 66 31 85 32 50 33
REMARK SMILES IDX 51 34 65 36 86 37 53 38 37 39 38 40 46 41 39 42 45 43 47 44
REMARK SMILES IDX 44 45 40 46 41 47 42 48 43 49 69 50 70 51 78 52 71 53 77 54
REMARK SMILES IDX 79 55 76 56 72 57 73 58 74 59 75 60 54 61 55 62 63 63 56 64
REMARK SMILES IDX 62 65 64 66 61 67 57 68 58 69 59 70 60 71 7 72 8 73 9 74
REMARK SMILES IDX 10 75 11 76 12 77 13 78 21 79 27 80 14 81 20 82 22 83 23 84
REMARK SMILES IDX 15 85 19 86 16 88 18 89 17 90 24 91 25 92 26 93
REMARK H PARENT 84 24 52 35 23 87 26 94
REMARK Flexibility Score: inf
ROOT
ATOM      1  O   UNL A   1      32.179  30.401  25.937  1.00  0.00    -0.374 OA
ENDROOT
BRANCH   1   2
ATOM      2  C   UNL A   1      31.380  31.570  26.133  1.00  0.00     0.202 C 
BRANCH   2   3
ATOM      3  C   UNL A   1      31.607  32.605  27.245  1.00  0.00     0.261 C 
BRANCH   3   4
ATOM      4  O   UNL A   1      32.700  33.494  27.053  1.00  0.00    -0.460 OA
BRANCH   4   5
ATOM      5  C   UNL A   1      33.511  33.970  28.026  1.00  0.00     0.338 C 
ATOM      6  O   UNL A   1      33.440  35.164  28.311  1.00  0.00    -0.246 OA
BRANCH   5   7
ATOM      7  C   UNL A   1      34.619  33.147  28.610  1.00  0.00     0.060 A 
ATOM      8  C   UNL A   1      35.921  33.637  28.416  1.00  0.00     0.016 A 
ATOM      9  C   UNL A   1      34.474  31.936  29.291  1.00  0.00     0.016 A 
ATOM     10  C   UNL A   1      37.031  32.916  28.857  1.00  0.00     0.010 A 
ATOM     11  C   UNL A   1      35.567  31.184  29.686  1.00  0.00     0.010 A 
ATOM     12  C   UNL A   1      36.847  31.681  29.485  1.00  0.00    -0.014 A 
BRANCH  12  13
ATOM     13  C   UNL A   1      37.942  30.982  30.164  1.00  0.00     0.031 A 
ATOM     14  C   UNL A   1      38.746  29.946  29.455  1.00  0.00     0.074 A 
ATOM     15  C   UNL A   1      38.059  31.216  31.483  1.00  0.00     0.049 A 
ATOM     16  N   UNL A   1      39.798  29.310  29.884  1.00  0.00    -0.248 NA
ATOM     17  C   UNL A   1      38.304  29.551  28.108  1.00  0.00     0.031 C 
ATOM     18  C   UNL A   1      37.177  32.107  32.247  1.00  0.00     0.029 A 
ATOM     19  N   UNL A   1      38.926  30.725  32.414  1.00  0.00    -0.354 N 
ATOM     20  C   UNL A   1      40.171  28.461  28.852  1.00  0.00     0.074 A 
ATOM     21  C   UNL A   1      39.193  28.612  27.799  1.00  0.00     0.031 C 
ATOM     22  C   UNL A   1      37.572  32.122  33.526  1.00  0.00     0.029 A 
ATOM     23  C   UNL A   1      38.731  31.250  33.670  1.00  0.00     0.049 A 
ATOM     24  H   UNL A   1      39.624  30.062  32.209  1.00  0.00     0.167 HD
ATOM     25  C   UNL A   1      41.256  27.654  28.809  1.00  0.00     0.034 A 
ATOM     26  C   UNL A   1      39.444  31.077  34.798  1.00  0.00     0.034 A 
ATOM     27  C   UNL A   1      42.172  27.536  29.917  1.00  0.00     0.049 A 
ATOM     28  C   UNL A   1      40.690  30.243  34.695  1.00  0.00     0.074 A 
ATOM     29  C   UNL A   1      43.354  26.823  29.981  1.00  0.00     0.029 A 
ATOM     30  N   UNL A   1      41.999  28.138  31.158  1.00  0.00    -0.354 N 
ATOM     31  N   UNL A   1      41.148  29.577  33.659  1.00  0.00    -0.248 NA
ATOM     32  C   UNL A   1      41.544  30.168  35.883  1.00  0.00     0.031 C 
ATOM     33  C   UNL A   1      43.851  26.928  31.280  1.00  0.00     0.029 A 
ATOM     34  C   UNL A   1      43.040  27.792  32.001  1.00  0.00     0.049 A 
ATOM     35  H   UNL A   1      41.247  28.723  31.402  1.00  0.00     0.167 HD
ATOM     36  C   UNL A   1      42.367  29.041  34.054  1.00  0.00     0.074 A 
ATOM     37  C   UNL A   1      42.579  29.478  35.420  1.00  0.00     0.031 C 
ATOM     38  C   UNL A   1      43.232  28.264  33.354  1.00  0.00     0.034 A 
BRANCH  25  39
ATOM     39  C   UNL A   1      41.562  26.878  27.550  1.00  0.00     0.023 A 
ATOM     40  C   UNL A   1      41.366  25.484  27.515  1.00  0.00     0.031 A 
ATOM     41  C   UNL A   1      42.218  27.481  26.461  1.00  0.00     0.131 A 
ATOM     42  C   UNL A   1      41.879  24.733  26.449  1.00  0.00     0.055 A 
ATOM     43  C   UNL A   1      42.683  26.733  25.376  1.00  0.00     0.041 A 
ATOM     44  F   UNL A   1      42.435  28.805  26.441  1.00  0.00    -0.206 F 
ATOM     45  C   UNL A   1      42.529  25.350  25.377  1.00  0.00     0.022 A 
BRANCH  42  46
ATOM     46  S   UNL A   1      41.800  22.920  26.457  1.00  0.00     0.124 S 
ATOM     47  O   UNL A   1      40.360  22.680  26.502  1.00  0.00    -0.237 OA
ATOM     48  O   UNL A   1      42.450  22.583  25.194  1.00  0.00    -0.237 OA
ATOM     49  O   UNL A   1      42.528  22.544  27.664  1.00  0.00    -0.744 OA
ENDBRANCH  42  46
ENDBRANCH  25  39
BRANCH  26  50
ATOM     50  C   UNL A   1      39.069  31.853  36.013  1.00  0.00     0.023 A 
ATOM     51  C   UNL A   1      38.311  31.268  37.045  1.00  0.00     0.031 A 
ATOM     52  C   UNL A   1      39.321  33.234  36.083  1.00  0.00     0.131 A 
ATOM     53  C   UNL A   1      37.782  32.073  38.065  1.00  0.00     0.055 A 
ATOM     54  C   UNL A   1      38.854  34.018  37.138  1.00  0.00     0.041 A 
ATOM     55  F   UNL A   1      40.004  33.847  35.103  1.00  0.00    -0.206 F 
ATOM     56  C   UNL A   1      38.065  33.441  38.128  1.00  0.00     0.022 A 
BRANCH  53  57
ATOM     57  S   UNL A   1      36.579  31.403  39.248  1.00  0.00     0.124 S 
ATOM     58  O   UNL A   1      37.341  31.412  40.493  1.00  0.00    -0.237 OA
ATOM     59  O   UNL A   1      35.497  32.381  39.164  1.00  0.00    -0.237 OA
ATOM     60  O   UNL A   1      36.262  30.085  38.708  1.00  0.00    -0.744 OA
ENDBRANCH  53  57
ENDBRANCH  26  50
BRANCH  38  61
ATOM     61  C   UNL A   1      44.514  27.845  34.028  1.00  0.00     0.023 A 
ATOM     62  C   UNL A   1      44.532  26.673  34.809  1.00  0.00     0.031 A 
ATOM     63  C   UNL A   1      45.651  28.670  34.036  1.00  0.00     0.131 A 
ATOM     64  C   UNL A   1      45.645  26.385  35.604  1.00  0.00     0.055 A 
ATOM     65  C   UNL A   1      46.784  28.344  34.780  1.00  0.00     0.041 A 
ATOM     66  F   UNL A   1      45.674  29.807  33.323  1.00  0.00    -0.206 F 
ATOM     67  C   UNL A   1      46.777  27.206  35.582  1.00  0.00     0.022 A 
BRANCH  64  68
ATOM     68  S   UNL A   1      45.618  25.003  36.778  1.00  0.00     0.124 S 
ATOM     69  O   UNL A   1      46.395  25.541  37.892  1.00  0.00    -0.237 OA
ATOM     70  O   UNL A   1      44.189  24.845  37.033  1.00  0.00    -0.237 OA
ATOM     71  O   UNL A   1      46.250  23.908  36.049  1.00  0.00    -0.744 OA
ENDBRANCH  64  68
ENDBRANCH  38  61
ENDBRANCH  12  13
ENDBRANCH   5   7
ENDBRANCH   4   5
ENDBRANCH   3   4
ENDBRANCH   2   3
ENDBRANCH   1   2
BRANCH   1  72
ATOM     72  C   UNL A   1      32.800  29.726  27.032  1.00  0.00     0.202 C 
BRANCH  72  73
ATOM     73  C   UNL A   1      34.115  29.011  26.642  1.00  0.00     0.261 C 
BRANCH  73  74
ATOM     74  O   UNL A   1      33.984  28.383  25.347  1.00  0.00    -0.463 OA
BRANCH  74  75
ATOM     75  C   UNL A   1      33.397  27.149  25.294  1.00  0.00     0.322 C 
ATOM     76  O   UNL A   1      33.262  26.438  26.282  1.00  0.00    -0.251 OA
BRANCH  75  77
ATOM     77  C   UNL A   1      32.928  26.814  23.883  1.00  0.00     0.162 C 
ATOM     78  C   UNL A   1      33.265  28.064  23.042  1.00  0.00     0.255 C 
ATOM     79  C   UNL A   1      31.480  26.378  23.670  1.00  0.00     0.105 C 
ATOM     80  C   UNL A   1      33.578  25.440  23.564  1.00  0.00     0.285 C 
ATOM     81  O   UNL A   1      32.237  29.021  22.749  1.00  0.00    -0.492 OA
ATOM     82  C   UNL A   1      30.501  27.465  23.390  1.00  0.00     0.004 A 
ATOM     83  C   UNL A   1      31.551  25.449  22.425  1.00  0.00     0.272 C 
ATOM     84  N   UNL A   1      32.901  24.897  22.401  1.00  0.00    -0.331 N 
ATOM     85  C   UNL A   1      30.936  28.693  22.917  1.00  0.00     0.123 A 
ATOM     86  C   UNL A   1      29.124  27.214  23.499  1.00  0.00     0.008 A 
ATOM     87  H   UNL A   1      33.372  25.185  21.543  1.00  0.00     0.348 HD
ATOM     88  C   UNL A   1      30.008  29.674  22.568  1.00  0.00     0.047 A 
ATOM     89  C   UNL A   1      28.197  28.195  23.153  1.00  0.00     0.001 A 
ATOM     90  C   UNL A   1      28.640  29.431  22.691  1.00  0.00     0.004 A 
BRANCH  84  91
ATOM     91  C   UNL A   1      32.997  23.437  22.252  1.00  0.00     0.290 C 
BRANCH  91  92
ATOM     92  C   UNL A   1      32.284  22.525  23.276  1.00  0.00     0.217 C 
BRANCH  92  93
ATOM     93  O   UNL A   1      32.163  21.182  22.824  1.00  0.00    -0.391 OA
ATOM     94  H   UNL A   1      32.175  21.165  21.854  1.00  0.00     0.210 HD
ENDBRANCH  92  93
ENDBRANCH  91  92
ENDBRANCH  84  91
ENDBRANCH  75  77
ENDBRANCH  74  75
ENDBRANCH  73  74
ENDBRANCH  72  73
ENDBRANCH   1  72
TORSDOF 20
ENDMDL
