MODEL 1
REMARK VINA RESULT:     -10.8      0.000      0.000
REMARK SMILES CC(C)[NH2+][C@@]1(C(=O)OCCOCCOC(=O)c2ccc(-c3c4nc(c(-c5cc(S(=O)(=O)[O-])ccc5F)c5ccc([nH]5)c(-c5cc(S(=O)(=O)[O-])ccc5F)c5nc(c(-c6cc(S(=O)(=O)[O-])ccc6F)c6ccc3[nH]6)C=C5)C=C4)cc2)CCC[C@@H]1CCOC1CCOCC1
REMARK SMILES IDX 10 1 9 2 8 3 6 4 7 5 5 6 80 7 83 8 81 9 82 10 4 11 2 14 1 15
REMARK SMILES IDX 3 16 84 17 85 18 86 19 87 20 88 21 92 22 89 23 91 24 90 25
REMARK SMILES IDX 11 26 12 27 13 28 14 29 15 30 16 31 17 32 18 33 79 34 19 35
REMARK SMILES IDX 78 36 20 37 21 38 22 39 72 40 23 41 77 42 71 43 73 44 24 45
REMARK SMILES IDX 76 46 70 47 69 48 25 50 57 51 37 52 56 53 38 54 41 55 55 56
REMARK SMILES IDX 74 57 39 58 40 59 54 61 75 62 42 63 26 64 27 65 35 66 28 67
REMARK SMILES IDX 34 68 36 69 33 70 29 71 30 72 31 73 32 74 58 75 59 76 67 77
REMARK SMILES IDX 60 78 66 79 68 80 65 81 61 82 62 83 63 84 64 85 43 86 44 87
REMARK SMILES IDX 52 88 45 89 51 90 53 91 50 92 46 93 47 94 48 95 49 96
REMARK H PARENT 4 12 4 13 73 49 41 60
REMARK Flexibility Score: inf
ROOT
ATOM      1  C   UNL A   1      33.345  28.350  24.838  1.00  0.00     0.202 C 
ENDROOT
BRANCH   1   2
ATOM      2  C   UNL A   1      32.759  27.086  24.217  1.00  0.00     0.261 C 
BRANCH   2   3
ATOM      3  O   UNL A   1      33.678  25.989  24.297  1.00  0.00    -0.459 OA
BRANCH   3   4
ATOM      4  C   UNL A   1      33.125  24.802  24.648  1.00  0.00     0.368 C 
ATOM      5  O   UNL A   1      32.050  24.708  25.236  1.00  0.00    -0.245 OA
BRANCH   4   6
ATOM      6  C   UNL A   1      34.014  23.554  24.290  1.00  0.00     0.197 C 
ATOM      7  C   UNL A   1      34.505  23.831  22.847  1.00  0.00     0.081 C 
ATOM      8  C   UNL A   1      33.277  22.185  23.976  1.00  0.00     0.065 C 
ATOM      9  C   UNL A   1      33.277  23.541  21.974  1.00  0.00     0.008 C 
ATOM     10  C   UNL A   1      32.385  22.605  22.794  1.00  0.00     0.011 C 
BRANCH   6  11
ATOM     11  N   UNL A   1      35.119  23.357  25.270  1.00  0.00    -0.330 N 
ATOM     12  H   UNL A   1      35.282  24.254  25.727  1.00  0.00     0.347 HD
ATOM     13  H   UNL A   1      34.790  22.604  25.875  1.00  0.00     0.347 HD
BRANCH  11  14
ATOM     14  C   UNL A   1      36.423  22.879  24.765  1.00  0.00     0.176 C 
ATOM     15  C   UNL A   1      37.538  23.524  25.598  1.00  0.00     0.075 C 
ATOM     16  C   UNL A   1      36.621  21.360  24.819  1.00  0.00     0.075 C 
ENDBRANCH  11  14
ENDBRANCH   6  11
BRANCH   8  17
ATOM     17  C   UNL A   1      32.632  21.400  25.140  1.00  0.00     0.039 C 
BRANCH  17  18
ATOM     18  C   UNL A   1      32.508  19.853  25.081  1.00  0.00     0.161 C 
BRANCH  18  19
ATOM     19  O   UNL A   1      33.626  19.058  24.649  1.00  0.00    -0.378 OA
BRANCH  19  20
ATOM     20  C   UNL A   1      33.757  17.749  25.184  1.00  0.00     0.122 C 
ATOM     21  C   UNL A   1      34.787  16.886  24.476  1.00  0.00     0.060 C 
ATOM     22  C   UNL A   1      32.460  16.935  25.089  1.00  0.00     0.060 C 
ATOM     23  C   UNL A   1      35.023  15.681  25.354  1.00  0.00     0.163 C 
ATOM     24  C   UNL A   1      32.667  15.566  25.757  1.00  0.00     0.163 C 
ATOM     25  O   UNL A   1      33.847  14.876  25.326  1.00  0.00    -0.381 OA
ENDBRANCH  19  20
ENDBRANCH  18  19
ENDBRANCH  17  18
ENDBRANCH   8  17
ENDBRANCH   4   6
ENDBRANCH   3   4
ENDBRANCH   2   3
ENDBRANCH   1   2
BRANCH   1  26
ATOM     26  O   UNL A   1      32.616  29.559  24.651  1.00  0.00    -0.374 OA
BRANCH  26  27
ATOM     27  C   UNL A   1      31.585  29.868  25.595  1.00  0.00     0.202 C 
BRANCH  27  28
ATOM     28  C   UNL A   1      31.807  31.076  26.520  1.00  0.00     0.261 C 
BRANCH  28  29
ATOM     29  O   UNL A   1      32.898  30.882  27.448  1.00  0.00    -0.460 OA
BRANCH  29  30
ATOM     30  C   UNL A   1      33.662  31.983  27.667  1.00  0.00     0.338 C 
ATOM     31  O   UNL A   1      33.263  33.124  27.816  1.00  0.00    -0.246 OA
BRANCH  30  32
ATOM     32  C   UNL A   1      35.059  31.595  27.961  1.00  0.00     0.060 A 
ATOM     33  C   UNL A   1      35.290  30.244  28.247  1.00  0.00     0.016 A 
ATOM     34  C   UNL A   1      36.094  32.526  28.074  1.00  0.00     0.016 A 
ATOM     35  C   UNL A   1      36.530  29.829  28.721  1.00  0.00     0.010 A 
ATOM     36  C   UNL A   1      37.344  32.105  28.559  1.00  0.00     0.010 A 
ATOM     37  C   UNL A   1      37.550  30.763  28.936  1.00  0.00    -0.014 A 
BRANCH  37  38
ATOM     38  C   UNL A   1      38.728  30.336  29.740  1.00  0.00     0.031 A 
ATOM     39  C   UNL A   1      38.841  30.799  31.173  1.00  0.00     0.074 A 
ATOM     40  C   UNL A   1      39.611  29.442  29.255  1.00  0.00     0.049 A 
ATOM     41  N   UNL A   1      39.723  30.477  32.084  1.00  0.00    -0.248 NA
ATOM     42  C   UNL A   1      37.818  31.748  31.637  1.00  0.00     0.031 C 
ATOM     43  C   UNL A   1      39.576  28.873  27.909  1.00  0.00     0.029 A 
ATOM     44  N   UNL A   1      40.694  28.839  29.847  1.00  0.00    -0.354 N 
ATOM     45  C   UNL A   1      39.360  31.180  33.231  1.00  0.00     0.074 A 
ATOM     46  C   UNL A   1      38.208  31.983  32.880  1.00  0.00     0.031 C 
ATOM     47  C   UNL A   1      40.583  27.990  27.783  1.00  0.00     0.029 A 
ATOM     48  C   UNL A   1      41.356  27.958  29.023  1.00  0.00     0.049 A 
ATOM     49  H   UNL A   1      40.970  29.020  30.774  1.00  0.00     0.167 HD
ATOM     50  C   UNL A   1      39.923  31.148  34.465  1.00  0.00     0.034 A 
ATOM     51  C   UNL A   1      42.465  27.220  29.239  1.00  0.00     0.034 A 
ATOM     52  C   UNL A   1      41.076  30.348  34.802  1.00  0.00     0.049 A 
ATOM     53  C   UNL A   1      43.129  27.270  30.595  1.00  0.00     0.074 A 
ATOM     54  C   UNL A   1      41.719  30.238  36.023  1.00  0.00     0.029 A 
ATOM     55  N   UNL A   1      41.768  29.530  33.918  1.00  0.00    -0.354 N 
ATOM     56  N   UNL A   1      42.770  27.936  31.670  1.00  0.00    -0.248 NA
ATOM     57  C   UNL A   1      44.339  26.456  30.770  1.00  0.00     0.031 C 
ATOM     58  C   UNL A   1      42.846  29.425  35.856  1.00  0.00     0.029 A 
ATOM     59  C   UNL A   1      42.853  28.945  34.556  1.00  0.00     0.049 A 
ATOM     60  H   UNL A   1      41.523  29.385  32.976  1.00  0.00     0.167 HD
ATOM     61  C   UNL A   1      43.692  27.591  32.656  1.00  0.00     0.074 A 
ATOM     62  C   UNL A   1      44.608  26.645  32.053  1.00  0.00     0.031 C 
ATOM     63  C   UNL A   1      43.773  28.014  33.945  1.00  0.00     0.034 A 
BRANCH  50  64
ATOM     64  C   UNL A   1      39.331  32.050  35.523  1.00  0.00     0.023 A 
ATOM     65  C   UNL A   1      39.734  33.390  35.673  1.00  0.00     0.031 A 
ATOM     66  C   UNL A   1      38.362  31.554  36.413  1.00  0.00     0.131 A 
ATOM     67  C   UNL A   1      39.223  34.161  36.730  1.00  0.00     0.055 A 
ATOM     68  C   UNL A   1      37.795  32.352  37.408  1.00  0.00     0.041 A 
ATOM     69  F   UNL A   1      37.954  30.277  36.336  1.00  0.00    -0.206 F 
ATOM     70  C   UNL A   1      38.235  33.660  37.581  1.00  0.00     0.022 A 
BRANCH  67  71
ATOM     71  S   UNL A   1      39.976  35.776  37.070  1.00  0.00     0.124 S 
ATOM     72  O   UNL A   1      41.380  35.416  37.244  1.00  0.00    -0.237 OA
ATOM     73  O   UNL A   1      39.654  36.534  35.865  1.00  0.00    -0.237 OA
ATOM     74  O   UNL A   1      39.299  36.220  38.287  1.00  0.00    -0.744 OA
ENDBRANCH  67  71
ENDBRANCH  50  64
BRANCH  51  75
ATOM     75  C   UNL A   1      43.050  26.395  28.140  1.00  0.00     0.023 A 
ATOM     76  C   UNL A   1      44.182  26.817  27.426  1.00  0.00     0.031 A 
ATOM     77  C   UNL A   1      42.433  25.194  27.742  1.00  0.00     0.131 A 
ATOM     78  C   UNL A   1      44.632  26.073  26.323  1.00  0.00     0.055 A 
ATOM     79  C   UNL A   1      42.920  24.427  26.684  1.00  0.00     0.041 A 
ATOM     80  F   UNL A   1      41.342  24.746  28.384  1.00  0.00    -0.206 F 
ATOM     81  C   UNL A   1      44.019  24.872  25.958  1.00  0.00     0.022 A 
BRANCH  78  82
ATOM     82  S   UNL A   1      45.975  26.748  25.305  1.00  0.00     0.124 S 
ATOM     83  O   UNL A   1      46.433  25.560  24.594  1.00  0.00    -0.237 OA
ATOM     84  O   UNL A   1      45.274  27.747  24.504  1.00  0.00    -0.237 OA
ATOM     85  O   UNL A   1      46.909  27.286  26.291  1.00  0.00    -0.744 OA
ENDBRANCH  78  82
ENDBRANCH  51  75
BRANCH  63  86
ATOM     86  C   UNL A   1      44.867  27.414  34.802  1.00  0.00     0.023 A 
ATOM     87  C   UNL A   1      44.675  26.224  35.527  1.00  0.00     0.031 A 
ATOM     88  C   UNL A   1      46.111  28.061  34.918  1.00  0.00     0.131 A 
ATOM     89  C   UNL A   1      45.680  25.762  36.392  1.00  0.00     0.055 A 
ATOM     90  C   UNL A   1      47.134  27.554  35.721  1.00  0.00     0.041 A 
ATOM     91  F   UNL A   1      46.354  29.203  34.255  1.00  0.00    -0.206 F 
ATOM     92  C   UNL A   1      46.915  26.408  36.479  1.00  0.00     0.022 A 
BRANCH  89  93
ATOM     93  S   UNL A   1      45.302  24.375  37.500  1.00  0.00     0.124 S 
ATOM     94  O   UNL A   1      44.240  24.933  38.332  1.00  0.00    -0.237 OA
ATOM     95  O   UNL A   1      44.899  23.330  36.566  1.00  0.00    -0.237 OA
ATOM     96  O   UNL A   1      46.568  24.134  38.191  1.00  0.00    -0.744 OA
ENDBRANCH  89  93
ENDBRANCH  63  86
ENDBRANCH  37  38
ENDBRANCH  30  32
ENDBRANCH  29  30
ENDBRANCH  28  29
ENDBRANCH  27  28
ENDBRANCH  26  27
ENDBRANCH   1  26
TORSDOF 23
ENDMDL
MODEL 2
REMARK VINA RESULT:     -10.4      2.176      7.826
REMARK SMILES CC(C)[NH2+][C@@]1(C(=O)OCCOCCOC(=O)c2ccc(-c3c4nc(c(-c5cc(S(=O)(=O)[O-])ccc5F)c5ccc([nH]5)c(-c5cc(S(=O)(=O)[O-])ccc5F)c5nc(c(-c6cc(S(=O)(=O)[O-])ccc6F)c6ccc3[nH]6)C=C5)C=C4)cc2)CCC[C@@H]1CCOC1CCOCC1
REMARK SMILES IDX 10 1 9 2 8 3 6 4 7 5 5 6 80 7 83 8 81 9 82 10 4 11 2 14 1 15
REMARK SMILES IDX 3 16 84 17 85 18 86 19 87 20 88 21 92 22 89 23 91 24 90 25
REMARK SMILES IDX 11 26 12 27 13 28 14 29 15 30 16 31 17 32 18 33 79 34 19 35
REMARK SMILES IDX 78 36 20 37 21 38 22 39 72 40 23 41 77 42 71 43 73 44 24 45
REMARK SMILES IDX 76 46 70 47 69 48 25 50 57 51 37 52 56 53 38 54 41 55 55 56
REMARK SMILES IDX 74 57 39 58 40 59 54 61 75 62 42 63 26 64 27 65 35 66 28 67
REMARK SMILES IDX 34 68 36 69 33 70 29 71 30 72 31 73 32 74 58 75 59 76 67 77
REMARK SMILES IDX 60 78 66 79 68 80 65 81 61 82 62 83 63 84 64 85 43 86 44 87
REMARK SMILES IDX 52 88 45 89 51 90 53 91 50 92 46 93 47 94 48 95 49 96
REMARK H PARENT 4 12 4 13 73 49 41 60
REMARK Flexibility Score: inf
ROOT
ATOM      1  C   UNL A   1      33.711  28.754  26.726  1.00  0.00     0.202 C 
ENDROOT
BRANCH   1   2
ATOM      2  C   UNL A   1      32.990  27.586  26.061  1.00  0.00     0.261 C 
BRANCH   2   3
ATOM      3  O   UNL A   1      33.852  26.448  25.926  1.00  0.00    -0.459 OA
BRANCH   3   4
ATOM      4  C   UNL A   1      33.217  25.253  25.856  1.00  0.00     0.368 C 
ATOM      5  O   UNL A   1      32.153  25.022  26.428  1.00  0.00    -0.245 OA
BRANCH   4   6
ATOM      6  C   UNL A   1      33.994  24.165  25.028  1.00  0.00     0.197 C 
ATOM      7  C   UNL A   1      34.278  24.847  23.666  1.00  0.00     0.081 C 
ATOM      8  C   UNL A   1      33.167  22.939  24.453  1.00  0.00     0.065 C 
ATOM      9  C   UNL A   1      32.924  24.813  22.943  1.00  0.00     0.008 C 
ATOM     10  C   UNL A   1      32.127  23.676  23.590  1.00  0.00     0.011 C 
BRANCH   6  11
ATOM     11  N   UNL A   1      35.223  23.701  25.732  1.00  0.00    -0.330 N 
ATOM     12  H   UNL A   1      35.374  24.328  26.522  1.00  0.00     0.347 HD
ATOM     13  H   UNL A   1      35.028  22.728  25.967  1.00  0.00     0.347 HD
BRANCH  11  14
ATOM     14  C   UNL A   1      36.486  23.647  24.967  1.00  0.00     0.176 C 
ATOM     15  C   UNL A   1      37.656  23.870  25.935  1.00  0.00     0.075 C 
ATOM     16  C   UNL A   1      36.740  22.329  24.227  1.00  0.00     0.075 C 
ENDBRANCH  11  14
ENDBRANCH   6  11
BRANCH   8  17
ATOM     17  C   UNL A   1      32.671  21.850  25.430  1.00  0.00     0.039 C 
BRANCH  17  18
ATOM     18  C   UNL A   1      32.196  20.469  24.903  1.00  0.00     0.161 C 
BRANCH  18  19
ATOM     19  O   UNL A   1      32.459  19.278  25.667  1.00  0.00    -0.378 OA
BRANCH  19  20
ATOM     20  C   UNL A   1      32.769  18.088  24.957  1.00  0.00     0.122 C 
ATOM     21  C   UNL A   1      32.875  16.851  25.832  1.00  0.00     0.060 C 
ATOM     22  C   UNL A   1      34.125  18.158  24.243  1.00  0.00     0.060 C 
ATOM     23  C   UNL A   1      32.882  15.660  24.903  1.00  0.00     0.163 C 
ATOM     24  C   UNL A   1      34.344  16.865  23.441  1.00  0.00     0.163 C 
ATOM     25  O   UNL A   1      34.116  15.664  24.189  1.00  0.00    -0.381 OA
ENDBRANCH  19  20
ENDBRANCH  18  19
ENDBRANCH  17  18
ENDBRANCH   8  17
ENDBRANCH   4   6
ENDBRANCH   3   4
ENDBRANCH   2   3
ENDBRANCH   1   2
BRANCH   1  26
ATOM     26  O   UNL A   1      32.924  29.893  27.060  1.00  0.00    -0.374 OA
BRANCH  26  27
ATOM     27  C   UNL A   1      33.610  31.075  27.487  1.00  0.00     0.202 C 
BRANCH  27  28
ATOM     28  C   UNL A   1      32.866  32.415  27.357  1.00  0.00     0.261 C 
BRANCH  28  29
ATOM     29  O   UNL A   1      33.753  33.556  27.382  1.00  0.00    -0.460 OA
BRANCH  29  30
ATOM     30  C   UNL A   1      33.566  34.401  28.429  1.00  0.00     0.338 C 
ATOM     31  O   UNL A   1      32.617  35.146  28.599  1.00  0.00    -0.246 OA
BRANCH  30  32
ATOM     32  C   UNL A   1      34.552  34.129  29.498  1.00  0.00     0.060 A 
ATOM     33  C   UNL A   1      35.903  34.277  29.161  1.00  0.00     0.016 A 
ATOM     34  C   UNL A   1      34.189  33.630  30.751  1.00  0.00     0.016 A 
ATOM     35  C   UNL A   1      36.896  33.858  30.040  1.00  0.00     0.010 A 
ATOM     36  C   UNL A   1      35.194  33.201  31.635  1.00  0.00     0.010 A 
ATOM     37  C   UNL A   1      36.551  33.264  31.260  1.00  0.00    -0.014 A 
BRANCH  37  38
ATOM     38  C   UNL A   1      37.616  32.542  32.009  1.00  0.00     0.031 A 
ATOM     39  C   UNL A   1      38.329  31.392  31.339  1.00  0.00     0.074 A 
ATOM     40  C   UNL A   1      38.040  32.985  33.208  1.00  0.00     0.049 A 
ATOM     41  N   UNL A   1      39.346  30.685  31.760  1.00  0.00    -0.248 NA
ATOM     42  C   UNL A   1      37.827  30.992  30.016  1.00  0.00     0.031 C 
ATOM     43  C   UNL A   1      37.476  34.122  33.932  1.00  0.00     0.029 A 
ATOM     44  N   UNL A   1      39.060  32.544  34.017  1.00  0.00    -0.354 N 
ATOM     45  C   UNL A   1      39.610  29.759  30.754  1.00  0.00     0.074 A 
ATOM     46  C   UNL A   1      38.611  29.965  29.727  1.00  0.00     0.031 C 
ATOM     47  C   UNL A   1      38.167  34.300  35.072  1.00  0.00     0.029 A 
ATOM     48  C   UNL A   1      39.199  33.270  35.178  1.00  0.00     0.049 A 
ATOM     49  H   UNL A   1      39.638  31.781  33.787  1.00  0.00     0.167 HD
ATOM     50  C   UNL A   1      40.600  28.834  30.683  1.00  0.00     0.034 A 
ATOM     51  C   UNL A   1      40.050  33.114  36.213  1.00  0.00     0.034 A 
ATOM     52  C   UNL A   1      41.588  28.633  31.716  1.00  0.00     0.049 A 
ATOM     53  C   UNL A   1      41.087  32.018  36.153  1.00  0.00     0.074 A 
ATOM     54  C   UNL A   1      42.636  27.730  31.740  1.00  0.00     0.029 A 
ATOM     55  N   UNL A   1      41.645  29.334  32.914  1.00  0.00    -0.354 N 
ATOM     56  N   UNL A   1      41.327  31.155  35.191  1.00  0.00    -0.248 NA
ATOM     57  C   UNL A   1      41.979  31.887  37.312  1.00  0.00     0.031 C 
ATOM     58  C   UNL A   1      43.272  27.825  32.983  1.00  0.00     0.029 A 
ATOM     59  C   UNL A   1      42.685  28.856  33.699  1.00  0.00     0.049 A 
ATOM     60  H   UNL A   1      41.037  30.065  33.169  1.00  0.00     0.167 HD
ATOM     61  C   UNL A   1      42.419  30.403  35.619  1.00  0.00     0.074 A 
ATOM     62  C   UNL A   1      42.802  30.929  36.913  1.00  0.00     0.031 C 
ATOM     63  C   UNL A   1      43.052  29.373  34.997  1.00  0.00     0.034 A 
BRANCH  50  64
ATOM     64  C   UNL A   1      40.624  27.932  29.470  1.00  0.00     0.023 A 
ATOM     65  C   UNL A   1      41.524  28.134  28.408  1.00  0.00     0.031 A 
ATOM     66  C   UNL A   1      39.715  26.865  29.365  1.00  0.00     0.131 A 
ATOM     67  C   UNL A   1      41.446  27.327  27.261  1.00  0.00     0.055 A 
ATOM     68  C   UNL A   1      39.700  26.013  28.260  1.00  0.00     0.041 A 
ATOM     69  F   UNL A   1      38.815  26.637  30.335  1.00  0.00    -0.206 F 
ATOM     70  C   UNL A   1      40.559  26.250  27.192  1.00  0.00     0.022 A 
BRANCH  67  71
ATOM     71  S   UNL A   1      42.416  27.796  25.801  1.00  0.00     0.124 S 
ATOM     72  O   UNL A   1      41.806  29.072  25.440  1.00  0.00    -0.237 OA
ATOM     73  O   UNL A   1      43.773  27.862  26.332  1.00  0.00    -0.237 OA
ATOM     74  O   UNL A   1      42.165  26.706  24.859  1.00  0.00    -0.744 OA
ENDBRANCH  67  71
ENDBRANCH  50  64
BRANCH  51  75
ATOM     75  C   UNL A   1      39.942  33.989  37.419  1.00  0.00     0.023 A 
ATOM     76  C   UNL A   1      39.222  33.590  38.556  1.00  0.00     0.031 A 
ATOM     77  C   UNL A   1      40.507  35.278  37.419  1.00  0.00     0.131 A 
ATOM     78  C   UNL A   1      39.044  34.486  39.623  1.00  0.00     0.055 A 
ATOM     79  C   UNL A   1      40.379  36.143  38.506  1.00  0.00     0.041 A 
ATOM     80  F   UNL A   1      41.200  35.716  36.355  1.00  0.00    -0.206 F 
ATOM     81  C   UNL A   1      39.632  35.753  39.612  1.00  0.00     0.022 A 
BRANCH  78  82
ATOM     82  S   UNL A   1      37.947  34.010  40.988  1.00  0.00     0.124 S 
ATOM     83  O   UNL A   1      37.578  35.308  41.538  1.00  0.00    -0.237 OA
ATOM     84  O   UNL A   1      36.891  33.285  40.287  1.00  0.00    -0.237 OA
ATOM     85  O   UNL A   1      38.803  33.189  41.840  1.00  0.00    -0.744 OA
ENDBRANCH  78  82
ENDBRANCH  51  75
BRANCH  63  86
ATOM     86  C   UNL A   1      44.259  28.782  35.693  1.00  0.00     0.023 A 
ATOM     87  C   UNL A   1      44.148  27.698  36.583  1.00  0.00     0.031 A 
ATOM     88  C   UNL A   1      45.537  29.332  35.485  1.00  0.00     0.131 A 
ATOM     89  C   UNL A   1      45.277  27.251  37.287  1.00  0.00     0.055 A 
ATOM     90  C   UNL A   1      46.670  28.833  36.131  1.00  0.00     0.041 A 
ATOM     91  F   UNL A   1      45.708  30.371  34.651  1.00  0.00    -0.206 F 
ATOM     92  C   UNL A   1      46.540  27.798  37.052  1.00  0.00     0.022 A 
BRANCH  89  93
ATOM     93  S   UNL A   1      45.050  26.030  38.610  1.00  0.00     0.124 S 
ATOM     94  O   UNL A   1      46.419  25.578  38.842  1.00  0.00    -0.237 OA
ATOM     95  O   UNL A   1      44.454  26.830  39.674  1.00  0.00    -0.237 OA
ATOM     96  O   UNL A   1      44.163  25.036  38.010  1.00  0.00    -0.744 OA
ENDBRANCH  89  93
ENDBRANCH  63  86
ENDBRANCH  37  38
ENDBRANCH  30  32
ENDBRANCH  29  30
ENDBRANCH  28  29
ENDBRANCH  27  28
ENDBRANCH  26  27
ENDBRANCH   1  26
TORSDOF 23
ENDMDL
MODEL 3
REMARK VINA RESULT:      -9.5      1.728      7.539
REMARK SMILES CC(C)[NH2+][C@@]1(C(=O)OCCOCCOC(=O)c2ccc(-c3c4nc(c(-c5cc(S(=O)(=O)[O-])ccc5F)c5ccc([nH]5)c(-c5cc(S(=O)(=O)[O-])ccc5F)c5nc(c(-c6cc(S(=O)(=O)[O-])ccc6F)c6ccc3[nH]6)C=C5)C=C4)cc2)CCC[C@@H]1CCOC1CCOCC1
REMARK SMILES IDX 10 1 9 2 8 3 6 4 7 5 5 6 80 7 83 8 81 9 82 10 4 11 2 14 1 15
REMARK SMILES IDX 3 16 84 17 85 18 86 19 87 20 88 21 92 22 89 23 91 24 90 25
REMARK SMILES IDX 11 26 12 27 13 28 14 29 15 30 16 31 17 32 18 33 79 34 19 35
REMARK SMILES IDX 78 36 20 37 21 38 22 39 72 40 23 41 77 42 71 43 73 44 24 45
REMARK SMILES IDX 76 46 70 47 69 48 25 50 57 51 37 52 56 53 38 54 41 55 55 56
REMARK SMILES IDX 74 57 39 58 40 59 54 61 75 62 42 63 26 64 27 65 35 66 28 67
REMARK SMILES IDX 34 68 36 69 33 70 29 71 30 72 31 73 32 74 58 75 59 76 67 77
REMARK SMILES IDX 60 78 66 79 68 80 65 81 61 82 62 83 63 84 64 85 43 86 44 87
REMARK SMILES IDX 52 88 45 89 51 90 53 91 50 92 46 93 47 94 48 95 49 96
REMARK H PARENT 4 12 4 13 73 49 41 60
REMARK Flexibility Score: inf
ROOT
ATOM      1  C   UNL A   1      32.627  28.477  26.006  1.00  0.00     0.202 C 
ENDROOT
BRANCH   1   2
ATOM      2  C   UNL A   1      32.296  27.318  25.070  1.00  0.00     0.261 C 
BRANCH   2   3
ATOM      3  O   UNL A   1      33.340  26.334  25.067  1.00  0.00    -0.459 OA
BRANCH   3   4
ATOM      4  C   UNL A   1      32.979  25.115  25.537  1.00  0.00     0.368 C 
ATOM      5  O   UNL A   1      32.154  24.957  26.434  1.00  0.00    -0.245 OA
BRANCH   4   6
ATOM      6  C   UNL A   1      33.759  23.921  24.876  1.00  0.00     0.197 C 
ATOM      7  C   UNL A   1      33.949  24.354  23.400  1.00  0.00     0.081 C 
ATOM      8  C   UNL A   1      32.956  22.586  24.576  1.00  0.00     0.065 C 
ATOM      9  C   UNL A   1      32.564  24.147  22.771  1.00  0.00     0.008 C 
ATOM     10  C   UNL A   1      31.847  23.121  23.653  1.00  0.00     0.011 C 
BRANCH   6  11
ATOM     11  N   UNL A   1      35.039  23.630  25.582  1.00  0.00    -0.330 N 
ATOM     12  H   UNL A   1      35.184  24.375  26.264  1.00  0.00     0.347 HD
ATOM     13  H   UNL A   1      34.909  22.694  25.967  1.00  0.00     0.347 HD
BRANCH  11  14
ATOM     14  C   UNL A   1      36.273  23.526  24.776  1.00  0.00     0.176 C 
ATOM     15  C   UNL A   1      37.464  23.948  25.647  1.00  0.00     0.075 C 
ATOM     16  C   UNL A   1      36.572  22.128  24.226  1.00  0.00     0.075 C 
ENDBRANCH  11  14
ENDBRANCH   6  11
BRANCH   8  17
ATOM     17  C   UNL A   1      32.552  21.676  25.757  1.00  0.00     0.039 C 
BRANCH  17  18
ATOM     18  C   UNL A   1      33.101  20.228  25.866  1.00  0.00     0.161 C 
BRANCH  18  19
ATOM     19  O   UNL A   1      32.956  19.319  24.760  1.00  0.00    -0.378 OA
BRANCH  19  20
ATOM     20  C   UNL A   1      33.371  17.974  24.946  1.00  0.00     0.122 C 
ATOM     21  C   UNL A   1      33.816  17.276  23.673  1.00  0.00     0.060 C 
ATOM     22  C   UNL A   1      32.252  17.076  25.491  1.00  0.00     0.060 C 
ATOM     23  C   UNL A   1      34.513  16.004  24.093  1.00  0.00     0.163 C 
ATOM     24  C   UNL A   1      32.806  15.663  25.735  1.00  0.00     0.163 C 
ATOM     25  O   UNL A   1      33.532  15.118  24.627  1.00  0.00    -0.381 OA
ENDBRANCH  19  20
ENDBRANCH  18  19
ENDBRANCH  17  18
ENDBRANCH   8  17
ENDBRANCH   4   6
ENDBRANCH   3   4
ENDBRANCH   2   3
ENDBRANCH   1   2
BRANCH   1  26
ATOM     26  O   UNL A   1      31.598  29.434  26.236  1.00  0.00    -0.374 OA
BRANCH  26  27
ATOM     27  C   UNL A   1      31.922  30.817  26.055  1.00  0.00     0.202 C 
BRANCH  27  28
ATOM     28  C   UNL A   1      32.229  31.646  27.314  1.00  0.00     0.261 C 
BRANCH  28  29
ATOM     29  O   UNL A   1      32.330  33.062  27.044  1.00  0.00    -0.460 OA
BRANCH  29  30
ATOM     30  C   UNL A   1      33.136  33.748  27.895  1.00  0.00     0.338 C 
ATOM     31  O   UNL A   1      32.866  34.785  28.473  1.00  0.00    -0.246 OA
BRANCH  30  32
ATOM     32  C   UNL A   1      34.326  32.942  28.245  1.00  0.00     0.060 A 
ATOM     33  C   UNL A   1      34.112  31.826  29.064  1.00  0.00     0.016 A 
ATOM     34  C   UNL A   1      35.624  33.318  27.891  1.00  0.00     0.016 A 
ATOM     35  C   UNL A   1      35.191  31.129  29.596  1.00  0.00     0.010 A 
ATOM     36  C   UNL A   1      36.713  32.615  28.436  1.00  0.00     0.010 A 
ATOM     37  C   UNL A   1      36.500  31.551  29.334  1.00  0.00    -0.014 A 
BRANCH  37  38
ATOM     38  C   UNL A   1      37.594  30.990  30.175  1.00  0.00     0.031 A 
ATOM     39  C   UNL A   1      38.538  29.981  29.568  1.00  0.00     0.074 A 
ATOM     40  C   UNL A   1      37.832  31.470  31.411  1.00  0.00     0.049 A 
ATOM     41  N   UNL A   1      39.612  29.434  30.077  1.00  0.00    -0.248 NA
ATOM     42  C   UNL A   1      38.228  29.535  28.201  1.00  0.00     0.031 C 
ATOM     43  C   UNL A   1      37.031  32.489  32.086  1.00  0.00     0.029 A 
ATOM     44  N   UNL A   1      38.831  31.179  32.308  1.00  0.00    -0.354 N 
ATOM     45  C   UNL A   1      40.110  28.582  29.094  1.00  0.00     0.074 A 
ATOM     46  C   UNL A   1      39.188  28.650  27.980  1.00  0.00     0.031 C 
ATOM     47  C   UNL A   1      37.579  32.750  33.286  1.00  0.00     0.029 A 
ATOM     48  C   UNL A   1      38.747  31.893  33.482  1.00  0.00     0.049 A 
ATOM     49  H   UNL A   1      39.541  30.521  32.128  1.00  0.00     0.167 HD
ATOM     50  C   UNL A   1      41.236  27.826  29.110  1.00  0.00     0.034 A 
ATOM     51  C   UNL A   1      39.514  31.852  34.591  1.00  0.00     0.034 A 
ATOM     52  C   UNL A   1      42.145  27.762  30.230  1.00  0.00     0.049 A 
ATOM     53  C   UNL A   1      40.714  30.934  34.620  1.00  0.00     0.074 A 
ATOM     54  C   UNL A   1      43.317  27.034  30.345  1.00  0.00     0.029 A 
ATOM     55  N   UNL A   1      41.981  28.438  31.432  1.00  0.00    -0.354 N 
ATOM     56  N   UNL A   1      41.173  30.139  33.680  1.00  0.00    -0.248 NA
ATOM     57  C   UNL A   1      41.506  30.921  35.857  1.00  0.00     0.031 C 
ATOM     58  C   UNL A   1      43.814  27.203  31.643  1.00  0.00     0.029 A 
ATOM     59  C   UNL A   1      43.009  28.113  32.307  1.00  0.00     0.049 A 
ATOM     60  H   UNL A   1      41.245  29.059  31.634  1.00  0.00     0.167 HD
ATOM     61  C   UNL A   1      42.328  29.559  34.203  1.00  0.00     0.074 A 
ATOM     62  C   UNL A   1      42.503  30.112  35.530  1.00  0.00     0.031 C 
ATOM     63  C   UNL A   1      43.170  28.655  33.637  1.00  0.00     0.034 A 
BRANCH  50  64
ATOM     64  C   UNL A   1      41.513  26.965  27.899  1.00  0.00     0.023 A 
ATOM     65  C   UNL A   1      41.261  25.581  27.894  1.00  0.00     0.031 A 
ATOM     66  C   UNL A   1      42.062  27.535  26.737  1.00  0.00     0.131 A 
ATOM     67  C   UNL A   1      41.622  24.807  26.779  1.00  0.00     0.055 A 
ATOM     68  C   UNL A   1      42.338  26.774  25.600  1.00  0.00     0.041 A 
ATOM     69  F   UNL A   1      42.348  28.846  26.689  1.00  0.00    -0.206 F 
ATOM     70  C   UNL A   1      42.133  25.399  25.621  1.00  0.00     0.022 A 
BRANCH  67  71
ATOM     71  S   UNL A   1      41.554  22.999  26.917  1.00  0.00     0.124 S 
ATOM     72  O   UNL A   1      42.118  22.584  25.635  1.00  0.00    -0.237 OA
ATOM     73  O   UNL A   1      42.379  22.742  28.092  1.00  0.00    -0.237 OA
ATOM     74  O   UNL A   1      40.128  22.722  27.081  1.00  0.00    -0.744 OA
ENDBRANCH  67  71
ENDBRANCH  50  64
BRANCH  51  75
ATOM     75  C   UNL A   1      39.160  32.674  35.786  1.00  0.00     0.023 A 
ATOM     76  C   UNL A   1      39.674  33.967  35.968  1.00  0.00     0.031 A 
ATOM     77  C   UNL A   1      38.350  32.140  36.806  1.00  0.00     0.131 A 
ATOM     78  C   UNL A   1      39.414  34.663  37.160  1.00  0.00     0.055 A 
ATOM     79  C   UNL A   1      38.043  32.860  37.961  1.00  0.00     0.041 A 
ATOM     80  F   UNL A   1      37.837  30.904  36.689  1.00  0.00    -0.206 F 
ATOM     81  C   UNL A   1      38.589  34.124  38.150  1.00  0.00     0.022 A 
BRANCH  78  82
ATOM     82  S   UNL A   1      40.252  36.248  37.445  1.00  0.00     0.124 S 
ATOM     83  O   UNL A   1      40.426  36.740  36.084  1.00  0.00    -0.237 OA
ATOM     84  O   UNL A   1      39.278  36.961  38.267  1.00  0.00    -0.237 OA
ATOM     85  O   UNL A   1      41.481  35.862  38.134  1.00  0.00    -0.744 OA
ENDBRANCH  78  82
ENDBRANCH  51  75
BRANCH  63  86
ATOM     86  C   UNL A   1      44.387  28.247  34.439  1.00  0.00     0.023 A 
ATOM     87  C   UNL A   1      44.388  27.105  35.260  1.00  0.00     0.031 A 
ATOM     88  C   UNL A   1      45.555  29.031  34.403  1.00  0.00     0.131 A 
ATOM     89  C   UNL A   1      45.501  26.824  36.067  1.00  0.00     0.055 A 
ATOM     90  C   UNL A   1      46.687  28.703  35.150  1.00  0.00     0.041 A 
ATOM     91  F   UNL A   1      45.614  30.135  33.641  1.00  0.00    -0.206 F 
ATOM     92  C   UNL A   1      46.658  27.604  36.003  1.00  0.00     0.022 A 
BRANCH  89  93
ATOM     93  S   UNL A   1      45.370  25.498  37.299  1.00  0.00     0.124 S 
ATOM     94  O   UNL A   1      44.732  24.433  36.531  1.00  0.00    -0.237 OA
ATOM     95  O   UNL A   1      46.764  25.272  37.665  1.00  0.00    -0.237 OA
ATOM     96  O   UNL A   1      44.541  26.086  38.349  1.00  0.00    -0.744 OA
ENDBRANCH  89  93
ENDBRANCH  63  86
ENDBRANCH  37  38
ENDBRANCH  30  32
ENDBRANCH  29  30
ENDBRANCH  28  29
ENDBRANCH  27  28
ENDBRANCH  26  27
ENDBRANCH   1  26
TORSDOF 23
ENDMDL
