MODEL 1
REMARK VINA RESULT:     -10.1      0.000      0.000
REMARK SMILES C[N@H+](CC(C)(C)C(=O)OCCOCCOC(=O)c1ccc(-c2c3nc(c(-c4cc(S(=O)(=O)[O-])ccc4F)c4ccc([nH]4)c(-c4cc(S(=O)(=O)[O-])ccc4F)c4nc(c(-c5cc(S(=O)(=O)[O-])ccc5F)c5ccc2[nH]5)C=C4)C=C3)cc1)[C@@H]1CCCC[C@@H]1C[NH3+]
REMARK SMILES IDX 11 1 10 2 9 3 7 4 8 5 4 6 5 7 6 8 3 9 2 10 1 11 81 13 82 14
REMARK SMILES IDX 86 15 83 16 85 17 84 18 87 19 88 20 12 24 13 25 14 26 15 27
REMARK SMILES IDX 16 28 17 29 18 30 19 31 80 32 20 33 79 34 21 35 22 36 23 37
REMARK SMILES IDX 73 38 24 39 78 40 72 41 74 42 25 43 77 44 71 45 70 46 26 48
REMARK SMILES IDX 58 49 38 50 57 51 39 52 42 53 56 54 75 55 40 56 41 57 55 59
REMARK SMILES IDX 76 60 43 61 27 62 28 63 36 64 29 65 35 66 37 67 34 68 30 69
REMARK SMILES IDX 31 70 32 71 33 72 59 73 60 74 68 75 61 76 67 77 69 78 66 79
REMARK SMILES IDX 62 80 63 81 64 82 65 83 44 84 45 85 53 86 46 87 52 88 54 89
REMARK SMILES IDX 51 90 47 91 48 92 49 93 50 94
REMARK H PARENT 2 12 88 21 88 22 88 23 74 47 42 58
REMARK Flexibility Score: inf
ROOT
ATOM      1  C   UNL A   1      31.566  27.671  26.379  1.00  0.00     0.202 C 
ENDROOT
BRANCH   1   2
ATOM      2  C   UNL A   1      31.132  26.281  25.847  1.00  0.00     0.261 C 
BRANCH   2   3
ATOM      3  O   UNL A   1      32.021  25.602  24.941  1.00  0.00    -0.463 OA
BRANCH   3   4
ATOM      4  C   UNL A   1      31.446  25.402  23.719  1.00  0.00     0.317 C 
ATOM      5  O   UNL A   1      30.253  25.135  23.645  1.00  0.00    -0.251 OA
BRANCH   4   6
ATOM      6  C   UNL A   1      32.441  25.566  22.526  1.00  0.00     0.111 C 
ATOM      7  C   UNL A   1      33.497  26.662  22.804  1.00  0.00     0.029 C 
ATOM      8  C   UNL A   1      31.682  26.083  21.276  1.00  0.00     0.029 C 
BRANCH   6   9
ATOM      9  C   UNL A   1      33.158  24.206  22.165  1.00  0.00     0.280 C 
BRANCH   9  10
ATOM     10  N   UNL A   1      33.567  23.361  23.286  1.00  0.00    -0.334 N 
ATOM     11  C   UNL A   1      32.954  22.036  23.289  1.00  0.00     0.333 C 
ATOM     12  H   UNL A   1      33.126  23.905  24.028  1.00  0.00     0.348 HD
BRANCH  10  13
ATOM     13  C   UNL A   1      34.875  23.505  23.946  1.00  0.00     0.192 C 
ATOM     14  C   UNL A   1      35.857  22.343  23.602  1.00  0.00     0.065 C 
ATOM     15  C   UNL A   1      34.843  23.748  25.492  1.00  0.00     0.102 C 
ATOM     16  C   UNL A   1      37.224  22.424  24.283  1.00  0.00     0.006 C 
ATOM     17  C   UNL A   1      36.281  23.982  25.999  1.00  0.00     0.015 C 
ATOM     18  C   UNL A   1      37.175  22.778  25.761  1.00  0.00     0.001 C 
BRANCH  15  19
ATOM     19  C   UNL A   1      34.130  22.714  26.411  1.00  0.00     0.268 C 
BRANCH  19  20
ATOM     20  N   UNL A   1      34.558  22.629  27.799  1.00  0.00    -0.357 N 
ATOM     21  H   UNL A   1      35.289  23.318  27.972  1.00  0.00     0.344 HD
ATOM     22  H   UNL A   1      34.921  21.694  27.986  1.00  0.00     0.344 HD
ATOM     23  H   UNL A   1      33.763  22.814  28.411  1.00  0.00     0.344 HD
ENDBRANCH  19  20
ENDBRANCH  15  19
ENDBRANCH  10  13
ENDBRANCH   9  10
ENDBRANCH   6   9
ENDBRANCH   4   6
ENDBRANCH   3   4
ENDBRANCH   2   3
ENDBRANCH   1   2
BRANCH   1  24
ATOM     24  O   UNL A   1      31.372  28.862  25.634  1.00  0.00    -0.374 OA
BRANCH  24  25
ATOM     25  C   UNL A   1      32.364  29.874  25.653  1.00  0.00     0.202 C 
BRANCH  25  26
ATOM     26  C   UNL A   1      32.231  31.092  26.576  1.00  0.00     0.261 C 
BRANCH  26  27
ATOM     27  O   UNL A   1      33.025  31.013  27.771  1.00  0.00    -0.460 OA
BRANCH  27  28
ATOM     28  C   UNL A   1      33.869  32.057  27.942  1.00  0.00     0.338 C 
ATOM     29  O   UNL A   1      33.552  33.221  28.175  1.00  0.00    -0.246 OA
BRANCH  28  30
ATOM     30  C   UNL A   1      35.265  31.602  28.039  1.00  0.00     0.060 A 
ATOM     31  C   UNL A   1      35.471  30.222  28.164  1.00  0.00     0.016 A 
ATOM     32  C   UNL A   1      36.340  32.491  28.128  1.00  0.00     0.016 A 
ATOM     33  C   UNL A   1      36.736  29.729  28.457  1.00  0.00     0.010 A 
ATOM     34  C   UNL A   1      37.613  31.992  28.439  1.00  0.00     0.010 A 
ATOM     35  C   UNL A   1      37.800  30.616  28.661  1.00  0.00    -0.014 A 
BRANCH  35  36
ATOM     36  C   UNL A   1      39.020  30.080  29.316  1.00  0.00     0.031 A 
ATOM     37  C   UNL A   1      39.347  30.540  30.714  1.00  0.00     0.074 A 
ATOM     38  C   UNL A   1      39.737  29.101  28.736  1.00  0.00     0.049 A 
ATOM     39  N   UNL A   1      40.277  30.121  31.533  1.00  0.00    -0.248 NA
ATOM     40  C   UNL A   1      38.502  31.613  31.262  1.00  0.00     0.031 C 
ATOM     41  C   UNL A   1      39.479  28.542  27.410  1.00  0.00     0.029 A 
ATOM     42  N   UNL A   1      40.812  28.387  29.200  1.00  0.00    -0.354 N 
ATOM     43  C   UNL A   1      40.124  30.869  32.696  1.00  0.00     0.074 A 
ATOM     44  C   UNL A   1      39.043  31.801  32.456  1.00  0.00     0.031 C 
ATOM     45  C   UNL A   1      40.367  27.561  27.171  1.00  0.00     0.029 A 
ATOM     46  C   UNL A   1      41.267  27.438  28.316  1.00  0.00     0.049 A 
ATOM     47  H   UNL A   1      41.220  28.539  30.083  1.00  0.00     0.167 HD
ATOM     48  C   UNL A   1      40.812  30.779  33.861  1.00  0.00     0.034 A 
ATOM     49  C   UNL A   1      42.294  26.570  28.418  1.00  0.00     0.034 A 
ATOM     50  C   UNL A   1      41.898  29.853  34.078  1.00  0.00     0.049 A 
ATOM     51  C   UNL A   1      43.090  26.534  29.702  1.00  0.00     0.074 A 
ATOM     52  C   UNL A   1      42.670  29.679  35.214  1.00  0.00     0.029 A 
ATOM     53  N   UNL A   1      42.374  28.950  33.136  1.00  0.00    -0.354 N 
ATOM     54  N   UNL A   1      42.931  27.243  30.796  1.00  0.00    -0.248 NA
ATOM     55  C   UNL A   1      44.189  25.563  29.767  1.00  0.00     0.031 C 
ATOM     56  C   UNL A   1      43.655  28.724  34.933  1.00  0.00     0.029 A 
ATOM     57  C   UNL A   1      43.448  28.241  33.652  1.00  0.00     0.049 A 
ATOM     58  H   UNL A   1      42.003  28.832  32.232  1.00  0.00     0.167 HD
ATOM     59  C   UNL A   1      43.894  26.782  31.690  1.00  0.00     0.074 A 
ATOM     60  C   UNL A   1      44.609  25.719  31.014  1.00  0.00     0.031 C 
ATOM     61  C   UNL A   1      44.166  27.197  32.956  1.00  0.00     0.034 A 
BRANCH  48  62
ATOM     62  C   UNL A   1      40.443  31.749  34.960  1.00  0.00     0.023 A 
ATOM     63  C   UNL A   1      39.501  31.425  35.955  1.00  0.00     0.031 A 
ATOM     64  C   UNL A   1      41.013  33.034  34.990  1.00  0.00     0.131 A 
ATOM     65  C   UNL A   1      39.110  32.395  36.891  1.00  0.00     0.055 A 
ATOM     66  C   UNL A   1      40.677  33.968  35.971  1.00  0.00     0.041 A 
ATOM     67  F   UNL A   1      41.897  33.411  34.052  1.00  0.00    -0.206 F 
ATOM     68  C   UNL A   1      39.710  33.656  36.922  1.00  0.00     0.022 A 
BRANCH  65  69
ATOM     69  S   UNL A   1      37.703  32.037  37.980  1.00  0.00     0.124 S 
ATOM     70  O   UNL A   1      38.307  32.185  39.301  1.00  0.00    -0.237 OA
ATOM     71  O   UNL A   1      36.739  33.062  37.597  1.00  0.00    -0.237 OA
ATOM     72  O   UNL A   1      37.332  30.669  37.623  1.00  0.00    -0.744 OA
ENDBRANCH  65  69
ENDBRANCH  48  62
BRANCH  49  73
ATOM     73  C   UNL A   1      42.653  25.683  27.274  1.00  0.00     0.023 A 
ATOM     74  C   UNL A   1      42.233  24.345  27.222  1.00  0.00     0.031 A 
ATOM     75  C   UNL A   1      43.473  26.157  26.234  1.00  0.00     0.131 A 
ATOM     76  C   UNL A   1      42.672  23.514  26.177  1.00  0.00     0.055 A 
ATOM     77  C   UNL A   1      43.864  25.343  25.170  1.00  0.00     0.041 A 
ATOM     78  F   UNL A   1      43.903  27.430  26.234  1.00  0.00    -0.206 F 
ATOM     79  C   UNL A   1      43.474  24.007  25.146  1.00  0.00     0.022 A 
BRANCH  76  80
ATOM     80  S   UNL A   1      42.251  21.750  26.231  1.00  0.00     0.124 S 
ATOM     81  O   UNL A   1      40.920  21.744  25.634  1.00  0.00    -0.237 OA
ATOM     82  O   UNL A   1      43.317  21.161  25.427  1.00  0.00    -0.237 OA
ATOM     83  O   UNL A   1      42.298  21.433  27.656  1.00  0.00    -0.744 OA
ENDBRANCH  76  80
ENDBRANCH  49  73
BRANCH  61  84
ATOM     84  C   UNL A   1      45.264  26.465  33.691  1.00  0.00     0.023 A 
ATOM     85  C   UNL A   1      44.982  25.435  34.607  1.00  0.00     0.031 A 
ATOM     86  C   UNL A   1      46.609  26.832  33.508  1.00  0.00     0.131 A 
ATOM     87  C   UNL A   1      46.018  24.866  35.361  1.00  0.00     0.055 A 
ATOM     88  C   UNL A   1      47.644  26.213  34.210  1.00  0.00     0.041 A 
ATOM     89  F   UNL A   1      46.940  27.808  32.647  1.00  0.00    -0.206 F 
ATOM     90  C   UNL A   1      47.349  25.237  35.158  1.00  0.00     0.022 A 
BRANCH  87  91
ATOM     91  S   UNL A   1      45.588  23.730  36.710  1.00  0.00     0.124 S 
ATOM     92  O   UNL A   1      45.244  22.512  35.984  1.00  0.00    -0.237 OA
ATOM     93  O   UNL A   1      46.826  23.683  37.482  1.00  0.00    -0.237 OA
ATOM     94  O   UNL A   1      44.469  24.394  37.374  1.00  0.00    -0.744 OA
ENDBRANCH  87  91
ENDBRANCH  61  84
ENDBRANCH  35  36
ENDBRANCH  28  30
ENDBRANCH  27  28
ENDBRANCH  26  27
ENDBRANCH  25  26
ENDBRANCH  24  25
ENDBRANCH   1  24
TORSDOF 22
ENDMDL
MODEL 2
REMARK VINA RESULT:     -10.1      1.781      2.239
REMARK SMILES C[N@H+](CC(C)(C)C(=O)OCCOCCOC(=O)c1ccc(-c2c3nc(c(-c4cc(S(=O)(=O)[O-])ccc4F)c4ccc([nH]4)c(-c4cc(S(=O)(=O)[O-])ccc4F)c4nc(c(-c5cc(S(=O)(=O)[O-])ccc5F)c5ccc2[nH]5)C=C4)C=C3)cc1)[C@@H]1CCCC[C@@H]1C[NH3+]
REMARK SMILES IDX 11 1 10 2 9 3 7 4 8 5 4 6 5 7 6 8 3 9 2 10 1 11 81 13 82 14
REMARK SMILES IDX 86 15 83 16 85 17 84 18 87 19 88 20 12 24 13 25 14 26 15 27
REMARK SMILES IDX 16 28 17 29 18 30 19 31 80 32 20 33 79 34 21 35 22 36 23 37
REMARK SMILES IDX 73 38 24 39 78 40 72 41 74 42 25 43 77 44 71 45 70 46 26 48
REMARK SMILES IDX 58 49 38 50 57 51 39 52 42 53 56 54 75 55 40 56 41 57 55 59
REMARK SMILES IDX 76 60 43 61 27 62 28 63 36 64 29 65 35 66 37 67 34 68 30 69
REMARK SMILES IDX 31 70 32 71 33 72 59 73 60 74 68 75 61 76 67 77 69 78 66 79
REMARK SMILES IDX 62 80 63 81 64 82 65 83 44 84 45 85 53 86 46 87 52 88 54 89
REMARK SMILES IDX 51 90 47 91 48 92 49 93 50 94
REMARK H PARENT 2 12 88 21 88 22 88 23 74 47 42 58
REMARK Flexibility Score: inf
ROOT
ATOM      1  C   UNL A   1      32.811  29.649  25.373  1.00  0.00     0.202 C 
ENDROOT
BRANCH   1   2
ATOM      2  C   UNL A   1      33.913  28.562  25.423  1.00  0.00     0.261 C 
BRANCH   2   3
ATOM      3  O   UNL A   1      33.714  27.367  24.644  1.00  0.00    -0.463 OA
BRANCH   3   4
ATOM      4  C   UNL A   1      32.763  26.556  25.192  1.00  0.00     0.317 C 
ATOM      5  O   UNL A   1      32.727  26.395  26.406  1.00  0.00    -0.251 OA
BRANCH   4   6
ATOM      6  C   UNL A   1      31.794  25.928  24.139  1.00  0.00     0.111 C 
ATOM      7  C   UNL A   1      30.780  26.966  23.602  1.00  0.00     0.029 C 
ATOM      8  C   UNL A   1      30.908  24.852  24.816  1.00  0.00     0.029 C 
BRANCH   6   9
ATOM      9  C   UNL A   1      32.577  25.268  22.937  1.00  0.00     0.280 C 
BRANCH   9  10
ATOM     10  N   UNL A   1      33.233  23.989  23.205  1.00  0.00    -0.334 N 
ATOM     11  C   UNL A   1      33.114  23.020  22.119  1.00  0.00     0.333 C 
ATOM     12  H   UNL A   1      32.620  23.682  23.960  1.00  0.00     0.348 HD
BRANCH  10  13
ATOM     13  C   UNL A   1      34.400  23.871  24.094  1.00  0.00     0.192 C 
ATOM     14  C   UNL A   1      35.642  23.249  23.384  1.00  0.00     0.065 C 
ATOM     15  C   UNL A   1      34.151  23.165  25.468  1.00  0.00     0.102 C 
ATOM     16  C   UNL A   1      36.878  23.075  24.268  1.00  0.00     0.006 C 
ATOM     17  C   UNL A   1      35.441  23.224  26.311  1.00  0.00     0.015 C 
ATOM     18  C   UNL A   1      36.595  22.496  25.645  1.00  0.00     0.001 C 
BRANCH  15  19
ATOM     19  C   UNL A   1      33.584  21.716  25.488  1.00  0.00     0.268 C 
BRANCH  19  20
ATOM     20  N   UNL A   1      32.266  21.508  26.068  1.00  0.00    -0.357 N 
ATOM     21  H   UNL A   1      31.810  20.724  25.603  1.00  0.00     0.344 HD
ATOM     22  H   UNL A   1      31.704  22.351  25.945  1.00  0.00     0.344 HD
ATOM     23  H   UNL A   1      32.362  21.306  27.063  1.00  0.00     0.344 HD
ENDBRANCH  19  20
ENDBRANCH  15  19
ENDBRANCH  10  13
ENDBRANCH   9  10
ENDBRANCH   6   9
ENDBRANCH   4   6
ENDBRANCH   3   4
ENDBRANCH   2   3
ENDBRANCH   1   2
BRANCH   1  24
ATOM     24  O   UNL A   1      32.500  30.466  26.490  1.00  0.00    -0.374 OA
BRANCH  24  25
ATOM     25  C   UNL A   1      31.358  31.305  26.453  1.00  0.00     0.202 C 
BRANCH  25  26
ATOM     26  C   UNL A   1      31.429  32.755  26.948  1.00  0.00     0.261 C 
BRANCH  26  27
ATOM     27  O   UNL A   1      32.743  33.333  26.888  1.00  0.00    -0.460 OA
BRANCH  27  28
ATOM     28  C   UNL A   1      33.303  33.559  28.099  1.00  0.00     0.338 C 
ATOM     29  O   UNL A   1      32.760  34.087  29.066  1.00  0.00    -0.246 OA
BRANCH  28  30
ATOM     30  C   UNL A   1      34.608  32.889  28.216  1.00  0.00     0.060 A 
ATOM     31  C   UNL A   1      34.605  31.594  28.749  1.00  0.00     0.016 A 
ATOM     32  C   UNL A   1      35.812  33.536  27.929  1.00  0.00     0.016 A 
ATOM     33  C   UNL A   1      35.803  30.971  29.075  1.00  0.00     0.010 A 
ATOM     34  C   UNL A   1      37.020  32.911  28.273  1.00  0.00     0.010 A 
ATOM     35  C   UNL A   1      37.013  31.652  28.899  1.00  0.00    -0.014 A 
BRANCH  35  36
ATOM     36  C   UNL A   1      38.211  31.104  29.584  1.00  0.00     0.031 A 
ATOM     37  C   UNL A   1      38.456  31.487  31.021  1.00  0.00     0.074 A 
ATOM     38  C   UNL A   1      38.981  30.178  28.986  1.00  0.00     0.049 A 
ATOM     39  N   UNL A   1      39.354  31.040  31.861  1.00  0.00    -0.248 NA
ATOM     40  C   UNL A   1      37.559  32.507  31.587  1.00  0.00     0.031 C 
ATOM     41  C   UNL A   1      38.803  29.693  27.618  1.00  0.00     0.029 A 
ATOM     42  N   UNL A   1      40.048  29.460  29.462  1.00  0.00    -0.354 N 
ATOM     43  C   UNL A   1      39.125  31.715  33.057  1.00  0.00     0.074 A 
ATOM     44  C   UNL A   1      38.034  32.636  32.816  1.00  0.00     0.031 C 
ATOM     45  C   UNL A   1      39.726  28.748  27.368  1.00  0.00     0.029 A 
ATOM     46  C   UNL A   1      40.570  28.576  28.549  1.00  0.00     0.049 A 
ATOM     47  H   UNL A   1      40.407  29.569  30.372  1.00  0.00     0.167 HD
ATOM     48  C   UNL A   1      39.755  31.571  34.249  1.00  0.00     0.034 A 
ATOM     49  C   UNL A   1      41.612  27.726  28.653  1.00  0.00     0.034 A 
ATOM     50  C   UNL A   1      40.851  30.657  34.467  1.00  0.00     0.049 A 
ATOM     51  C   UNL A   1      42.343  27.631  29.972  1.00  0.00     0.074 A 
ATOM     52  C   UNL A   1      41.569  30.432  35.630  1.00  0.00     0.029 A 
ATOM     53  N   UNL A   1      41.396  29.822  33.500  1.00  0.00    -0.354 N 
ATOM     54  N   UNL A   1      42.111  28.270  31.096  1.00  0.00    -0.248 NA
ATOM     55  C   UNL A   1      43.461  26.681  30.037  1.00  0.00     0.031 C 
ATOM     56  C   UNL A   1      42.590  29.517  35.345  1.00  0.00     0.029 A 
ATOM     57  C   UNL A   1      42.459  29.106  34.028  1.00  0.00     0.049 A 
ATOM     58  H   UNL A   1      41.074  29.750  32.572  1.00  0.00     0.167 HD
ATOM     59  C   UNL A   1      43.040  27.778  32.010  1.00  0.00     0.074 A 
ATOM     60  C   UNL A   1      43.814  26.772  31.311  1.00  0.00     0.031 C 
ATOM     61  C   UNL A   1      43.237  28.122  33.311  1.00  0.00     0.034 A 
BRANCH  48  62
ATOM     62  C   UNL A   1      39.307  32.465  35.382  1.00  0.00     0.023 A 
ATOM     63  C   UNL A   1      39.763  33.791  35.509  1.00  0.00     0.031 A 
ATOM     64  C   UNL A   1      38.440  31.971  36.372  1.00  0.00     0.131 A 
ATOM     65  C   UNL A   1      39.405  34.549  36.635  1.00  0.00     0.055 A 
ATOM     66  C   UNL A   1      38.026  32.757  37.450  1.00  0.00     0.041 A 
ATOM     67  F   UNL A   1      37.993  30.707  36.320  1.00  0.00    -0.206 F 
ATOM     68  C   UNL A   1      38.520  34.050  37.593  1.00  0.00     0.022 A 
BRANCH  65  69
ATOM     69  S   UNL A   1      40.225  36.145  36.907  1.00  0.00     0.124 S 
ATOM     70  O   UNL A   1      39.966  36.829  35.644  1.00  0.00    -0.237 OA
ATOM     71  O   UNL A   1      39.522  36.666  38.074  1.00  0.00    -0.237 OA
ATOM     72  O   UNL A   1      41.623  35.778  37.133  1.00  0.00    -0.744 OA
ENDBRANCH  65  69
ENDBRANCH  48  62
BRANCH  49  73
ATOM     73  C   UNL A   1      42.049  26.917  27.479  1.00  0.00     0.023 A 
ATOM     74  C   UNL A   1      41.760  25.547  27.382  1.00  0.00     0.031 A 
ATOM     75  C   UNL A   1      42.817  27.502  26.455  1.00  0.00     0.131 A 
ATOM     76  C   UNL A   1      42.272  24.798  26.309  1.00  0.00     0.055 A 
ATOM     77  C   UNL A   1      43.279  26.765  25.364  1.00  0.00     0.041 A 
ATOM     78  F   UNL A   1      43.123  28.809  26.499  1.00  0.00    -0.206 F 
ATOM     79  C   UNL A   1      43.019  25.401  25.294  1.00  0.00     0.022 A 
BRANCH  76  80
ATOM     80  S   UNL A   1      42.021  23.001  26.302  1.00  0.00     0.124 S 
ATOM     81  O   UNL A   1      42.700  22.601  27.529  1.00  0.00    -0.237 OA
ATOM     82  O   UNL A   1      40.565  22.900  26.312  1.00  0.00    -0.237 OA
ATOM     83  O   UNL A   1      42.666  22.573  25.063  1.00  0.00    -0.744 OA
ENDBRANCH  76  80
ENDBRANCH  49  73
BRANCH  61  84
ATOM     84  C   UNL A   1      44.315  27.371  34.057  1.00  0.00     0.023 A 
ATOM     85  C   UNL A   1      44.040  26.179  34.752  1.00  0.00     0.031 A 
ATOM     86  C   UNL A   1      45.625  27.877  34.113  1.00  0.00     0.131 A 
ATOM     87  C   UNL A   1      45.036  25.580  35.536  1.00  0.00     0.055 A 
ATOM     88  C   UNL A   1      46.632  27.238  34.838  1.00  0.00     0.041 A 
ATOM     89  F   UNL A   1      45.948  29.012  33.470  1.00  0.00    -0.206 F 
ATOM     90  C   UNL A   1      46.335  26.092  35.571  1.00  0.00     0.022 A 
BRANCH  87  91
ATOM     91  S   UNL A   1      44.577  24.197  36.618  1.00  0.00     0.124 S 
ATOM     92  O   UNL A   1      45.877  23.741  37.098  1.00  0.00    -0.237 OA
ATOM     93  O   UNL A   1      43.724  24.848  37.607  1.00  0.00    -0.237 OA
ATOM     94  O   UNL A   1      43.888  23.273  35.719  1.00  0.00    -0.744 OA
ENDBRANCH  87  91
ENDBRANCH  61  84
ENDBRANCH  35  36
ENDBRANCH  28  30
ENDBRANCH  27  28
ENDBRANCH  26  27
ENDBRANCH  25  26
ENDBRANCH  24  25
ENDBRANCH   1  24
TORSDOF 22
ENDMDL
MODEL 3
REMARK VINA RESULT:      -9.8      4.985      7.982
REMARK SMILES C[N@H+](CC(C)(C)C(=O)OCCOCCOC(=O)c1ccc(-c2c3nc(c(-c4cc(S(=O)(=O)[O-])ccc4F)c4ccc([nH]4)c(-c4cc(S(=O)(=O)[O-])ccc4F)c4nc(c(-c5cc(S(=O)(=O)[O-])ccc5F)c5ccc2[nH]5)C=C4)C=C3)cc1)[C@@H]1CCCC[C@@H]1C[NH3+]
REMARK SMILES IDX 11 1 10 2 9 3 7 4 8 5 4 6 5 7 6 8 3 9 2 10 1 11 81 13 82 14
REMARK SMILES IDX 86 15 83 16 85 17 84 18 87 19 88 20 12 24 13 25 14 26 15 27
REMARK SMILES IDX 16 28 17 29 18 30 19 31 80 32 20 33 79 34 21 35 22 36 23 37
REMARK SMILES IDX 73 38 24 39 78 40 72 41 74 42 25 43 77 44 71 45 70 46 26 48
REMARK SMILES IDX 58 49 38 50 57 51 39 52 42 53 56 54 75 55 40 56 41 57 55 59
REMARK SMILES IDX 76 60 43 61 27 62 28 63 36 64 29 65 35 66 37 67 34 68 30 69
REMARK SMILES IDX 31 70 32 71 33 72 59 73 60 74 68 75 61 76 67 77 69 78 66 79
REMARK SMILES IDX 62 80 63 81 64 82 65 83 44 84 45 85 53 86 46 87 52 88 54 89
REMARK SMILES IDX 51 90 47 91 48 92 49 93 50 94
REMARK H PARENT 2 12 88 21 88 22 88 23 74 47 42 58
REMARK Flexibility Score: inf
ROOT
ATOM      1  C   UNL A   1      36.822  23.070  24.454  1.00  0.00     0.202 C 
ENDROOT
BRANCH   1   2
ATOM      2  C   UNL A   1      35.441  23.743  24.658  1.00  0.00     0.261 C 
BRANCH   2   3
ATOM      3  O   UNL A   1      34.293  23.115  24.057  1.00  0.00    -0.463 OA
BRANCH   3   4
ATOM      4  C   UNL A   1      33.487  22.531  24.990  1.00  0.00     0.317 C 
ATOM      5  O   UNL A   1      33.917  21.612  25.676  1.00  0.00    -0.251 OA
BRANCH   4   6
ATOM      6  C   UNL A   1      32.059  23.161  25.065  1.00  0.00     0.111 C 
ATOM      7  C   UNL A   1      31.066  22.243  25.817  1.00  0.00     0.029 C 
ATOM      8  C   UNL A   1      31.459  23.275  23.640  1.00  0.00     0.029 C 
BRANCH   6   9
ATOM      9  C   UNL A   1      32.080  24.593  25.730  1.00  0.00     0.280 C 
BRANCH   9  10
ATOM     10  N   UNL A   1      31.202  25.603  25.142  1.00  0.00    -0.334 N 
ATOM     11  C   UNL A   1      29.910  25.731  25.811  1.00  0.00     0.333 C 
ATOM     12  H   UNL A   1      31.040  25.135  24.250  1.00  0.00     0.348 HD
BRANCH  10  13
ATOM     13  C   UNL A   1      31.720  26.786  24.436  1.00  0.00     0.192 C 
ATOM     14  C   UNL A   1      32.998  26.478  23.596  1.00  0.00     0.065 C 
ATOM     15  C   UNL A   1      31.941  28.067  25.308  1.00  0.00     0.102 C 
ATOM     16  C   UNL A   1      33.599  27.678  22.862  1.00  0.00     0.006 C 
ATOM     17  C   UNL A   1      32.380  29.232  24.399  1.00  0.00     0.015 C 
ATOM     18  C   UNL A   1      33.695  28.946  23.696  1.00  0.00     0.001 C 
BRANCH  15  19
ATOM     19  C   UNL A   1      32.881  27.992  26.546  1.00  0.00     0.268 C 
BRANCH  19  20
ATOM     20  N   UNL A   1      32.502  28.740  27.735  1.00  0.00    -0.357 N 
ATOM     21  H   UNL A   1      33.029  28.394  28.537  1.00  0.00     0.344 HD
ATOM     22  H   UNL A   1      31.504  28.621  27.907  1.00  0.00     0.344 HD
ATOM     23  H   UNL A   1      32.708  29.729  27.594  1.00  0.00     0.344 HD
ENDBRANCH  19  20
ENDBRANCH  15  19
ENDBRANCH  10  13
ENDBRANCH   9  10
ENDBRANCH   6   9
ENDBRANCH   4   6
ENDBRANCH   3   4
ENDBRANCH   2   3
ENDBRANCH   1   2
BRANCH   1  24
ATOM     24  O   UNL A   1      36.959  21.784  23.870  1.00  0.00    -0.374 OA
BRANCH  24  25
ATOM     25  C   UNL A   1      37.055  20.641  24.702  1.00  0.00     0.202 C 
BRANCH  25  26
ATOM     26  C   UNL A   1      38.411  19.979  24.981  1.00  0.00     0.261 C 
BRANCH  26  27
ATOM     27  O   UNL A   1      38.880  20.145  26.329  1.00  0.00    -0.460 OA
BRANCH  27  28
ATOM     28  C   UNL A   1      40.206  20.394  26.426  1.00  0.00     0.338 C 
ATOM     29  O   UNL A   1      41.113  19.707  25.962  1.00  0.00    -0.246 OA
BRANCH  28  30
ATOM     30  C   UNL A   1      40.457  21.734  26.978  1.00  0.00     0.060 A 
ATOM     31  C   UNL A   1      39.807  22.805  26.352  1.00  0.00     0.016 A 
ATOM     32  C   UNL A   1      41.386  21.965  27.996  1.00  0.00     0.016 A 
ATOM     33  C   UNL A   1      40.140  24.112  26.681  1.00  0.00     0.010 A 
ATOM     34  C   UNL A   1      41.732  23.286  28.316  1.00  0.00     0.010 A 
ATOM     35  C   UNL A   1      41.150  24.360  27.618  1.00  0.00    -0.014 A 
BRANCH  35  36
ATOM     36  C   UNL A   1      41.714  25.733  27.669  1.00  0.00     0.031 A 
ATOM     37  C   UNL A   1      40.961  26.791  28.433  1.00  0.00     0.074 A 
ATOM     38  C   UNL A   1      42.935  25.992  27.168  1.00  0.00     0.049 A 
ATOM     39  N   UNL A   1      41.314  28.018  28.724  1.00  0.00    -0.248 NA
ATOM     40  C   UNL A   1      39.636  26.410  28.944  1.00  0.00     0.031 C 
ATOM     41  C   UNL A   1      43.774  25.029  26.456  1.00  0.00     0.029 A 
ATOM     42  N   UNL A   1      43.690  27.137  27.205  1.00  0.00    -0.354 N 
ATOM     43  C   UNL A   1      40.260  28.551  29.461  1.00  0.00     0.074 A 
ATOM     44  C   UNL A   1      39.237  27.529  29.529  1.00  0.00     0.031 C 
ATOM     45  C   UNL A   1      44.937  25.622  26.133  1.00  0.00     0.029 A 
ATOM     46  C   UNL A   1      44.915  27.008  26.594  1.00  0.00     0.049 A 
ATOM     47  H   UNL A   1      43.384  27.971  27.628  1.00  0.00     0.167 HD
ATOM     48  C   UNL A   1      40.160  29.773  30.039  1.00  0.00     0.034 A 
ATOM     49  C   UNL A   1      45.905  27.909  26.426  1.00  0.00     0.034 A 
ATOM     50  C   UNL A   1      41.184  30.786  29.949  1.00  0.00     0.049 A 
ATOM     51  C   UNL A   1      45.743  29.287  27.022  1.00  0.00     0.074 A 
ATOM     52  C   UNL A   1      41.188  32.061  30.488  1.00  0.00     0.029 A 
ATOM     53  N   UNL A   1      42.386  30.643  29.267  1.00  0.00    -0.354 N 
ATOM     54  N   UNL A   1      44.744  29.776  27.721  1.00  0.00    -0.248 NA
ATOM     55  C   UNL A   1      46.855  30.225  26.822  1.00  0.00     0.031 C 
ATOM     56  C   UNL A   1      42.357  32.710  30.072  1.00  0.00     0.029 A 
ATOM     57  C   UNL A   1      43.123  31.815  29.343  1.00  0.00     0.049 A 
ATOM     58  H   UNL A   1      42.673  29.828  28.795  1.00  0.00     0.167 HD
ATOM     59  C   UNL A   1      45.121  31.071  28.067  1.00  0.00     0.074 A 
ATOM     60  C   UNL A   1      46.448  31.274  27.521  1.00  0.00     0.031 C 
ATOM     61  C   UNL A   1      44.437  32.010  28.773  1.00  0.00     0.034 A 
BRANCH  48  62
ATOM     62  C   UNL A   1      38.873  30.092  30.765  1.00  0.00     0.023 A 
ATOM     63  C   UNL A   1      37.883  30.916  30.198  1.00  0.00     0.031 A 
ATOM     64  C   UNL A   1      38.651  29.596  32.061  1.00  0.00     0.131 A 
ATOM     65  C   UNL A   1      36.753  31.273  30.952  1.00  0.00     0.055 A 
ATOM     66  C   UNL A   1      37.488  29.892  32.776  1.00  0.00     0.041 A 
ATOM     67  F   UNL A   1      39.570  28.827  32.665  1.00  0.00    -0.206 F 
ATOM     68  C   UNL A   1      36.537  30.746  32.226  1.00  0.00     0.022 A 
BRANCH  65  69
ATOM     69  S   UNL A   1      35.639  32.549  30.300  1.00  0.00     0.124 S 
ATOM     70  O   UNL A   1      34.785  31.768  29.409  1.00  0.00    -0.237 OA
ATOM     71  O   UNL A   1      35.005  33.061  31.509  1.00  0.00    -0.237 OA
ATOM     72  O   UNL A   1      36.541  33.481  29.627  1.00  0.00    -0.744 OA
ENDBRANCH  65  69
ENDBRANCH  48  62
BRANCH  49  73
ATOM     73  C   UNL A   1      47.124  27.555  25.642  1.00  0.00     0.023 A 
ATOM     74  C   UNL A   1      47.241  27.877  24.281  1.00  0.00     0.031 A 
ATOM     75  C   UNL A   1      48.174  26.835  26.242  1.00  0.00     0.131 A 
ATOM     76  C   UNL A   1      48.361  27.441  23.554  1.00  0.00     0.055 A 
ATOM     77  C   UNL A   1      49.309  26.450  25.528  1.00  0.00     0.041 A 
ATOM     78  F   UNL A   1      48.112  26.501  27.542  1.00  0.00    -0.206 F 
ATOM     79  C   UNL A   1      49.401  26.741  24.170  1.00  0.00     0.022 A 
BRANCH  76  80
ATOM     80  S   UNL A   1      48.402  27.727  21.762  1.00  0.00     0.124 S 
ATOM     81  O   UNL A   1      49.489  28.691  21.639  1.00  0.00    -0.237 OA
ATOM     82  O   UNL A   1      48.671  26.388  21.249  1.00  0.00    -0.237 OA
ATOM     83  O   UNL A   1      47.068  28.249  21.471  1.00  0.00    -0.744 OA
ENDBRANCH  76  80
ENDBRANCH  49  73
BRANCH  61  84
ATOM     84  C   UNL A   1      45.140  33.325  29.016  1.00  0.00     0.023 A 
ATOM     85  C   UNL A   1      44.889  34.456  28.218  1.00  0.00     0.031 A 
ATOM     86  C   UNL A   1      46.106  33.438  30.030  1.00  0.00     0.131 A 
ATOM     87  C   UNL A   1      45.652  35.620  28.393  1.00  0.00     0.055 A 
ATOM     88  C   UNL A   1      46.813  34.622  30.247  1.00  0.00     0.041 A 
ATOM     89  F   UNL A   1      46.389  32.392  30.825  1.00  0.00    -0.206 F 
ATOM     90  C   UNL A   1      46.602  35.716  29.412  1.00  0.00     0.022 A 
BRANCH  87  91
ATOM     91  S   UNL A   1      45.481  36.961  27.183  1.00  0.00     0.124 S 
ATOM     92  O   UNL A   1      45.875  38.128  27.964  1.00  0.00    -0.237 OA
ATOM     93  O   UNL A   1      46.411  36.553  26.135  1.00  0.00    -0.237 OA
ATOM     94  O   UNL A   1      44.069  36.911  26.812  1.00  0.00    -0.744 OA
ENDBRANCH  87  91
ENDBRANCH  61  84
ENDBRANCH  35  36
ENDBRANCH  28  30
ENDBRANCH  27  28
ENDBRANCH  26  27
ENDBRANCH  25  26
ENDBRANCH  24  25
ENDBRANCH   1  24
TORSDOF 22
ENDMDL
