MODEL 1
REMARK VINA RESULT:     -12.4      0.000      0.000
REMARK SMILES COc1ccc(-c2[nH]nc3nc(-c4ccc(C(F)(F)F)cc4)cc(C(=O)OCCOCCOC(=O)c4ccc(-c5c6nc(c(-c7cc(S(=O)(=O)[O-])ccc7F)c7ccc([nH]7)c(-c7cc(S(=O)(=O)[O-])ccc7F)c7nc(c(-c8cc(S(=O)(=O)[O-])ccc8F)c8ccc5[nH]8)C=C7)C=C6)cc4)c23)cc1
REMARK SMILES IDX 31 1 30 2 29 3 28 4 27 5 25 6 26 7 24 8 7 9 8 10 99 11 9 12
REMARK SMILES IDX 10 14 11 15 23 16 12 17 6 18 3 19 4 20 101 21 5 22 100 23
REMARK SMILES IDX 2 24 1 25 13 26 14 27 22 28 15 29 21 30 16 31 17 32 18 33
REMARK SMILES IDX 19 34 20 35 32 36 33 37 34 38 35 39 36 40 37 41 98 42 38 43
REMARK SMILES IDX 97 44 39 45 40 46 41 47 91 48 42 49 96 50 90 51 92 52 43 53
REMARK SMILES IDX 95 54 89 55 88 56 44 58 76 59 56 60 75 61 57 62 60 63 74 64
REMARK SMILES IDX 93 65 58 66 59 67 73 69 94 70 61 71 45 72 46 73 54 74 47 75
REMARK SMILES IDX 53 76 55 77 52 78 48 79 49 80 50 81 51 82 77 83 78 84 86 85
REMARK SMILES IDX 79 86 85 87 87 88 84 89 80 90 81 91 82 92 83 93 62 94 63 95
REMARK SMILES IDX 71 96 64 97 70 98 72 99 69 100 65 101 66 102 67 103 68 104
REMARK H PARENT 8 13 92 57 60 68
REMARK Flexibility Score: inf
ROOT
ATOM      1  C   UNL A   1      38.670  22.761  25.992  1.00  0.00     0.202 C 
ENDROOT
BRANCH   1   2
ATOM      2  O   UNL A   1      37.669  22.445  25.027  1.00  0.00    -0.374 OA
BRANCH   2   3
ATOM      3  C   UNL A   1      36.529  21.775  25.569  1.00  0.00     0.202 C 
BRANCH   3   4
ATOM      4  C   UNL A   1      35.219  22.505  25.264  1.00  0.00     0.261 C 
BRANCH   4   5
ATOM      5  O   UNL A   1      35.495  23.827  24.760  1.00  0.00    -0.460 OA
BRANCH   5   6
ATOM      6  C   UNL A   1      34.554  24.364  23.937  1.00  0.00     0.339 C 
ATOM      7  O   UNL A   1      34.498  24.251  22.728  1.00  0.00    -0.246 OA
BRANCH   6   8
ATOM      8  C   UNL A   1      33.590  25.124  24.748  1.00  0.00     0.075 A 
ATOM      9  C   UNL A   1      31.518  23.644  24.771  1.00  0.00     0.075 A 
ATOM     10  N   UNL A   1      30.231  23.970  25.136  1.00  0.00    -0.275 N 
ATOM     11  C   UNL A   1      32.235  24.821  24.961  1.00  0.00     0.061 A 
ATOM     12  N   UNL A   1      30.082  25.191  25.664  1.00  0.00    -0.154 NA
ATOM     13  H   UNL A   1      29.475  23.350  25.018  1.00  0.00     0.190 HD
ATOM     14  C   UNL A   1      31.311  25.704  25.617  1.00  0.00     0.182 A 
ATOM     15  N   UNL A   1      31.676  26.903  26.130  1.00  0.00    -0.226 NA
ATOM     16  C   UNL A   1      33.944  26.357  25.333  1.00  0.00     0.045 A 
ATOM     17  C   UNL A   1      33.000  27.190  25.985  1.00  0.00     0.074 A 
BRANCH   9  18
ATOM     18  C   UNL A   1      31.847  22.246  24.496  1.00  0.00     0.001 A 
ATOM     19  C   UNL A   1      32.660  19.575  24.075  1.00  0.00     0.118 A 
ATOM     20  C   UNL A   1      32.376  20.420  22.997  1.00  0.00     0.047 A 
ATOM     21  C   UNL A   1      32.469  20.048  25.370  1.00  0.00     0.047 A 
ATOM     22  C   UNL A   1      31.972  21.747  23.203  1.00  0.00     0.014 A 
ATOM     23  C   UNL A   1      32.039  21.365  25.575  1.00  0.00     0.014 A 
BRANCH  19  24
ATOM     24  O   UNL A   1      33.107  18.328  23.735  1.00  0.00    -0.497 OA
ATOM     25  C   UNL A   1      34.342  17.911  24.309  1.00  0.00     0.278 C 
ENDBRANCH  19  24
ENDBRANCH   9  18
BRANCH  17  26
ATOM     26  C   UNL A   1      33.405  28.510  26.522  1.00  0.00     0.000 A 
ATOM     27  C   UNL A   1      34.716  28.749  26.972  1.00  0.00     0.011 A 
ATOM     28  C   UNL A   1      32.482  29.565  26.630  1.00  0.00     0.011 A 
ATOM     29  C   UNL A   1      35.086  29.989  27.512  1.00  0.00     0.014 A 
ATOM     30  C   UNL A   1      32.845  30.803  27.172  1.00  0.00     0.014 A 
ATOM     31  C   UNL A   1      34.150  31.027  27.625  1.00  0.00     0.056 A 
BRANCH  31  32
ATOM     32  C   UNL A   1      34.540  32.347  28.245  1.00  0.00     0.416 C 
ATOM     33  F   UNL A   1      33.847  33.394  27.721  1.00  0.00    -0.166 F 
ATOM     34  F   UNL A   1      34.326  32.386  29.588  1.00  0.00    -0.166 F 
ATOM     35  F   UNL A   1      35.858  32.656  28.070  1.00  0.00    -0.166 F 
ENDBRANCH  31  32
ENDBRANCH  17  26
ENDBRANCH   6   8
ENDBRANCH   5   6
ENDBRANCH   4   5
ENDBRANCH   3   4
ENDBRANCH   2   3
ENDBRANCH   1   2
BRANCH   1  36
ATOM     36  C   UNL A   1      38.454  24.122  26.626  1.00  0.00     0.261 C 
BRANCH  36  37
ATOM     37  O   UNL A   1      39.668  24.493  27.257  1.00  0.00    -0.460 OA
BRANCH  37  38
ATOM     38  C   UNL A   1      40.232  25.651  26.824  1.00  0.00     0.338 C 
ATOM     39  O   UNL A   1      41.071  25.820  25.990  1.00  0.00    -0.246 OA
BRANCH  38  40
ATOM     40  C   UNL A   1      39.626  26.683  27.675  1.00  0.00     0.060 A 
ATOM     41  C   UNL A   1      39.803  27.988  27.239  1.00  0.00     0.016 A 
ATOM     42  C   UNL A   1      39.241  26.354  28.987  1.00  0.00     0.016 A 
ATOM     43  C   UNL A   1      39.895  28.959  28.206  1.00  0.00     0.010 A 
ATOM     44  C   UNL A   1      39.366  27.317  29.951  1.00  0.00     0.010 A 
ATOM     45  C   UNL A   1      39.793  28.579  29.551  1.00  0.00    -0.014 A 
BRANCH  45  46
ATOM     46  C   UNL A   1      40.042  29.587  30.552  1.00  0.00     0.031 A 
ATOM     47  C   UNL A   1      38.866  30.450  30.743  1.00  0.00     0.074 A 
ATOM     48  C   UNL A   1      41.178  29.651  31.267  1.00  0.00     0.049 A 
ATOM     49  N   UNL A   1      38.667  31.622  30.245  1.00  0.00    -0.248 NA
ATOM     50  C   UNL A   1      37.661  29.824  31.313  1.00  0.00     0.031 C 
ATOM     51  C   UNL A   1      42.263  28.670  31.346  1.00  0.00     0.029 A 
ATOM     52  N   UNL A   1      41.554  30.596  32.165  1.00  0.00    -0.354 N 
ATOM     53  C   UNL A   1      37.407  31.984  30.696  1.00  0.00     0.074 A 
ATOM     54  C   UNL A   1      36.750  30.757  31.043  1.00  0.00     0.031 C 
ATOM     55  C   UNL A   1      43.055  28.970  32.404  1.00  0.00     0.029 A 
ATOM     56  C   UNL A   1      42.607  30.225  32.992  1.00  0.00     0.049 A 
ATOM     57  H   UNL A   1      41.115  31.475  32.226  1.00  0.00     0.167 HD
ATOM     58  C   UNL A   1      37.148  33.262  31.079  1.00  0.00     0.034 A 
ATOM     59  C   UNL A   1      43.012  30.872  34.119  1.00  0.00     0.034 A 
ATOM     60  C   UNL A   1      38.153  34.167  30.551  1.00  0.00     0.049 A 
ATOM     61  C   UNL A   1      42.478  32.259  34.037  1.00  0.00     0.074 A 
ATOM     62  C   UNL A   1      38.611  34.459  29.280  1.00  0.00     0.029 A 
ATOM     63  N   UNL A   1      39.131  34.622  31.410  1.00  0.00    -0.354 N 
ATOM     64  N   UNL A   1      42.873  33.124  33.142  1.00  0.00    -0.248 NA
ATOM     65  C   UNL A   1      41.160  32.522  34.601  1.00  0.00     0.031 C 
ATOM     66  C   UNL A   1      40.021  34.624  29.420  1.00  0.00     0.029 A 
ATOM     67  C   UNL A   1      40.344  34.511  30.774  1.00  0.00     0.049 A 
ATOM     68  H   UNL A   1      38.985  34.968  32.321  1.00  0.00     0.167 HD
ATOM     69  C   UNL A   1      41.717  33.766  32.720  1.00  0.00     0.074 A 
ATOM     70  C   UNL A   1      40.709  33.424  33.723  1.00  0.00     0.031 C 
ATOM     71  C   UNL A   1      41.607  34.267  31.452  1.00  0.00     0.034 A 
BRANCH  58  72
ATOM     72  C   UNL A   1      36.259  33.622  32.253  1.00  0.00     0.023 A 
ATOM     73  C   UNL A   1      35.230  34.543  31.999  1.00  0.00     0.031 A 
ATOM     74  C   UNL A   1      36.508  33.351  33.621  1.00  0.00     0.131 A 
ATOM     75  C   UNL A   1      34.600  35.230  33.050  1.00  0.00     0.055 A 
ATOM     76  C   UNL A   1      35.833  33.990  34.663  1.00  0.00     0.041 A 
ATOM     77  F   UNL A   1      37.465  32.525  34.053  1.00  0.00    -0.206 F 
ATOM     78  C   UNL A   1      34.896  34.964  34.381  1.00  0.00     0.022 A 
BRANCH  75  79
ATOM     79  S   UNL A   1      33.512  36.610  32.629  1.00  0.00     0.124 S 
ATOM     80  O   UNL A   1      34.083  37.684  33.434  1.00  0.00    -0.237 OA
ATOM     81  O   UNL A   1      33.706  36.710  31.187  1.00  0.00    -0.237 OA
ATOM     82  O   UNL A   1      32.195  36.142  33.053  1.00  0.00    -0.744 OA
ENDBRANCH  75  79
ENDBRANCH  58  72
BRANCH  59  83
ATOM     83  C   UNL A   1      43.486  30.245  35.387  1.00  0.00     0.023 A 
ATOM     84  C   UNL A   1      43.102  28.951  35.805  1.00  0.00     0.031 A 
ATOM     85  C   UNL A   1      44.539  30.853  36.107  1.00  0.00     0.131 A 
ATOM     86  C   UNL A   1      43.758  28.331  36.898  1.00  0.00     0.055 A 
ATOM     87  C   UNL A   1      45.179  30.240  37.186  1.00  0.00     0.041 A 
ATOM     88  F   UNL A   1      45.044  32.039  35.731  1.00  0.00    -0.206 F 
ATOM     89  C   UNL A   1      44.795  28.970  37.582  1.00  0.00     0.022 A 
BRANCH  86  90
ATOM     90  S   UNL A   1      43.318  26.635  37.408  1.00  0.00     0.124 S 
ATOM     91  O   UNL A   1      41.861  26.682  37.428  1.00  0.00    -0.237 OA
ATOM     92  O   UNL A   1      43.929  25.826  36.361  1.00  0.00    -0.237 OA
ATOM     93  O   UNL A   1      43.943  26.502  38.725  1.00  0.00    -0.744 OA
ENDBRANCH  86  90
ENDBRANCH  59  83
BRANCH  71  94
ATOM     94  C   UNL A   1      42.870  34.398  30.620  1.00  0.00     0.023 A 
ATOM     95  C   UNL A   1      43.289  33.487  29.622  1.00  0.00     0.031 A 
ATOM     96  C   UNL A   1      43.621  35.576  30.780  1.00  0.00     0.131 A 
ATOM     97  C   UNL A   1      44.427  33.772  28.838  1.00  0.00     0.055 A 
ATOM     98  C   UNL A   1      44.732  35.864  29.989  1.00  0.00     0.041 A 
ATOM     99  F   UNL A   1      43.262  36.493  31.693  1.00  0.00    -0.206 F 
ATOM    100  C   UNL A   1      45.144  34.960  29.018  1.00  0.00     0.022 A 
BRANCH  97 101
ATOM    101  S   UNL A   1      45.012  32.595  27.574  1.00  0.00     0.124 S 
ATOM    102  O   UNL A   1      46.298  32.147  28.093  1.00  0.00    -0.237 OA
ATOM    103  O   UNL A   1      43.946  31.596  27.557  1.00  0.00    -0.237 OA
ATOM    104  O   UNL A   1      45.095  33.412  26.362  1.00  0.00    -0.744 OA
ENDBRANCH  97 101
ENDBRANCH  71  94
ENDBRANCH  45  46
ENDBRANCH  38  40
ENDBRANCH  37  38
ENDBRANCH  36  37
ENDBRANCH   1  36
TORSDOF 21
ENDMDL
MODEL 2
REMARK VINA RESULT:     -12.3      4.844      7.506
REMARK SMILES COc1ccc(-c2[nH]nc3nc(-c4ccc(C(F)(F)F)cc4)cc(C(=O)OCCOCCOC(=O)c4ccc(-c5c6nc(c(-c7cc(S(=O)(=O)[O-])ccc7F)c7ccc([nH]7)c(-c7cc(S(=O)(=O)[O-])ccc7F)c7nc(c(-c8cc(S(=O)(=O)[O-])ccc8F)c8ccc5[nH]8)C=C7)C=C6)cc4)c23)cc1
REMARK SMILES IDX 31 1 30 2 29 3 28 4 27 5 25 6 26 7 24 8 7 9 8 10 99 11 9 12
REMARK SMILES IDX 10 14 11 15 23 16 12 17 6 18 3 19 4 20 101 21 5 22 100 23
REMARK SMILES IDX 2 24 1 25 13 26 14 27 22 28 15 29 21 30 16 31 17 32 18 33
REMARK SMILES IDX 19 34 20 35 32 36 33 37 34 38 35 39 36 40 37 41 98 42 38 43
REMARK SMILES IDX 97 44 39 45 40 46 41 47 91 48 42 49 96 50 90 51 92 52 43 53
REMARK SMILES IDX 95 54 89 55 88 56 44 58 76 59 56 60 75 61 57 62 60 63 74 64
REMARK SMILES IDX 93 65 58 66 59 67 73 69 94 70 61 71 45 72 46 73 54 74 47 75
REMARK SMILES IDX 53 76 55 77 52 78 48 79 49 80 50 81 51 82 77 83 78 84 86 85
REMARK SMILES IDX 79 86 85 87 87 88 84 89 80 90 81 91 82 92 83 93 62 94 63 95
REMARK SMILES IDX 71 96 64 97 70 98 72 99 69 100 65 101 66 102 67 103 68 104
REMARK H PARENT 8 13 92 57 60 68
REMARK Flexibility Score: inf
ROOT
ATOM      1  C   UNL A   1      36.612  21.728  25.270  1.00  0.00     0.202 C 
ENDROOT
BRANCH   1   2
ATOM      2  O   UNL A   1      36.191  22.305  24.036  1.00  0.00    -0.374 OA
BRANCH   2   3
ATOM      3  C   UNL A   1      36.113  23.732  24.058  1.00  0.00     0.202 C 
BRANCH   3   4
ATOM      4  C   UNL A   1      34.713  24.238  24.410  1.00  0.00     0.261 C 
BRANCH   4   5
ATOM      5  O   UNL A   1      34.257  25.168  23.407  1.00  0.00    -0.460 OA
BRANCH   5   6
ATOM      6  C   UNL A   1      32.964  25.030  23.005  1.00  0.00     0.339 C 
ATOM      7  O   UNL A   1      32.434  25.584  22.062  1.00  0.00    -0.246 OA
BRANCH   6   8
ATOM      8  C   UNL A   1      32.283  24.088  23.907  1.00  0.00     0.075 A 
ATOM      9  C   UNL A   1      30.733  25.575  25.277  1.00  0.00     0.075 A 
ATOM     10  N   UNL A   1      30.070  25.281  26.447  1.00  0.00    -0.275 N 
ATOM     11  C   UNL A   1      31.420  24.405  24.970  1.00  0.00     0.061 A 
ATOM     12  N   UNL A   1      30.158  24.006  26.844  1.00  0.00    -0.154 NA
ATOM     13  H   UNL A   1      29.567  25.960  26.953  1.00  0.00     0.190 HD
ATOM     14  C   UNL A   1      30.934  23.443  25.920  1.00  0.00     0.182 A 
ATOM     15  N   UNL A   1      31.234  22.123  25.851  1.00  0.00    -0.226 NA
ATOM     16  C   UNL A   1      32.537  22.704  23.841  1.00  0.00     0.045 A 
ATOM     17  C   UNL A   1      32.022  21.787  24.792  1.00  0.00     0.074 A 
BRANCH   9  18
ATOM     18  C   UNL A   1      30.438  26.831  24.587  1.00  0.00     0.001 A 
ATOM     19  C   UNL A   1      29.839  29.343  23.446  1.00  0.00     0.118 A 
ATOM     20  C   UNL A   1      29.099  28.206  23.112  1.00  0.00     0.047 A 
ATOM     21  C   UNL A   1      30.929  29.210  24.302  1.00  0.00     0.047 A 
ATOM     22  C   UNL A   1      29.393  26.957  23.677  1.00  0.00     0.014 A 
ATOM     23  C   UNL A   1      31.240  27.956  24.845  1.00  0.00     0.014 A 
BRANCH  19  24
ATOM     24  O   UNL A   1      29.406  30.508  22.876  1.00  0.00    -0.497 OA
ATOM     25  C   UNL A   1      28.614  30.390  21.698  1.00  0.00     0.278 C 
ENDBRANCH  19  24
ENDBRANCH   9  18
BRANCH  17  26
ATOM     26  C   UNL A   1      32.375  20.350  24.721  1.00  0.00     0.000 A 
ATOM     27  C   UNL A   1      32.779  19.637  25.863  1.00  0.00     0.011 A 
ATOM     28  C   UNL A   1      32.351  19.655  23.499  1.00  0.00     0.011 A 
ATOM     29  C   UNL A   1      33.147  18.285  25.785  1.00  0.00     0.014 A 
ATOM     30  C   UNL A   1      32.721  18.308  23.416  1.00  0.00     0.014 A 
ATOM     31  C   UNL A   1      33.129  17.610  24.557  1.00  0.00     0.056 A 
BRANCH  31  32
ATOM     32  C   UNL A   1      33.566  16.167  24.470  1.00  0.00     0.416 C 
ATOM     33  F   UNL A   1      34.536  15.860  25.375  1.00  0.00    -0.166 F 
ATOM     34  F   UNL A   1      32.550  15.291  24.693  1.00  0.00    -0.166 F 
ATOM     35  F   UNL A   1      34.083  15.833  23.251  1.00  0.00    -0.166 F 
ENDBRANCH  31  32
ENDBRANCH  17  26
ENDBRANCH   6   8
ENDBRANCH   5   6
ENDBRANCH   4   5
ENDBRANCH   3   4
ENDBRANCH   2   3
ENDBRANCH   1   2
BRANCH   1  36
ATOM     36  C   UNL A   1      37.653  20.641  25.076  1.00  0.00     0.261 C 
BRANCH  36  37
ATOM     37  O   UNL A   1      38.893  21.157  25.528  1.00  0.00    -0.460 OA
BRANCH  37  38
ATOM     38  C   UNL A   1      39.861  20.236  25.780  1.00  0.00     0.338 C 
ATOM     39  O   UNL A   1      39.863  19.060  25.566  1.00  0.00    -0.246 OA
BRANCH  38  40
ATOM     40  C   UNL A   1      40.912  21.002  26.463  1.00  0.00     0.060 A 
ATOM     41  C   UNL A   1      40.876  20.948  27.849  1.00  0.00     0.016 A 
ATOM     42  C   UNL A   1      41.627  21.978  25.748  1.00  0.00     0.016 A 
ATOM     43  C   UNL A   1      41.307  22.063  28.525  1.00  0.00     0.010 A 
ATOM     44  C   UNL A   1      42.026  23.101  26.421  1.00  0.00     0.010 A 
ATOM     45  C   UNL A   1      41.762  23.163  27.786  1.00  0.00    -0.014 A 
BRANCH  45  46
ATOM     46  C   UNL A   1      42.068  24.374  28.507  1.00  0.00     0.031 A 
ATOM     47  C   UNL A   1      41.080  25.426  28.224  1.00  0.00     0.074 A 
ATOM     48  C   UNL A   1      43.080  24.472  29.387  1.00  0.00     0.049 A 
ATOM     49  N   UNL A   1      41.200  26.410  27.398  1.00  0.00    -0.248 NA
ATOM     50  C   UNL A   1      39.703  25.197  28.694  1.00  0.00     0.031 C 
ATOM     51  C   UNL A   1      43.917  23.405  29.937  1.00  0.00     0.029 A 
ATOM     52  N   UNL A   1      43.510  25.574  30.051  1.00  0.00    -0.354 N 
ATOM     53  C   UNL A   1      39.990  27.082  27.479  1.00  0.00     0.074 A 
ATOM     54  C   UNL A   1      39.051  26.135  28.009  1.00  0.00     0.031 C 
ATOM     55  C   UNL A   1      44.595  23.883  31.009  1.00  0.00     0.029 A 
ATOM     56  C   UNL A   1      44.336  25.310  31.137  1.00  0.00     0.049 A 
ATOM     57  H   UNL A   1      43.257  26.487  29.786  1.00  0.00     0.167 HD
ATOM     58  C   UNL A   1      39.948  28.440  27.444  1.00  0.00     0.034 A 
ATOM     59  C   UNL A   1      44.701  26.196  32.105  1.00  0.00     0.034 A 
ATOM     60  C   UNL A   1      41.182  28.975  26.900  1.00  0.00     0.049 A 
ATOM     61  C   UNL A   1      44.481  27.559  31.548  1.00  0.00     0.074 A 
ATOM     62  C   UNL A   1      41.867  28.796  25.712  1.00  0.00     0.029 A 
ATOM     63  N   UNL A   1      42.100  29.511  27.778  1.00  0.00    -0.354 N 
ATOM     64  N   UNL A   1      45.169  28.041  30.548  1.00  0.00    -0.248 NA
ATOM     65  C   UNL A   1      43.179  28.182  31.751  1.00  0.00     0.031 C 
ATOM     66  C   UNL A   1      43.245  28.773  26.076  1.00  0.00     0.029 A 
ATOM     67  C   UNL A   1      43.343  29.025  27.446  1.00  0.00     0.049 A 
ATOM     68  H   UNL A   1      41.900  30.133  28.515  1.00  0.00     0.167 HD
ATOM     69  C   UNL A   1      44.241  28.698  29.751  1.00  0.00     0.074 A 
ATOM     70  C   UNL A   1      43.053  28.835  30.591  1.00  0.00     0.031 C 
ATOM     71  C   UNL A   1      44.418  28.804  28.399  1.00  0.00     0.034 A 
BRANCH  58  72
ATOM     72  C   UNL A   1      38.994  29.271  28.280  1.00  0.00     0.023 A 
ATOM     73  C   UNL A   1      39.207  29.260  29.668  1.00  0.00     0.031 A 
ATOM     74  C   UNL A   1      37.764  29.833  27.858  1.00  0.00     0.131 A 
ATOM     75  C   UNL A   1      38.196  29.664  30.557  1.00  0.00     0.055 A 
ATOM     76  C   UNL A   1      36.788  30.293  28.745  1.00  0.00     0.041 A 
ATOM     77  F   UNL A   1      37.378  29.903  26.581  1.00  0.00    -0.206 F 
ATOM     78  C   UNL A   1      36.985  30.176  30.106  1.00  0.00     0.022 A 
BRANCH  75  79
ATOM     79  S   UNL A   1      38.433  29.332  32.317  1.00  0.00     0.124 S 
ATOM     80  O   UNL A   1      38.434  30.682  32.868  1.00  0.00    -0.237 OA
ATOM     81  O   UNL A   1      37.267  28.510  32.622  1.00  0.00    -0.237 OA
ATOM     82  O   UNL A   1      39.716  28.637  32.359  1.00  0.00    -0.744 OA
ENDBRANCH  75  79
ENDBRANCH  58  72
BRANCH  59  83
ATOM     83  C   UNL A   1      44.850  25.915  33.562  1.00  0.00     0.023 A 
ATOM     84  C   UNL A   1      43.862  26.235  34.520  1.00  0.00     0.031 A 
ATOM     85  C   UNL A   1      45.912  25.092  34.002  1.00  0.00     0.131 A 
ATOM     86  C   UNL A   1      43.969  25.743  35.845  1.00  0.00     0.055 A 
ATOM     87  C   UNL A   1      46.015  24.614  35.310  1.00  0.00     0.041 A 
ATOM     88  F   UNL A   1      46.849  24.652  33.148  1.00  0.00    -0.206 F 
ATOM     89  C   UNL A   1      45.038  24.932  36.237  1.00  0.00     0.022 A 
BRANCH  86  90
ATOM     90  S   UNL A   1      42.669  26.093  37.077  1.00  0.00     0.124 S 
ATOM     91  O   UNL A   1      42.083  27.329  36.571  1.00  0.00    -0.237 OA
ATOM     92  O   UNL A   1      41.837  24.899  37.000  1.00  0.00    -0.237 OA
ATOM     93  O   UNL A   1      43.414  26.238  38.329  1.00  0.00    -0.744 OA
ENDBRANCH  86  90
ENDBRANCH  59  83
BRANCH  71  94
ATOM     94  C   UNL A   1      45.787  28.480  27.826  1.00  0.00     0.023 A 
ATOM     95  C   UNL A   1      46.206  27.203  27.384  1.00  0.00     0.031 A 
ATOM     96  C   UNL A   1      46.664  29.558  27.618  1.00  0.00     0.131 A 
ATOM     97  C   UNL A   1      47.466  27.047  26.770  1.00  0.00     0.055 A 
ATOM     98  C   UNL A   1      47.899  29.404  26.990  1.00  0.00     0.041 A 
ATOM     99  F   UNL A   1      46.316  30.801  27.992  1.00  0.00    -0.206 F 
ATOM    100  C   UNL A   1      48.308  28.145  26.569  1.00  0.00     0.022 A 
BRANCH  97 101
ATOM    101  S   UNL A   1      48.046  25.404  26.230  1.00  0.00     0.124 S 
ATOM    102  O   UNL A   1      47.601  24.516  27.295  1.00  0.00    -0.237 OA
ATOM    103  O   UNL A   1      47.379  25.242  24.941  1.00  0.00    -0.237 OA
ATOM    104  O   UNL A   1      49.499  25.569  26.142  1.00  0.00    -0.744 OA
ENDBRANCH  97 101
ENDBRANCH  71  94
ENDBRANCH  45  46
ENDBRANCH  38  40
ENDBRANCH  37  38
ENDBRANCH  36  37
ENDBRANCH   1  36
TORSDOF 21
ENDMDL
MODEL 3
REMARK VINA RESULT:     -12.2      3.636      8.727
REMARK SMILES COc1ccc(-c2[nH]nc3nc(-c4ccc(C(F)(F)F)cc4)cc(C(=O)OCCOCCOC(=O)c4ccc(-c5c6nc(c(-c7cc(S(=O)(=O)[O-])ccc7F)c7ccc([nH]7)c(-c7cc(S(=O)(=O)[O-])ccc7F)c7nc(c(-c8cc(S(=O)(=O)[O-])ccc8F)c8ccc5[nH]8)C=C7)C=C6)cc4)c23)cc1
REMARK SMILES IDX 31 1 30 2 29 3 28 4 27 5 25 6 26 7 24 8 7 9 8 10 99 11 9 12
REMARK SMILES IDX 10 14 11 15 23 16 12 17 6 18 3 19 4 20 101 21 5 22 100 23
REMARK SMILES IDX 2 24 1 25 13 26 14 27 22 28 15 29 21 30 16 31 17 32 18 33
REMARK SMILES IDX 19 34 20 35 32 36 33 37 34 38 35 39 36 40 37 41 98 42 38 43
REMARK SMILES IDX 97 44 39 45 40 46 41 47 91 48 42 49 96 50 90 51 92 52 43 53
REMARK SMILES IDX 95 54 89 55 88 56 44 58 76 59 56 60 75 61 57 62 60 63 74 64
REMARK SMILES IDX 93 65 58 66 59 67 73 69 94 70 61 71 45 72 46 73 54 74 47 75
REMARK SMILES IDX 53 76 55 77 52 78 48 79 49 80 50 81 51 82 77 83 78 84 86 85
REMARK SMILES IDX 79 86 85 87 87 88 84 89 80 90 81 91 82 92 83 93 62 94 63 95
REMARK SMILES IDX 71 96 64 97 70 98 72 99 69 100 65 101 66 102 67 103 68 104
REMARK H PARENT 8 13 92 57 60 68
REMARK Flexibility Score: inf
ROOT
ATOM      1  C   UNL A   1      34.222  29.778  27.421  1.00  0.00     0.202 C 
ENDROOT
BRANCH   1   2
ATOM      2  O   UNL A   1      33.391  28.669  27.754  1.00  0.00    -0.374 OA
BRANCH   2   3
ATOM      3  C   UNL A   1      32.036  28.805  27.321  1.00  0.00     0.202 C 
BRANCH   3   4
ATOM      4  C   UNL A   1      31.683  27.843  26.186  1.00  0.00     0.261 C 
BRANCH   4   5
ATOM      5  O   UNL A   1      32.792  26.962  25.920  1.00  0.00    -0.460 OA
BRANCH   5   6
ATOM      6  C   UNL A   1      32.520  25.630  25.950  1.00  0.00     0.339 C 
ATOM      7  O   UNL A   1      31.723  25.067  26.674  1.00  0.00    -0.246 OA
BRANCH   6   8
ATOM      8  C   UNL A   1      33.360  24.950  24.950  1.00  0.00     0.075 A 
ATOM      9  C   UNL A   1      32.095  25.292  22.765  1.00  0.00     0.075 A 
ATOM     10  N   UNL A   1      32.263  24.643  21.562  1.00  0.00    -0.275 N 
ATOM     11  C   UNL A   1      33.050  24.719  23.599  1.00  0.00     0.061 A 
ATOM     12  N   UNL A   1      33.313  23.814  21.506  1.00  0.00    -0.154 NA
ATOM     13  H   UNL A   1      31.657  24.781  20.799  1.00  0.00     0.190 HD
ATOM     14  C   UNL A   1      33.840  23.893  22.727  1.00  0.00     0.182 A 
ATOM     15  N   UNL A   1      34.986  23.289  23.123  1.00  0.00    -0.226 NA
ATOM     16  C   UNL A   1      34.579  24.345  25.313  1.00  0.00     0.045 A 
ATOM     17  C   UNL A   1      35.334  23.549  24.415  1.00  0.00     0.074 A 
BRANCH   9  18
ATOM     18  C   UNL A   1      31.198  26.445  22.832  1.00  0.00     0.001 A 
ATOM     19  C   UNL A   1      29.609  28.765  23.086  1.00  0.00     0.118 A 
ATOM     20  C   UNL A   1      29.112  27.509  23.448  1.00  0.00     0.047 A 
ATOM     21  C   UNL A   1      30.881  28.851  22.529  1.00  0.00     0.047 A 
ATOM     22  C   UNL A   1      29.899  26.355  23.324  1.00  0.00     0.014 A 
ATOM     23  C   UNL A   1      31.657  27.694  22.379  1.00  0.00     0.014 A 
BRANCH  19  24
ATOM     24  O   UNL A   1      28.763  29.814  23.320  1.00  0.00    -0.497 OA
ATOM     25  C   UNL A   1      27.380  29.592  23.062  1.00  0.00     0.278 C 
ENDBRANCH  19  24
ENDBRANCH   9  18
BRANCH  17  26
ATOM     26  C   UNL A   1      36.573  22.875  24.865  1.00  0.00     0.000 A 
ATOM     27  C   UNL A   1      36.848  21.539  24.521  1.00  0.00     0.011 A 
ATOM     28  C   UNL A   1      37.507  23.538  25.682  1.00  0.00     0.011 A 
ATOM     29  C   UNL A   1      38.006  20.893  24.979  1.00  0.00     0.014 A 
ATOM     30  C   UNL A   1      38.660  22.896  26.144  1.00  0.00     0.014 A 
ATOM     31  C   UNL A   1      38.920  21.564  25.803  1.00  0.00     0.056 A 
BRANCH  31  32
ATOM     32  C   UNL A   1      40.143  20.852  26.328  1.00  0.00     0.416 C 
ATOM     33  F   UNL A   1      41.292  21.290  25.744  1.00  0.00    -0.166 F 
ATOM     34  F   UNL A   1      40.316  21.013  27.668  1.00  0.00    -0.166 F 
ATOM     35  F   UNL A   1      40.116  19.504  26.116  1.00  0.00    -0.166 F 
ENDBRANCH  31  32
ENDBRANCH  17  26
ENDBRANCH   6   8
ENDBRANCH   5   6
ENDBRANCH   4   5
ENDBRANCH   3   4
ENDBRANCH   2   3
ENDBRANCH   1   2
BRANCH   1  36
ATOM     36  C   UNL A   1      33.424  30.973  26.932  1.00  0.00     0.261 C 
BRANCH  36  37
ATOM     37  O   UNL A   1      32.923  31.645  28.074  1.00  0.00    -0.460 OA
BRANCH  37  38
ATOM     38  C   UNL A   1      33.015  33.001  28.053  1.00  0.00     0.338 C 
ATOM     39  O   UNL A   1      32.283  33.803  27.551  1.00  0.00    -0.246 OA
BRANCH  38  40
ATOM     40  C   UNL A   1      34.284  33.283  28.735  1.00  0.00     0.060 A 
ATOM     41  C   UNL A   1      35.276  33.832  27.934  1.00  0.00     0.016 A 
ATOM     42  C   UNL A   1      34.542  32.689  29.982  1.00  0.00     0.016 A 
ATOM     43  C   UNL A   1      36.574  33.509  28.244  1.00  0.00     0.010 A 
ATOM     44  C   UNL A   1      35.834  32.341  30.271  1.00  0.00     0.010 A 
ATOM     45  C   UNL A   1      36.814  32.669  29.340  1.00  0.00    -0.014 A 
BRANCH  45  46
ATOM     46  C   UNL A   1      38.168  32.222  29.558  1.00  0.00     0.031 A 
ATOM     47  C   UNL A   1      38.306  30.786  29.275  1.00  0.00     0.074 A 
ATOM     48  C   UNL A   1      39.173  33.051  29.888  1.00  0.00     0.049 A 
ATOM     49  N   UNL A   1      38.317  29.819  30.128  1.00  0.00    -0.248 NA
ATOM     50  C   UNL A   1      38.123  30.356  27.878  1.00  0.00     0.031 C 
ATOM     51  C   UNL A   1      39.182  34.515  29.901  1.00  0.00     0.029 A 
ATOM     52  N   UNL A   1      40.455  32.734  30.199  1.00  0.00    -0.354 N 
ATOM     53  C   UNL A   1      38.435  28.673  29.355  1.00  0.00     0.074 A 
ATOM     54  C   UNL A   1      37.990  29.041  28.042  1.00  0.00     0.031 C 
ATOM     55  C   UNL A   1      40.463  34.949  29.986  1.00  0.00     0.029 A 
ATOM     56  C   UNL A   1      41.343  33.802  30.159  1.00  0.00     0.049 A 
ATOM     57  H   UNL A   1      40.734  31.820  30.433  1.00  0.00     0.167 HD
ATOM     58  C   UNL A   1      39.214  27.638  29.765  1.00  0.00     0.034 A 
ATOM     59  C   UNL A   1      42.702  33.721  30.185  1.00  0.00     0.034 A 
ATOM     60  C   UNL A   1      39.485  27.733  31.187  1.00  0.00     0.049 A 
ATOM     61  C   UNL A   1      43.044  32.385  30.745  1.00  0.00     0.074 A 
ATOM     62  C   UNL A   1      38.688  27.803  32.315  1.00  0.00     0.029 A 
ATOM     63  N   UNL A   1      40.725  28.188  31.582  1.00  0.00    -0.354 N 
ATOM     64  N   UNL A   1      42.787  32.040  31.978  1.00  0.00    -0.248 NA
ATOM     65  C   UNL A   1      43.196  31.270  29.818  1.00  0.00     0.031 C 
ATOM     66  C   UNL A   1      39.342  28.733  33.176  1.00  0.00     0.029 A 
ATOM     67  C   UNL A   1      40.543  29.120  32.576  1.00  0.00     0.049 A 
ATOM     68  H   UNL A   1      41.591  27.895  31.216  1.00  0.00     0.167 HD
ATOM     69  C   UNL A   1      42.322  30.735  31.903  1.00  0.00     0.074 A 
ATOM     70  C   UNL A   1      42.689  30.281  30.562  1.00  0.00     0.031 C 
ATOM     71  C   UNL A   1      41.429  30.247  32.817  1.00  0.00     0.034 A 
BRANCH  58  72
ATOM     72  C   UNL A   1      40.063  26.804  28.824  1.00  0.00     0.023 A 
ATOM     73  C   UNL A   1      41.053  27.490  28.103  1.00  0.00     0.031 A 
ATOM     74  C   UNL A   1      39.800  25.482  28.390  1.00  0.00     0.131 A 
ATOM     75  C   UNL A   1      41.631  26.925  26.954  1.00  0.00     0.055 A 
ATOM     76  C   UNL A   1      40.425  24.900  27.285  1.00  0.00     0.041 A 
ATOM     77  F   UNL A   1      38.873  24.690  28.938  1.00  0.00    -0.206 F 
ATOM     78  C   UNL A   1      41.321  25.636  26.536  1.00  0.00     0.022 A 
BRANCH  75  79
ATOM     79  S   UNL A   1      42.663  27.983  25.915  1.00  0.00     0.124 S 
ATOM     80  O   UNL A   1      42.476  27.372  24.604  1.00  0.00    -0.237 OA
ATOM     81  O   UNL A   1      42.043  29.289  26.115  1.00  0.00    -0.237 OA
ATOM     82  O   UNL A   1      43.994  27.828  26.494  1.00  0.00    -0.744 OA
ENDBRANCH  75  79
ENDBRANCH  58  72
BRANCH  59  83
ATOM     83  C   UNL A   1      43.662  34.561  29.412  1.00  0.00     0.023 A 
ATOM     84  C   UNL A   1      44.236  34.155  28.186  1.00  0.00     0.031 A 
ATOM     85  C   UNL A   1      43.849  35.913  29.779  1.00  0.00     0.131 A 
ATOM     86  C   UNL A   1      44.960  35.084  27.397  1.00  0.00     0.055 A 
ATOM     87  C   UNL A   1      44.567  36.822  29.000  1.00  0.00     0.041 A 
ATOM     88  F   UNL A   1      43.263  36.422  30.875  1.00  0.00    -0.206 F 
ATOM     89  C   UNL A   1      45.120  36.413  27.799  1.00  0.00     0.022 A 
BRANCH  86  90
ATOM     90  S   UNL A   1      45.652  34.594  25.781  1.00  0.00     0.124 S 
ATOM     91  O   UNL A   1      46.603  35.666  25.510  1.00  0.00    -0.237 OA
ATOM     92  O   UNL A   1      46.216  33.281  26.068  1.00  0.00    -0.237 OA
ATOM     93  O   UNL A   1      44.483  34.577  24.899  1.00  0.00    -0.744 OA
ENDBRANCH  86  90
ENDBRANCH  59  83
BRANCH  71  94
ATOM     94  C   UNL A   1      41.200  31.040  34.091  1.00  0.00     0.023 A 
ATOM     95  C   UNL A   1      42.009  30.976  35.250  1.00  0.00     0.031 A 
ATOM     96  C   UNL A   1      40.167  31.994  34.073  1.00  0.00     0.131 A 
ATOM     97  C   UNL A   1      41.758  31.842  36.335  1.00  0.00     0.055 A 
ATOM     98  C   UNL A   1      39.937  32.863  35.138  1.00  0.00     0.041 A 
ATOM     99  F   UNL A   1      39.379  32.123  32.993  1.00  0.00    -0.206 F 
ATOM    100  C   UNL A   1      40.728  32.787  36.277  1.00  0.00     0.022 A 
BRANCH  97 101
ATOM    101  S   UNL A   1      42.759  31.751  37.856  1.00  0.00     0.124 S 
ATOM    102  O   UNL A   1      41.772  31.859  38.923  1.00  0.00    -0.237 OA
ATOM    103  O   UNL A   1      43.417  30.453  37.723  1.00  0.00    -0.237 OA
ATOM    104  O   UNL A   1      43.660  32.900  37.741  1.00  0.00    -0.744 OA
ENDBRANCH  97 101
ENDBRANCH  71  94
ENDBRANCH  45  46
ENDBRANCH  38  40
ENDBRANCH  37  38
ENDBRANCH  36  37
ENDBRANCH   1  36
TORSDOF 21
ENDMDL
