MODEL 1
REMARK VINA RESULT:     -12.4      0.000      0.000
REMARK SMILES Cc1cc(C(=O)OCCOCCOC(=O)c2ccc(-c3c4nc(c(-c5cc(S(=O)(=O)[O-])ccc5F)c5ccc([nH]5)c(-c5cc(S(=O)(=O)[O-])ccc5F)c5nc(c(-c6cc(S(=O)(=O)[O-])ccc6F)c6ccc3[nH]6)C=C5)C=C4)cc2)ccc1NC(=O)N1C[C@@H](C)[C@H](C)C1
REMARK SMILES IDX 11 1 10 2 9 3 8 4 7 5 5 6 6 7 4 8 1 9 2 10 3 11 81 12 80 13
REMARK SMILES IDX 79 14 82 15 83 16 84 18 85 19 86 20 91 21 87 22 89 23 88 24
REMARK SMILES IDX 90 25 12 26 13 27 14 28 15 29 16 30 17 31 78 32 18 33 77 34
REMARK SMILES IDX 19 35 20 36 21 37 71 38 22 39 76 40 70 41 72 42 23 43 75 44
REMARK SMILES IDX 69 45 68 46 24 48 56 49 36 50 55 51 37 52 40 53 54 54 73 55
REMARK SMILES IDX 38 56 39 57 53 59 74 60 41 61 25 62 26 63 34 64 27 65 33 66
REMARK SMILES IDX 35 67 32 68 28 69 29 70 30 71 31 72 57 73 58 74 66 75 59 76
REMARK SMILES IDX 65 77 67 78 64 79 60 80 61 81 62 82 63 83 42 84 43 85 51 86
REMARK SMILES IDX 44 87 50 88 52 89 49 90 45 91 46 92 47 93 48 94
REMARK H PARENT 82 17 72 47 40 58
REMARK Flexibility Score: inf
ROOT
ATOM      1  C   UNL A   1      42.573  18.915  26.220  1.00  0.00     0.202 C 
ENDROOT
BRANCH   1   2
ATOM      2  O   UNL A   1      41.555  19.748  25.721  1.00  0.00    -0.374 OA
BRANCH   2   3
ATOM      3  C   UNL A   1      40.726  20.357  26.703  1.00  0.00     0.202 C 
BRANCH   3   4
ATOM      4  C   UNL A   1      40.011  21.453  25.980  1.00  0.00     0.261 C 
BRANCH   4   5
ATOM      5  O   UNL A   1      38.578  21.389  26.070  1.00  0.00    -0.460 OA
BRANCH   5   6
ATOM      6  C   UNL A   1      37.881  20.636  25.184  1.00  0.00     0.338 C 
ATOM      7  O   UNL A   1      38.194  19.579  24.680  1.00  0.00    -0.246 OA
BRANCH   6   8
ATOM      8  C   UNL A   1      36.661  21.405  24.886  1.00  0.00     0.060 A 
ATOM      9  C   UNL A   1      33.124  21.795  26.136  1.00  0.00     0.046 C 
ATOM     10  C   UNL A   1      34.303  21.868  25.211  1.00  0.00    -0.027 A 
ATOM     11  C   UNL A   1      35.491  21.229  25.623  1.00  0.00     0.021 A 
ATOM     12  C   UNL A   1      34.323  22.594  24.006  1.00  0.00     0.045 A 
ATOM     13  C   UNL A   1      35.546  22.979  23.472  1.00  0.00     0.027 A 
ATOM     14  C   UNL A   1      36.700  22.352  23.866  1.00  0.00     0.018 A 
BRANCH  12  15
ATOM     15  N   UNL A   1      33.151  22.905  23.291  1.00  0.00    -0.308 N 
ATOM     16  C   UNL A   1      32.162  23.792  23.639  1.00  0.00     0.321 C 
ATOM     17  H   UNL A   1      33.025  22.428  22.438  1.00  0.00     0.171 HD
ATOM     18  O   UNL A   1      31.014  23.583  23.240  1.00  0.00    -0.248 OA
ATOM     19  N   UNL A   1      32.474  24.876  24.425  1.00  0.00    -0.324 N 
ATOM     20  C   UNL A   1      31.560  25.371  25.435  1.00  0.00     0.125 C 
ATOM     21  C   UNL A   1      33.573  25.824  24.205  1.00  0.00     0.125 C 
ATOM     22  C   UNL A   1      31.834  26.866  25.523  1.00  0.00     0.010 C 
ATOM     23  C   UNL A   1      33.338  26.968  25.206  1.00  0.00     0.010 C 
ATOM     24  C   UNL A   1      31.460  27.450  26.877  1.00  0.00     0.010 C 
ATOM     25  C   UNL A   1      33.735  28.339  24.664  1.00  0.00     0.010 C 
ENDBRANCH  12  15
ENDBRANCH   6   8
ENDBRANCH   5   6
ENDBRANCH   4   5
ENDBRANCH   3   4
ENDBRANCH   2   3
ENDBRANCH   1   2
BRANCH   1  26
ATOM     26  C   UNL A   1      43.805  18.906  25.311  1.00  0.00     0.261 C 
BRANCH  26  27
ATOM     27  O   UNL A   1      43.905  20.171  24.619  1.00  0.00    -0.460 OA
BRANCH  27  28
ATOM     28  C   UNL A   1      44.749  21.088  25.171  1.00  0.00     0.338 C 
ATOM     29  O   UNL A   1      45.908  20.872  25.485  1.00  0.00    -0.246 OA
BRANCH  28  30
ATOM     30  C   UNL A   1      44.011  22.352  25.473  1.00  0.00     0.060 A 
ATOM     31  C   UNL A   1      44.031  23.431  24.565  1.00  0.00     0.016 A 
ATOM     32  C   UNL A   1      43.544  22.550  26.770  1.00  0.00     0.016 A 
ATOM     33  C   UNL A   1      43.726  24.733  25.002  1.00  0.00     0.010 A 
ATOM     34  C   UNL A   1      43.332  23.838  27.214  1.00  0.00     0.010 A 
ATOM     35  C   UNL A   1      43.454  24.944  26.354  1.00  0.00    -0.014 A 
BRANCH  35  36
ATOM     36  C   UNL A   1      43.429  26.236  27.053  1.00  0.00     0.031 A 
ATOM     37  C   UNL A   1      42.133  26.929  27.207  1.00  0.00     0.074 A 
ATOM     38  C   UNL A   1      44.475  26.613  27.834  1.00  0.00     0.049 A 
ATOM     39  N   UNL A   1      42.010  28.094  27.733  1.00  0.00    -0.248 NA
ATOM     40  C   UNL A   1      40.851  26.397  26.743  1.00  0.00     0.031 C 
ATOM     41  C   UNL A   1      44.472  27.469  29.023  1.00  0.00     0.029 A 
ATOM     42  N   UNL A   1      45.820  26.267  27.713  1.00  0.00    -0.354 N 
ATOM     43  C   UNL A   1      40.683  28.294  28.015  1.00  0.00     0.074 A 
ATOM     44  C   UNL A   1      39.994  27.293  27.246  1.00  0.00     0.031 C 
ATOM     45  C   UNL A   1      45.735  27.798  29.350  1.00  0.00     0.029 A 
ATOM     46  C   UNL A   1      46.604  27.261  28.317  1.00  0.00     0.049 A 
ATOM     47  H   UNL A   1      46.165  25.456  27.274  1.00  0.00     0.167 HD
ATOM     48  C   UNL A   1      40.370  29.210  28.973  1.00  0.00     0.034 A 
ATOM     49  C   UNL A   1      47.555  27.907  27.595  1.00  0.00     0.034 A 
ATOM     50  C   UNL A   1      41.567  29.973  29.366  1.00  0.00     0.049 A 
ATOM     51  C   UNL A   1      47.073  29.322  27.421  1.00  0.00     0.074 A 
ATOM     52  C   UNL A   1      42.337  30.037  30.514  1.00  0.00     0.029 A 
ATOM     53  N   UNL A   1      42.310  30.613  28.369  1.00  0.00    -0.354 N 
ATOM     54  N   UNL A   1      45.816  29.653  27.578  1.00  0.00    -0.248 NA
ATOM     55  C   UNL A   1      47.934  30.480  27.226  1.00  0.00     0.031 C 
ATOM     56  C   UNL A   1      43.599  30.610  30.157  1.00  0.00     0.029 A 
ATOM     57  C   UNL A   1      43.577  30.942  28.808  1.00  0.00     0.049 A 
ATOM     58  H   UNL A   1      41.972  30.804  27.465  1.00  0.00     0.167 HD
ATOM     59  C   UNL A   1      45.699  31.002  27.637  1.00  0.00     0.074 A 
ATOM     60  C   UNL A   1      47.046  31.484  27.358  1.00  0.00     0.031 C 
ATOM     61  C   UNL A   1      44.519  31.626  27.924  1.00  0.00     0.034 A 
BRANCH  48  62
ATOM     62  C   UNL A   1      39.034  29.339  29.680  1.00  0.00     0.023 A 
ATOM     63  C   UNL A   1      38.042  30.161  29.101  1.00  0.00     0.031 A 
ATOM     64  C   UNL A   1      38.682  28.777  30.929  1.00  0.00     0.131 A 
ATOM     65  C   UNL A   1      36.801  30.381  29.733  1.00  0.00     0.055 A 
ATOM     66  C   UNL A   1      37.428  28.951  31.530  1.00  0.00     0.041 A 
ATOM     67  F   UNL A   1      39.541  28.074  31.674  1.00  0.00    -0.206 F 
ATOM     68  C   UNL A   1      36.477  29.760  30.934  1.00  0.00     0.022 A 
BRANCH  65  69
ATOM     69  S   UNL A   1      35.619  31.534  28.985  1.00  0.00     0.124 S 
ATOM     70  O   UNL A   1      36.501  32.507  28.349  1.00  0.00    -0.237 OA
ATOM     71  O   UNL A   1      34.859  30.666  28.093  1.00  0.00    -0.237 OA
ATOM     72  O   UNL A   1      34.869  32.044  30.133  1.00  0.00    -0.744 OA
ENDBRANCH  65  69
ENDBRANCH  48  62
BRANCH  49  73
ATOM     73  C   UNL A   1      48.252  26.968  26.652  1.00  0.00     0.023 A 
ATOM     74  C   UNL A   1      47.945  27.126  25.270  1.00  0.00     0.031 A 
ATOM     75  C   UNL A   1      49.483  26.372  26.969  1.00  0.00     0.131 A 
ATOM     76  C   UNL A   1      48.899  26.832  24.275  1.00  0.00     0.055 A 
ATOM     77  C   UNL A   1      50.424  26.059  25.971  1.00  0.00     0.041 A 
ATOM     78  F   UNL A   1      49.864  26.231  28.246  1.00  0.00    -0.206 F 
ATOM     79  C   UNL A   1      50.152  26.323  24.625  1.00  0.00     0.022 A 
BRANCH  76  80
ATOM     80  S   UNL A   1      48.647  27.459  22.568  1.00  0.00     0.124 S 
ATOM     81  O   UNL A   1      48.655  26.234  21.779  1.00  0.00    -0.237 OA
ATOM     82  O   UNL A   1      47.364  28.155  22.651  1.00  0.00    -0.237 OA
ATOM     83  O   UNL A   1      49.788  28.352  22.368  1.00  0.00    -0.744 OA
ENDBRANCH  76  80
ENDBRANCH  49  73
BRANCH  61  84
ATOM     84  C   UNL A   1      44.208  32.999  27.402  1.00  0.00     0.023 A 
ATOM     85  C   UNL A   1      44.125  34.099  28.263  1.00  0.00     0.031 A 
ATOM     86  C   UNL A   1      44.114  33.283  26.023  1.00  0.00     0.131 A 
ATOM     87  C   UNL A   1      43.814  35.373  27.785  1.00  0.00     0.055 A 
ATOM     88  C   UNL A   1      43.930  34.579  25.537  1.00  0.00     0.041 A 
ATOM     89  F   UNL A   1      44.217  32.324  25.092  1.00  0.00    -0.206 F 
ATOM     90  C   UNL A   1      43.746  35.633  26.422  1.00  0.00     0.022 A 
BRANCH  87  91
ATOM     91  S   UNL A   1      43.371  36.621  29.012  1.00  0.00     0.124 S 
ATOM     92  O   UNL A   1      42.996  35.791  30.155  1.00  0.00    -0.237 OA
ATOM     93  O   UNL A   1      44.612  37.374  29.162  1.00  0.00    -0.237 OA
ATOM     94  O   UNL A   1      42.272  37.346  28.382  1.00  0.00    -0.744 OA
ENDBRANCH  87  91
ENDBRANCH  61  84
ENDBRANCH  35  36
ENDBRANCH  28  30
ENDBRANCH  27  28
ENDBRANCH  26  27
ENDBRANCH   1  26
TORSDOF 18
ENDMDL
MODEL 2
REMARK VINA RESULT:     -12.2      4.159     10.169
REMARK SMILES Cc1cc(C(=O)OCCOCCOC(=O)c2ccc(-c3c4nc(c(-c5cc(S(=O)(=O)[O-])ccc5F)c5ccc([nH]5)c(-c5cc(S(=O)(=O)[O-])ccc5F)c5nc(c(-c6cc(S(=O)(=O)[O-])ccc6F)c6ccc3[nH]6)C=C5)C=C4)cc2)ccc1NC(=O)N1C[C@@H](C)[C@H](C)C1
REMARK SMILES IDX 11 1 10 2 9 3 8 4 7 5 5 6 6 7 4 8 1 9 2 10 3 11 81 12 80 13
REMARK SMILES IDX 79 14 82 15 83 16 84 18 85 19 86 20 91 21 87 22 89 23 88 24
REMARK SMILES IDX 90 25 12 26 13 27 14 28 15 29 16 30 17 31 78 32 18 33 77 34
REMARK SMILES IDX 19 35 20 36 21 37 71 38 22 39 76 40 70 41 72 42 23 43 75 44
REMARK SMILES IDX 69 45 68 46 24 48 56 49 36 50 55 51 37 52 40 53 54 54 73 55
REMARK SMILES IDX 38 56 39 57 53 59 74 60 41 61 25 62 26 63 34 64 27 65 33 66
REMARK SMILES IDX 35 67 32 68 28 69 29 70 30 71 31 72 57 73 58 74 66 75 59 76
REMARK SMILES IDX 65 77 67 78 64 79 60 80 61 81 62 82 63 83 42 84 43 85 51 86
REMARK SMILES IDX 44 87 50 88 52 89 49 90 45 91 46 92 47 93 48 94
REMARK H PARENT 82 17 72 47 40 58
REMARK Flexibility Score: inf
ROOT
ATOM      1  C   UNL A   1      32.435  29.304  27.336  1.00  0.00     0.202 C 
ENDROOT
BRANCH   1   2
ATOM      2  O   UNL A   1      31.560  29.009  26.274  1.00  0.00    -0.374 OA
BRANCH   2   3
ATOM      3  C   UNL A   1      31.928  29.548  25.010  1.00  0.00     0.202 C 
BRANCH   3   4
ATOM      4  C   UNL A   1      30.658  30.091  24.437  1.00  0.00     0.261 C 
BRANCH   4   5
ATOM      5  O   UNL A   1      30.317  29.563  23.144  1.00  0.00    -0.460 OA
BRANCH   5   6
ATOM      6  C   UNL A   1      29.339  28.630  23.035  1.00  0.00     0.338 C 
ATOM      7  O   UNL A   1      28.141  28.796  22.960  1.00  0.00    -0.246 OA
BRANCH   6   8
ATOM      8  C   UNL A   1      30.026  27.329  23.099  1.00  0.00     0.060 A 
ATOM      9  C   UNL A   1      32.843  25.473  21.412  1.00  0.00     0.046 C 
ATOM     10  C   UNL A   1      31.602  25.708  22.222  1.00  0.00    -0.027 A 
ATOM     11  C   UNL A   1      31.074  27.016  22.235  1.00  0.00     0.021 A 
ATOM     12  C   UNL A   1      30.983  24.734  23.027  1.00  0.00     0.045 A 
ATOM     13  C   UNL A   1      30.155  25.144  24.064  1.00  0.00     0.027 A 
ATOM     14  C   UNL A   1      29.635  26.412  24.071  1.00  0.00     0.018 A 
BRANCH  12  15
ATOM     15  N   UNL A   1      31.131  23.354  22.792  1.00  0.00    -0.308 N 
ATOM     16  C   UNL A   1      32.262  22.589  22.945  1.00  0.00     0.321 C 
ATOM     17  H   UNL A   1      30.326  22.879  22.479  1.00  0.00     0.171 HD
ATOM     18  O   UNL A   1      32.400  21.590  22.236  1.00  0.00    -0.248 OA
ATOM     19  N   UNL A   1      33.207  22.961  23.872  1.00  0.00    -0.324 N 
ATOM     20  C   UNL A   1      34.624  22.790  23.623  1.00  0.00     0.125 C 
ATOM     21  C   UNL A   1      32.960  23.301  25.279  1.00  0.00     0.125 C 
ATOM     22  C   UNL A   1      35.246  22.565  24.995  1.00  0.00     0.010 C 
ATOM     23  C   UNL A   1      34.351  23.400  25.929  1.00  0.00     0.010 C 
ATOM     24  C   UNL A   1      36.713  22.966  25.044  1.00  0.00     0.010 C 
ATOM     25  C   UNL A   1      34.382  22.905  27.373  1.00  0.00     0.010 C 
ENDBRANCH  12  15
ENDBRANCH   6   8
ENDBRANCH   5   6
ENDBRANCH   4   5
ENDBRANCH   3   4
ENDBRANCH   2   3
ENDBRANCH   1   2
BRANCH   1  26
ATOM     26  C   UNL A   1      33.276  30.553  27.057  1.00  0.00     0.261 C 
BRANCH  26  27
ATOM     27  O   UNL A   1      33.847  31.038  28.293  1.00  0.00    -0.460 OA
BRANCH  27  28
ATOM     28  C   UNL A   1      35.128  31.501  28.218  1.00  0.00     0.338 C 
ATOM     29  O   UNL A   1      35.443  32.640  27.917  1.00  0.00    -0.246 OA
BRANCH  28  30
ATOM     30  C   UNL A   1      36.093  30.377  28.412  1.00  0.00     0.060 A 
ATOM     31  C   UNL A   1      36.333  29.850  29.698  1.00  0.00     0.016 A 
ATOM     32  C   UNL A   1      36.949  30.052  27.363  1.00  0.00     0.016 A 
ATOM     33  C   UNL A   1      37.510  29.124  29.960  1.00  0.00     0.010 A 
ATOM     34  C   UNL A   1      38.140  29.418  27.644  1.00  0.00     0.010 A 
ATOM     35  C   UNL A   1      38.454  28.979  28.943  1.00  0.00    -0.014 A 
BRANCH  35  36
ATOM     36  C   UNL A   1      39.850  28.549  29.096  1.00  0.00     0.031 A 
ATOM     37  C   UNL A   1      40.204  27.162  28.724  1.00  0.00     0.074 A 
ATOM     38  C   UNL A   1      40.840  29.469  29.230  1.00  0.00     0.049 A 
ATOM     39  N   UNL A   1      41.376  26.662  28.889  1.00  0.00    -0.248 NA
ATOM     40  C   UNL A   1      39.263  26.188  28.172  1.00  0.00     0.031 C 
ATOM     41  C   UNL A   1      42.244  29.375  28.820  1.00  0.00     0.029 A 
ATOM     42  N   UNL A   1      40.770  30.749  29.779  1.00  0.00    -0.354 N 
ATOM     43  C   UNL A   1      41.448  25.505  28.158  1.00  0.00     0.074 A 
ATOM     44  C   UNL A   1      40.079  25.174  27.865  1.00  0.00     0.031 C 
ATOM     45  C   UNL A   1      42.944  30.390  29.357  1.00  0.00     0.029 A 
ATOM     46  C   UNL A   1      42.044  31.122  30.232  1.00  0.00     0.049 A 
ATOM     47  H   UNL A   1      39.958  31.301  29.840  1.00  0.00     0.167 HD
ATOM     48  C   UNL A   1      42.683  25.060  27.796  1.00  0.00     0.034 A 
ATOM     49  C   UNL A   1      42.227  31.467  31.532  1.00  0.00     0.034 A 
ATOM     50  C   UNL A   1      43.731  25.840  28.478  1.00  0.00     0.049 A 
ATOM     51  C   UNL A   1      43.053  30.373  32.154  1.00  0.00     0.074 A 
ATOM     52  C   UNL A   1      44.680  26.755  28.058  1.00  0.00     0.029 A 
ATOM     53  N   UNL A   1      43.689  25.941  29.872  1.00  0.00    -0.354 N 
ATOM     54  N   UNL A   1      43.152  29.185  31.613  1.00  0.00    -0.248 NA
ATOM     55  C   UNL A   1      43.938  30.540  33.298  1.00  0.00     0.031 C 
ATOM     56  C   UNL A   1      45.109  27.491  29.208  1.00  0.00     0.029 A 
ATOM     57  C   UNL A   1      44.464  26.988  30.330  1.00  0.00     0.049 A 
ATOM     58  H   UNL A   1      43.171  25.341  30.454  1.00  0.00     0.167 HD
ATOM     59  C   UNL A   1      44.153  28.491  32.208  1.00  0.00     0.074 A 
ATOM     60  C   UNL A   1      44.584  29.359  33.296  1.00  0.00     0.031 C 
ATOM     61  C   UNL A   1      44.567  27.268  31.762  1.00  0.00     0.034 A 
BRANCH  48  62
ATOM     62  C   UNL A   1      42.981  24.031  26.721  1.00  0.00     0.023 A 
ATOM     63  C   UNL A   1      42.407  22.746  26.842  1.00  0.00     0.031 A 
ATOM     64  C   UNL A   1      43.855  24.188  25.621  1.00  0.00     0.131 A 
ATOM     65  C   UNL A   1      42.689  21.719  25.918  1.00  0.00     0.055 A 
ATOM     66  C   UNL A   1      44.092  23.185  24.672  1.00  0.00     0.041 A 
ATOM     67  F   UNL A   1      44.578  25.295  25.423  1.00  0.00    -0.206 F 
ATOM     68  C   UNL A   1      43.511  21.938  24.817  1.00  0.00     0.022 A 
BRANCH  65  69
ATOM     69  S   UNL A   1      42.002  20.065  26.195  1.00  0.00     0.124 S 
ATOM     70  O   UNL A   1      40.566  20.315  26.127  1.00  0.00    -0.237 OA
ATOM     71  O   UNL A   1      42.581  19.299  25.098  1.00  0.00    -0.237 OA
ATOM     72  O   UNL A   1      42.500  19.709  27.524  1.00  0.00    -0.744 OA
ENDBRANCH  65  69
ENDBRANCH  48  62
BRANCH  49  73
ATOM     73  C   UNL A   1      41.060  32.255  32.054  1.00  0.00     0.023 A 
ATOM     74  C   UNL A   1      40.156  31.549  32.899  1.00  0.00     0.031 A 
ATOM     75  C   UNL A   1      41.106  33.651  32.193  1.00  0.00     0.131 A 
ATOM     76  C   UNL A   1      39.452  32.211  33.926  1.00  0.00     0.055 A 
ATOM     77  C   UNL A   1      40.384  34.311  33.205  1.00  0.00     0.041 A 
ATOM     78  F   UNL A   1      41.963  34.381  31.466  1.00  0.00    -0.206 F 
ATOM     79  C   UNL A   1      39.587  33.591  34.099  1.00  0.00     0.022 A 
BRANCH  76  80
ATOM     80  S   UNL A   1      38.663  31.227  35.260  1.00  0.00     0.124 S 
ATOM     81  O   UNL A   1      37.446  31.982  35.528  1.00  0.00    -0.237 OA
ATOM     82  O   UNL A   1      38.475  29.915  34.644  1.00  0.00    -0.237 OA
ATOM     83  O   UNL A   1      39.666  31.240  36.324  1.00  0.00    -0.744 OA
ENDBRANCH  76  80
ENDBRANCH  49  73
BRANCH  61  84
ATOM     84  C   UNL A   1      45.167  26.253  32.691  1.00  0.00     0.023 A 
ATOM     85  C   UNL A   1      44.362  25.350  33.393  1.00  0.00     0.031 A 
ATOM     86  C   UNL A   1      46.560  26.063  32.809  1.00  0.00     0.131 A 
ATOM     87  C   UNL A   1      44.914  24.420  34.276  1.00  0.00     0.055 A 
ATOM     88  C   UNL A   1      47.113  25.049  33.593  1.00  0.00     0.041 A 
ATOM     89  F   UNL A   1      47.440  26.835  32.156  1.00  0.00    -0.206 F 
ATOM     90  C   UNL A   1      46.289  24.237  34.360  1.00  0.00     0.022 A 
BRANCH  87  91
ATOM     91  S   UNL A   1      43.773  23.573  35.391  1.00  0.00     0.124 S 
ATOM     92  O   UNL A   1      44.255  24.016  36.698  1.00  0.00    -0.237 OA
ATOM     93  O   UNL A   1      42.477  24.105  34.985  1.00  0.00    -0.237 OA
ATOM     94  O   UNL A   1      43.991  22.160  35.094  1.00  0.00    -0.744 OA
ENDBRANCH  87  91
ENDBRANCH  61  84
ENDBRANCH  35  36
ENDBRANCH  28  30
ENDBRANCH  27  28
ENDBRANCH  26  27
ENDBRANCH   1  26
TORSDOF 18
ENDMDL
MODEL 3
REMARK VINA RESULT:     -12.1      5.071     11.499
REMARK SMILES Cc1cc(C(=O)OCCOCCOC(=O)c2ccc(-c3c4nc(c(-c5cc(S(=O)(=O)[O-])ccc5F)c5ccc([nH]5)c(-c5cc(S(=O)(=O)[O-])ccc5F)c5nc(c(-c6cc(S(=O)(=O)[O-])ccc6F)c6ccc3[nH]6)C=C5)C=C4)cc2)ccc1NC(=O)N1C[C@@H](C)[C@H](C)C1
REMARK SMILES IDX 11 1 10 2 9 3 8 4 7 5 5 6 6 7 4 8 1 9 2 10 3 11 81 12 80 13
REMARK SMILES IDX 79 14 82 15 83 16 84 18 85 19 86 20 91 21 87 22 89 23 88 24
REMARK SMILES IDX 90 25 12 26 13 27 14 28 15 29 16 30 17 31 78 32 18 33 77 34
REMARK SMILES IDX 19 35 20 36 21 37 71 38 22 39 76 40 70 41 72 42 23 43 75 44
REMARK SMILES IDX 69 45 68 46 24 48 56 49 36 50 55 51 37 52 40 53 54 54 73 55
REMARK SMILES IDX 38 56 39 57 53 59 74 60 41 61 25 62 26 63 34 64 27 65 33 66
REMARK SMILES IDX 35 67 32 68 28 69 29 70 30 71 31 72 57 73 58 74 66 75 59 76
REMARK SMILES IDX 65 77 67 78 64 79 60 80 61 81 62 82 63 83 42 84 43 85 51 86
REMARK SMILES IDX 44 87 50 88 52 89 49 90 45 91 46 92 47 93 48 94
REMARK H PARENT 82 17 72 47 40 58
REMARK Flexibility Score: inf
ROOT
ATOM      1  C   UNL A   1      33.360  35.072  28.553  1.00  0.00     0.202 C 
ENDROOT
BRANCH   1   2
ATOM      2  O   UNL A   1      32.812  33.777  28.515  1.00  0.00    -0.374 OA
BRANCH   2   3
ATOM      3  C   UNL A   1      33.576  32.809  27.805  1.00  0.00     0.202 C 
BRANCH   3   4
ATOM      4  C   UNL A   1      32.569  31.856  27.246  1.00  0.00     0.261 C 
BRANCH   4   5
ATOM      5  O   UNL A   1      33.116  30.596  26.821  1.00  0.00    -0.460 OA
BRANCH   5   6
ATOM      6  C   UNL A   1      32.311  29.508  26.736  1.00  0.00     0.338 C 
ATOM      7  O   UNL A   1      31.748  28.912  27.629  1.00  0.00    -0.246 OA
BRANCH   6   8
ATOM      8  C   UNL A   1      32.306  29.130  25.312  1.00  0.00     0.060 A 
ATOM      9  C   UNL A   1      29.899  28.796  22.430  1.00  0.00     0.046 C 
ATOM     10  C   UNL A   1      31.139  28.610  23.252  1.00  0.00    -0.027 A 
ATOM     11  C   UNL A   1      31.130  29.125  24.565  1.00  0.00     0.021 A 
ATOM     12  C   UNL A   1      32.330  28.032  22.773  1.00  0.00     0.045 A 
ATOM     13  C   UNL A   1      33.525  28.316  23.422  1.00  0.00     0.027 A 
ATOM     14  C   UNL A   1      33.515  28.808  24.702  1.00  0.00     0.018 A 
BRANCH  12  15
ATOM     15  N   UNL A   1      32.352  27.135  21.689  1.00  0.00    -0.308 N 
ATOM     16  C   UNL A   1      32.841  25.852  21.667  1.00  0.00     0.321 C 
ATOM     17  H   UNL A   1      31.970  27.468  20.844  1.00  0.00     0.171 HD
ATOM     18  O   UNL A   1      33.274  25.403  20.603  1.00  0.00    -0.248 OA
ATOM     19  N   UNL A   1      32.844  25.111  22.825  1.00  0.00    -0.324 N 
ATOM     20  C   UNL A   1      33.923  24.196  23.139  1.00  0.00     0.125 C 
ATOM     21  C   UNL A   1      31.710  24.914  23.736  1.00  0.00     0.125 C 
ATOM     22  C   UNL A   1      33.281  23.091  23.967  1.00  0.00     0.010 C 
ATOM     23  C   UNL A   1      32.158  23.824  24.724  1.00  0.00     0.010 C 
ATOM     24  C   UNL A   1      34.276  22.395  24.884  1.00  0.00     0.010 C 
ATOM     25  C   UNL A   1      31.029  22.891  25.153  1.00  0.00     0.010 C 
ENDBRANCH  12  15
ENDBRANCH   6   8
ENDBRANCH   5   6
ENDBRANCH   4   5
ENDBRANCH   3   4
ENDBRANCH   2   3
ENDBRANCH   1   2
BRANCH   1  26
ATOM     26  C   UNL A   1      33.217  35.715  29.935  1.00  0.00     0.261 C 
BRANCH  26  27
ATOM     27  O   UNL A   1      33.288  34.692  30.954  1.00  0.00    -0.460 OA
BRANCH  27  28
ATOM     28  C   UNL A   1      34.418  34.687  31.717  1.00  0.00     0.338 C 
ATOM     29  O   UNL A   1      34.791  35.610  32.421  1.00  0.00    -0.246 OA
BRANCH  28  30
ATOM     30  C   UNL A   1      35.213  33.449  31.451  1.00  0.00     0.060 A 
ATOM     31  C   UNL A   1      35.130  32.342  32.323  1.00  0.00     0.016 A 
ATOM     32  C   UNL A   1      36.233  33.507  30.506  1.00  0.00     0.016 A 
ATOM     33  C   UNL A   1      36.153  31.376  32.342  1.00  0.00     0.010 A 
ATOM     34  C   UNL A   1      37.274  32.609  30.589  1.00  0.00     0.010 A 
ATOM     35  C   UNL A   1      37.269  31.559  31.525  1.00  0.00    -0.014 A 
BRANCH  35  36
ATOM     36  C   UNL A   1      38.556  30.859  31.628  1.00  0.00     0.031 A 
ATOM     37  C   UNL A   1      38.763  29.640  30.816  1.00  0.00     0.074 A 
ATOM     38  C   UNL A   1      39.636  31.485  32.163  1.00  0.00     0.049 A 
ATOM     39  N   UNL A   1      39.818  28.912  30.886  1.00  0.00    -0.248 NA
ATOM     40  C   UNL A   1      37.781  29.098  29.876  1.00  0.00     0.031 C 
ATOM     41  C   UNL A   1      41.056  31.284  31.864  1.00  0.00     0.029 A 
ATOM     42  N   UNL A   1      39.669  32.493  33.126  1.00  0.00    -0.354 N 
ATOM     43  C   UNL A   1      39.830  28.078  29.798  1.00  0.00     0.074 A 
ATOM     44  C   UNL A   1      38.484  28.119  29.295  1.00  0.00     0.031 C 
ATOM     45  C   UNL A   1      41.809  31.914  32.784  1.00  0.00     0.029 A 
ATOM     46  C   UNL A   1      40.906  32.455  33.786  1.00  0.00     0.049 A 
ATOM     47  H   UNL A   1      38.941  33.128  33.314  1.00  0.00     0.167 HD
ATOM     48  C   UNL A   1      41.030  27.568  29.403  1.00  0.00     0.034 A 
ATOM     49  C   UNL A   1      40.952  32.300  35.134  1.00  0.00     0.034 A 
ATOM     50  C   UNL A   1      42.070  27.869  30.403  1.00  0.00     0.049 A 
ATOM     51  C   UNL A   1      41.522  30.930  35.389  1.00  0.00     0.074 A 
ATOM     52  C   UNL A   1      43.187  28.686  30.418  1.00  0.00     0.029 A 
ATOM     53  N   UNL A   1      41.848  27.497  31.733  1.00  0.00    -0.354 N 
ATOM     54  N   UNL A   1      41.530  29.999  34.468  1.00  0.00    -0.248 NA
ATOM     55  C   UNL A   1      42.252  30.537  36.585  1.00  0.00     0.031 C 
ATOM     56  C   UNL A   1      43.549  28.898  31.786  1.00  0.00     0.029 A 
ATOM     57  C   UNL A   1      42.689  28.169  32.597  1.00  0.00     0.049 A 
ATOM     58  H   UNL A   1      41.175  26.839  32.017  1.00  0.00     0.167 HD
ATOM     59  C   UNL A   1      42.331  28.976  34.856  1.00  0.00     0.074 A 
ATOM     60  C   UNL A   1      42.722  29.331  36.214  1.00  0.00     0.031 C 
ATOM     61  C   UNL A   1      42.628  27.924  34.038  1.00  0.00     0.034 A 
BRANCH  48  62
ATOM     62  C   UNL A   1      41.329  26.929  28.061  1.00  0.00     0.023 A 
ATOM     63  C   UNL A   1      41.731  25.576  28.033  1.00  0.00     0.031 A 
ATOM     64  C   UNL A   1      41.327  27.572  26.801  1.00  0.00     0.131 A 
ATOM     65  C   UNL A   1      42.087  24.933  26.830  1.00  0.00     0.055 A 
ATOM     66  C   UNL A   1      41.628  26.918  25.598  1.00  0.00     0.041 A 
ATOM     67  F   UNL A   1      41.092  28.880  26.656  1.00  0.00    -0.206 F 
ATOM     68  C   UNL A   1      42.015  25.591  25.606  1.00  0.00     0.022 A 
BRANCH  65  69
ATOM     69  S   UNL A   1      42.697  23.227  26.884  1.00  0.00     0.124 S 
ATOM     70  O   UNL A   1      41.981  22.611  25.772  1.00  0.00    -0.237 OA
ATOM     71  O   UNL A   1      44.134  23.403  26.714  1.00  0.00    -0.237 OA
ATOM     72  O   UNL A   1      42.286  22.762  28.210  1.00  0.00    -0.744 OA
ENDBRANCH  65  69
ENDBRANCH  48  62
BRANCH  49  73
ATOM     73  C   UNL A   1      39.844  33.060  35.805  1.00  0.00     0.023 A 
ATOM     74  C   UNL A   1      38.873  32.275  36.490  1.00  0.00     0.031 A 
ATOM     75  C   UNL A   1      40.001  34.390  36.224  1.00  0.00     0.131 A 
ATOM     76  C   UNL A   1      38.208  32.772  37.630  1.00  0.00     0.055 A 
ATOM     77  C   UNL A   1      39.319  34.890  37.349  1.00  0.00     0.041 A 
ATOM     78  F   UNL A   1      40.927  35.178  35.660  1.00  0.00    -0.206 F 
ATOM     79  C   UNL A   1      38.451  34.073  38.079  1.00  0.00     0.022 A 
BRANCH  76  80
ATOM     80  S   UNL A   1      37.320  31.609  38.737  1.00  0.00     0.124 S 
ATOM     81  O   UNL A   1      36.015  32.242  38.875  1.00  0.00    -0.237 OA
ATOM     82  O   UNL A   1      37.342  30.351  37.992  1.00  0.00    -0.237 OA
ATOM     83  O   UNL A   1      38.149  31.593  39.942  1.00  0.00    -0.744 OA
ENDBRANCH  76  80
ENDBRANCH  49  73
BRANCH  61  84
ATOM     84  C   UNL A   1      42.944  26.564  34.588  1.00  0.00     0.023 A 
ATOM     85  C   UNL A   1      44.267  26.128  34.726  1.00  0.00     0.031 A 
ATOM     86  C   UNL A   1      41.953  25.710  35.116  1.00  0.00     0.131 A 
ATOM     87  C   UNL A   1      44.565  24.855  35.216  1.00  0.00     0.055 A 
ATOM     88  C   UNL A   1      42.261  24.491  35.724  1.00  0.00     0.041 A 
ATOM     89  F   UNL A   1      40.651  26.028  35.084  1.00  0.00    -0.206 F 
ATOM     90  C   UNL A   1      43.574  24.040  35.749  1.00  0.00     0.022 A 
BRANCH  87  91
ATOM     91  S   UNL A   1      46.260  24.271  34.999  1.00  0.00     0.124 S 
ATOM     92  O   UNL A   1      46.851  24.594  36.296  1.00  0.00    -0.237 OA
ATOM     93  O   UNL A   1      46.075  22.849  34.729  1.00  0.00    -0.237 OA
ATOM     94  O   UNL A   1      46.753  25.063  33.877  1.00  0.00    -0.744 OA
ENDBRANCH  87  91
ENDBRANCH  61  84
ENDBRANCH  35  36
ENDBRANCH  28  30
ENDBRANCH  27  28
ENDBRANCH  26  27
ENDBRANCH   1  26
TORSDOF 18
ENDMDL
