MODEL 1
REMARK VINA RESULT:     -10.7      0.000      0.000
REMARK SMILES O=C(OCCOCCOC(=O)C1CCN(c2ccnnc2)CC1)c1ccc(-c2c3nc(c(-c4cc(S(=O)(=O)[O-])ccc4F)c4ccc([nH]4)c(-c4cc(S(=O)(=O)[O-])ccc4F)c4nc(c(-c5cc(S(=O)(=O)[O-])ccc5F)c5ccc2[nH]5)C=C4)C=C3)cc1
REMARK SMILES IDX 5 1 4 2 3 3 2 4 1 5 24 6 25 7 86 8 26 9 85 10 27 11 28 12
REMARK SMILES IDX 29 13 79 14 30 15 84 16 78 17 80 18 31 19 83 20 77 21 76 22
REMARK SMILES IDX 32 24 64 25 44 26 63 27 45 28 48 29 62 30 81 31 46 32 47 33
REMARK SMILES IDX 61 35 82 36 49 37 33 38 34 39 42 40 35 41 41 42 43 43 40 44
REMARK SMILES IDX 36 45 37 46 38 47 39 48 65 49 66 50 74 51 67 52 73 53 75 54
REMARK SMILES IDX 72 55 68 56 69 57 70 58 71 59 50 60 51 61 59 62 52 63 58 64
REMARK SMILES IDX 60 65 57 66 53 67 54 68 55 69 56 70 6 71 7 72 8 73 9 74
REMARK SMILES IDX 10 75 11 76 12 77 13 78 23 79 14 80 22 81 15 82 16 83 17 84
REMARK SMILES IDX 21 85 18 86 20 87 19 88
REMARK H PARENT 80 23 48 34
REMARK Flexibility Score: inf
ROOT
ATOM      1  C   UNL A   1      32.165  30.580  26.481  1.00  0.00     0.202 C 
ENDROOT
BRANCH   1   2
ATOM      2  C   UNL A   1      31.478  31.898  26.850  1.00  0.00     0.261 C 
BRANCH   2   3
ATOM      3  O   UNL A   1      32.407  32.990  26.776  1.00  0.00    -0.460 OA
BRANCH   3   4
ATOM      4  C   UNL A   1      33.105  33.555  27.791  1.00  0.00     0.338 C 
ATOM      5  O   UNL A   1      32.693  34.617  28.257  1.00  0.00    -0.246 OA
BRANCH   4   6
ATOM      6  C   UNL A   1      34.351  32.968  28.375  1.00  0.00     0.060 A 
ATOM      7  C   UNL A   1      34.430  31.729  29.011  1.00  0.00     0.016 A 
ATOM      8  C   UNL A   1      35.546  33.684  28.194  1.00  0.00     0.016 A 
ATOM      9  C   UNL A   1      35.620  31.220  29.477  1.00  0.00     0.010 A 
ATOM     10  C   UNL A   1      36.770  33.168  28.641  1.00  0.00     0.010 A 
ATOM     11  C   UNL A   1      36.797  31.930  29.288  1.00  0.00    -0.014 A 
BRANCH  11  12
ATOM     12  C   UNL A   1      37.985  31.352  29.929  1.00  0.00     0.031 A 
ATOM     13  C   UNL A   1      38.213  31.665  31.371  1.00  0.00     0.074 A 
ATOM     14  C   UNL A   1      38.646  30.372  29.286  1.00  0.00     0.049 A 
ATOM     15  N   UNL A   1      39.143  31.230  32.172  1.00  0.00    -0.248 NA
ATOM     16  C   UNL A   1      37.237  32.568  32.008  1.00  0.00     0.031 C 
ATOM     17  C   UNL A   1      38.330  29.894  27.933  1.00  0.00     0.029 A 
ATOM     18  N   UNL A   1      39.663  29.556  29.693  1.00  0.00    -0.354 N 
ATOM     19  C   UNL A   1      38.873  31.809  33.405  1.00  0.00     0.074 A 
ATOM     20  C   UNL A   1      37.703  32.643  33.243  1.00  0.00     0.031 C 
ATOM     21  C   UNL A   1      39.122  28.852  27.639  1.00  0.00     0.029 A 
ATOM     22  C   UNL A   1      40.055  28.646  28.739  1.00  0.00     0.049 A 
ATOM     23  H   UNL A   1      40.076  29.615  30.584  1.00  0.00     0.167 HD
ATOM     24  C   UNL A   1      39.555  31.650  34.563  1.00  0.00     0.034 A 
ATOM     25  C   UNL A   1      41.087  27.782  28.750  1.00  0.00     0.034 A 
ATOM     26  C   UNL A   1      40.729  30.823  34.656  1.00  0.00     0.049 A 
ATOM     27  C   UNL A   1      41.926  27.743  30.003  1.00  0.00     0.074 A 
ATOM     28  C   UNL A   1      41.603  30.670  35.714  1.00  0.00     0.029 A 
ATOM     29  N   UNL A   1      41.193  30.003  33.630  1.00  0.00    -0.354 N 
ATOM     30  N   UNL A   1      41.746  28.392  31.135  1.00  0.00    -0.248 NA
ATOM     31  C   UNL A   1      43.102  26.872  29.985  1.00  0.00     0.031 C 
ATOM     32  C   UNL A   1      42.628  29.806  35.307  1.00  0.00     0.029 A 
ATOM     33  C   UNL A   1      42.352  29.357  34.023  1.00  0.00     0.049 A 
ATOM     34  H   UNL A   1      40.759  29.899  32.752  1.00  0.00     0.167 HD
ATOM     35  C   UNL A   1      42.784  27.994  31.969  1.00  0.00     0.074 A 
ATOM     36  C   UNL A   1      43.555  27.018  31.222  1.00  0.00     0.031 C 
ATOM     37  C   UNL A   1      43.089  28.398  33.231  1.00  0.00     0.034 A 
BRANCH  24  38
ATOM     38  C   UNL A   1      39.094  32.468  35.741  1.00  0.00     0.023 A 
ATOM     39  C   UNL A   1      39.520  33.793  35.938  1.00  0.00     0.031 A 
ATOM     40  C   UNL A   1      38.297  31.876  36.737  1.00  0.00     0.131 A 
ATOM     41  C   UNL A   1      39.208  34.456  37.137  1.00  0.00     0.055 A 
ATOM     42  C   UNL A   1      37.926  32.569  37.890  1.00  0.00     0.041 A 
ATOM     43  F   UNL A   1      37.897  30.600  36.622  1.00  0.00    -0.206 F 
ATOM     44  C   UNL A   1      38.393  33.862  38.103  1.00  0.00     0.022 A 
BRANCH  41  45
ATOM     45  S   UNL A   1      40.009  36.048  37.486  1.00  0.00     0.124 S 
ATOM     46  O   UNL A   1      39.830  36.751  36.218  1.00  0.00    -0.237 OA
ATOM     47  O   UNL A   1      39.233  36.554  38.612  1.00  0.00    -0.237 OA
ATOM     48  O   UNL A   1      41.388  35.677  37.796  1.00  0.00    -0.744 OA
ENDBRANCH  41  45
ENDBRANCH  24  38
BRANCH  25  49
ATOM     49  C   UNL A   1      41.449  26.990  27.534  1.00  0.00     0.023 A 
ATOM     50  C   UNL A   1      41.225  25.606  27.457  1.00  0.00     0.031 A 
ATOM     51  C   UNL A   1      42.116  27.601  26.453  1.00  0.00     0.131 A 
ATOM     52  C   UNL A   1      41.720  24.875  26.362  1.00  0.00     0.055 A 
ATOM     53  C   UNL A   1      42.542  26.882  25.336  1.00  0.00     0.041 A 
ATOM     54  F   UNL A   1      42.375  28.919  26.468  1.00  0.00    -0.206 F 
ATOM     55  C   UNL A   1      42.362  25.506  25.295  1.00  0.00     0.022 A 
BRANCH  52  56
ATOM     56  S   UNL A   1      41.635  23.062  26.416  1.00  0.00     0.124 S 
ATOM     57  O   UNL A   1      42.285  22.772  27.689  1.00  0.00    -0.237 OA
ATOM     58  O   UNL A   1      40.197  22.826  26.360  1.00  0.00    -0.237 OA
ATOM     59  O   UNL A   1      42.381  22.652  25.228  1.00  0.00    -0.744 OA
ENDBRANCH  52  56
ENDBRANCH  25  49
BRANCH  37  60
ATOM     60  C   UNL A   1      44.291  27.747  33.863  1.00  0.00     0.023 A 
ATOM     61  C   UNL A   1      44.179  26.546  34.583  1.00  0.00     0.031 A 
ATOM     62  C   UNL A   1      45.554  28.353  33.768  1.00  0.00     0.131 A 
ATOM     63  C   UNL A   1      45.296  26.030  35.250  1.00  0.00     0.055 A 
ATOM     64  C   UNL A   1      46.681  27.792  34.369  1.00  0.00     0.041 A 
ATOM     65  F   UNL A   1      45.714  29.502  33.092  1.00  0.00    -0.206 F 
ATOM     66  C   UNL A   1      46.551  26.634  35.131  1.00  0.00     0.022 A 
BRANCH  63  67
ATOM     67  S   UNL A   1      45.057  24.634  36.379  1.00  0.00     0.124 S 
ATOM     68  O   UNL A   1      46.042  23.677  35.890  1.00  0.00    -0.237 OA
ATOM     69  O   UNL A   1      45.339  25.233  37.679  1.00  0.00    -0.237 OA
ATOM     70  O   UNL A   1      43.662  24.255  36.161  1.00  0.00    -0.744 OA
ENDBRANCH  63  67
ENDBRANCH  37  60
ENDBRANCH  11  12
ENDBRANCH   4   6
ENDBRANCH   3   4
ENDBRANCH   2   3
ENDBRANCH   1   2
BRANCH   1  71
ATOM     71  O   UNL A   1      31.380  29.688  25.686  1.00  0.00    -0.374 OA
BRANCH  71  72
ATOM     72  C   UNL A   1      31.949  29.260  24.445  1.00  0.00     0.202 C 
BRANCH  72  73
ATOM     73  C   UNL A   1      30.897  28.504  23.637  1.00  0.00     0.261 C 
BRANCH  73  74
ATOM     74  O   UNL A   1      30.720  27.235  24.274  1.00  0.00    -0.463 OA
BRANCH  74  75
ATOM     75  C   UNL A   1      30.940  26.162  23.468  1.00  0.00     0.309 C 
ATOM     76  O   UNL A   1      31.272  26.221  22.291  1.00  0.00    -0.252 OA
BRANCH  75  77
ATOM     77  C   UNL A   1      30.787  24.856  24.232  1.00  0.00     0.103 C 
ATOM     78  C   UNL A   1      31.733  24.870  25.430  1.00  0.00     0.037 C 
ATOM     79  C   UNL A   1      31.021  23.604  23.372  1.00  0.00     0.037 C 
ATOM     80  C   UNL A   1      33.171  24.832  24.938  1.00  0.00     0.117 C 
ATOM     81  C   UNL A   1      32.481  23.483  22.930  1.00  0.00     0.117 C 
ATOM     82  N   UNL A   1      33.335  23.646  24.098  1.00  0.00    -0.370 N 
BRANCH  82  83
ATOM     83  C   UNL A   1      34.485  22.902  24.239  1.00  0.00     0.059 A 
ATOM     84  C   UNL A   1      35.644  23.177  23.531  1.00  0.00     0.049 A 
ATOM     85  C   UNL A   1      34.535  21.818  25.110  1.00  0.00     0.161 A 
ATOM     86  C   UNL A   1      36.751  22.380  23.747  1.00  0.00     0.138 A 
ATOM     87  N   UNL A   1      35.627  21.042  25.288  1.00  0.00    -0.157 NA
ATOM     88  N   UNL A   1      36.753  21.330  24.597  1.00  0.00    -0.159 NA
ENDBRANCH  82  83
ENDBRANCH  75  77
ENDBRANCH  74  75
ENDBRANCH  73  74
ENDBRANCH  72  73
ENDBRANCH  71  72
ENDBRANCH   1  71
TORSDOF 18
ENDMDL
MODEL 2
REMARK VINA RESULT:     -10.7      2.709      4.000
REMARK SMILES O=C(OCCOCCOC(=O)C1CCN(c2ccnnc2)CC1)c1ccc(-c2c3nc(c(-c4cc(S(=O)(=O)[O-])ccc4F)c4ccc([nH]4)c(-c4cc(S(=O)(=O)[O-])ccc4F)c4nc(c(-c5cc(S(=O)(=O)[O-])ccc5F)c5ccc2[nH]5)C=C4)C=C3)cc1
REMARK SMILES IDX 5 1 4 2 3 3 2 4 1 5 24 6 25 7 86 8 26 9 85 10 27 11 28 12
REMARK SMILES IDX 29 13 79 14 30 15 84 16 78 17 80 18 31 19 83 20 77 21 76 22
REMARK SMILES IDX 32 24 64 25 44 26 63 27 45 28 48 29 62 30 81 31 46 32 47 33
REMARK SMILES IDX 61 35 82 36 49 37 33 38 34 39 42 40 35 41 41 42 43 43 40 44
REMARK SMILES IDX 36 45 37 46 38 47 39 48 65 49 66 50 74 51 67 52 73 53 75 54
REMARK SMILES IDX 72 55 68 56 69 57 70 58 71 59 50 60 51 61 59 62 52 63 58 64
REMARK SMILES IDX 60 65 57 66 53 67 54 68 55 69 56 70 6 71 7 72 8 73 9 74
REMARK SMILES IDX 10 75 11 76 12 77 13 78 23 79 14 80 22 81 15 82 16 83 17 84
REMARK SMILES IDX 21 85 18 86 20 87 19 88
REMARK H PARENT 80 23 48 34
REMARK Flexibility Score: inf
ROOT
ATOM      1  C   UNL A   1      32.793  31.193  27.085  1.00  0.00     0.202 C 
ENDROOT
BRANCH   1   2
ATOM      2  C   UNL A   1      32.127  32.542  26.799  1.00  0.00     0.261 C 
BRANCH   2   3
ATOM      3  O   UNL A   1      32.207  33.398  27.949  1.00  0.00    -0.460 OA
BRANCH   3   4
ATOM      4  C   UNL A   1      33.288  34.078  28.401  1.00  0.00     0.338 C 
ATOM      5  O   UNL A   1      33.254  35.309  28.370  1.00  0.00    -0.246 OA
BRANCH   4   6
ATOM      6  C   UNL A   1      34.525  33.424  28.930  1.00  0.00     0.060 A 
ATOM      7  C   UNL A   1      34.544  32.364  29.836  1.00  0.00     0.016 A 
ATOM      8  C   UNL A   1      35.756  33.857  28.409  1.00  0.00     0.016 A 
ATOM      9  C   UNL A   1      35.717  31.768  30.240  1.00  0.00     0.010 A 
ATOM     10  C   UNL A   1      36.956  33.244  28.791  1.00  0.00     0.010 A 
ATOM     11  C   UNL A   1      36.928  32.197  29.715  1.00  0.00    -0.014 A 
BRANCH  11  12
ATOM     12  C   UNL A   1      38.119  31.574  30.304  1.00  0.00     0.031 A 
ATOM     13  C   UNL A   1      38.417  31.869  31.737  1.00  0.00     0.074 A 
ATOM     14  C   UNL A   1      38.719  30.576  29.629  1.00  0.00     0.049 A 
ATOM     15  N   UNL A   1      39.362  31.397  32.498  1.00  0.00    -0.248 NA
ATOM     16  C   UNL A   1      37.500  32.801  32.418  1.00  0.00     0.031 C 
ATOM     17  C   UNL A   1      38.332  30.118  28.288  1.00  0.00     0.029 A 
ATOM     18  N   UNL A   1      39.723  29.723  29.991  1.00  0.00    -0.354 N 
ATOM     19  C   UNL A   1      39.163  31.977  33.743  1.00  0.00     0.074 A 
ATOM     20  C   UNL A   1      38.017  32.852  33.633  1.00  0.00     0.031 C 
ATOM     21  C   UNL A   1      39.074  29.051  27.956  1.00  0.00     0.029 A 
ATOM     22  C   UNL A   1      40.044  28.805  29.016  1.00  0.00     0.049 A 
ATOM     23  H   UNL A   1      40.174  29.761  30.864  1.00  0.00     0.167 HD
ATOM     24  C   UNL A   1      39.885  31.786  34.871  1.00  0.00     0.034 A 
ATOM     25  C   UNL A   1      41.045  27.906  28.981  1.00  0.00     0.034 A 
ATOM     26  C   UNL A   1      41.033  30.919  34.913  1.00  0.00     0.049 A 
ATOM     27  C   UNL A   1      41.932  27.831  30.198  1.00  0.00     0.074 A 
ATOM     28  C   UNL A   1      41.944  30.729  35.933  1.00  0.00     0.029 A 
ATOM     29  N   UNL A   1      41.426  30.091  33.864  1.00  0.00    -0.354 N 
ATOM     30  N   UNL A   1      41.821  28.478  31.340  1.00  0.00    -0.248 NA
ATOM     31  C   UNL A   1      43.076  26.919  30.128  1.00  0.00     0.031 C 
ATOM     32  C   UNL A   1      42.920  29.833  35.480  1.00  0.00     0.029 A 
ATOM     33  C   UNL A   1      42.577  29.402  34.206  1.00  0.00     0.049 A 
ATOM     34  H   UNL A   1      40.954  30.007  33.004  1.00  0.00     0.167 HD
ATOM     35  C   UNL A   1      42.877  28.039  32.129  1.00  0.00     0.074 A 
ATOM     36  C   UNL A   1      43.583  27.041  31.346  1.00  0.00     0.031 C 
ATOM     37  C   UNL A   1      43.247  28.423  33.379  1.00  0.00     0.034 A 
BRANCH  24  38
ATOM     38  C   UNL A   1      39.502  32.612  36.072  1.00  0.00     0.023 A 
ATOM     39  C   UNL A   1      38.685  32.102  37.096  1.00  0.00     0.031 A 
ATOM     40  C   UNL A   1      39.877  33.966  36.140  1.00  0.00     0.131 A 
ATOM     41  C   UNL A   1      38.210  32.958  38.103  1.00  0.00     0.055 A 
ATOM     42  C   UNL A   1      39.464  34.792  37.187  1.00  0.00     0.041 A 
ATOM     43  F   UNL A   1      40.620  34.518  35.169  1.00  0.00    -0.206 F 
ATOM     44  C   UNL A   1      38.614  34.292  38.169  1.00  0.00     0.022 A 
BRANCH  41  45
ATOM     45  S   UNL A   1      36.933  32.343  39.238  1.00  0.00     0.124 S 
ATOM     46  O   UNL A   1      37.155  30.901  39.177  1.00  0.00    -0.237 OA
ATOM     47  O   UNL A   1      37.286  32.991  40.495  1.00  0.00    -0.237 OA
ATOM     48  O   UNL A   1      35.685  32.801  38.630  1.00  0.00    -0.744 OA
ENDBRANCH  41  45
ENDBRANCH  24  38
BRANCH  25  49
ATOM     49  C   UNL A   1      41.329  27.110  27.747  1.00  0.00     0.023 A 
ATOM     50  C   UNL A   1      41.093  25.728  27.686  1.00  0.00     0.031 A 
ATOM     51  C   UNL A   1      41.935  27.716  26.628  1.00  0.00     0.131 A 
ATOM     52  C   UNL A   1      41.518  24.992  26.566  1.00  0.00     0.055 A 
ATOM     53  C   UNL A   1      42.289  26.992  25.488  1.00  0.00     0.041 A 
ATOM     54  F   UNL A   1      42.202  29.032  26.625  1.00  0.00    -0.206 F 
ATOM     55  C   UNL A   1      42.099  25.617  25.461  1.00  0.00     0.022 A 
BRANCH  52  56
ATOM     56  S   UNL A   1      41.426  23.180  26.628  1.00  0.00     0.124 S 
ATOM     57  O   UNL A   1      39.986  22.953  26.560  1.00  0.00    -0.237 OA
ATOM     58  O   UNL A   1      42.192  22.798  25.447  1.00  0.00    -0.237 OA
ATOM     59  O   UNL A   1      42.049  22.852  27.909  1.00  0.00    -0.744 OA
ENDBRANCH  52  56
ENDBRANCH  25  49
BRANCH  37  60
ATOM     60  C   UNL A   1      44.450  27.727  33.959  1.00  0.00     0.023 A 
ATOM     61  C   UNL A   1      44.330  26.509  34.647  1.00  0.00     0.031 A 
ATOM     62  C   UNL A   1      45.725  28.307  33.846  1.00  0.00     0.131 A 
ATOM     63  C   UNL A   1      45.453  25.948  35.267  1.00  0.00     0.055 A 
ATOM     64  C   UNL A   1      46.854  27.703  34.398  1.00  0.00     0.041 A 
ATOM     65  F   UNL A   1      45.893  29.472  33.199  1.00  0.00    -0.206 F 
ATOM     66  C   UNL A   1      46.718  26.526  35.130  1.00  0.00     0.022 A 
BRANCH  63  67
ATOM     67  S   UNL A   1      45.212  24.525  36.362  1.00  0.00     0.124 S 
ATOM     68  O   UNL A   1      45.257  25.147  37.681  1.00  0.00    -0.237 OA
ATOM     69  O   UNL A   1      43.909  24.023  35.939  1.00  0.00    -0.237 OA
ATOM     70  O   UNL A   1      46.344  23.656  36.047  1.00  0.00    -0.744 OA
ENDBRANCH  63  67
ENDBRANCH  37  60
ENDBRANCH  11  12
ENDBRANCH   4   6
ENDBRANCH   3   4
ENDBRANCH   2   3
ENDBRANCH   1   2
BRANCH   1  71
ATOM     71  O   UNL A   1      31.895  30.090  27.231  1.00  0.00    -0.374 OA
BRANCH  71  72
ATOM     72  C   UNL A   1      32.470  28.833  27.602  1.00  0.00     0.202 C 
BRANCH  72  73
ATOM     73  C   UNL A   1      31.552  27.701  27.150  1.00  0.00     0.261 C 
BRANCH  73  74
ATOM     74  O   UNL A   1      32.019  27.277  25.866  1.00  0.00    -0.463 OA
BRANCH  74  75
ATOM     75  C   UNL A   1      31.038  26.883  25.010  1.00  0.00     0.309 C 
ATOM     76  O   UNL A   1      29.998  26.326  25.338  1.00  0.00    -0.252 OA
BRANCH  75  77
ATOM     77  C   UNL A   1      31.360  27.284  23.579  1.00  0.00     0.103 C 
ATOM     78  C   UNL A   1      31.972  28.682  23.582  1.00  0.00     0.037 C 
ATOM     79  C   UNL A   1      30.151  27.225  22.632  1.00  0.00     0.037 C 
ATOM     80  C   UNL A   1      30.920  29.693  24.011  1.00  0.00     0.117 C 
ATOM     81  C   UNL A   1      29.107  28.289  22.976  1.00  0.00     0.117 C 
ATOM     82  N   UNL A   1      29.779  29.574  23.104  1.00  0.00    -0.370 N 
BRANCH  82  83
ATOM     83  C   UNL A   1      29.176  30.731  22.661  1.00  0.00     0.059 A 
ATOM     84  C   UNL A   1      29.051  31.859  23.455  1.00  0.00     0.049 A 
ATOM     85  C   UNL A   1      28.652  30.819  21.375  1.00  0.00     0.161 A 
ATOM     86  C   UNL A   1      28.438  32.975  22.919  1.00  0.00     0.138 A 
ATOM     87  N   UNL A   1      28.041  31.918  20.881  1.00  0.00    -0.157 NA
ATOM     88  N   UNL A   1      27.936  33.014  21.666  1.00  0.00    -0.159 NA
ENDBRANCH  82  83
ENDBRANCH  75  77
ENDBRANCH  74  75
ENDBRANCH  73  74
ENDBRANCH  72  73
ENDBRANCH  71  72
ENDBRANCH   1  71
TORSDOF 18
ENDMDL
MODEL 3
REMARK VINA RESULT:     -10.3      2.655      3.893
REMARK SMILES O=C(OCCOCCOC(=O)C1CCN(c2ccnnc2)CC1)c1ccc(-c2c3nc(c(-c4cc(S(=O)(=O)[O-])ccc4F)c4ccc([nH]4)c(-c4cc(S(=O)(=O)[O-])ccc4F)c4nc(c(-c5cc(S(=O)(=O)[O-])ccc5F)c5ccc2[nH]5)C=C4)C=C3)cc1
REMARK SMILES IDX 5 1 4 2 3 3 2 4 1 5 24 6 25 7 86 8 26 9 85 10 27 11 28 12
REMARK SMILES IDX 29 13 79 14 30 15 84 16 78 17 80 18 31 19 83 20 77 21 76 22
REMARK SMILES IDX 32 24 64 25 44 26 63 27 45 28 48 29 62 30 81 31 46 32 47 33
REMARK SMILES IDX 61 35 82 36 49 37 33 38 34 39 42 40 35 41 41 42 43 43 40 44
REMARK SMILES IDX 36 45 37 46 38 47 39 48 65 49 66 50 74 51 67 52 73 53 75 54
REMARK SMILES IDX 72 55 68 56 69 57 70 58 71 59 50 60 51 61 59 62 52 63 58 64
REMARK SMILES IDX 60 65 57 66 53 67 54 68 55 69 56 70 6 71 7 72 8 73 9 74
REMARK SMILES IDX 10 75 11 76 12 77 13 78 23 79 14 80 22 81 15 82 16 83 17 84
REMARK SMILES IDX 21 85 18 86 20 87 19 88
REMARK H PARENT 80 23 48 34
REMARK Flexibility Score: inf
ROOT
ATOM      1  C   UNL A   1      32.382  28.137  26.890  1.00  0.00     0.202 C 
ENDROOT
BRANCH   1   2
ATOM      2  C   UNL A   1      31.807  29.488  27.328  1.00  0.00     0.261 C 
BRANCH   2   3
ATOM      3  O   UNL A   1      32.541  30.566  26.729  1.00  0.00    -0.460 OA
BRANCH   3   4
ATOM      4  C   UNL A   1      33.313  31.489  27.352  1.00  0.00     0.338 C 
ATOM      5  O   UNL A   1      32.909  32.651  27.394  1.00  0.00    -0.246 OA
BRANCH   4   6
ATOM      6  C   UNL A   1      34.633  31.182  27.987  1.00  0.00     0.060 A 
ATOM      7  C   UNL A   1      35.051  29.913  28.390  1.00  0.00     0.016 A 
ATOM      8  C   UNL A   1      35.551  32.239  28.108  1.00  0.00     0.016 A 
ATOM      9  C   UNL A   1      36.302  29.689  28.916  1.00  0.00     0.010 A 
ATOM     10  C   UNL A   1      36.837  32.021  28.618  1.00  0.00     0.010 A 
ATOM     11  C   UNL A   1      37.205  30.736  29.025  1.00  0.00    -0.014 A 
BRANCH  11  12
ATOM     12  C   UNL A   1      38.462  30.408  29.708  1.00  0.00     0.031 A 
ATOM     13  C   UNL A   1      38.644  30.914  31.102  1.00  0.00     0.074 A 
ATOM     14  C   UNL A   1      39.255  29.462  29.171  1.00  0.00     0.049 A 
ATOM     15  N   UNL A   1      39.626  30.708  31.932  1.00  0.00    -0.248 NA
ATOM     16  C   UNL A   1      37.551  31.739  31.647  1.00  0.00     0.031 C 
ATOM     17  C   UNL A   1      39.009  28.792  27.886  1.00  0.00     0.029 A 
ATOM     18  N   UNL A   1      40.377  28.850  29.652  1.00  0.00    -0.354 N 
ATOM     19  C   UNL A   1      39.277  31.383  33.095  1.00  0.00     0.074 A 
ATOM     20  C   UNL A   1      38.002  32.020  32.858  1.00  0.00     0.031 C 
ATOM     21  C   UNL A   1      39.940  27.844  27.701  1.00  0.00     0.029 A 
ATOM     22  C   UNL A   1      40.893  27.899  28.802  1.00  0.00     0.049 A 
ATOM     23  H   UNL A   1      40.778  29.068  30.524  1.00  0.00     0.167 HD
ATOM     24  C   UNL A   1      39.975  31.454  34.252  1.00  0.00     0.034 A 
ATOM     25  C   UNL A   1      42.036  27.195  28.894  1.00  0.00     0.034 A 
ATOM     26  C   UNL A   1      41.254  30.817  34.420  1.00  0.00     0.049 A 
ATOM     27  C   UNL A   1      42.873  27.419  30.129  1.00  0.00     0.074 A 
ATOM     28  C   UNL A   1      42.141  30.910  35.474  1.00  0.00     0.029 A 
ATOM     29  N   UNL A   1      41.829  29.957  33.487  1.00  0.00    -0.354 N 
ATOM     30  N   UNL A   1      42.604  28.163  31.183  1.00  0.00    -0.248 NA
ATOM     31  C   UNL A   1      44.160  26.725  30.192  1.00  0.00     0.031 C 
ATOM     32  C   UNL A   1      43.278  30.158  35.151  1.00  0.00     0.029 A 
ATOM     33  C   UNL A   1      43.067  29.529  33.932  1.00  0.00     0.049 A 
ATOM     34  H   UNL A   1      41.414  29.692  32.634  1.00  0.00     0.167 HD
ATOM     35  C   UNL A   1      43.687  28.013  32.040  1.00  0.00     0.074 A 
ATOM     36  C   UNL A   1      44.587  27.075  31.396  1.00  0.00     0.031 C 
ATOM     37  C   UNL A   1      43.932  28.598  33.242  1.00  0.00     0.034 A 
BRANCH  24  38
ATOM     38  C   UNL A   1      39.404  32.330  35.337  1.00  0.00     0.023 A 
ATOM     39  C   UNL A   1      39.786  33.676  35.485  1.00  0.00     0.031 A 
ATOM     40  C   UNL A   1      38.540  31.780  36.299  1.00  0.00     0.131 A 
ATOM     41  C   UNL A   1      39.364  34.401  36.611  1.00  0.00     0.055 A 
ATOM     42  C   UNL A   1      38.062  32.532  37.375  1.00  0.00     0.041 A 
ATOM     43  F   UNL A   1      38.175  30.490  36.232  1.00  0.00    -0.206 F 
ATOM     44  C   UNL A   1      38.485  33.847  37.543  1.00  0.00     0.022 A 
BRANCH  41  45
ATOM     45  S   UNL A   1      40.103  36.030  36.924  1.00  0.00     0.124 S 
ATOM     46  O   UNL A   1      41.502  35.679  37.152  1.00  0.00    -0.237 OA
ATOM     47  O   UNL A   1      39.818  36.751  35.689  1.00  0.00    -0.237 OA
ATOM     48  O   UNL A   1      39.388  36.510  38.105  1.00  0.00    -0.744 OA
ENDBRANCH  41  45
ENDBRANCH  24  38
BRANCH  25  49
ATOM     49  C   UNL A   1      42.506  26.327  27.771  1.00  0.00     0.023 A 
ATOM     50  C   UNL A   1      42.234  24.950  27.734  1.00  0.00     0.031 A 
ATOM     51  C   UNL A   1      43.324  26.854  26.751  1.00  0.00     0.131 A 
ATOM     52  C   UNL A   1      42.823  24.144  26.744  1.00  0.00     0.055 A 
ATOM     53  C   UNL A   1      43.849  26.062  25.730  1.00  0.00     0.041 A 
ATOM     54  F   UNL A   1      43.637  28.160  26.734  1.00  0.00    -0.206 F 
ATOM     55  C   UNL A   1      43.615  24.693  25.734  1.00  0.00     0.022 A 
BRANCH  52  56
ATOM     56  S   UNL A   1      42.654  22.341  26.874  1.00  0.00     0.124 S 
ATOM     57  O   UNL A   1      43.837  21.879  26.157  1.00  0.00    -0.237 OA
ATOM     58  O   UNL A   1      42.660  22.141  28.319  1.00  0.00    -0.237 OA
ATOM     59  O   UNL A   1      41.379  22.071  26.213  1.00  0.00    -0.744 OA
ENDBRANCH  52  56
ENDBRANCH  25  49
BRANCH  37  60
ATOM     60  C   UNL A   1      45.214  28.199  33.925  1.00  0.00     0.023 A 
ATOM     61  C   UNL A   1      46.418  28.876  33.674  1.00  0.00     0.031 A 
ATOM     62  C   UNL A   1      45.232  27.110  34.813  1.00  0.00     0.131 A 
ATOM     63  C   UNL A   1      47.609  28.407  34.242  1.00  0.00     0.055 A 
ATOM     64  C   UNL A   1      46.408  26.696  35.437  1.00  0.00     0.041 A 
ATOM     65  F   UNL A   1      44.107  26.429  35.086  1.00  0.00    -0.206 F 
ATOM     66  C   UNL A   1      47.609  27.334  35.138  1.00  0.00     0.022 A 
BRANCH  63  67
ATOM     67  S   UNL A   1      49.172  29.137  33.690  1.00  0.00     0.124 S 
ATOM     68  O   UNL A   1      49.778  28.033  32.953  1.00  0.00    -0.237 OA
ATOM     69  O   UNL A   1      48.722  30.269  32.887  1.00  0.00    -0.237 OA
ATOM     70  O   UNL A   1      49.844  29.491  34.940  1.00  0.00    -0.744 OA
ENDBRANCH  63  67
ENDBRANCH  37  60
ENDBRANCH  11  12
ENDBRANCH   4   6
ENDBRANCH   3   4
ENDBRANCH   2   3
ENDBRANCH   1   2
BRANCH   1  71
ATOM     71  O   UNL A   1      31.629  26.994  27.303  1.00  0.00    -0.374 OA
BRANCH  71  72
ATOM     72  C   UNL A   1      31.017  26.216  26.269  1.00  0.00     0.202 C 
BRANCH  72  73
ATOM     73  C   UNL A   1      32.053  25.273  25.662  1.00  0.00     0.261 C 
BRANCH  73  74
ATOM     74  O   UNL A   1      32.002  25.460  24.245  1.00  0.00    -0.463 OA
BRANCH  74  75
ATOM     75  C   UNL A   1      33.065  26.129  23.724  1.00  0.00     0.309 C 
ATOM     76  O   UNL A   1      34.199  26.120  24.187  1.00  0.00    -0.252 OA
BRANCH  75  77
ATOM     77  C   UNL A   1      32.691  26.849  22.438  1.00  0.00     0.103 C 
ATOM     78  C   UNL A   1      32.844  28.353  22.650  1.00  0.00     0.037 C 
ATOM     79  C   UNL A   1      31.280  26.515  21.929  1.00  0.00     0.037 C 
ATOM     80  C   UNL A   1      31.800  28.831  23.646  1.00  0.00     0.117 C 
ATOM     81  C   UNL A   1      30.196  27.059  22.861  1.00  0.00     0.117 C 
ATOM     82  N   UNL A   1      30.481  28.460  23.136  1.00  0.00    -0.370 N 
BRANCH  82  83
ATOM     83  C   UNL A   1      29.460  29.378  23.244  1.00  0.00     0.059 A 
ATOM     84  C   UNL A   1      29.663  30.674  23.691  1.00  0.00     0.049 A 
ATOM     85  C   UNL A   1      28.153  29.039  22.908  1.00  0.00     0.161 A 
ATOM     86  C   UNL A   1      28.577  31.525  23.757  1.00  0.00     0.138 A 
ATOM     87  N   UNL A   1      27.105  29.886  22.999  1.00  0.00    -0.157 NA
ATOM     88  N   UNL A   1      27.322  31.150  23.428  1.00  0.00    -0.159 NA
ENDBRANCH  82  83
ENDBRANCH  75  77
ENDBRANCH  74  75
ENDBRANCH  73  74
ENDBRANCH  72  73
ENDBRANCH  71  72
ENDBRANCH   1  71
TORSDOF 18
ENDMDL
