MODEL 1
REMARK VINA RESULT:     -11.1      0.000      0.000
REMARK SMILES O=C(Cc1ccccc1Nc1c(F)cccc1C(F)(F)F)OCCOCCOC(=O)c1ccc(-c2c3nc(c(-c4cc(S(=O)(=O)[O-])ccc4F)c4ccc([nH]4)c(-c4cc(S(=O)(=O)[O-])ccc4F)c4nc(c(-c5cc(S(=O)(=O)[O-])ccc5F)c5ccc2[nH]5)C=C4)C=C3)cc1
REMARK SMILES IDX 24 1 23 2 22 3 2 4 1 5 3 6 4 7 5 8 9 9 6 10 8 11 7 12 10 13
REMARK SMILES IDX 11 15 12 16 17 17 13 18 14 19 16 20 15 21 18 22 19 23 20 24
REMARK SMILES IDX 21 25 25 26 26 27 27 28 28 29 29 30 30 31 31 32 32 33 93 34
REMARK SMILES IDX 33 35 92 36 34 37 35 38 36 39 86 40 37 41 91 42 85 43 87 44
REMARK SMILES IDX 38 45 90 46 84 47 83 48 39 50 71 51 51 52 70 53 52 54 55 55
REMARK SMILES IDX 69 56 88 57 53 58 54 59 68 61 89 62 56 63 40 64 41 65 49 66
REMARK SMILES IDX 42 67 48 68 50 69 47 70 43 71 44 72 45 73 46 74 72 75 73 76
REMARK SMILES IDX 81 77 74 78 80 79 82 80 79 81 75 82 76 83 77 84 78 85 57 86
REMARK SMILES IDX 58 87 66 88 59 89 65 90 67 91 64 92 60 93 61 94 62 95 63 96
REMARK H PARENT 10 14 87 49 55 60
REMARK Flexibility Score: inf
ROOT
ATOM      1  C   UNL A   1      31.222  26.713  26.546  1.00  0.00     0.202 C 
ENDROOT
BRANCH   1   2
ATOM      2  C   UNL A   1      30.009  25.855  26.156  1.00  0.00     0.261 C 
BRANCH   2   3
ATOM      3  O   UNL A   1      29.953  24.494  26.595  1.00  0.00    -0.463 OA
BRANCH   3   4
ATOM      4  C   UNL A   1      30.941  23.593  26.404  1.00  0.00     0.310 C 
ATOM      5  O   UNL A   1      31.779  23.414  27.289  1.00  0.00    -0.252 OA
BRANCH   4   6
ATOM      6  C   UNL A   1      31.111  22.981  25.035  1.00  0.00     0.160 C 
BRANCH   6   7
ATOM      7  C   UNL A   1      31.842  23.831  24.033  1.00  0.00    -0.013 A 
ATOM      8  C   UNL A   1      31.121  24.735  23.233  1.00  0.00     0.006 A 
ATOM      9  C   UNL A   1      33.240  23.807  23.923  1.00  0.00     0.042 A 
ATOM     10  C   UNL A   1      31.734  25.464  22.220  1.00  0.00     0.000 A 
ATOM     11  C   UNL A   1      33.835  24.495  22.854  1.00  0.00     0.026 A 
ATOM     12  C   UNL A   1      33.087  25.297  21.994  1.00  0.00     0.002 A 
BRANCH   9  13
ATOM     13  N   UNL A   1      34.022  23.229  24.941  1.00  0.00    -0.352 N 
ATOM     14  H   UNL A   1      33.761  23.485  25.855  1.00  0.00     0.167 HD
BRANCH  13  15
ATOM     15  C   UNL A   1      35.113  22.344  24.871  1.00  0.00     0.087 A 
ATOM     16  C   UNL A   1      36.394  22.926  24.906  1.00  0.00     0.147 A 
ATOM     17  C   UNL A   1      35.015  20.942  24.853  1.00  0.00     0.082 A 
ATOM     18  F   UNL A   1      36.505  24.263  24.855  1.00  0.00    -0.205 F 
ATOM     19  C   UNL A   1      37.551  22.169  25.010  1.00  0.00     0.041 A 
ATOM     20  C   UNL A   1      36.197  20.180  24.991  1.00  0.00     0.015 A 
ATOM     21  C   UNL A   1      37.452  20.787  25.080  1.00  0.00     0.004 A 
BRANCH  17  22
ATOM     22  C   UNL A   1      33.721  20.191  24.618  1.00  0.00     0.418 C 
ATOM     23  F   UNL A   1      33.950  18.850  24.446  1.00  0.00    -0.166 F 
ATOM     24  F   UNL A   1      32.865  20.260  25.675  1.00  0.00    -0.166 F 
ATOM     25  F   UNL A   1      33.023  20.560  23.511  1.00  0.00    -0.166 F 
ENDBRANCH  17  22
ENDBRANCH  13  15
ENDBRANCH   9  13
ENDBRANCH   6   7
ENDBRANCH   4   6
ENDBRANCH   3   4
ENDBRANCH   2   3
ENDBRANCH   1   2
BRANCH   1  26
ATOM     26  O   UNL A   1      31.259  28.118  26.337  1.00  0.00    -0.374 OA
BRANCH  26  27
ATOM     27  C   UNL A   1      31.916  28.982  27.251  1.00  0.00     0.202 C 
BRANCH  27  28
ATOM     28  C   UNL A   1      32.098  30.427  26.813  1.00  0.00     0.261 C 
BRANCH  28  29
ATOM     29  O   UNL A   1      33.480  30.755  26.657  1.00  0.00    -0.460 OA
BRANCH  29  30
ATOM     30  C   UNL A   1      33.918  31.706  27.514  1.00  0.00     0.338 C 
ATOM     31  O   UNL A   1      33.269  32.628  27.989  1.00  0.00    -0.246 OA
BRANCH  30  32
ATOM     32  C   UNL A   1      35.267  31.344  27.979  1.00  0.00     0.060 A 
ATOM     33  C   UNL A   1      35.525  29.986  28.204  1.00  0.00     0.016 A 
ATOM     34  C   UNL A   1      36.252  32.310  28.195  1.00  0.00     0.016 A 
ATOM     35  C   UNL A   1      36.758  29.593  28.700  1.00  0.00     0.010 A 
ATOM     36  C   UNL A   1      37.486  31.916  28.710  1.00  0.00     0.010 A 
ATOM     37  C   UNL A   1      37.721  30.562  29.004  1.00  0.00    -0.014 A 
BRANCH  37  38
ATOM     38  C   UNL A   1      38.880  30.155  29.824  1.00  0.00     0.031 A 
ATOM     39  C   UNL A   1      38.975  30.684  31.227  1.00  0.00     0.074 A 
ATOM     40  C   UNL A   1      39.759  29.257  29.351  1.00  0.00     0.049 A 
ATOM     41  N   UNL A   1      39.870  30.438  32.146  1.00  0.00    -0.248 NA
ATOM     42  C   UNL A   1      37.915  31.615  31.650  1.00  0.00     0.031 C 
ATOM     43  C   UNL A   1      39.716  28.657  28.017  1.00  0.00     0.029 A 
ATOM     44  N   UNL A   1      40.854  28.686  29.943  1.00  0.00    -0.354 N 
ATOM     45  C   UNL A   1      39.476  31.173  33.259  1.00  0.00     0.074 A 
ATOM     46  C   UNL A   1      38.295  31.917  32.881  1.00  0.00     0.031 C 
ATOM     47  C   UNL A   1      40.743  27.799  27.894  1.00  0.00     0.029 A 
ATOM     48  C   UNL A   1      41.532  27.819  29.122  1.00  0.00     0.049 A 
ATOM     49  H   UNL A   1      41.129  28.879  30.869  1.00  0.00     0.167 HD
ATOM     50  C   UNL A   1      40.040  31.205  34.490  1.00  0.00     0.034 A 
ATOM     51  C   UNL A   1      42.675  27.138  29.338  1.00  0.00     0.034 A 
ATOM     52  C   UNL A   1      41.231  30.467  34.832  1.00  0.00     0.049 A 
ATOM     53  C   UNL A   1      43.333  27.259  30.692  1.00  0.00     0.074 A 
ATOM     54  C   UNL A   1      41.909  30.434  36.037  1.00  0.00     0.029 A 
ATOM     55  N   UNL A   1      41.927  29.637  33.961  1.00  0.00    -0.354 N 
ATOM     56  N   UNL A   1      42.952  27.957  31.739  1.00  0.00    -0.248 NA
ATOM     57  C   UNL A   1      44.561  26.484  30.897  1.00  0.00     0.031 C 
ATOM     58  C   UNL A   1      43.053  29.644  35.872  1.00  0.00     0.029 A 
ATOM     59  C   UNL A   1      43.042  29.109  34.593  1.00  0.00     0.049 A 
ATOM     60  H   UNL A   1      41.665  29.450  33.031  1.00  0.00     0.167 HD
ATOM     61  C   UNL A   1      43.886  27.684  32.737  1.00  0.00     0.074 A 
ATOM     62  C   UNL A   1      44.819  26.729  32.173  1.00  0.00     0.031 C 
ATOM     63  C   UNL A   1      43.973  28.176  34.001  1.00  0.00     0.034 A 
BRANCH  50  64
ATOM     64  C   UNL A   1      39.400  32.096  35.526  1.00  0.00     0.023 A 
ATOM     65  C   UNL A   1      39.805  33.430  35.708  1.00  0.00     0.031 A 
ATOM     66  C   UNL A   1      38.385  31.598  36.363  1.00  0.00     0.131 A 
ATOM     67  C   UNL A   1      39.244  34.200  36.738  1.00  0.00     0.055 A 
ATOM     68  C   UNL A   1      37.774  32.393  37.334  1.00  0.00     0.041 A 
ATOM     69  F   UNL A   1      37.979  30.323  36.259  1.00  0.00    -0.206 F 
ATOM     70  C   UNL A   1      38.210  33.699  37.535  1.00  0.00     0.022 A 
BRANCH  67  71
ATOM     71  S   UNL A   1      39.974  35.818  37.112  1.00  0.00     0.124 S 
ATOM     72  O   UNL A   1      39.301  36.164  38.361  1.00  0.00    -0.237 OA
ATOM     73  O   UNL A   1      41.395  35.506  37.216  1.00  0.00    -0.237 OA
ATOM     74  O   UNL A   1      39.597  36.638  35.963  1.00  0.00    -0.744 OA
ENDBRANCH  67  71
ENDBRANCH  50  64
BRANCH  51  75
ATOM     75  C   UNL A   1      43.293  26.327  28.249  1.00  0.00     0.023 A 
ATOM     76  C   UNL A   1      44.386  26.804  27.509  1.00  0.00     0.031 A 
ATOM     77  C   UNL A   1      42.749  25.081  27.887  1.00  0.00     0.131 A 
ATOM     78  C   UNL A   1      44.862  26.070  26.411  1.00  0.00     0.055 A 
ATOM     79  C   UNL A   1      43.267  24.324  26.836  1.00  0.00     0.041 A 
ATOM     80  F   UNL A   1      41.701  24.576  28.558  1.00  0.00    -0.206 F 
ATOM     81  C   UNL A   1      44.321  24.826  26.080  1.00  0.00     0.022 A 
BRANCH  78  82
ATOM     82  S   UNL A   1      46.128  26.819  25.350  1.00  0.00     0.124 S 
ATOM     83  O   UNL A   1      46.945  27.535  26.322  1.00  0.00    -0.237 OA
ATOM     84  O   UNL A   1      46.740  25.645  24.738  1.00  0.00    -0.237 OA
ATOM     85  O   UNL A   1      45.354  27.662  24.440  1.00  0.00    -0.744 OA
ENDBRANCH  78  82
ENDBRANCH  51  75
BRANCH  63  86
ATOM     86  C   UNL A   1      45.106  27.654  34.853  1.00  0.00     0.023 A 
ATOM     87  C   UNL A   1      44.950  26.523  35.672  1.00  0.00     0.031 A 
ATOM     88  C   UNL A   1      46.342  28.325  34.884  1.00  0.00     0.131 A 
ATOM     89  C   UNL A   1      45.972  26.155  36.558  1.00  0.00     0.055 A 
ATOM     90  C   UNL A   1      47.388  27.902  35.705  1.00  0.00     0.041 A 
ATOM     91  F   UNL A   1      46.551  29.412  34.124  1.00  0.00    -0.206 F 
ATOM     92  C   UNL A   1      47.197  26.824  36.566  1.00  0.00     0.022 A 
BRANCH  89  93
ATOM     93  S   UNL A   1      45.616  24.890  37.808  1.00  0.00     0.124 S 
ATOM     94  O   UNL A   1      45.872  25.613  39.050  1.00  0.00    -0.237 OA
ATOM     95  O   UNL A   1      44.221  24.565  37.534  1.00  0.00    -0.237 OA
ATOM     96  O   UNL A   1      46.572  23.827  37.500  1.00  0.00    -0.744 OA
ENDBRANCH  89  93
ENDBRANCH  63  86
ENDBRANCH  37  38
ENDBRANCH  30  32
ENDBRANCH  29  30
ENDBRANCH  28  29
ENDBRANCH  27  28
ENDBRANCH  26  27
ENDBRANCH   1  26
TORSDOF 21
ENDMDL
MODEL 2
REMARK VINA RESULT:     -10.9      1.948      2.214
REMARK SMILES O=C(Cc1ccccc1Nc1c(F)cccc1C(F)(F)F)OCCOCCOC(=O)c1ccc(-c2c3nc(c(-c4cc(S(=O)(=O)[O-])ccc4F)c4ccc([nH]4)c(-c4cc(S(=O)(=O)[O-])ccc4F)c4nc(c(-c5cc(S(=O)(=O)[O-])ccc5F)c5ccc2[nH]5)C=C4)C=C3)cc1
REMARK SMILES IDX 24 1 23 2 22 3 2 4 1 5 3 6 4 7 5 8 9 9 6 10 8 11 7 12 10 13
REMARK SMILES IDX 11 15 12 16 17 17 13 18 14 19 16 20 15 21 18 22 19 23 20 24
REMARK SMILES IDX 21 25 25 26 26 27 27 28 28 29 29 30 30 31 31 32 32 33 93 34
REMARK SMILES IDX 33 35 92 36 34 37 35 38 36 39 86 40 37 41 91 42 85 43 87 44
REMARK SMILES IDX 38 45 90 46 84 47 83 48 39 50 71 51 51 52 70 53 52 54 55 55
REMARK SMILES IDX 69 56 88 57 53 58 54 59 68 61 89 62 56 63 40 64 41 65 49 66
REMARK SMILES IDX 42 67 48 68 50 69 47 70 43 71 44 72 45 73 46 74 72 75 73 76
REMARK SMILES IDX 81 77 74 78 80 79 82 80 79 81 75 82 76 83 77 84 78 85 57 86
REMARK SMILES IDX 58 87 66 88 59 89 65 90 67 91 64 92 60 93 61 94 62 95 63 96
REMARK H PARENT 10 14 87 49 55 60
REMARK Flexibility Score: inf
ROOT
ATOM      1  C   UNL A   1      31.605  27.054  26.493  1.00  0.00     0.202 C 
ENDROOT
BRANCH   1   2
ATOM      2  C   UNL A   1      30.568  26.001  26.075  1.00  0.00     0.261 C 
BRANCH   2   3
ATOM      3  O   UNL A   1      30.436  24.809  26.856  1.00  0.00    -0.463 OA
BRANCH   3   4
ATOM      4  C   UNL A   1      31.158  23.686  26.658  1.00  0.00     0.310 C 
ATOM      5  O   UNL A   1      32.031  23.373  27.468  1.00  0.00    -0.252 OA
BRANCH   4   6
ATOM      6  C   UNL A   1      31.018  22.956  25.344  1.00  0.00     0.160 C 
BRANCH   6   7
ATOM      7  C   UNL A   1      31.730  23.582  24.177  1.00  0.00    -0.013 A 
ATOM      8  C   UNL A   1      31.040  24.481  23.345  1.00  0.00     0.006 A 
ATOM      9  C   UNL A   1      33.094  23.357  23.935  1.00  0.00     0.042 A 
ATOM     10  C   UNL A   1      31.620  25.003  22.194  1.00  0.00     0.000 A 
ATOM     11  C   UNL A   1      33.644  23.834  22.735  1.00  0.00     0.026 A 
ATOM     12  C   UNL A   1      32.907  24.630  21.859  1.00  0.00     0.002 A 
BRANCH   9  13
ATOM     13  N   UNL A   1      33.908  22.794  24.935  1.00  0.00    -0.352 N 
ATOM     14  H   UNL A   1      33.610  22.973  25.856  1.00  0.00     0.167 HD
BRANCH  13  15
ATOM     15  C   UNL A   1      35.077  22.017  24.839  1.00  0.00     0.087 A 
ATOM     16  C   UNL A   1      36.294  22.721  24.787  1.00  0.00     0.147 A 
ATOM     17  C   UNL A   1      35.117  20.612  24.876  1.00  0.00     0.082 A 
ATOM     18  F   UNL A   1      36.269  24.060  24.683  1.00  0.00    -0.205 F 
ATOM     19  C   UNL A   1      37.524  22.085  24.857  1.00  0.00     0.041 A 
ATOM     20  C   UNL A   1      36.374  19.975  24.980  1.00  0.00     0.015 A 
ATOM     21  C   UNL A   1      37.565  20.703  24.981  1.00  0.00     0.004 A 
BRANCH  17  22
ATOM     22  C   UNL A   1      33.894  19.731  24.736  1.00  0.00     0.418 C 
ATOM     23  F   UNL A   1      34.246  18.415  24.577  1.00  0.00    -0.166 F 
ATOM     24  F   UNL A   1      33.099  19.741  25.842  1.00  0.00    -0.166 F 
ATOM     25  F   UNL A   1      33.098  20.000  23.667  1.00  0.00    -0.166 F 
ENDBRANCH  17  22
ENDBRANCH  13  15
ENDBRANCH   9  13
ENDBRANCH   6   7
ENDBRANCH   4   6
ENDBRANCH   3   4
ENDBRANCH   2   3
ENDBRANCH   1   2
BRANCH   1  26
ATOM     26  O   UNL A   1      31.396  28.446  26.301  1.00  0.00    -0.374 OA
BRANCH  26  27
ATOM     27  C   UNL A   1      31.826  29.396  27.263  1.00  0.00     0.202 C 
BRANCH  27  28
ATOM     28  C   UNL A   1      31.843  30.852  26.825  1.00  0.00     0.261 C 
BRANCH  28  29
ATOM     29  O   UNL A   1      33.174  31.303  26.564  1.00  0.00    -0.460 OA
BRANCH  29  30
ATOM     30  C   UNL A   1      33.643  32.185  27.477  1.00  0.00     0.338 C 
ATOM     31  O   UNL A   1      33.009  33.057  28.054  1.00  0.00    -0.246 OA
BRANCH  30  32
ATOM     32  C   UNL A   1      35.013  31.800  27.851  1.00  0.00     0.060 A 
ATOM     33  C   UNL A   1      35.282  30.433  27.990  1.00  0.00     0.016 A 
ATOM     34  C   UNL A   1      36.010  32.755  28.066  1.00  0.00     0.016 A 
ATOM     35  C   UNL A   1      36.538  30.015  28.398  1.00  0.00     0.010 A 
ATOM     36  C   UNL A   1      37.269  32.336  28.495  1.00  0.00     0.010 A 
ATOM     37  C   UNL A   1      37.517  30.969  28.703  1.00  0.00    -0.014 A 
BRANCH  37  38
ATOM     38  C   UNL A   1      38.716  30.520  29.439  1.00  0.00     0.031 A 
ATOM     39  C   UNL A   1      38.879  30.963  30.865  1.00  0.00     0.074 A 
ATOM     40  C   UNL A   1      39.575  29.659  28.868  1.00  0.00     0.049 A 
ATOM     41  N   UNL A   1      39.819  30.668  31.722  1.00  0.00    -0.248 NA
ATOM     42  C   UNL A   1      37.838  31.859  31.396  1.00  0.00     0.031 C 
ATOM     43  C   UNL A   1      39.468  29.141  27.504  1.00  0.00     0.029 A 
ATOM     44  N   UNL A   1      40.699  29.060  29.370  1.00  0.00    -0.354 N 
ATOM     45  C   UNL A   1      39.478  31.330  32.896  1.00  0.00     0.074 A 
ATOM     46  C   UNL A   1      38.277  32.088  32.623  1.00  0.00     0.031 C 
ATOM     47  C   UNL A   1      40.491  28.300  27.278  1.00  0.00     0.029 A 
ATOM     48  C   UNL A   1      41.340  28.250  28.465  1.00  0.00     0.049 A 
ATOM     49  H   UNL A   1      41.019  29.198  30.291  1.00  0.00     0.167 HD
ATOM     50  C   UNL A   1      40.102  31.291  34.098  1.00  0.00     0.034 A 
ATOM     51  C   UNL A   1      42.494  27.565  28.583  1.00  0.00     0.034 A 
ATOM     52  C   UNL A   1      41.311  30.542  34.335  1.00  0.00     0.049 A 
ATOM     53  C   UNL A   1      43.218  27.607  29.907  1.00  0.00     0.074 A 
ATOM     54  C   UNL A   1      42.048  30.440  35.500  1.00  0.00     0.029 A 
ATOM     55  N   UNL A   1      41.967  29.771  33.381  1.00  0.00    -0.354 N 
ATOM     56  N   UNL A   1      42.887  28.237  31.013  1.00  0.00    -0.248 NA
ATOM     57  C   UNL A   1      44.458  26.830  30.004  1.00  0.00     0.031 C 
ATOM     58  C   UNL A   1      43.185  29.670  35.232  1.00  0.00     0.029 A 
ATOM     59  C   UNL A   1      43.113  29.214  33.924  1.00  0.00     0.049 A 
ATOM     60  H   UNL A   1      41.660  29.639  32.455  1.00  0.00     0.167 HD
ATOM     61  C   UNL A   1      43.869  27.910  31.944  1.00  0.00     0.074 A 
ATOM     62  C   UNL A   1      44.778  26.997  31.278  1.00  0.00     0.031 C 
ATOM     63  C   UNL A   1      44.017  28.324  33.231  1.00  0.00     0.034 A 
BRANCH  50  64
ATOM     64  C   UNL A   1      39.510  32.113  35.216  1.00  0.00     0.023 A 
ATOM     65  C   UNL A   1      39.887  33.450  35.432  1.00  0.00     0.031 A 
ATOM     66  C   UNL A   1      38.573  31.544  36.098  1.00  0.00     0.131 A 
ATOM     67  C   UNL A   1      39.377  34.154  36.534  1.00  0.00     0.055 A 
ATOM     68  C   UNL A   1      38.009  32.274  37.145  1.00  0.00     0.041 A 
ATOM     69  F   UNL A   1      38.199  30.262  35.962  1.00  0.00    -0.206 F 
ATOM     70  C   UNL A   1      38.419  33.583  37.376  1.00  0.00     0.022 A 
BRANCH  67  71
ATOM     71  S   UNL A   1      40.083  35.777  36.933  1.00  0.00     0.124 S 
ATOM     72  O   UNL A   1      39.697  36.562  35.763  1.00  0.00    -0.237 OA
ATOM     73  O   UNL A   1      39.411  36.115  38.182  1.00  0.00    -0.237 OA
ATOM     74  O   UNL A   1      41.515  35.508  37.047  1.00  0.00    -0.744 OA
ENDBRANCH  67  71
ENDBRANCH  50  64
BRANCH  51  75
ATOM     75  C   UNL A   1      43.061  26.826  27.416  1.00  0.00     0.023 A 
ATOM     76  C   UNL A   1      42.687  25.503  27.134  1.00  0.00     0.031 A 
ATOM     77  C   UNL A   1      44.042  27.420  26.601  1.00  0.00     0.131 A 
ATOM     78  C   UNL A   1      43.331  24.798  26.105  1.00  0.00     0.055 A 
ATOM     79  C   UNL A   1      44.633  26.737  25.537  1.00  0.00     0.041 A 
ATOM     80  F   UNL A   1      44.440  28.682  26.825  1.00  0.00    -0.206 F 
ATOM     81  C   UNL A   1      44.289  25.411  25.295  1.00  0.00     0.022 A 
BRANCH  78  82
ATOM     82  S   UNL A   1      42.980  23.030  25.913  1.00  0.00     0.124 S 
ATOM     83  O   UNL A   1      43.961  22.433  26.812  1.00  0.00    -0.237 OA
ATOM     84  O   UNL A   1      41.587  22.952  26.339  1.00  0.00    -0.237 OA
ATOM     85  O   UNL A   1      43.209  22.790  24.490  1.00  0.00    -0.744 OA
ENDBRANCH  78  82
ENDBRANCH  51  75
BRANCH  63  86
ATOM     86  C   UNL A   1      45.193  27.760  33.992  1.00  0.00     0.023 A 
ATOM     87  C   UNL A   1      46.455  28.379  33.962  1.00  0.00     0.031 A 
ATOM     88  C   UNL A   1      45.064  26.561  34.717  1.00  0.00     0.131 A 
ATOM     89  C   UNL A   1      47.556  27.749  34.558  1.00  0.00     0.055 A 
ATOM     90  C   UNL A   1      46.147  25.984  35.382  1.00  0.00     0.041 A 
ATOM     91  F   UNL A   1      43.885  25.924  34.783  1.00  0.00    -0.206 F 
ATOM     92  C   UNL A   1      47.408  26.567  35.285  1.00  0.00     0.022 A 
BRANCH  89  93
ATOM     93  S   UNL A   1      49.211  28.418  34.233  1.00  0.00     0.124 S 
ATOM     94  O   UNL A   1      49.105  28.818  32.833  1.00  0.00    -0.237 OA
ATOM     95  O   UNL A   1      49.304  29.505  35.202  1.00  0.00    -0.237 OA
ATOM     96  O   UNL A   1      50.095  27.283  34.489  1.00  0.00    -0.744 OA
ENDBRANCH  89  93
ENDBRANCH  63  86
ENDBRANCH  37  38
ENDBRANCH  30  32
ENDBRANCH  29  30
ENDBRANCH  28  29
ENDBRANCH  27  28
ENDBRANCH  26  27
ENDBRANCH   1  26
TORSDOF 21
ENDMDL
MODEL 3
REMARK VINA RESULT:     -10.7      2.303      3.053
REMARK SMILES O=C(Cc1ccccc1Nc1c(F)cccc1C(F)(F)F)OCCOCCOC(=O)c1ccc(-c2c3nc(c(-c4cc(S(=O)(=O)[O-])ccc4F)c4ccc([nH]4)c(-c4cc(S(=O)(=O)[O-])ccc4F)c4nc(c(-c5cc(S(=O)(=O)[O-])ccc5F)c5ccc2[nH]5)C=C4)C=C3)cc1
REMARK SMILES IDX 24 1 23 2 22 3 2 4 1 5 3 6 4 7 5 8 9 9 6 10 8 11 7 12 10 13
REMARK SMILES IDX 11 15 12 16 17 17 13 18 14 19 16 20 15 21 18 22 19 23 20 24
REMARK SMILES IDX 21 25 25 26 26 27 27 28 28 29 29 30 30 31 31 32 32 33 93 34
REMARK SMILES IDX 33 35 92 36 34 37 35 38 36 39 86 40 37 41 91 42 85 43 87 44
REMARK SMILES IDX 38 45 90 46 84 47 83 48 39 50 71 51 51 52 70 53 52 54 55 55
REMARK SMILES IDX 69 56 88 57 53 58 54 59 68 61 89 62 56 63 40 64 41 65 49 66
REMARK SMILES IDX 42 67 48 68 50 69 47 70 43 71 44 72 45 73 46 74 72 75 73 76
REMARK SMILES IDX 81 77 74 78 80 79 82 80 79 81 75 82 76 83 77 84 78 85 57 86
REMARK SMILES IDX 58 87 66 88 59 89 65 90 67 91 64 92 60 93 61 94 62 95 63 96
REMARK H PARENT 10 14 87 49 55 60
REMARK Flexibility Score: inf
ROOT
ATOM      1  C   UNL A   1      32.656  29.645  26.729  1.00  0.00     0.202 C 
ENDROOT
BRANCH   1   2
ATOM      2  C   UNL A   1      33.660  28.612  26.197  1.00  0.00     0.261 C 
BRANCH   2   3
ATOM      3  O   UNL A   1      33.253  27.244  26.084  1.00  0.00    -0.463 OA
BRANCH   3   4
ATOM      4  C   UNL A   1      31.984  26.813  26.250  1.00  0.00     0.310 C 
ATOM      5  O   UNL A   1      31.651  26.295  27.316  1.00  0.00    -0.252 OA
BRANCH   4   6
ATOM      6  C   UNL A   1      31.063  26.790  25.053  1.00  0.00     0.160 C 
BRANCH   6   7
ATOM      7  C   UNL A   1      31.670  26.268  23.780  1.00  0.00    -0.013 A 
ATOM      8  C   UNL A   1      31.762  27.111  22.659  1.00  0.00     0.006 A 
ATOM      9  C   UNL A   1      32.222  24.981  23.698  1.00  0.00     0.042 A 
ATOM     10  C   UNL A   1      32.215  26.646  21.431  1.00  0.00     0.000 A 
ATOM     11  C   UNL A   1      32.612  24.504  22.437  1.00  0.00     0.026 A 
ATOM     12  C   UNL A   1      32.586  25.320  21.307  1.00  0.00     0.002 A 
BRANCH   9  13
ATOM     13  N   UNL A   1      32.505  24.254  24.870  1.00  0.00    -0.352 N 
ATOM     14  H   UNL A   1      32.311  24.734  25.707  1.00  0.00     0.167 HD
BRANCH  13  15
ATOM     15  C   UNL A   1      33.018  22.956  25.044  1.00  0.00     0.087 A 
ATOM     16  C   UNL A   1      32.074  21.932  25.243  1.00  0.00     0.147 A 
ATOM     17  C   UNL A   1      34.376  22.606  24.953  1.00  0.00     0.082 A 
ATOM     18  F   UNL A   1      30.780  22.258  25.401  1.00  0.00    -0.205 F 
ATOM     19  C   UNL A   1      32.425  20.591  25.265  1.00  0.00     0.041 A 
ATOM     20  C   UNL A   1      34.722  21.236  24.943  1.00  0.00     0.015 A 
ATOM     21  C   UNL A   1      33.756  20.237  25.087  1.00  0.00     0.004 A 
BRANCH  17  22
ATOM     22  C   UNL A   1      35.507  23.614  24.937  1.00  0.00     0.418 C 
ATOM     23  F   UNL A   1      36.646  23.088  25.491  1.00  0.00    -0.166 F 
ATOM     24  F   UNL A   1      35.875  23.982  23.679  1.00  0.00    -0.166 F 
ATOM     25  F   UNL A   1      35.283  24.755  25.642  1.00  0.00    -0.166 F 
ENDBRANCH  17  22
ENDBRANCH  13  15
ENDBRANCH   9  13
ENDBRANCH   6   7
ENDBRANCH   4   6
ENDBRANCH   3   4
ENDBRANCH   2   3
ENDBRANCH   1   2
BRANCH   1  26
ATOM     26  O   UNL A   1      31.697  30.276  25.892  1.00  0.00    -0.374 OA
BRANCH  26  27
ATOM     27  C   UNL A   1      31.319  31.629  26.094  1.00  0.00     0.202 C 
BRANCH  27  28
ATOM     28  C   UNL A   1      31.825  32.297  27.363  1.00  0.00     0.261 C 
BRANCH  28  29
ATOM     29  O   UNL A   1      32.684  33.400  27.064  1.00  0.00    -0.460 OA
BRANCH  29  30
ATOM     30  C   UNL A   1      33.276  33.944  28.153  1.00  0.00     0.338 C 
ATOM     31  O   UNL A   1      32.804  34.781  28.910  1.00  0.00    -0.246 OA
BRANCH  30  32
ATOM     32  C   UNL A   1      34.522  33.212  28.433  1.00  0.00     0.060 A 
ATOM     33  C   UNL A   1      34.404  31.943  29.013  1.00  0.00     0.016 A 
ATOM     34  C   UNL A   1      35.774  33.757  28.141  1.00  0.00     0.016 A 
ATOM     35  C   UNL A   1      35.545  31.233  29.354  1.00  0.00     0.010 A 
ATOM     36  C   UNL A   1      36.921  33.051  28.501  1.00  0.00     0.010 A 
ATOM     37  C   UNL A   1      36.803  31.809  29.148  1.00  0.00    -0.014 A 
BRANCH  37  38
ATOM     38  C   UNL A   1      37.967  31.186  29.810  1.00  0.00     0.031 A 
ATOM     39  C   UNL A   1      38.252  31.558  31.238  1.00  0.00     0.074 A 
ATOM     40  C   UNL A   1      38.680  30.242  29.175  1.00  0.00     0.049 A 
ATOM     41  N   UNL A   1      39.184  31.116  32.038  1.00  0.00    -0.248 NA
ATOM     42  C   UNL A   1      37.361  32.562  31.844  1.00  0.00     0.031 C 
ATOM     43  C   UNL A   1      38.444  29.787  27.804  1.00  0.00     0.029 A 
ATOM     44  N   UNL A   1      39.739  29.488  29.603  1.00  0.00    -0.354 N 
ATOM     45  C   UNL A   1      38.986  31.778  33.246  1.00  0.00     0.074 A 
ATOM     46  C   UNL A   1      37.882  32.692  33.054  1.00  0.00     0.031 C 
ATOM     47  C   UNL A   1      39.338  28.830  27.504  1.00  0.00     0.029 A 
ATOM     48  C   UNL A   1      40.227  28.632  28.646  1.00  0.00     0.049 A 
ATOM     49  H   UNL A   1      40.117  29.553  30.511  1.00  0.00     0.167 HD
ATOM     50  C   UNL A   1      39.655  31.619  34.413  1.00  0.00     0.034 A 
ATOM     51  C   UNL A   1      41.288  27.802  28.687  1.00  0.00     0.034 A 
ATOM     52  C   UNL A   1      40.767  30.714  34.569  1.00  0.00     0.049 A 
ATOM     53  C   UNL A   1      42.071  27.707  29.974  1.00  0.00     0.074 A 
ATOM     54  C   UNL A   1      41.537  30.480  35.693  1.00  0.00     0.029 A 
ATOM     55  N   UNL A   1      41.272  29.897  33.564  1.00  0.00    -0.354 N 
ATOM     56  N   UNL A   1      41.876  28.337  31.112  1.00  0.00    -0.248 NA
ATOM     57  C   UNL A   1      43.203  26.775  29.988  1.00  0.00     0.031 C 
ATOM     58  C   UNL A   1      42.551  29.580  35.347  1.00  0.00     0.029 A 
ATOM     59  C   UNL A   1      42.361  29.180  34.033  1.00  0.00     0.049 A 
ATOM     60  H   UNL A   1      40.908  29.837  32.651  1.00  0.00     0.167 HD
ATOM     61  C   UNL A   1      42.849  27.857  31.984  1.00  0.00     0.074 A 
ATOM     62  C   UNL A   1      43.600  26.858  31.248  1.00  0.00     0.031 C 
ATOM     63  C   UNL A   1      43.109  28.206  33.272  1.00  0.00     0.034 A 
BRANCH  50  64
ATOM     64  C   UNL A   1      39.227  32.472  35.582  1.00  0.00     0.023 A 
ATOM     65  C   UNL A   1      39.648  33.807  35.718  1.00  0.00     0.031 A 
ATOM     66  C   UNL A   1      38.405  31.937  36.590  1.00  0.00     0.131 A 
ATOM     67  C   UNL A   1      39.298  34.540  36.862  1.00  0.00     0.055 A 
ATOM     68  C   UNL A   1      37.993  32.697  37.686  1.00  0.00     0.041 A 
ATOM     69  F   UNL A   1      37.997  30.660  36.531  1.00  0.00    -0.206 F 
ATOM     70  C   UNL A   1      38.449  34.003  37.834  1.00  0.00     0.022 A 
BRANCH  67  71
ATOM     71  S   UNL A   1      40.074  36.158  37.130  1.00  0.00     0.124 S 
ATOM     72  O   UNL A   1      39.916  36.782  35.819  1.00  0.00    -0.237 OA
ATOM     73  O   UNL A   1      39.267  36.720  38.208  1.00  0.00    -0.237 OA
ATOM     74  O   UNL A   1      41.450  35.822  37.490  1.00  0.00    -0.744 OA
ENDBRANCH  67  71
ENDBRANCH  50  64
BRANCH  51  75
ATOM     75  C   UNL A   1      41.699  27.036  27.474  1.00  0.00     0.023 A 
ATOM     76  C   UNL A   1      41.516  25.648  27.386  1.00  0.00     0.031 A 
ATOM     77  C   UNL A   1      42.348  27.682  26.405  1.00  0.00     0.131 A 
ATOM     78  C   UNL A   1      42.027  24.942  26.286  1.00  0.00     0.055 A 
ATOM     79  C   UNL A   1      42.795  26.986  25.282  1.00  0.00     0.041 A 
ATOM     80  F   UNL A   1      42.552  29.009  26.435  1.00  0.00    -0.206 F 
ATOM     81  C   UNL A   1      42.650  25.604  25.226  1.00  0.00     0.022 A 
BRANCH  78  82
ATOM     82  S   UNL A   1      41.966  23.130  26.312  1.00  0.00     0.124 S 
ATOM     83  O   UNL A   1      42.710  22.825  27.528  1.00  0.00    -0.237 OA
ATOM     84  O   UNL A   1      40.530  22.878  26.358  1.00  0.00    -0.237 OA
ATOM     85  O   UNL A   1      42.624  22.749  25.063  1.00  0.00    -0.744 OA
ENDBRANCH  78  82
ENDBRANCH  51  75
BRANCH  63  86
ATOM     86  C   UNL A   1      44.236  27.471  33.958  1.00  0.00     0.023 A 
ATOM     87  C   UNL A   1      45.552  27.964  33.945  1.00  0.00     0.031 A 
ATOM     88  C   UNL A   1      44.001  26.237  34.591  1.00  0.00     0.131 A 
ATOM     89  C   UNL A   1      46.595  27.185  34.463  1.00  0.00     0.055 A 
ATOM     90  C   UNL A   1      45.033  25.506  35.182  1.00  0.00     0.041 A 
ATOM     91  F   UNL A   1      42.766  25.713  34.636  1.00  0.00    -0.206 F 
ATOM     92  C   UNL A   1      46.343  25.968  35.099  1.00  0.00     0.022 A 
BRANCH  89  93
ATOM     93  S   UNL A   1      48.302  27.713  34.151  1.00  0.00     0.124 S 
ATOM     94  O   UNL A   1      48.203  28.276  32.807  1.00  0.00    -0.237 OA
ATOM     95  O   UNL A   1      48.535  28.670  35.227  1.00  0.00    -0.237 OA
ATOM     96  O   UNL A   1      49.068  26.472  34.248  1.00  0.00    -0.744 OA
ENDBRANCH  89  93
ENDBRANCH  63  86
ENDBRANCH  37  38
ENDBRANCH  30  32
ENDBRANCH  29  30
ENDBRANCH  28  29
ENDBRANCH  27  28
ENDBRANCH  26  27
ENDBRANCH   1  26
TORSDOF 21
ENDMDL
