MODEL 1
REMARK VINA RESULT:     -12.1      0.000      0.000
REMARK SMILES CS(=O)(=O)c1ccc(N2N=C(C(=O)OCCOCCOC(=O)c3ccc(-c4c5nc(c(-c6cc(S(=O)(=O)[O-])ccc6F)c6ccc([nH]6)c(-c6cc(S(=O)(=O)[O-])ccc6F)c6nc(c(-c7cc(S(=O)(=O)[O-])ccc7F)c7ccc4[nH]7)C=C6)C=C5)cc3)C[C@H]2c2ccco2)cc1
REMARK SMILES IDX 18 1 17 2 16 3 15 4 14 5 12 6 13 7 11 8 9 9 10 10 87 11
REMARK SMILES IDX 86 12 8 13 5 14 6 15 94 16 7 17 93 18 2 19 1 20 3 21 4 22
REMARK SMILES IDX 88 23 89 24 92 25 90 26 91 27 19 28 20 29 21 30 22 31 23 32
REMARK SMILES IDX 24 33 85 34 25 35 84 36 26 37 27 38 28 39 78 40 29 41 83 42
REMARK SMILES IDX 77 43 79 44 30 45 82 46 76 47 75 48 31 50 63 51 43 52 62 53
REMARK SMILES IDX 44 54 47 55 61 56 80 57 45 58 46 59 60 61 81 62 48 63 32 64
REMARK SMILES IDX 33 65 41 66 34 67 40 68 42 69 39 70 35 71 36 72 37 73 38 74
REMARK SMILES IDX 64 75 65 76 73 77 66 78 72 79 74 80 71 81 67 82 68 83 69 84
REMARK SMILES IDX 70 85 49 86 50 87 58 88 51 89 57 90 59 91 56 92 52 93 53 94
REMARK SMILES IDX 54 95 55 96
REMARK H PARENT 79 49 47 60
REMARK Flexibility Score: inf
ROOT
ATOM      1  C   UNL A   1      35.933  19.980  25.018  1.00  0.00     0.202 C 
ENDROOT
BRANCH   1   2
ATOM      2  O   UNL A   1      34.896  20.885  24.631  1.00  0.00    -0.374 OA
BRANCH   2   3
ATOM      3  C   UNL A   1      33.573  20.335  24.608  1.00  0.00     0.202 C 
BRANCH   3   4
ATOM      4  C   UNL A   1      32.569  21.258  25.299  1.00  0.00     0.261 C 
BRANCH   4   5
ATOM      5  O   UNL A   1      33.291  22.017  26.280  1.00  0.00    -0.459 OA
BRANCH   5   6
ATOM      6  C   UNL A   1      32.593  22.979  26.910  1.00  0.00     0.354 C 
ATOM      7  O   UNL A   1      32.109  22.955  28.024  1.00  0.00    -0.245 OA
BRANCH   6   8
ATOM      8  C   UNL A   1      32.639  24.202  26.036  1.00  0.00     0.148 C 
ATOM      9  N   UNL A   1      32.073  26.007  25.090  1.00  0.00    -0.254 N 
ATOM     10  N   UNL A   1      31.622  24.997  25.888  1.00  0.00    -0.169 NA
ATOM     11  C   UNL A   1      33.336  25.664  24.417  1.00  0.00     0.180 C 
ATOM     12  C   UNL A   1      33.922  24.645  25.404  1.00  0.00     0.101 C 
BRANCH   9  13
ATOM     13  C   UNL A   1      31.152  26.905  24.574  1.00  0.00     0.060 A 
ATOM     14  C   UNL A   1      29.300  28.669  23.431  1.00  0.00     0.067 A 
ATOM     15  C   UNL A   1      28.968  27.319  23.578  1.00  0.00     0.022 A 
ATOM     16  C   UNL A   1      30.549  29.145  23.832  1.00  0.00     0.022 A 
ATOM     17  C   UNL A   1      29.892  26.449  24.160  1.00  0.00     0.029 A 
ATOM     18  C   UNL A   1      31.469  28.258  24.392  1.00  0.00     0.029 A 
BRANCH  14  19
ATOM     19  S   UNL A   1      28.125  29.770  22.683  1.00  0.00     0.175 S 
ATOM     20  C   UNL A   1      28.480  31.329  23.450  1.00  0.00     0.163 C 
ATOM     21  O   UNL A   1      26.803  29.351  23.104  1.00  0.00    -0.224 OA
ATOM     22  O   UNL A   1      28.455  29.894  21.275  1.00  0.00    -0.224 OA
ENDBRANCH  14  19
ENDBRANCH   9  13
BRANCH  11  23
ATOM     23  C   UNL A   1      33.220  25.092  23.031  1.00  0.00     0.128 A 
ATOM     24  C   UNL A   1      33.415  23.826  22.516  1.00  0.00     0.048 A 
ATOM     25  O   UNL A   1      32.861  25.946  22.024  1.00  0.00    -0.467 OA
ATOM     26  C   UNL A   1      33.159  23.913  21.125  1.00  0.00     0.042 A 
ATOM     27  C   UNL A   1      32.821  25.223  20.879  1.00  0.00     0.195 A 
ENDBRANCH  11  23
ENDBRANCH   6   8
ENDBRANCH   5   6
ENDBRANCH   4   5
ENDBRANCH   3   4
ENDBRANCH   2   3
ENDBRANCH   1   2
BRANCH   1  28
ATOM     28  C   UNL A   1      37.324  20.452  24.586  1.00  0.00     0.261 C 
BRANCH  28  29
ATOM     29  O   UNL A   1      37.818  21.447  25.502  1.00  0.00    -0.460 OA
BRANCH  29  30
ATOM     30  C   UNL A   1      39.046  21.198  26.019  1.00  0.00     0.338 C 
ATOM     31  O   UNL A   1      39.698  20.176  25.875  1.00  0.00    -0.246 OA
BRANCH  30  32
ATOM     32  C   UNL A   1      39.572  22.407  26.699  1.00  0.00     0.060 A 
ATOM     33  C   UNL A   1      38.954  23.632  26.408  1.00  0.00     0.016 A 
ATOM     34  C   UNL A   1      40.655  22.366  27.591  1.00  0.00     0.016 A 
ATOM     35  C   UNL A   1      39.442  24.813  26.963  1.00  0.00     0.010 A 
ATOM     36  C   UNL A   1      41.145  23.554  28.148  1.00  0.00     0.010 A 
ATOM     37  C   UNL A   1      40.561  24.785  27.807  1.00  0.00    -0.014 A 
BRANCH  37  38
ATOM     38  C   UNL A   1      41.210  26.066  28.171  1.00  0.00     0.031 A 
ATOM     39  C   UNL A   1      42.615  26.318  27.699  1.00  0.00     0.074 A 
ATOM     40  C   UNL A   1      40.544  27.013  28.855  1.00  0.00     0.049 A 
ATOM     41  N   UNL A   1      43.338  27.405  27.785  1.00  0.00    -0.248 NA
ATOM     42  C   UNL A   1      43.293  25.190  27.041  1.00  0.00     0.031 C 
ATOM     43  C   UNL A   1      39.182  26.887  29.370  1.00  0.00     0.029 A 
ATOM     44  N   UNL A   1      40.932  28.275  29.226  1.00  0.00    -0.354 N 
ATOM     45  C   UNL A   1      44.544  27.104  27.162  1.00  0.00     0.074 A 
ATOM     46  C   UNL A   1      44.473  25.715  26.754  1.00  0.00     0.031 C 
ATOM     47  C   UNL A   1      38.848  28.030  29.998  1.00  0.00     0.029 A 
ATOM     48  C   UNL A   1      39.970  28.964  29.925  1.00  0.00     0.049 A 
ATOM     49  H   UNL A   1      41.814  28.652  29.012  1.00  0.00     0.167 HD
ATOM     50  C   UNL A   1      45.608  27.911  26.935  1.00  0.00     0.034 A 
ATOM     51  C   UNL A   1      39.994  30.208  30.440  1.00  0.00     0.034 A 
ATOM     52  C   UNL A   1      45.691  29.279  27.375  1.00  0.00     0.049 A 
ATOM     53  C   UNL A   1      41.207  31.075  30.223  1.00  0.00     0.074 A 
ATOM     54  C   UNL A   1      46.720  30.187  27.194  1.00  0.00     0.029 A 
ATOM     55  N   UNL A   1      44.707  29.932  28.104  1.00  0.00    -0.354 N 
ATOM     56  N   UNL A   1      42.323  30.791  29.593  1.00  0.00    -0.248 NA
ATOM     57  C   UNL A   1      41.154  32.437  30.773  1.00  0.00     0.031 C 
ATOM     58  C   UNL A   1      46.376  31.376  27.852  1.00  0.00     0.029 A 
ATOM     59  C   UNL A   1      45.114  31.221  28.404  1.00  0.00     0.049 A 
ATOM     60  H   UNL A   1      43.845  29.537  28.368  1.00  0.00     0.167 HD
ATOM     61  C   UNL A   1      43.095  31.947  29.653  1.00  0.00     0.074 A 
ATOM     62  C   UNL A   1      42.319  32.931  30.379  1.00  0.00     0.031 C 
ATOM     63  C   UNL A   1      44.331  32.180  29.144  1.00  0.00     0.034 A 
BRANCH  50  64
ATOM     64  C   UNL A   1      46.773  27.298  26.206  1.00  0.00     0.023 A 
ATOM     65  C   UNL A   1      47.788  26.617  26.902  1.00  0.00     0.031 A 
ATOM     66  C   UNL A   1      46.906  27.453  24.817  1.00  0.00     0.131 A 
ATOM     67  C   UNL A   1      48.927  26.175  26.214  1.00  0.00     0.055 A 
ATOM     68  C   UNL A   1      48.014  26.957  24.129  1.00  0.00     0.041 A 
ATOM     69  F   UNL A   1      45.977  28.118  24.113  1.00  0.00    -0.206 F 
ATOM     70  C   UNL A   1      49.039  26.325  24.830  1.00  0.00     0.022 A 
BRANCH  67  71
ATOM     71  S   UNL A   1      50.319  25.519  27.175  1.00  0.00     0.124 S 
ATOM     72  O   UNL A   1      50.532  26.583  28.152  1.00  0.00    -0.237 OA
ATOM     73  O   UNL A   1      49.782  24.268  27.696  1.00  0.00    -0.237 OA
ATOM     74  O   UNL A   1      51.382  25.375  26.181  1.00  0.00    -0.744 OA
ENDBRANCH  67  71
ENDBRANCH  50  64
BRANCH  51  75
ATOM     75  C   UNL A   1      38.844  30.710  31.237  1.00  0.00     0.023 A 
ATOM     76  C   UNL A   1      37.727  31.293  30.618  1.00  0.00     0.031 A 
ATOM     77  C   UNL A   1      38.878  30.649  32.641  1.00  0.00     0.131 A 
ATOM     78  C   UNL A   1      36.696  31.825  31.409  1.00  0.00     0.055 A 
ATOM     79  C   UNL A   1      37.837  31.155  33.421  1.00  0.00     0.041 A 
ATOM     80  F   UNL A   1      39.924  30.093  33.272  1.00  0.00    -0.206 F 
ATOM     81  C   UNL A   1      36.742  31.756  32.804  1.00  0.00     0.022 A 
BRANCH  78  82
ATOM     82  S   UNL A   1      35.307  32.657  30.584  1.00  0.00     0.124 S 
ATOM     83  O   UNL A   1      34.283  32.632  31.622  1.00  0.00    -0.237 OA
ATOM     84  O   UNL A   1      35.879  33.965  30.277  1.00  0.00    -0.237 OA
ATOM     85  O   UNL A   1      35.042  31.808  29.425  1.00  0.00    -0.744 OA
ENDBRANCH  78  82
ENDBRANCH  51  75
BRANCH  63  86
ATOM     86  C   UNL A   1      44.894  33.561  29.334  1.00  0.00     0.023 A 
ATOM     87  C   UNL A   1      44.607  34.600  28.432  1.00  0.00     0.031 A 
ATOM     88  C   UNL A   1      45.734  33.835  30.428  1.00  0.00     0.131 A 
ATOM     89  C   UNL A   1      45.187  35.862  28.620  1.00  0.00     0.055 A 
ATOM     90  C   UNL A   1      46.282  35.101  30.629  1.00  0.00     0.041 A 
ATOM     91  F   UNL A   1      46.035  32.873  31.314  1.00  0.00    -0.206 F 
ATOM     92  C   UNL A   1      46.016  36.122  29.717  1.00  0.00     0.022 A 
BRANCH  89  93
ATOM     93  S   UNL A   1      44.889  37.154  27.379  1.00  0.00     0.124 S 
ATOM     94  O   UNL A   1      43.626  36.724  26.786  1.00  0.00    -0.237 OA
ATOM     95  O   UNL A   1      44.830  38.364  28.193  1.00  0.00    -0.237 OA
ATOM     96  O   UNL A   1      46.050  37.057  26.497  1.00  0.00    -0.744 OA
ENDBRANCH  89  93
ENDBRANCH  63  86
ENDBRANCH  37  38
ENDBRANCH  30  32
ENDBRANCH  29  30
ENDBRANCH  28  29
ENDBRANCH   1  28
TORSDOF 20
ENDMDL
MODEL 2
REMARK VINA RESULT:     -11.5      4.706      9.878
REMARK SMILES CS(=O)(=O)c1ccc(N2N=C(C(=O)OCCOCCOC(=O)c3ccc(-c4c5nc(c(-c6cc(S(=O)(=O)[O-])ccc6F)c6ccc([nH]6)c(-c6cc(S(=O)(=O)[O-])ccc6F)c6nc(c(-c7cc(S(=O)(=O)[O-])ccc7F)c7ccc4[nH]7)C=C6)C=C5)cc3)C[C@H]2c2ccco2)cc1
REMARK SMILES IDX 18 1 17 2 16 3 15 4 14 5 12 6 13 7 11 8 9 9 10 10 87 11
REMARK SMILES IDX 86 12 8 13 5 14 6 15 94 16 7 17 93 18 2 19 1 20 3 21 4 22
REMARK SMILES IDX 88 23 89 24 92 25 90 26 91 27 19 28 20 29 21 30 22 31 23 32
REMARK SMILES IDX 24 33 85 34 25 35 84 36 26 37 27 38 28 39 78 40 29 41 83 42
REMARK SMILES IDX 77 43 79 44 30 45 82 46 76 47 75 48 31 50 63 51 43 52 62 53
REMARK SMILES IDX 44 54 47 55 61 56 80 57 45 58 46 59 60 61 81 62 48 63 32 64
REMARK SMILES IDX 33 65 41 66 34 67 40 68 42 69 39 70 35 71 36 72 37 73 38 74
REMARK SMILES IDX 64 75 65 76 73 77 66 78 72 79 74 80 71 81 67 82 68 83 69 84
REMARK SMILES IDX 70 85 49 86 50 87 58 88 51 89 57 90 59 91 56 92 52 93 53 94
REMARK SMILES IDX 54 95 55 96
REMARK H PARENT 79 49 47 60
REMARK Flexibility Score: inf
ROOT
ATOM      1  C   UNL A   1      31.731  30.106  26.018  1.00  0.00     0.202 C 
ENDROOT
BRANCH   1   2
ATOM      2  O   UNL A   1      31.424  29.884  24.639  1.00  0.00    -0.374 OA
BRANCH   2   3
ATOM      3  C   UNL A   1      31.761  28.586  24.132  1.00  0.00     0.202 C 
BRANCH   3   4
ATOM      4  C   UNL A   1      32.719  28.681  22.945  1.00  0.00     0.261 C 
BRANCH   4   5
ATOM      5  O   UNL A   1      33.752  27.705  23.148  1.00  0.00    -0.459 OA
BRANCH   5   6
ATOM      6  C   UNL A   1      33.631  26.566  22.442  1.00  0.00     0.354 C 
ATOM      7  O   UNL A   1      33.598  26.424  21.237  1.00  0.00    -0.245 OA
BRANCH   6   8
ATOM      8  C   UNL A   1      33.703  25.429  23.425  1.00  0.00     0.148 C 
ATOM      9  N   UNL A   1      33.867  23.472  24.211  1.00  0.00    -0.254 N 
ATOM     10  N   UNL A   1      33.736  24.184  23.054  1.00  0.00    -0.169 NA
ATOM     11  C   UNL A   1      33.561  24.281  25.401  1.00  0.00     0.180 C 
ATOM     12  C   UNL A   1      33.891  25.689  24.887  1.00  0.00     0.101 C 
BRANCH   9  13
ATOM     13  C   UNL A   1      33.715  22.096  24.162  1.00  0.00     0.060 A 
ATOM     14  C   UNL A   1      33.310  19.324  24.125  1.00  0.00     0.067 A 
ATOM     15  C   UNL A   1      32.426  20.160  23.438  1.00  0.00     0.022 A 
ATOM     16  C   UNL A   1      34.383  19.855  24.842  1.00  0.00     0.022 A 
ATOM     17  C   UNL A   1      32.641  21.540  23.451  1.00  0.00     0.029 A 
ATOM     18  C   UNL A   1      34.572  21.237  24.863  1.00  0.00     0.029 A 
BRANCH  14  19
ATOM     19  S   UNL A   1      33.028  17.571  24.112  1.00  0.00     0.175 S 
ATOM     20  C   UNL A   1      34.606  16.899  24.563  1.00  0.00     0.163 C 
ATOM     21  O   UNL A   1      32.747  17.184  22.743  1.00  0.00    -0.224 OA
ATOM     22  O   UNL A   1      32.100  17.256  25.182  1.00  0.00    -0.224 OA
ENDBRANCH  14  19
ENDBRANCH   9  13
BRANCH  11  23
ATOM     23  C   UNL A   1      32.152  24.195  25.920  1.00  0.00     0.128 A 
ATOM     24  C   UNL A   1      31.079  25.065  25.881  1.00  0.00     0.048 A 
ATOM     25  O   UNL A   1      31.793  23.056  26.587  1.00  0.00    -0.467 OA
ATOM     26  C   UNL A   1      30.013  24.420  26.555  1.00  0.00     0.042 A 
ATOM     27  C   UNL A   1      30.498  23.198  26.960  1.00  0.00     0.195 A 
ENDBRANCH  11  23
ENDBRANCH   6   8
ENDBRANCH   5   6
ENDBRANCH   4   5
ENDBRANCH   3   4
ENDBRANCH   2   3
ENDBRANCH   1   2
BRANCH   1  28
ATOM     28  C   UNL A   1      32.686  29.055  26.590  1.00  0.00     0.261 C 
BRANCH  28  29
ATOM     29  O   UNL A   1      34.034  29.558  26.592  1.00  0.00    -0.460 OA
BRANCH  29  30
ATOM     30  C   UNL A   1      34.305  30.483  27.546  1.00  0.00     0.338 C 
ATOM     31  O   UNL A   1      33.549  31.356  27.942  1.00  0.00    -0.246 OA
BRANCH  30  32
ATOM     32  C   UNL A   1      35.630  30.216  28.158  1.00  0.00     0.060 A 
ATOM     33  C   UNL A   1      36.764  30.428  27.362  1.00  0.00     0.016 A 
ATOM     34  C   UNL A   1      35.778  29.754  29.475  1.00  0.00     0.016 A 
ATOM     35  C   UNL A   1      38.034  30.134  27.856  1.00  0.00     0.010 A 
ATOM     36  C   UNL A   1      37.054  29.458  29.971  1.00  0.00     0.010 A 
ATOM     37  C   UNL A   1      38.182  29.614  29.149  1.00  0.00    -0.014 A 
BRANCH  37  38
ATOM     38  C   UNL A   1      39.502  29.074  29.550  1.00  0.00     0.031 A 
ATOM     39  C   UNL A   1      40.232  29.736  30.687  1.00  0.00     0.074 A 
ATOM     40  C   UNL A   1      40.015  27.981  28.960  1.00  0.00     0.049 A 
ATOM     41  N   UNL A   1      41.332  29.369  31.293  1.00  0.00    -0.248 NA
ATOM     42  C   UNL A   1      39.638  30.978  31.206  1.00  0.00     0.031 C 
ATOM     43  C   UNL A   1      39.407  27.253  27.847  1.00  0.00     0.029 A 
ATOM     44  N   UNL A   1      41.170  27.290  29.225  1.00  0.00    -0.354 N 
ATOM     45  C   UNL A   1      41.544  30.316  32.289  1.00  0.00     0.074 A 
ATOM     46  C   UNL A   1      40.490  31.302  32.166  1.00  0.00     0.031 C 
ATOM     47  C   UNL A   1      40.200  26.216  27.520  1.00  0.00     0.029 A 
ATOM     48  C   UNL A   1      41.367  26.208  28.402  1.00  0.00     0.049 A 
ATOM     49  H   UNL A   1      41.798  27.545  29.938  1.00  0.00     0.167 HD
ATOM     50  C   UNL A   1      42.517  30.354  33.231  1.00  0.00     0.034 A 
ATOM     51  C   UNL A   1      42.372  25.312  28.370  1.00  0.00     0.034 A 
ATOM     52  C   UNL A   1      43.586  29.395  33.327  1.00  0.00     0.049 A 
ATOM     53  C   UNL A   1      43.475  25.400  29.393  1.00  0.00     0.074 A 
ATOM     54  C   UNL A   1      44.620  29.338  34.244  1.00  0.00     0.029 A 
ATOM     55  N   UNL A   1      43.765  28.328  32.457  1.00  0.00    -0.354 N 
ATOM     56  N   UNL A   1      43.638  26.276  30.357  1.00  0.00    -0.248 NA
ATOM     57  C   UNL A   1      44.518  24.367  29.332  1.00  0.00     0.031 C 
ATOM     58  C   UNL A   1      45.450  28.262  33.903  1.00  0.00     0.029 A 
ATOM     59  C   UNL A   1      44.907  27.623  32.799  1.00  0.00     0.049 A 
ATOM     60  H   UNL A   1      43.168  28.105  31.708  1.00  0.00     0.167 HD
ATOM     61  C   UNL A   1      44.792  25.885  31.030  1.00  0.00     0.074 A 
ATOM     62  C   UNL A   1      45.283  24.697  30.363  1.00  0.00     0.031 C 
ATOM     63  C   UNL A   1      45.388  26.451  32.110  1.00  0.00     0.034 A 
BRANCH  50  64
ATOM     64  C   UNL A   1      42.470  31.506  34.199  1.00  0.00     0.023 A 
ATOM     65  C   UNL A   1      41.637  31.470  35.330  1.00  0.00     0.031 A 
ATOM     66  C   UNL A   1      43.211  32.674  33.953  1.00  0.00     0.131 A 
ATOM     67  C   UNL A   1      41.511  32.609  36.139  1.00  0.00     0.055 A 
ATOM     68  C   UNL A   1      43.128  33.782  34.796  1.00  0.00     0.041 A 
ATOM     69  F   UNL A   1      44.000  32.765  32.871  1.00  0.00    -0.206 F 
ATOM     70  C   UNL A   1      42.265  33.759  35.890  1.00  0.00     0.022 A 
BRANCH  67  71
ATOM     71  S   UNL A   1      40.251  32.611  37.444  1.00  0.00     0.124 S 
ATOM     72  O   UNL A   1      39.784  33.994  37.402  1.00  0.00    -0.237 OA
ATOM     73  O   UNL A   1      39.310  31.601  36.976  1.00  0.00    -0.237 OA
ATOM     74  O   UNL A   1      41.004  32.253  38.645  1.00  0.00    -0.744 OA
ENDBRANCH  67  71
ENDBRANCH  50  64
BRANCH  51  75
ATOM     75  C   UNL A   1      42.404  24.261  27.320  1.00  0.00     0.023 A 
ATOM     76  C   UNL A   1      41.595  23.117  27.407  1.00  0.00     0.031 A 
ATOM     77  C   UNL A   1      43.288  24.376  26.232  1.00  0.00     0.131 A 
ATOM     78  C   UNL A   1      41.709  22.111  26.434  1.00  0.00     0.055 A 
ATOM     79  C   UNL A   1      43.379  23.385  25.254  1.00  0.00     0.041 A 
ATOM     80  F   UNL A   1      44.074  25.457  26.108  1.00  0.00    -0.206 F 
ATOM     81  C   UNL A   1      42.593  22.240  25.358  1.00  0.00     0.022 A 
BRANCH  78  82
ATOM     82  S   UNL A   1      40.718  20.600  26.622  1.00  0.00     0.124 S 
ATOM     83  O   UNL A   1      40.808  20.358  28.058  1.00  0.00    -0.237 OA
ATOM     84  O   UNL A   1      39.415  21.031  26.125  1.00  0.00    -0.237 OA
ATOM     85  O   UNL A   1      41.414  19.630  25.781  1.00  0.00    -0.744 OA
ENDBRANCH  78  82
ENDBRANCH  51  75
BRANCH  63  86
ATOM     86  C   UNL A   1      46.614  25.765  32.645  1.00  0.00     0.023 A 
ATOM     87  C   UNL A   1      46.525  24.770  33.632  1.00  0.00     0.031 A 
ATOM     88  C   UNL A   1      47.886  26.122  32.163  1.00  0.00     0.131 A 
ATOM     89  C   UNL A   1      47.696  24.185  34.136  1.00  0.00     0.055 A 
ATOM     90  C   UNL A   1      49.046  25.515  32.645  1.00  0.00     0.041 A 
ATOM     91  F   UNL A   1      48.019  27.069  31.221  1.00  0.00    -0.206 F 
ATOM     92  C   UNL A   1      48.955  24.546  33.643  1.00  0.00     0.022 A 
BRANCH  89  93
ATOM     93  S   UNL A   1      47.558  22.982  35.490  1.00  0.00     0.124 S 
ATOM     94  O   UNL A   1      46.819  21.893  34.858  1.00  0.00    -0.237 OA
ATOM     95  O   UNL A   1      48.956  22.704  35.804  1.00  0.00    -0.237 OA
ATOM     96  O   UNL A   1      46.825  23.710  36.522  1.00  0.00    -0.744 OA
ENDBRANCH  89  93
ENDBRANCH  63  86
ENDBRANCH  37  38
ENDBRANCH  30  32
ENDBRANCH  29  30
ENDBRANCH  28  29
ENDBRANCH   1  28
TORSDOF 20
ENDMDL
MODEL 3
REMARK VINA RESULT:     -11.5      4.598     10.250
REMARK SMILES CS(=O)(=O)c1ccc(N2N=C(C(=O)OCCOCCOC(=O)c3ccc(-c4c5nc(c(-c6cc(S(=O)(=O)[O-])ccc6F)c6ccc([nH]6)c(-c6cc(S(=O)(=O)[O-])ccc6F)c6nc(c(-c7cc(S(=O)(=O)[O-])ccc7F)c7ccc4[nH]7)C=C6)C=C5)cc3)C[C@H]2c2ccco2)cc1
REMARK SMILES IDX 18 1 17 2 16 3 15 4 14 5 12 6 13 7 11 8 9 9 10 10 87 11
REMARK SMILES IDX 86 12 8 13 5 14 6 15 94 16 7 17 93 18 2 19 1 20 3 21 4 22
REMARK SMILES IDX 88 23 89 24 92 25 90 26 91 27 19 28 20 29 21 30 22 31 23 32
REMARK SMILES IDX 24 33 85 34 25 35 84 36 26 37 27 38 28 39 78 40 29 41 83 42
REMARK SMILES IDX 77 43 79 44 30 45 82 46 76 47 75 48 31 50 63 51 43 52 62 53
REMARK SMILES IDX 44 54 47 55 61 56 80 57 45 58 46 59 60 61 81 62 48 63 32 64
REMARK SMILES IDX 33 65 41 66 34 67 40 68 42 69 39 70 35 71 36 72 37 73 38 74
REMARK SMILES IDX 64 75 65 76 73 77 66 78 72 79 74 80 71 81 67 82 68 83 69 84
REMARK SMILES IDX 70 85 49 86 50 87 58 88 51 89 57 90 59 91 56 92 52 93 53 94
REMARK SMILES IDX 54 95 55 96
REMARK H PARENT 79 49 47 60
REMARK Flexibility Score: inf
ROOT
ATOM      1  C   UNL A   1      31.498  29.786  24.876  1.00  0.00     0.202 C 
ENDROOT
BRANCH   1   2
ATOM      2  O   UNL A   1      32.751  29.329  24.360  1.00  0.00    -0.374 OA
BRANCH   2   3
ATOM      3  C   UNL A   1      32.751  28.959  22.976  1.00  0.00     0.202 C 
BRANCH   3   4
ATOM      4  C   UNL A   1      34.042  28.235  22.590  1.00  0.00     0.261 C 
BRANCH   4   5
ATOM      5  O   UNL A   1      33.670  27.037  21.893  1.00  0.00    -0.459 OA
BRANCH   5   6
ATOM      6  C   UNL A   1      32.520  26.461  22.288  1.00  0.00     0.354 C 
ATOM      7  O   UNL A   1      31.398  26.645  21.861  1.00  0.00    -0.245 OA
BRANCH   6   8
ATOM      8  C   UNL A   1      32.881  25.392  23.282  1.00  0.00     0.148 C 
ATOM      9  N   UNL A   1      33.462  23.525  24.088  1.00  0.00    -0.254 N 
ATOM     10  N   UNL A   1      33.103  24.159  22.935  1.00  0.00    -0.169 NA
ATOM     11  C   UNL A   1      33.123  24.310  25.286  1.00  0.00     0.180 C 
ATOM     12  C   UNL A   1      33.149  25.734  24.714  1.00  0.00     0.101 C 
BRANCH   9  13
ATOM     13  C   UNL A   1      33.555  22.142  24.082  1.00  0.00     0.060 A 
ATOM     14  C   UNL A   1      33.646  19.342  24.132  1.00  0.00     0.067 A 
ATOM     15  C   UNL A   1      32.619  19.988  23.437  1.00  0.00     0.022 A 
ATOM     16  C   UNL A   1      34.616  20.076  24.816  1.00  0.00     0.022 A 
ATOM     17  C   UNL A   1      32.587  21.383  23.407  1.00  0.00     0.029 A 
ATOM     18  C   UNL A   1      34.558  21.471  24.793  1.00  0.00     0.029 A 
BRANCH  14  19
ATOM     19  S   UNL A   1      33.677  17.568  24.175  1.00  0.00     0.175 S 
ATOM     20  C   UNL A   1      32.580  17.171  25.511  1.00  0.00     0.163 C 
ATOM     21  O   UNL A   1      35.016  17.163  24.556  1.00  0.00    -0.224 OA
ATOM     22  O   UNL A   1      33.068  17.076  22.953  1.00  0.00    -0.224 OA
ENDBRANCH  14  19
ENDBRANCH   9  13
BRANCH  11  23
ATOM     23  C   UNL A   1      31.804  23.996  25.937  1.00  0.00     0.128 A 
ATOM     24  C   UNL A   1      31.308  22.870  26.565  1.00  0.00     0.048 A 
ATOM     25  O   UNL A   1      30.850  24.976  25.934  1.00  0.00    -0.467 OA
ATOM     26  C   UNL A   1      29.986  23.183  26.967  1.00  0.00     0.042 A 
ATOM     27  C   UNL A   1      29.759  24.478  26.564  1.00  0.00     0.195 A 
ENDBRANCH  11  23
ENDBRANCH   6   8
ENDBRANCH   5   6
ENDBRANCH   4   5
ENDBRANCH   3   4
ENDBRANCH   2   3
ENDBRANCH   1   2
BRANCH   1  28
ATOM     28  C   UNL A   1      31.654  30.689  26.102  1.00  0.00     0.261 C 
BRANCH  28  29
ATOM     29  O   UNL A   1      32.925  30.454  26.734  1.00  0.00    -0.460 OA
BRANCH  29  30
ATOM     30  C   UNL A   1      33.492  31.541  27.313  1.00  0.00     0.338 C 
ATOM     31  O   UNL A   1      32.946  32.608  27.539  1.00  0.00    -0.246 OA
BRANCH  30  32
ATOM     32  C   UNL A   1      34.869  31.220  27.767  1.00  0.00     0.060 A 
ATOM     33  C   UNL A   1      35.190  29.868  27.950  1.00  0.00     0.016 A 
ATOM     34  C   UNL A   1      35.830  32.208  28.028  1.00  0.00     0.016 A 
ATOM     35  C   UNL A   1      36.444  29.505  28.438  1.00  0.00     0.010 A 
ATOM     36  C   UNL A   1      37.090  31.843  28.518  1.00  0.00     0.010 A 
ATOM     37  C   UNL A   1      37.387  30.491  28.758  1.00  0.00    -0.014 A 
BRANCH  37  38
ATOM     38  C   UNL A   1      38.602  30.096  29.509  1.00  0.00     0.031 A 
ATOM     39  C   UNL A   1      38.783  30.621  30.906  1.00  0.00     0.074 A 
ATOM     40  C   UNL A   1      39.496  29.240  28.984  1.00  0.00     0.049 A 
ATOM     41  N   UNL A   1      39.693  30.318  31.796  1.00  0.00    -0.248 NA
ATOM     42  C   UNL A   1      37.805  31.623  31.357  1.00  0.00     0.031 C 
ATOM     43  C   UNL A   1      39.434  28.665  27.641  1.00  0.00     0.029 A 
ATOM     44  N   UNL A   1      40.632  28.700  29.532  1.00  0.00    -0.354 N 
ATOM     45  C   UNL A   1      39.377  31.065  32.925  1.00  0.00     0.074 A 
ATOM     46  C   UNL A   1      38.226  31.877  32.586  1.00  0.00     0.031 C 
ATOM     47  C   UNL A   1      40.494  27.854  27.467  1.00  0.00     0.029 A 
ATOM     48  C   UNL A   1      41.303  27.852  28.684  1.00  0.00     0.049 A 
ATOM     49  H   UNL A   1      40.938  28.901  30.445  1.00  0.00     0.167 HD
ATOM     50  C   UNL A   1      39.978  31.065  34.139  1.00  0.00     0.034 A 
ATOM     51  C   UNL A   1      42.437  27.150  28.876  1.00  0.00     0.034 A 
ATOM     52  C   UNL A   1      41.145  30.287  34.462  1.00  0.00     0.049 A 
ATOM     53  C   UNL A   1      43.122  27.203  30.216  1.00  0.00     0.074 A 
ATOM     54  C   UNL A   1      41.831  30.209  35.661  1.00  0.00     0.029 A 
ATOM     55  N   UNL A   1      41.811  29.460  33.568  1.00  0.00    -0.354 N 
ATOM     56  N   UNL A   1      42.786  27.880  31.289  1.00  0.00    -0.248 NA
ATOM     57  C   UNL A   1      44.330  26.381  30.374  1.00  0.00     0.031 C 
ATOM     58  C   UNL A   1      42.938  29.369  35.480  1.00  0.00     0.029 A 
ATOM     59  C   UNL A   1      42.914  28.889  34.180  1.00  0.00     0.049 A 
ATOM     60  H   UNL A   1      41.538  29.301  32.636  1.00  0.00     0.167 HD
ATOM     61  C   UNL A   1      43.730  27.548  32.256  1.00  0.00     0.074 A 
ATOM     62  C   UNL A   1      44.648  26.612  31.641  1.00  0.00     0.031 C 
ATOM     63  C   UNL A   1      43.826  27.971  33.542  1.00  0.00     0.034 A 
BRANCH  50  64
ATOM     64  C   UNL A   1      39.387  31.975  35.181  1.00  0.00     0.023 A 
ATOM     65  C   UNL A   1      39.829  33.302  35.323  1.00  0.00     0.031 A 
ATOM     66  C   UNL A   1      38.424  31.494  36.083  1.00  0.00     0.131 A 
ATOM     67  C   UNL A   1      39.358  34.083  36.388  1.00  0.00     0.055 A 
ATOM     68  C   UNL A   1      37.913  32.297  37.104  1.00  0.00     0.041 A 
ATOM     69  F   UNL A   1      37.989  30.227  36.004  1.00  0.00    -0.206 F 
ATOM     70  C   UNL A   1      38.390  33.596  37.269  1.00  0.00     0.022 A 
BRANCH  67  71
ATOM     71  S   UNL A   1      40.126  35.700  36.683  1.00  0.00     0.124 S 
ATOM     72  O   UNL A   1      39.630  36.475  35.549  1.00  0.00    -0.237 OA
ATOM     73  O   UNL A   1      39.596  36.068  37.991  1.00  0.00    -0.237 OA
ATOM     74  O   UNL A   1      41.558  35.409  36.650  1.00  0.00    -0.744 OA
ENDBRANCH  67  71
ENDBRANCH  50  64
BRANCH  51  75
ATOM     75  C   UNL A   1      43.018  26.351  27.765  1.00  0.00     0.023 A 
ATOM     76  C   UNL A   1      42.536  25.070  27.457  1.00  0.00     0.031 A 
ATOM     77  C   UNL A   1      44.103  26.855  27.026  1.00  0.00     0.131 A 
ATOM     78  C   UNL A   1      43.161  24.317  26.451  1.00  0.00     0.055 A 
ATOM     79  C   UNL A   1      44.705  26.113  26.009  1.00  0.00     0.041 A 
ATOM     80  F   UNL A   1      44.591  28.079  27.284  1.00  0.00    -0.206 F 
ATOM     81  C   UNL A   1      44.239  24.831  25.724  1.00  0.00     0.022 A 
BRANCH  78  82
ATOM     82  S   UNL A   1      42.576  22.626  26.137  1.00  0.00     0.124 S 
ATOM     83  O   UNL A   1      43.082  22.377  24.793  1.00  0.00    -0.237 OA
ATOM     84  O   UNL A   1      43.221  21.879  27.214  1.00  0.00    -0.237 OA
ATOM     85  O   UNL A   1      41.124  22.743  26.246  1.00  0.00    -0.744 OA
ENDBRANCH  78  82
ENDBRANCH  51  75
BRANCH  63  86
ATOM     86  C   UNL A   1      44.944  27.394  34.364  1.00  0.00     0.023 A 
ATOM     87  C   UNL A   1      44.853  26.109  34.925  1.00  0.00     0.031 A 
ATOM     88  C   UNL A   1      46.110  28.146  34.594  1.00  0.00     0.131 A 
ATOM     89  C   UNL A   1      45.899  25.624  35.723  1.00  0.00     0.055 A 
ATOM     90  C   UNL A   1      47.162  27.645  35.361  1.00  0.00     0.041 A 
ATOM     91  F   UNL A   1      46.240  29.378  34.078  1.00  0.00    -0.206 F 
ATOM     92  C   UNL A   1      47.056  26.381  35.938  1.00  0.00     0.022 A 
BRANCH  89  93
ATOM     93  S   UNL A   1      45.707  24.006  36.527  1.00  0.00     0.124 S 
ATOM     94  O   UNL A   1      46.116  24.294  37.898  1.00  0.00    -0.237 OA
ATOM     95  O   UNL A   1      44.287  23.727  36.331  1.00  0.00    -0.237 OA
ATOM     96  O   UNL A   1      46.616  23.141  35.778  1.00  0.00    -0.744 OA
ENDBRANCH  89  93
ENDBRANCH  63  86
ENDBRANCH  37  38
ENDBRANCH  30  32
ENDBRANCH  29  30
ENDBRANCH  28  29
ENDBRANCH   1  28
TORSDOF 20
ENDMDL
