MODEL 1
REMARK VINA RESULT:     -10.6      0.000      0.000
REMARK SMILES CC[C@@H]1CCC[C@@](CC[NH+]2CCOCC2)(C(=O)OCCOCCOC(=O)c2ccc(-c3c4nc(c(-c5cc(S(=O)(=O)[O-])ccc5F)c5ccc([nH]5)c(-c5cc(S(=O)(=O)[O-])ccc5F)c5nc(c(-c6cc(S(=O)(=O)[O-])ccc6F)c6ccc3[nH]6)C=C5)C=C4)cc2)C1
REMARK SMILES IDX 21 1 20 2 19 3 18 4 16 5 17 6 7 7 3 8 4 9 90 10 5 11 6 12
REMARK SMILES IDX 2 13 1 14 8 15 9 16 10 17 11 18 15 19 12 21 14 22 13 23
REMARK SMILES IDX 22 24 23 25 24 26 25 27 26 28 27 29 28 30 89 31 29 32 88 33
REMARK SMILES IDX 30 34 31 35 32 36 82 37 33 38 87 39 81 40 83 41 34 42 86 43
REMARK SMILES IDX 80 44 79 45 35 47 67 48 47 49 66 50 48 51 51 52 65 53 84 54
REMARK SMILES IDX 49 55 50 56 64 58 85 59 52 60 36 61 37 62 45 63 38 64 44 65
REMARK SMILES IDX 46 66 43 67 39 68 40 69 41 70 42 71 68 72 69 73 77 74 70 75
REMARK SMILES IDX 76 76 78 77 75 78 71 79 72 80 73 81 74 82 53 83 54 84 62 85
REMARK SMILES IDX 55 86 61 87 63 88 60 89 56 90 57 91 58 92 59 93
REMARK H PARENT 10 20 83 46 51 57
REMARK Flexibility Score: inf
ROOT
ATOM      1  O   UNL A   1      38.113  21.996  25.543  1.00  0.00    -0.374 OA
ENDROOT
BRANCH   1   2
ATOM      2  C   UNL A   1      37.740  23.316  25.927  1.00  0.00     0.202 C 
BRANCH   2   3
ATOM      3  C   UNL A   1      36.254  23.677  25.860  1.00  0.00     0.261 C 
BRANCH   3   4
ATOM      4  O   UNL A   1      35.349  22.557  25.801  1.00  0.00    -0.463 OA
BRANCH   4   5
ATOM      5  C   UNL A   1      34.701  22.419  24.613  1.00  0.00     0.312 C 
ATOM      6  O   UNL A   1      35.237  22.579  23.517  1.00  0.00    -0.252 OA
BRANCH   5   7
ATOM      7  C   UNL A   1      33.206  22.079  24.740  1.00  0.00     0.074 C 
ATOM      8  C   UNL A   1      32.530  24.531  25.099  1.00  0.00    -0.010 C 
ATOM      9  C   UNL A   1      31.594  24.494  23.892  1.00  0.00     0.003 C 
ATOM     10  C   UNL A   1      32.588  23.128  25.720  1.00  0.00     0.022 C 
ATOM     11  C   UNL A   1      32.090  23.486  22.853  1.00  0.00     0.001 C 
ATOM     12  C   UNL A   1      32.393  22.095  23.424  1.00  0.00     0.019 C 
BRANCH   8  13
ATOM     13  C   UNL A   1      32.201  25.630  26.121  1.00  0.00     0.000 C 
ATOM     14  C   UNL A   1      30.812  26.233  26.031  1.00  0.00     0.004 C 
ENDBRANCH   8  13
BRANCH   7  15
ATOM     15  C   UNL A   1      33.093  20.688  25.437  1.00  0.00     0.080 C 
BRANCH  15  16
ATOM     16  C   UNL A   1      33.623  19.445  24.691  1.00  0.00     0.263 C 
BRANCH  16  17
ATOM     17  N   UNL A   1      32.640  18.414  24.336  1.00  0.00    -0.331 N 
ATOM     18  C   UNL A   1      32.528  17.388  25.406  1.00  0.00     0.291 C 
ATOM     19  C   UNL A   1      32.903  17.703  23.067  1.00  0.00     0.291 C 
ATOM     20  H   UNL A   1      31.774  18.941  24.221  1.00  0.00     0.348 HD
ATOM     21  C   UNL A   1      33.686  16.366  25.424  1.00  0.00     0.221 C 
ATOM     22  C   UNL A   1      34.075  16.719  23.126  1.00  0.00     0.221 C 
ATOM     23  O   UNL A   1      33.870  15.742  24.147  1.00  0.00    -0.370 OA
ENDBRANCH  16  17
ENDBRANCH  15  16
ENDBRANCH   7  15
ENDBRANCH   5   7
ENDBRANCH   4   5
ENDBRANCH   3   4
ENDBRANCH   2   3
ENDBRANCH   1   2
BRANCH   1  24
ATOM     24  C   UNL A   1      39.301  21.466  26.126  1.00  0.00     0.202 C 
BRANCH  24  25
ATOM     25  C   UNL A   1      39.667  20.025  25.753  1.00  0.00     0.261 C 
BRANCH  25  26
ATOM     26  O   UNL A   1      40.644  19.466  26.650  1.00  0.00    -0.460 OA
BRANCH  26  27
ATOM     27  C   UNL A   1      41.900  19.407  26.138  1.00  0.00     0.338 C 
ATOM     28  O   UNL A   1      42.388  18.495  25.495  1.00  0.00    -0.246 OA
BRANCH  27  29
ATOM     29  C   UNL A   1      42.594  20.692  26.341  1.00  0.00     0.060 A 
ATOM     30  C   UNL A   1      42.666  21.210  27.640  1.00  0.00     0.016 A 
ATOM     31  C   UNL A   1      43.035  21.443  25.251  1.00  0.00     0.016 A 
ATOM     32  C   UNL A   1      43.153  22.500  27.852  1.00  0.00     0.010 A 
ATOM     33  C   UNL A   1      43.510  22.743  25.465  1.00  0.00     0.010 A 
ATOM     34  C   UNL A   1      43.543  23.289  26.761  1.00  0.00    -0.014 A 
BRANCH  34  35
ATOM     35  C   UNL A   1      43.856  24.727  26.961  1.00  0.00     0.031 A 
ATOM     36  C   UNL A   1      45.266  25.208  26.747  1.00  0.00     0.074 A 
ATOM     37  C   UNL A   1      42.892  25.596  27.314  1.00  0.00     0.049 A 
ATOM     38  N   UNL A   1      45.773  26.400  26.929  1.00  0.00    -0.248 NA
ATOM     39  C   UNL A   1      46.231  24.209  26.262  1.00  0.00     0.031 C 
ATOM     40  C   UNL A   1      41.479  25.262  27.489  1.00  0.00     0.029 A 
ATOM     41  N   UNL A   1      42.959  26.938  27.597  1.00  0.00    -0.354 N 
ATOM     42  C   UNL A   1      47.115  26.298  26.577  1.00  0.00     0.074 A 
ATOM     43  C   UNL A   1      47.347  24.920  26.201  1.00  0.00     0.031 C 
ATOM     44  C   UNL A   1      40.816  26.368  27.872  1.00  0.00     0.029 A 
ATOM     45  C   UNL A   1      41.762  27.474  28.011  1.00  0.00     0.049 A 
ATOM     46  H   UNL A   1      43.786  27.466  27.512  1.00  0.00     0.167 HD
ATOM     47  C   UNL A   1      48.064  27.268  26.566  1.00  0.00     0.034 A 
ATOM     48  C   UNL A   1      41.472  28.704  28.484  1.00  0.00     0.034 A 
ATOM     49  C   UNL A   1      47.825  28.634  26.962  1.00  0.00     0.049 A 
ATOM     50  C   UNL A   1      42.574  29.731  28.588  1.00  0.00     0.074 A 
ATOM     51  C   UNL A   1      48.706  29.701  26.959  1.00  0.00     0.029 A 
ATOM     52  N   UNL A   1      46.622  29.118  27.457  1.00  0.00    -0.354 N 
ATOM     53  N   UNL A   1      43.838  29.625  28.245  1.00  0.00    -0.248 NA
ATOM     54  C   UNL A   1      42.212  31.038  29.152  1.00  0.00     0.031 C 
ATOM     55  C   UNL A   1      48.059  30.808  27.520  1.00  0.00     0.029 A 
ATOM     56  C   UNL A   1      46.751  30.452  27.810  1.00  0.00     0.049 A 
ATOM     57  H   UNL A   1      45.795  28.590  27.545  1.00  0.00     0.167 HD
ATOM     58  C   UNL A   1      44.414  30.859  28.535  1.00  0.00     0.074 A 
ATOM     59  C   UNL A   1      43.360  31.697  29.069  1.00  0.00     0.031 C 
ATOM     60  C   UNL A   1      45.699  31.266  28.371  1.00  0.00     0.034 A 
BRANCH  47  61
ATOM     61  C   UNL A   1      49.462  26.864  26.167  1.00  0.00     0.023 A 
ATOM     62  C   UNL A   1      50.017  27.237  24.930  1.00  0.00     0.031 A 
ATOM     63  C   UNL A   1      50.244  26.078  27.032  1.00  0.00     0.131 A 
ATOM     64  C   UNL A   1      51.292  26.774  24.570  1.00  0.00     0.055 A 
ATOM     65  C   UNL A   1      51.538  25.677  26.695  1.00  0.00     0.041 A 
ATOM     66  F   UNL A   1      49.756  25.676  28.217  1.00  0.00    -0.206 F 
ATOM     67  C   UNL A   1      52.064  26.014  25.452  1.00  0.00     0.022 A 
BRANCH  64  68
ATOM     68  S   UNL A   1      51.882  27.077  22.881  1.00  0.00     0.124 S 
ATOM     69  O   UNL A   1      52.940  26.077  22.753  1.00  0.00    -0.237 OA
ATOM     70  O   UNL A   1      50.684  26.847  22.082  1.00  0.00    -0.237 OA
ATOM     71  O   UNL A   1      52.348  28.462  22.923  1.00  0.00    -0.744 OA
ENDBRANCH  64  68
ENDBRANCH  47  61
BRANCH  48  72
ATOM     72  C   UNL A   1      40.099  29.016  28.973  1.00  0.00     0.023 A 
ATOM     73  C   UNL A   1      39.773  28.938  30.335  1.00  0.00     0.031 A 
ATOM     74  C   UNL A   1      39.074  29.344  28.067  1.00  0.00     0.131 A 
ATOM     75  C   UNL A   1      38.449  29.148  30.749  1.00  0.00     0.055 A 
ATOM     76  C   UNL A   1      37.769  29.600  28.488  1.00  0.00     0.041 A 
ATOM     77  F   UNL A   1      39.332  29.430  26.751  1.00  0.00    -0.206 F 
ATOM     78  C   UNL A   1      37.448  29.492  29.837  1.00  0.00     0.022 A 
BRANCH  75  79
ATOM     79  S   UNL A   1      38.031  28.892  32.496  1.00  0.00     0.124 S 
ATOM     80  O   UNL A   1      39.025  29.725  33.164  1.00  0.00    -0.237 OA
ATOM     81  O   UNL A   1      36.653  29.368  32.550  1.00  0.00    -0.237 OA
ATOM     82  O   UNL A   1      38.200  27.452  32.678  1.00  0.00    -0.744 OA
ENDBRANCH  75  79
ENDBRANCH  48  72
BRANCH  60  83
ATOM     83  C   UNL A   1      46.023  32.686  28.762  1.00  0.00     0.023 A 
ATOM     84  C   UNL A   1      45.879  33.750  27.855  1.00  0.00     0.031 A 
ATOM     85  C   UNL A   1      46.481  32.979  30.059  1.00  0.00     0.131 A 
ATOM     86  C   UNL A   1      46.231  35.052  28.243  1.00  0.00     0.055 A 
ATOM     87  C   UNL A   1      46.782  34.282  30.455  1.00  0.00     0.041 A 
ATOM     88  F   UNL A   1      46.638  32.000  30.964  1.00  0.00    -0.206 F 
ATOM     89  C   UNL A   1      46.668  35.327  29.542  1.00  0.00     0.022 A 
BRANCH  86  90
ATOM     90  S   UNL A   1      46.174  36.378  27.005  1.00  0.00     0.124 S 
ATOM     91  O   UNL A   1      47.341  37.178  27.363  1.00  0.00    -0.237 OA
ATOM     92  O   UNL A   1      46.267  35.640  25.750  1.00  0.00    -0.237 OA
ATOM     93  O   UNL A   1      44.883  37.019  27.250  1.00  0.00    -0.744 OA
ENDBRANCH  86  90
ENDBRANCH  60  83
ENDBRANCH  34  35
ENDBRANCH  27  29
ENDBRANCH  26  27
ENDBRANCH  25  26
ENDBRANCH  24  25
ENDBRANCH   1  24
TORSDOF 21
ENDMDL
MODEL 2
REMARK VINA RESULT:     -10.4      4.900      9.325
REMARK SMILES CC[C@@H]1CCC[C@@](CC[NH+]2CCOCC2)(C(=O)OCCOCCOC(=O)c2ccc(-c3c4nc(c(-c5cc(S(=O)(=O)[O-])ccc5F)c5ccc([nH]5)c(-c5cc(S(=O)(=O)[O-])ccc5F)c5nc(c(-c6cc(S(=O)(=O)[O-])ccc6F)c6ccc3[nH]6)C=C5)C=C4)cc2)C1
REMARK SMILES IDX 21 1 20 2 19 3 18 4 16 5 17 6 7 7 3 8 4 9 90 10 5 11 6 12
REMARK SMILES IDX 2 13 1 14 8 15 9 16 10 17 11 18 15 19 12 21 14 22 13 23
REMARK SMILES IDX 22 24 23 25 24 26 25 27 26 28 27 29 28 30 89 31 29 32 88 33
REMARK SMILES IDX 30 34 31 35 32 36 82 37 33 38 87 39 81 40 83 41 34 42 86 43
REMARK SMILES IDX 80 44 79 45 35 47 67 48 47 49 66 50 48 51 51 52 65 53 84 54
REMARK SMILES IDX 49 55 50 56 64 58 85 59 52 60 36 61 37 62 45 63 38 64 44 65
REMARK SMILES IDX 46 66 43 67 39 68 40 69 41 70 42 71 68 72 69 73 77 74 70 75
REMARK SMILES IDX 76 76 78 77 75 78 71 79 72 80 73 81 74 82 53 83 54 84 62 85
REMARK SMILES IDX 55 86 61 87 63 88 60 89 56 90 57 91 58 92 59 93
REMARK H PARENT 10 20 83 46 51 57
REMARK Flexibility Score: inf
ROOT
ATOM      1  O   UNL A   1      31.762  26.926  25.335  1.00  0.00    -0.374 OA
ENDROOT
BRANCH   1   2
ATOM      2  C   UNL A   1      32.535  25.970  24.615  1.00  0.00     0.202 C 
BRANCH   2   3
ATOM      3  C   UNL A   1      31.802  25.085  23.605  1.00  0.00     0.261 C 
BRANCH   3   4
ATOM      4  O   UNL A   1      31.752  23.683  23.936  1.00  0.00    -0.463 OA
BRANCH   4   5
ATOM      5  C   UNL A   1      32.784  22.950  23.440  1.00  0.00     0.312 C 
ATOM      6  O   UNL A   1      33.255  23.102  22.313  1.00  0.00    -0.252 OA
BRANCH   5   7
ATOM      7  C   UNL A   1      33.310  21.864  24.395  1.00  0.00     0.074 C 
ATOM      8  C   UNL A   1      35.378  23.238  25.052  1.00  0.00    -0.010 C 
ATOM      9  C   UNL A   1      34.992  23.192  26.529  1.00  0.00     0.003 C 
ATOM     10  C   UNL A   1      34.869  21.959  24.370  1.00  0.00     0.022 C 
ATOM     11  C   UNL A   1      33.474  23.088  26.689  1.00  0.00     0.001 C 
ATOM     12  C   UNL A   1      32.833  21.966  25.863  1.00  0.00     0.019 C 
BRANCH   8  13
ATOM     13  C   UNL A   1      36.870  23.505  24.795  1.00  0.00     0.000 C 
ATOM     14  C   UNL A   1      37.824  23.086  25.898  1.00  0.00     0.004 C 
ENDBRANCH   8  13
BRANCH   7  15
ATOM     15  C   UNL A   1      32.931  20.477  23.791  1.00  0.00     0.080 C 
BRANCH  15  16
ATOM     16  C   UNL A   1      32.460  19.361  24.747  1.00  0.00     0.263 C 
BRANCH  16  17
ATOM     17  N   UNL A   1      33.499  18.512  25.342  1.00  0.00    -0.331 N 
ATOM     18  C   UNL A   1      34.540  18.157  24.341  1.00  0.00     0.291 C 
ATOM     19  C   UNL A   1      33.016  17.252  25.944  1.00  0.00     0.291 C 
ATOM     20  H   UNL A   1      33.875  19.089  26.094  1.00  0.00     0.348 HD
ATOM     21  C   UNL A   1      34.114  17.050  23.354  1.00  0.00     0.221 C 
ATOM     22  C   UNL A   1      32.581  16.193  24.927  1.00  0.00     0.221 C 
ATOM     23  O   UNL A   1      33.648  15.876  24.032  1.00  0.00    -0.370 OA
ENDBRANCH  16  17
ENDBRANCH  15  16
ENDBRANCH   7  15
ENDBRANCH   5   7
ENDBRANCH   4   5
ENDBRANCH   3   4
ENDBRANCH   2   3
ENDBRANCH   1   2
BRANCH   1  24
ATOM     24  C   UNL A   1      32.296  28.244  25.437  1.00  0.00     0.202 C 
BRANCH  24  25
ATOM     25  C   UNL A   1      32.717  28.708  26.835  1.00  0.00     0.261 C 
BRANCH  25  26
ATOM     26  O   UNL A   1      34.142  28.890  26.937  1.00  0.00    -0.460 OA
BRANCH  26  27
ATOM     27  C   UNL A   1      34.513  30.038  27.560  1.00  0.00     0.338 C 
ATOM     28  O   UNL A   1      33.836  31.038  27.721  1.00  0.00    -0.246 OA
BRANCH  27  29
ATOM     29  C   UNL A   1      35.845  29.878  28.170  1.00  0.00     0.060 A 
ATOM     30  C   UNL A   1      36.973  30.073  27.363  1.00  0.00     0.016 A 
ATOM     31  C   UNL A   1      35.980  29.401  29.474  1.00  0.00     0.016 A 
ATOM     32  C   UNL A   1      38.243  29.760  27.849  1.00  0.00     0.010 A 
ATOM     33  C   UNL A   1      37.254  29.074  29.955  1.00  0.00     0.010 A 
ATOM     34  C   UNL A   1      38.388  29.223  29.136  1.00  0.00    -0.014 A 
BRANCH  34  35
ATOM     35  C   UNL A   1      39.704  28.691  29.572  1.00  0.00     0.031 A 
ATOM     36  C   UNL A   1      40.469  29.417  30.647  1.00  0.00     0.074 A 
ATOM     37  C   UNL A   1      40.204  27.566  29.029  1.00  0.00     0.049 A 
ATOM     38  N   UNL A   1      41.658  29.168  31.131  1.00  0.00    -0.248 NA
ATOM     39  C   UNL A   1      39.798  30.576  31.256  1.00  0.00     0.031 C 
ATOM     40  C   UNL A   1      39.530  26.742  28.027  1.00  0.00     0.029 A 
ATOM     41  N   UNL A   1      41.402  26.930  29.240  1.00  0.00    -0.354 N 
ATOM     42  C   UNL A   1      41.880  30.137  32.105  1.00  0.00     0.074 A 
ATOM     43  C   UNL A   1      40.713  30.993  32.119  1.00  0.00     0.031 C 
ATOM     44  C   UNL A   1      40.335  25.719  27.694  1.00  0.00     0.029 A 
ATOM     45  C   UNL A   1      41.596  25.839  28.424  1.00  0.00     0.049 A 
ATOM     46  H   UNL A   1      42.059  27.226  29.911  1.00  0.00     0.167 HD
ATOM     47  C   UNL A   1      42.958  30.293  32.913  1.00  0.00     0.034 A 
ATOM     48  C   UNL A   1      42.681  25.055  28.258  1.00  0.00     0.034 A 
ATOM     49  C   UNL A   1      44.123  29.444  32.876  1.00  0.00     0.049 A 
ATOM     50  C   UNL A   1      43.920  25.328  29.077  1.00  0.00     0.074 A 
ATOM     51  C   UNL A   1      45.254  29.495  33.672  1.00  0.00     0.029 A 
ATOM     52  N   UNL A   1      44.320  28.404  31.978  1.00  0.00    -0.354 N 
ATOM     53  N   UNL A   1      44.115  26.242  30.000  1.00  0.00    -0.248 NA
ATOM     54  C   UNL A   1      45.086  24.472  28.824  1.00  0.00     0.031 C 
ATOM     55  C   UNL A   1      46.163  28.537  33.208  1.00  0.00     0.029 A 
ATOM     56  C   UNL A   1      45.572  27.840  32.165  1.00  0.00     0.049 A 
ATOM     57  H   UNL A   1      43.664  28.109  31.305  1.00  0.00     0.167 HD
ATOM     58  C   UNL A   1      45.420  26.055  30.449  1.00  0.00     0.074 A 
ATOM     59  C   UNL A   1      45.960  24.936  29.705  1.00  0.00     0.031 C 
ATOM     60  C   UNL A   1      46.109  26.744  31.395  1.00  0.00     0.034 A 
BRANCH  47  61
ATOM     61  C   UNL A   1      42.945  31.464  33.866  1.00  0.00     0.023 A 
ATOM     62  C   UNL A   1      42.332  31.386  35.128  1.00  0.00     0.031 A 
ATOM     63  C   UNL A   1      43.541  32.681  33.495  1.00  0.00     0.131 A 
ATOM     64  C   UNL A   1      42.278  32.523  35.949  1.00  0.00     0.055 A 
ATOM     65  C   UNL A   1      43.542  33.790  34.343  1.00  0.00     0.041 A 
ATOM     66  F   UNL A   1      44.123  32.818  32.292  1.00  0.00    -0.206 F 
ATOM     67  C   UNL A   1      42.896  33.718  35.574  1.00  0.00     0.022 A 
BRANCH  64  68
ATOM     68  S   UNL A   1      41.281  32.457  37.463  1.00  0.00     0.124 S 
ATOM     69  O   UNL A   1      41.098  33.876  37.761  1.00  0.00    -0.237 OA
ATOM     70  O   UNL A   1      40.090  31.737  37.026  1.00  0.00    -0.237 OA
ATOM     71  O   UNL A   1      42.135  31.736  38.406  1.00  0.00    -0.744 OA
ENDBRANCH  64  68
ENDBRANCH  47  61
BRANCH  48  72
ATOM     72  C   UNL A   1      42.682  23.983  27.222  1.00  0.00     0.023 A 
ATOM     73  C   UNL A   1      42.088  22.735  27.462  1.00  0.00     0.031 A 
ATOM     74  C   UNL A   1      43.333  24.179  25.990  1.00  0.00     0.131 A 
ATOM     75  C   UNL A   1      42.189  21.717  26.500  1.00  0.00     0.055 A 
ATOM     76  C   UNL A   1      43.389  23.180  25.017  1.00  0.00     0.041 A 
ATOM     77  F   UNL A   1      43.921  25.354  25.711  1.00  0.00    -0.206 F 
ATOM     78  C   UNL A   1      42.823  21.936  25.274  1.00  0.00     0.022 A 
BRANCH  75  79
ATOM     79  S   UNL A   1      41.542  20.071  26.903  1.00  0.00     0.124 S 
ATOM     80  O   UNL A   1      40.596  20.377  27.971  1.00  0.00    -0.237 OA
ATOM     81  O   UNL A   1      40.962  19.655  25.631  1.00  0.00    -0.237 OA
ATOM     82  O   UNL A   1      42.732  19.330  27.316  1.00  0.00    -0.744 OA
ENDBRANCH  75  79
ENDBRANCH  48  72
BRANCH  60  83
ATOM     83  C   UNL A   1      47.518  26.289  31.682  1.00  0.00     0.023 A 
ATOM     84  C   UNL A   1      47.794  25.330  32.672  1.00  0.00     0.031 A 
ATOM     85  C   UNL A   1      48.599  26.822  30.956  1.00  0.00     0.131 A 
ATOM     86  C   UNL A   1      49.123  24.964  32.940  1.00  0.00     0.055 A 
ATOM     87  C   UNL A   1      49.913  26.418  31.192  1.00  0.00     0.041 A 
ATOM     88  F   UNL A   1      48.391  27.743  30.001  1.00  0.00    -0.206 F 
ATOM     89  C   UNL A   1      50.182  25.491  32.195  1.00  0.00     0.022 A 
BRANCH  86  90
ATOM     90  S   UNL A   1      49.456  23.836  34.320  1.00  0.00     0.124 S 
ATOM     91  O   UNL A   1      50.189  22.760  33.663  1.00  0.00    -0.237 OA
ATOM     92  O   UNL A   1      50.231  24.673  35.230  1.00  0.00    -0.237 OA
ATOM     93  O   UNL A   1      48.122  23.476  34.799  1.00  0.00    -0.744 OA
ENDBRANCH  86  90
ENDBRANCH  60  83
ENDBRANCH  34  35
ENDBRANCH  27  29
ENDBRANCH  26  27
ENDBRANCH  25  26
ENDBRANCH  24  25
ENDBRANCH   1  24
TORSDOF 21
ENDMDL
MODEL 3
REMARK VINA RESULT:     -10.3      5.272      8.707
REMARK SMILES CC[C@@H]1CCC[C@@](CC[NH+]2CCOCC2)(C(=O)OCCOCCOC(=O)c2ccc(-c3c4nc(c(-c5cc(S(=O)(=O)[O-])ccc5F)c5ccc([nH]5)c(-c5cc(S(=O)(=O)[O-])ccc5F)c5nc(c(-c6cc(S(=O)(=O)[O-])ccc6F)c6ccc3[nH]6)C=C5)C=C4)cc2)C1
REMARK SMILES IDX 21 1 20 2 19 3 18 4 16 5 17 6 7 7 3 8 4 9 90 10 5 11 6 12
REMARK SMILES IDX 2 13 1 14 8 15 9 16 10 17 11 18 15 19 12 21 14 22 13 23
REMARK SMILES IDX 22 24 23 25 24 26 25 27 26 28 27 29 28 30 89 31 29 32 88 33
REMARK SMILES IDX 30 34 31 35 32 36 82 37 33 38 87 39 81 40 83 41 34 42 86 43
REMARK SMILES IDX 80 44 79 45 35 47 67 48 47 49 66 50 48 51 51 52 65 53 84 54
REMARK SMILES IDX 49 55 50 56 64 58 85 59 52 60 36 61 37 62 45 63 38 64 44 65
REMARK SMILES IDX 46 66 43 67 39 68 40 69 41 70 42 71 68 72 69 73 77 74 70 75
REMARK SMILES IDX 76 76 78 77 75 78 71 79 72 80 73 81 74 82 53 83 54 84 62 85
REMARK SMILES IDX 55 86 61 87 63 88 60 89 56 90 57 91 58 92 59 93
REMARK H PARENT 10 20 83 46 51 57
REMARK Flexibility Score: inf
ROOT
ATOM      1  O   UNL A   1      31.929  27.621  24.719  1.00  0.00    -0.374 OA
ENDROOT
BRANCH   1   2
ATOM      2  C   UNL A   1      30.723  27.035  25.202  1.00  0.00     0.202 C 
BRANCH   2   3
ATOM      3  C   UNL A   1      30.831  25.691  25.926  1.00  0.00     0.261 C 
BRANCH   3   4
ATOM      4  O   UNL A   1      30.995  24.542  25.071  1.00  0.00    -0.463 OA
BRANCH   4   5
ATOM      5  C   UNL A   1      31.754  23.547  25.606  1.00  0.00     0.312 C 
ATOM      6  O   UNL A   1      31.500  22.988  26.672  1.00  0.00    -0.252 OA
BRANCH   5   7
ATOM      7  C   UNL A   1      33.004  23.189  24.783  1.00  0.00     0.074 C 
ATOM      8  C   UNL A   1      32.561  20.664  24.937  1.00  0.00    -0.010 C 
ATOM      9  C   UNL A   1      32.528  20.534  23.415  1.00  0.00     0.003 C 
ATOM     10  C   UNL A   1      33.512  21.810  25.312  1.00  0.00     0.022 C 
ATOM     11  C   UNL A   1      32.051  21.837  22.770  1.00  0.00     0.001 C 
ATOM     12  C   UNL A   1      32.800  23.086  23.253  1.00  0.00     0.019 C 
BRANCH   8  13
ATOM     13  C   UNL A   1      32.873  19.354  25.678  1.00  0.00     0.000 C 
ATOM     14  C   UNL A   1      32.513  18.073  24.950  1.00  0.00     0.004 C 
ENDBRANCH   8  13
BRANCH   7  15
ATOM     15  C   UNL A   1      34.109  24.238  25.118  1.00  0.00     0.080 C 
BRANCH  15  16
ATOM     16  C   UNL A   1      35.414  23.747  25.779  1.00  0.00     0.263 C 
BRANCH  16  17
ATOM     17  N   UNL A   1      36.647  23.877  24.992  1.00  0.00    -0.331 N 
ATOM     18  C   UNL A   1      36.660  22.922  23.852  1.00  0.00     0.291 C 
ATOM     19  C   UNL A   1      37.902  23.679  25.749  1.00  0.00     0.291 C 
ATOM     20  H   UNL A   1      36.626  24.847  24.677  1.00  0.00     0.348 HD
ATOM     21  C   UNL A   1      36.994  21.469  24.250  1.00  0.00     0.221 C 
ATOM     22  C   UNL A   1      38.178  22.225  26.143  1.00  0.00     0.221 C 
ATOM     23  O   UNL A   1      38.218  21.383  24.991  1.00  0.00    -0.370 OA
ENDBRANCH  16  17
ENDBRANCH  15  16
ENDBRANCH   7  15
ENDBRANCH   5   7
ENDBRANCH   4   5
ENDBRANCH   3   4
ENDBRANCH   2   3
ENDBRANCH   1   2
BRANCH   1  24
ATOM     24  C   UNL A   1      32.653  28.447  25.627  1.00  0.00     0.202 C 
BRANCH  24  25
ATOM     25  C   UNL A   1      32.156  29.887  25.793  1.00  0.00     0.261 C 
BRANCH  25  26
ATOM     26  O   UNL A   1      32.283  30.349  27.151  1.00  0.00    -0.460 OA
BRANCH  26  27
ATOM     27  C   UNL A   1      32.972  31.511  27.281  1.00  0.00     0.338 C 
ATOM     28  O   UNL A   1      32.524  32.642  27.208  1.00  0.00    -0.246 OA
BRANCH  27  29
ATOM     29  C   UNL A   1      34.365  31.236  27.676  1.00  0.00     0.060 A 
ATOM     30  C   UNL A   1      34.716  29.920  28.002  1.00  0.00     0.016 A 
ATOM     31  C   UNL A   1      35.272  32.280  27.865  1.00  0.00     0.016 A 
ATOM     32  C   UNL A   1      35.969  29.645  28.550  1.00  0.00     0.010 A 
ATOM     33  C   UNL A   1      36.524  32.004  28.428  1.00  0.00     0.010 A 
ATOM     34  C   UNL A   1      36.868  30.692  28.801  1.00  0.00    -0.014 A 
BRANCH  34  35
ATOM     35  C   UNL A   1      38.107  30.433  29.577  1.00  0.00     0.031 A 
ATOM     36  C   UNL A   1      39.162  29.529  28.995  1.00  0.00     0.074 A 
ATOM     37  C   UNL A   1      38.298  31.008  30.778  1.00  0.00     0.049 A 
ATOM     38  N   UNL A   1      40.284  29.115  29.524  1.00  0.00    -0.248 NA
ATOM     39  C   UNL A   1      38.915  29.030  27.634  1.00  0.00     0.031 C 
ATOM     40  C   UNL A   1      37.380  31.948  31.417  1.00  0.00     0.029 A 
ATOM     41  N   UNL A   1      39.327  30.875  31.677  1.00  0.00    -0.354 N 
ATOM     42  C   UNL A   1      40.882  28.309  28.561  1.00  0.00     0.074 A 
ATOM     43  C   UNL A   1      39.980  28.270  27.428  1.00  0.00     0.031 C 
ATOM     44  C   UNL A   1      37.877  32.292  32.618  1.00  0.00     0.029 A 
ATOM     45  C   UNL A   1      39.123  31.564  32.851  1.00  0.00     0.049 A 
ATOM     46  H   UNL A   1      40.133  30.338  31.500  1.00  0.00     0.167 HD
ATOM     47  C   UNL A   1      42.074  27.664  28.617  1.00  0.00     0.034 A 
ATOM     48  C   UNL A   1      39.840  31.574  33.994  1.00  0.00     0.034 A 
ATOM     49  C   UNL A   1      42.954  27.695  29.759  1.00  0.00     0.049 A 
ATOM     50  C   UNL A   1      41.098  30.743  34.081  1.00  0.00     0.074 A 
ATOM     51  C   UNL A   1      44.197  27.105  29.908  1.00  0.00     0.029 A 
ATOM     52  N   UNL A   1      42.674  28.333  30.960  1.00  0.00    -0.354 N 
ATOM     53  N   UNL A   1      41.657  29.991  33.161  1.00  0.00    -0.248 NA
ATOM     54  C   UNL A   1      41.815  30.756  35.363  1.00  0.00     0.031 C 
ATOM     55  C   UNL A   1      44.633  27.322  31.220  1.00  0.00     0.029 A 
ATOM     56  C   UNL A   1      43.695  28.108  31.871  1.00  0.00     0.049 A 
ATOM     57  H   UNL A   1      41.867  28.868  31.140  1.00  0.00     0.167 HD
ATOM     58  C   UNL A   1      42.800  29.457  33.750  1.00  0.00     0.074 A 
ATOM     59  C   UNL A   1      42.858  29.983  35.099  1.00  0.00     0.031 C 
ATOM     60  C   UNL A   1      43.723  28.612  33.223  1.00  0.00     0.034 A 
BRANCH  47  61
ATOM     61  C   UNL A   1      42.463  26.822  27.426  1.00  0.00     0.023 A 
ATOM     62  C   UNL A   1      42.249  25.433  27.398  1.00  0.00     0.031 A 
ATOM     63  C   UNL A   1      43.075  27.419  26.310  1.00  0.00     0.131 A 
ATOM     64  C   UNL A   1      42.697  24.680  26.302  1.00  0.00     0.055 A 
ATOM     65  C   UNL A   1      43.458  26.674  25.194  1.00  0.00     0.041 A 
ATOM     66  F   UNL A   1      43.322  28.739  26.292  1.00  0.00    -0.206 F 
ATOM     67  C   UNL A   1      43.281  25.294  25.191  1.00  0.00     0.022 A 
BRANCH  64  68
ATOM     68  S   UNL A   1      42.617  22.870  26.399  1.00  0.00     0.124 S 
ATOM     69  O   UNL A   1      43.827  22.560  27.158  1.00  0.00    -0.237 OA
ATOM     70  O   UNL A   1      41.353  22.647  27.092  1.00  0.00    -0.237 OA
ATOM     71  O   UNL A   1      42.645  22.449  25.000  1.00  0.00    -0.744 OA
ENDBRANCH  64  68
ENDBRANCH  47  61
BRANCH  48  72
ATOM     72  C   UNL A   1      39.351  32.332  35.181  1.00  0.00     0.023 A 
ATOM     73  C   UNL A   1      39.752  33.655  35.418  1.00  0.00     0.031 A 
ATOM     74  C   UNL A   1      38.516  31.714  36.130  1.00  0.00     0.131 A 
ATOM     75  C   UNL A   1      39.347  34.307  36.593  1.00  0.00     0.055 A 
ATOM     76  C   UNL A   1      38.076  32.383  37.273  1.00  0.00     0.041 A 
ATOM     77  F   UNL A   1      38.105  30.448  35.953  1.00  0.00    -0.206 F 
ATOM     78  C   UNL A   1      38.501  33.685  37.515  1.00  0.00     0.022 A 
BRANCH  75  79
ATOM     79  S   UNL A   1      40.004  35.961  36.942  1.00  0.00     0.124 S 
ATOM     80  O   UNL A   1      41.353  35.653  37.405  1.00  0.00    -0.237 OA
ATOM     81  O   UNL A   1      39.905  36.607  35.637  1.00  0.00    -0.237 OA
ATOM     82  O   UNL A   1      39.096  36.479  37.963  1.00  0.00    -0.744 OA
ENDBRANCH  75  79
ENDBRANCH  48  72
BRANCH  60  83
ATOM     83  C   UNL A   1      44.878  28.220  34.110  1.00  0.00     0.023 A 
ATOM     84  C   UNL A   1      44.778  27.155  35.021  1.00  0.00     0.031 A 
ATOM     85  C   UNL A   1      46.096  28.921  34.041  1.00  0.00     0.131 A 
ATOM     86  C   UNL A   1      45.860  26.849  35.860  1.00  0.00     0.055 A 
ATOM     87  C   UNL A   1      47.186  28.580  34.842  1.00  0.00     0.041 A 
ATOM     88  F   UNL A   1      46.245  29.948  33.189  1.00  0.00    -0.206 F 
ATOM     89  C   UNL A   1      47.069  27.545  35.765  1.00  0.00     0.022 A 
BRANCH  86  90
ATOM     90  S   UNL A   1      45.649  25.567  37.126  1.00  0.00     0.124 S 
ATOM     91  O   UNL A   1      46.196  26.217  38.312  1.00  0.00    -0.237 OA
ATOM     92  O   UNL A   1      44.205  25.358  37.123  1.00  0.00    -0.237 OA
ATOM     93  O   UNL A   1      46.436  24.446  36.614  1.00  0.00    -0.744 OA
ENDBRANCH  86  90
ENDBRANCH  60  83
ENDBRANCH  34  35
ENDBRANCH  27  29
ENDBRANCH  26  27
ENDBRANCH  25  26
ENDBRANCH  24  25
ENDBRANCH   1  24
TORSDOF 21
ENDMDL
