MODEL 1
REMARK VINA RESULT:     -12.4      0.000      0.000
REMARK SMILES Nc1nc(N2CCCCC2)nc2c1[C@H](C(=O)OCCOCCOC(=O)c1ccc(-c3c4nc(c(-c5cc(S(=O)(=O)[O-])ccc5F)c5ccc([nH]5)c(-c5cc(S(=O)(=O)[O-])ccc5F)c5nc(c(-c6cc(S(=O)(=O)[O-])ccc6F)c6ccc3[nH]6)C=C5)C=C4)cc1)CC(=O)N2
REMARK SMILES IDX 21 1 20 2 19 3 18 4 17 5 15 6 16 7 14 8 2 9 3 10 13 11 4 12
REMARK SMILES IDX 12 13 11 14 92 15 89 16 90 17 91 19 1 20 5 23 6 24 10 25
REMARK SMILES IDX 7 26 9 27 8 28 22 29 23 30 24 31 25 32 26 33 27 34 88 35
REMARK SMILES IDX 28 36 87 37 29 38 30 39 31 40 81 41 32 42 86 43 80 44 82 45
REMARK SMILES IDX 33 46 85 47 79 48 78 49 34 51 66 52 46 53 65 54 47 55 50 56
REMARK SMILES IDX 64 57 83 58 48 59 49 60 63 62 84 63 51 64 35 65 36 66 44 67
REMARK SMILES IDX 37 68 43 69 45 70 42 71 38 72 39 73 40 74 41 75 67 76 68 77
REMARK SMILES IDX 76 78 69 79 75 80 77 81 74 82 70 83 71 84 72 85 73 86 52 87
REMARK SMILES IDX 53 88 61 89 54 90 60 91 62 92 59 93 55 94 56 95 57 96 58 97
REMARK H PARENT 92 18 1 21 1 22 82 50 50 61
REMARK Flexibility Score: inf
ROOT
ATOM      1  C   UNL A   1      31.768  29.642  25.489  1.00  0.00     0.202 C 
ENDROOT
BRANCH   1   2
ATOM      2  O   UNL A   1      32.832  29.375  24.574  1.00  0.00    -0.374 OA
BRANCH   2   3
ATOM      3  C   UNL A   1      33.797  28.395  24.940  1.00  0.00     0.202 C 
BRANCH   3   4
ATOM      4  C   UNL A   1      33.411  27.354  26.000  1.00  0.00     0.261 C 
BRANCH   4   5
ATOM      5  O   UNL A   1      33.011  26.080  25.468  1.00  0.00    -0.463 OA
BRANCH   5   6
ATOM      6  C   UNL A   1      31.670  25.940  25.293  1.00  0.00     0.314 C 
ATOM      7  O   UNL A   1      30.861  25.976  26.214  1.00  0.00    -0.252 OA
BRANCH   6   8
ATOM      8  C   UNL A   1      31.269  25.617  23.846  1.00  0.00     0.146 C 
ATOM      9  C   UNL A   1      29.024  26.827  23.846  1.00  0.00     0.135 A 
ATOM     10  N   UNL A   1      28.241  27.858  23.508  1.00  0.00    -0.196 NA
ATOM     11  C   UNL A   1      30.298  26.655  23.342  1.00  0.00     0.052 A 
ATOM     12  C   UNL A   1      28.723  28.751  22.638  1.00  0.00     0.229 A 
ATOM     13  C   UNL A   1      30.681  27.609  22.433  1.00  0.00     0.144 A 
ATOM     14  N   UNL A   1      29.916  28.633  22.045  1.00  0.00    -0.195 NA
ATOM     15  N   UNL A   1      31.961  27.587  21.905  1.00  0.00    -0.310 N 
ATOM     16  C   UNL A   1      32.432  25.386  22.875  1.00  0.00     0.120 C 
ATOM     17  C   UNL A   1      32.884  26.619  22.128  1.00  0.00     0.226 C 
ATOM     18  H   UNL A   1      32.223  28.335  21.320  1.00  0.00     0.171 HD
ATOM     19  O   UNL A   1      34.021  26.721  21.671  1.00  0.00    -0.275 OA
BRANCH   9  20
ATOM     20  N   UNL A   1      28.486  25.952  24.781  1.00  0.00    -0.383 N 
ATOM     21  H   UNL A   1      28.366  25.001  24.553  1.00  0.00     0.158 HD
ATOM     22  H   UNL A   1      28.225  26.281  25.671  1.00  0.00     0.158 HD
ENDBRANCH   9  20
BRANCH  12  23
ATOM     23  N   UNL A   1      28.004  29.890  22.380  1.00  0.00    -0.341 N 
ATOM     24  C   UNL A   1      28.028  30.462  21.047  1.00  0.00     0.119 C 
ATOM     25  C   UNL A   1      27.636  30.722  23.505  1.00  0.00     0.119 C 
ATOM     26  C   UNL A   1      28.843  31.750  21.019  1.00  0.00     0.022 C 
ATOM     27  C   UNL A   1      28.495  31.990  23.500  1.00  0.00     0.022 C 
ATOM     28  C   UNL A   1      28.424  32.696  22.144  1.00  0.00     0.004 C 
ENDBRANCH  12  23
ENDBRANCH   6   8
ENDBRANCH   5   6
ENDBRANCH   4   5
ENDBRANCH   3   4
ENDBRANCH   2   3
ENDBRANCH   1   2
BRANCH   1  29
ATOM     29  C   UNL A   1      31.854  30.896  26.365  1.00  0.00     0.261 C 
BRANCH  29  30
ATOM     30  O   UNL A   1      32.808  30.739  27.432  1.00  0.00    -0.460 OA
BRANCH  30  31
ATOM     31  C   UNL A   1      33.616  31.809  27.620  1.00  0.00     0.338 C 
ATOM     32  O   UNL A   1      33.271  32.976  27.771  1.00  0.00    -0.246 OA
BRANCH  31  33
ATOM     33  C   UNL A   1      35.000  31.364  27.844  1.00  0.00     0.060 A 
ATOM     34  C   UNL A   1      35.215  29.989  28.001  1.00  0.00     0.016 A 
ATOM     35  C   UNL A   1      36.049  32.273  27.998  1.00  0.00     0.016 A 
ATOM     36  C   UNL A   1      36.471  29.521  28.372  1.00  0.00     0.010 A 
ATOM     37  C   UNL A   1      37.307  31.802  28.387  1.00  0.00     0.010 A 
ATOM     38  C   UNL A   1      37.510  30.429  28.616  1.00  0.00    -0.014 A 
BRANCH  38  39
ATOM     39  C   UNL A   1      38.729  29.940  29.303  1.00  0.00     0.031 A 
ATOM     40  C   UNL A   1      39.040  30.473  30.676  1.00  0.00     0.074 A 
ATOM     41  C   UNL A   1      39.483  28.968  28.759  1.00  0.00     0.049 A 
ATOM     42  N   UNL A   1      40.023  30.165  31.481  1.00  0.00    -0.248 NA
ATOM     43  C   UNL A   1      38.111  31.480  31.216  1.00  0.00     0.031 C 
ATOM     44  C   UNL A   1      39.230  28.328  27.468  1.00  0.00     0.029 A 
ATOM     45  N   UNL A   1      40.604  28.336  29.234  1.00  0.00    -0.354 N 
ATOM     46  C   UNL A   1      39.824  30.927  32.627  1.00  0.00     0.074 A 
ATOM     47  C   UNL A   1      38.650  31.742  32.398  1.00  0.00     0.031 C 
ATOM     48  C   UNL A   1      40.163  27.382  27.261  1.00  0.00     0.029 A 
ATOM     49  C   UNL A   1      41.094  27.371  28.387  1.00  0.00     0.049 A 
ATOM     50  H   UNL A   1      41.017  28.553  30.101  1.00  0.00     0.167 HD
ATOM     51  C   UNL A   1      40.546  30.936  33.772  1.00  0.00     0.034 A 
ATOM     52  C   UNL A   1      42.180  26.578  28.505  1.00  0.00     0.034 A 
ATOM     53  C   UNL A   1      41.718  30.128  33.987  1.00  0.00     0.049 A 
ATOM     54  C   UNL A   1      43.035  26.690  29.741  1.00  0.00     0.074 A 
ATOM     55  C   UNL A   1      42.532  30.071  35.103  1.00  0.00     0.029 A 
ATOM     56  N   UNL A   1      42.247  29.239  33.060  1.00  0.00    -0.354 N 
ATOM     57  N   UNL A   1      42.856  27.444  30.802  1.00  0.00    -0.248 NA
ATOM     58  C   UNL A   1      44.240  25.852  29.795  1.00  0.00     0.031 C 
ATOM     59  C   UNL A   1      43.586  29.191  34.830  1.00  0.00     0.029 A 
ATOM     60  C   UNL A   1      43.394  28.654  33.567  1.00  0.00     0.049 A 
ATOM     61  H   UNL A   1      41.862  29.055  32.173  1.00  0.00     0.167 HD
ATOM     62  C   UNL A   1      43.920  27.160  31.653  1.00  0.00     0.074 A 
ATOM     63  C   UNL A   1      44.730  26.159  30.989  1.00  0.00     0.031 C 
ATOM     64  C   UNL A   1      44.199  27.676  32.876  1.00  0.00     0.034 A 
BRANCH  51  65
ATOM     65  C   UNL A   1      40.108  31.877  34.863  1.00  0.00     0.023 A 
ATOM     66  C   UNL A   1      39.261  31.453  35.902  1.00  0.00     0.031 A 
ATOM     67  C   UNL A   1      40.549  33.211  34.867  1.00  0.00     0.131 A 
ATOM     68  C   UNL A   1      38.849  32.369  36.881  1.00  0.00     0.055 A 
ATOM     69  C   UNL A   1      40.181  34.102  35.876  1.00  0.00     0.041 A 
ATOM     70  F   UNL A   1      41.342  33.671  33.886  1.00  0.00    -0.206 F 
ATOM     71  C   UNL A   1      39.321  33.684  36.888  1.00  0.00     0.022 A 
BRANCH  68  72
ATOM     72  S   UNL A   1      37.626  31.839  38.111  1.00  0.00     0.124 S 
ATOM     73  O   UNL A   1      36.520  32.754  37.838  1.00  0.00    -0.237 OA
ATOM     74  O   UNL A   1      37.402  30.442  37.757  1.00  0.00    -0.237 OA
ATOM     75  O   UNL A   1      38.307  32.057  39.386  1.00  0.00    -0.744 OA
ENDBRANCH  68  72
ENDBRANCH  51  65
BRANCH  52  76
ATOM     76  C   UNL A   1      42.540  25.636  27.410  1.00  0.00     0.023 A 
ATOM     77  C   UNL A   1      42.075  24.311  27.410  1.00  0.00     0.031 A 
ATOM     78  C   UNL A   1      43.373  26.046  26.354  1.00  0.00     0.131 A 
ATOM     79  C   UNL A   1      42.465  23.437  26.381  1.00  0.00     0.055 A 
ATOM     80  C   UNL A   1      43.727  25.184  25.316  1.00  0.00     0.041 A 
ATOM     81  F   UNL A   1      43.841  27.304  26.310  1.00  0.00    -0.206 F 
ATOM     82  C   UNL A   1      43.277  23.868  25.329  1.00  0.00     0.022 A 
BRANCH  79  83
ATOM     83  S   UNL A   1      41.917  21.709  26.451  1.00  0.00     0.124 S 
ATOM     84  O   UNL A   1      42.237  21.351  27.827  1.00  0.00    -0.237 OA
ATOM     85  O   UNL A   1      40.498  21.827  26.129  1.00  0.00    -0.237 OA
ATOM     86  O   UNL A   1      42.730  21.053  25.428  1.00  0.00    -0.744 OA
ENDBRANCH  79  83
ENDBRANCH  52  76
BRANCH  64  87
ATOM     87  C   UNL A   1      45.428  27.164  33.580  1.00  0.00     0.023 A 
ATOM     88  C   UNL A   1      45.382  26.013  34.381  1.00  0.00     0.031 A 
ATOM     89  C   UNL A   1      46.666  27.810  33.404  1.00  0.00     0.131 A 
ATOM     90  C   UNL A   1      46.552  25.552  35.003  1.00  0.00     0.055 A 
ATOM     91  C   UNL A   1      47.834  27.320  33.989  1.00  0.00     0.041 A 
ATOM     92  F   UNL A   1      46.759  28.911  32.643  1.00  0.00    -0.206 F 
ATOM     93  C   UNL A   1      47.780  26.189  34.798  1.00  0.00     0.022 A 
BRANCH  90  94
ATOM     94  S   UNL A   1      46.443  24.122  36.112  1.00  0.00     0.124 S 
ATOM     95  O   UNL A   1      45.075  23.669  35.888  1.00  0.00    -0.237 OA
ATOM     96  O   UNL A   1      47.496  23.248  35.604  1.00  0.00    -0.237 OA
ATOM     97  O   UNL A   1      46.700  24.692  37.433  1.00  0.00    -0.744 OA
ENDBRANCH  90  94
ENDBRANCH  64  87
ENDBRANCH  38  39
ENDBRANCH  31  33
ENDBRANCH  30  31
ENDBRANCH  29  30
ENDBRANCH   1  29
TORSDOF 19
ENDMDL
MODEL 2
REMARK VINA RESULT:     -12.2      5.673     10.740
REMARK SMILES Nc1nc(N2CCCCC2)nc2c1[C@H](C(=O)OCCOCCOC(=O)c1ccc(-c3c4nc(c(-c5cc(S(=O)(=O)[O-])ccc5F)c5ccc([nH]5)c(-c5cc(S(=O)(=O)[O-])ccc5F)c5nc(c(-c6cc(S(=O)(=O)[O-])ccc6F)c6ccc3[nH]6)C=C5)C=C4)cc1)CC(=O)N2
REMARK SMILES IDX 21 1 20 2 19 3 18 4 17 5 15 6 16 7 14 8 2 9 3 10 13 11 4 12
REMARK SMILES IDX 12 13 11 14 92 15 89 16 90 17 91 19 1 20 5 23 6 24 10 25
REMARK SMILES IDX 7 26 9 27 8 28 22 29 23 30 24 31 25 32 26 33 27 34 88 35
REMARK SMILES IDX 28 36 87 37 29 38 30 39 31 40 81 41 32 42 86 43 80 44 82 45
REMARK SMILES IDX 33 46 85 47 79 48 78 49 34 51 66 52 46 53 65 54 47 55 50 56
REMARK SMILES IDX 64 57 83 58 48 59 49 60 63 62 84 63 51 64 35 65 36 66 44 67
REMARK SMILES IDX 37 68 43 69 45 70 42 71 38 72 39 73 40 74 41 75 67 76 68 77
REMARK SMILES IDX 76 78 69 79 75 80 77 81 74 82 70 83 71 84 72 85 73 86 52 87
REMARK SMILES IDX 53 88 61 89 54 90 60 91 62 92 59 93 55 94 56 95 57 96 58 97
REMARK H PARENT 92 18 1 21 1 22 82 50 50 61
REMARK Flexibility Score: inf
ROOT
ATOM      1  C   UNL A   1      36.250  20.697  25.024  1.00  0.00     0.202 C 
ENDROOT
BRANCH   1   2
ATOM      2  O   UNL A   1      35.882  21.704  25.967  1.00  0.00    -0.374 OA
BRANCH   2   3
ATOM      3  C   UNL A   1      35.650  23.021  25.480  1.00  0.00     0.202 C 
BRANCH   3   4
ATOM      4  C   UNL A   1      35.213  23.190  24.018  1.00  0.00     0.261 C 
BRANCH   4   5
ATOM      5  O   UNL A   1      34.023  23.975  23.838  1.00  0.00    -0.463 OA
BRANCH   5   6
ATOM      6  C   UNL A   1      33.144  23.465  22.935  1.00  0.00     0.314 C 
ATOM      7  O   UNL A   1      33.311  23.525  21.721  1.00  0.00    -0.252 OA
BRANCH   6   8
ATOM      8  C   UNL A   1      31.863  22.905  23.571  1.00  0.00     0.146 C 
ATOM      9  C   UNL A   1      31.967  20.578  22.532  1.00  0.00     0.135 A 
ATOM     10  N   UNL A   1      32.210  19.265  22.605  1.00  0.00    -0.196 NA
ATOM     11  C   UNL A   1      31.944  21.400  23.641  1.00  0.00     0.052 A 
ATOM     12  C   UNL A   1      32.434  18.736  23.813  1.00  0.00     0.229 A 
ATOM     13  C   UNL A   1      32.153  20.752  24.832  1.00  0.00     0.144 A 
ATOM     14  N   UNL A   1      32.366  19.438  24.949  1.00  0.00    -0.195 NA
ATOM     15  N   UNL A   1      32.222  21.475  26.011  1.00  0.00    -0.310 N 
ATOM     16  C   UNL A   1      31.465  23.531  24.913  1.00  0.00     0.120 C 
ATOM     17  C   UNL A   1      31.994  22.806  26.128  1.00  0.00     0.226 C 
ATOM     18  H   UNL A   1      32.454  20.982  26.831  1.00  0.00     0.171 HD
ATOM     19  O   UNL A   1      32.147  23.374  27.207  1.00  0.00    -0.275 OA
BRANCH   9  20
ATOM     20  N   UNL A   1      31.778  21.078  21.250  1.00  0.00    -0.383 N 
ATOM     21  H   UNL A   1      31.162  20.625  20.630  1.00  0.00     0.158 HD
ATOM     22  H   UNL A   1      32.260  21.887  20.961  1.00  0.00     0.158 HD
ENDBRANCH   9  20
BRANCH  12  23
ATOM     23  N   UNL A   1      32.825  17.425  23.908  1.00  0.00    -0.341 N 
ATOM     24  C   UNL A   1      32.302  16.601  24.981  1.00  0.00     0.119 C 
ATOM     25  C   UNL A   1      34.055  17.041  23.250  1.00  0.00     0.119 C 
ATOM     26  C   UNL A   1      33.376  16.319  26.027  1.00  0.00     0.022 C 
ATOM     27  C   UNL A   1      35.143  16.810  24.303  1.00  0.00     0.022 C 
ATOM     28  C   UNL A   1      34.669  15.827  25.376  1.00  0.00     0.004 C 
ENDBRANCH  12  23
ENDBRANCH   6   8
ENDBRANCH   5   6
ENDBRANCH   4   5
ENDBRANCH   3   4
ENDBRANCH   2   3
ENDBRANCH   1   2
BRANCH   1  29
ATOM     29  C   UNL A   1      37.669  20.121  25.084  1.00  0.00     0.261 C 
BRANCH  29  30
ATOM     30  O   UNL A   1      38.664  21.158  25.170  1.00  0.00    -0.460 OA
BRANCH  30  31
ATOM     31  C   UNL A   1      39.646  20.916  26.070  1.00  0.00     0.338 C 
ATOM     32  O   UNL A   1      40.311  19.892  26.179  1.00  0.00    -0.246 OA
BRANCH  31  33
ATOM     33  C   UNL A   1      39.983  22.151  26.794  1.00  0.00     0.060 A 
ATOM     34  C   UNL A   1      39.321  23.324  26.407  1.00  0.00     0.016 A 
ATOM     35  C   UNL A   1      40.993  22.187  27.758  1.00  0.00     0.016 A 
ATOM     36  C   UNL A   1      39.708  24.549  26.941  1.00  0.00     0.010 A 
ATOM     37  C   UNL A   1      41.391  23.421  28.282  1.00  0.00     0.010 A 
ATOM     38  C   UNL A   1      40.778  24.609  27.843  1.00  0.00    -0.014 A 
BRANCH  38  39
ATOM     39  C   UNL A   1      41.367  25.933  28.152  1.00  0.00     0.031 A 
ATOM     40  C   UNL A   1      42.753  26.236  27.649  1.00  0.00     0.074 A 
ATOM     41  C   UNL A   1      40.645  26.880  28.779  1.00  0.00     0.049 A 
ATOM     42  N   UNL A   1      43.455  27.333  27.762  1.00  0.00    -0.248 NA
ATOM     43  C   UNL A   1      43.434  25.159  26.910  1.00  0.00     0.031 C 
ATOM     44  C   UNL A   1      39.267  26.717  29.243  1.00  0.00     0.029 A 
ATOM     45  N   UNL A   1      40.964  28.170  29.112  1.00  0.00    -0.354 N 
ATOM     46  C   UNL A   1      44.651  27.086  27.097  1.00  0.00     0.074 A 
ATOM     47  C   UNL A   1      44.597  25.721  26.618  1.00  0.00     0.031 C 
ATOM     48  C   UNL A   1      38.854  27.875  29.789  1.00  0.00     0.029 A 
ATOM     49  C   UNL A   1      39.945  28.846  29.742  1.00  0.00     0.049 A 
ATOM     50  H   UNL A   1      41.840  28.577  28.918  1.00  0.00     0.167 HD
ATOM     51  C   UNL A   1      45.694  27.925  26.892  1.00  0.00     0.034 A 
ATOM     52  C   UNL A   1      39.905  30.101  30.234  1.00  0.00     0.034 A 
ATOM     53  C   UNL A   1      45.740  29.279  27.381  1.00  0.00     0.049 A 
ATOM     54  C   UNL A   1      41.123  30.979  30.096  1.00  0.00     0.074 A 
ATOM     55  C   UNL A   1      46.753  30.210  27.243  1.00  0.00     0.029 A 
ATOM     56  N   UNL A   1      44.730  29.892  28.110  1.00  0.00    -0.354 N 
ATOM     57  N   UNL A   1      42.263  30.718  29.497  1.00  0.00    -0.248 NA
ATOM     58  C   UNL A   1      41.053  32.315  30.703  1.00  0.00     0.031 C 
ATOM     59  C   UNL A   1      46.381  31.366  27.938  1.00  0.00     0.029 A 
ATOM     60  C   UNL A   1      45.110  31.177  28.456  1.00  0.00     0.049 A 
ATOM     61  H   UNL A   1      43.871  29.473  28.346  1.00  0.00     0.167 HD
ATOM     62  C   UNL A   1      43.040  31.864  29.646  1.00  0.00     0.074 A 
ATOM     63  C   UNL A   1      42.237  32.820  30.380  1.00  0.00     0.031 C 
ATOM     64  C   UNL A   1      44.301  32.105  29.210  1.00  0.00     0.034 A 
BRANCH  51  65
ATOM     65  C   UNL A   1      46.881  27.389  26.138  1.00  0.00     0.023 A 
ATOM     66  C   UNL A   1      47.116  27.734  24.796  1.00  0.00     0.031 A 
ATOM     67  C   UNL A   1      47.791  26.526  26.772  1.00  0.00     0.131 A 
ATOM     68  C   UNL A   1      48.216  27.186  24.119  1.00  0.00     0.055 A 
ATOM     69  C   UNL A   1      48.914  26.029  26.110  1.00  0.00     0.041 A 
ATOM     70  F   UNL A   1      47.599  26.149  28.047  1.00  0.00    -0.206 F 
ATOM     71  C   UNL A   1      49.129  26.354  24.773  1.00  0.00     0.022 A 
BRANCH  68  72
ATOM     72  S   UNL A   1      48.401  27.516  22.345  1.00  0.00     0.124 S 
ATOM     73  O   UNL A   1      48.546  26.165  21.809  1.00  0.00    -0.237 OA
ATOM     74  O   UNL A   1      47.156  28.203  22.018  1.00  0.00    -0.237 OA
ATOM     75  O   UNL A   1      49.605  28.342  22.275  1.00  0.00    -0.744 OA
ENDBRANCH  68  72
ENDBRANCH  51  65
BRANCH  52  76
ATOM     76  C   UNL A   1      38.686  30.592  30.934  1.00  0.00     0.023 A 
ATOM     77  C   UNL A   1      37.661  31.249  30.234  1.00  0.00     0.031 A 
ATOM     78  C   UNL A   1      38.539  30.425  32.322  1.00  0.00     0.131 A 
ATOM     79  C   UNL A   1      36.542  31.732  30.931  1.00  0.00     0.055 A 
ATOM     80  C   UNL A   1      37.408  30.876  33.004  1.00  0.00     0.041 A 
ATOM     81  F   UNL A   1      39.491  29.802  33.035  1.00  0.00    -0.206 F 
ATOM     82  C   UNL A   1      36.403  31.540  32.308  1.00  0.00     0.022 A 
BRANCH  79  83
ATOM     83  S   UNL A   1      35.273  32.649  30.014  1.00  0.00     0.124 S 
ATOM     84  O   UNL A   1      34.241  32.824  31.028  1.00  0.00    -0.237 OA
ATOM     85  O   UNL A   1      35.995  33.853  29.615  1.00  0.00    -0.237 OA
ATOM     86  O   UNL A   1      34.927  31.745  28.918  1.00  0.00    -0.744 OA
ENDBRANCH  79  83
ENDBRANCH  52  76
BRANCH  64  87
ATOM     87  C   UNL A   1      44.891  33.457  29.510  1.00  0.00     0.023 A 
ATOM     88  C   UNL A   1      44.686  34.548  28.650  1.00  0.00     0.031 A 
ATOM     89  C   UNL A   1      45.623  33.665  30.693  1.00  0.00     0.131 A 
ATOM     90  C   UNL A   1      45.232  35.799  28.973  1.00  0.00     0.055 A 
ATOM     91  C   UNL A   1      46.124  34.923  31.030  1.00  0.00     0.041 A 
ATOM     92  F   UNL A   1      45.840  32.654  31.548  1.00  0.00    -0.206 F 
ATOM     93  C   UNL A   1      45.935  35.996  30.166  1.00  0.00     0.022 A 
BRANCH  90  94
ATOM     94  S   UNL A   1      45.037  37.164  27.796  1.00  0.00     0.124 S 
ATOM     95  O   UNL A   1      44.023  37.984  28.450  1.00  0.00    -0.237 OA
ATOM     96  O   UNL A   1      46.380  37.733  27.746  1.00  0.00    -0.237 OA
ATOM     97  O   UNL A   1      44.602  36.500  26.569  1.00  0.00    -0.744 OA
ENDBRANCH  90  94
ENDBRANCH  64  87
ENDBRANCH  38  39
ENDBRANCH  31  33
ENDBRANCH  30  31
ENDBRANCH  29  30
ENDBRANCH   1  29
TORSDOF 19
ENDMDL
MODEL 3
REMARK VINA RESULT:     -12.1      4.959      7.098
REMARK SMILES Nc1nc(N2CCCCC2)nc2c1[C@H](C(=O)OCCOCCOC(=O)c1ccc(-c3c4nc(c(-c5cc(S(=O)(=O)[O-])ccc5F)c5ccc([nH]5)c(-c5cc(S(=O)(=O)[O-])ccc5F)c5nc(c(-c6cc(S(=O)(=O)[O-])ccc6F)c6ccc3[nH]6)C=C5)C=C4)cc1)CC(=O)N2
REMARK SMILES IDX 21 1 20 2 19 3 18 4 17 5 15 6 16 7 14 8 2 9 3 10 13 11 4 12
REMARK SMILES IDX 12 13 11 14 92 15 89 16 90 17 91 19 1 20 5 23 6 24 10 25
REMARK SMILES IDX 7 26 9 27 8 28 22 29 23 30 24 31 25 32 26 33 27 34 88 35
REMARK SMILES IDX 28 36 87 37 29 38 30 39 31 40 81 41 32 42 86 43 80 44 82 45
REMARK SMILES IDX 33 46 85 47 79 48 78 49 34 51 66 52 46 53 65 54 47 55 50 56
REMARK SMILES IDX 64 57 83 58 48 59 49 60 63 62 84 63 51 64 35 65 36 66 44 67
REMARK SMILES IDX 37 68 43 69 45 70 42 71 38 72 39 73 40 74 41 75 67 76 68 77
REMARK SMILES IDX 76 78 69 79 75 80 77 81 74 82 70 83 71 84 72 85 73 86 52 87
REMARK SMILES IDX 53 88 61 89 54 90 60 91 62 92 59 93 55 94 56 95 57 96 58 97
REMARK H PARENT 92 18 1 21 1 22 82 50 50 61
REMARK Flexibility Score: inf
ROOT
ATOM      1  C   UNL A   1      35.356  21.369  25.535  1.00  0.00     0.202 C 
ENDROOT
BRANCH   1   2
ATOM      2  O   UNL A   1      35.076  22.641  24.950  1.00  0.00    -0.374 OA
BRANCH   2   3
ATOM      3  C   UNL A   1      34.469  23.633  25.770  1.00  0.00     0.202 C 
BRANCH   3   4
ATOM      4  C   UNL A   1      32.936  23.711  25.805  1.00  0.00     0.261 C 
BRANCH   4   5
ATOM      5  O   UNL A   1      32.405  25.043  25.719  1.00  0.00    -0.463 OA
BRANCH   5   6
ATOM      6  C   UNL A   1      32.240  25.502  24.449  1.00  0.00     0.314 C 
ATOM      7  O   UNL A   1      31.674  24.864  23.568  1.00  0.00    -0.252 OA
BRANCH   6   8
ATOM      8  C   UNL A   1      32.932  26.848  24.187  1.00  0.00     0.146 C 
ATOM      9  C   UNL A   1      31.237  27.772  22.520  1.00  0.00     0.135 A 
ATOM     10  N   UNL A   1      30.221  28.581  22.199  1.00  0.00    -0.196 NA
ATOM     11  C   UNL A   1      31.917  27.860  23.719  1.00  0.00     0.052 A 
ATOM     12  C   UNL A   1      29.861  29.516  23.085  1.00  0.00     0.229 A 
ATOM     13  C   UNL A   1      31.489  28.874  24.540  1.00  0.00     0.144 A 
ATOM     14  N   UNL A   1      30.502  29.722  24.239  1.00  0.00    -0.195 NA
ATOM     15  N   UNL A   1      32.044  29.025  25.799  1.00  0.00    -0.310 N 
ATOM     16  C   UNL A   1      33.799  27.378  25.334  1.00  0.00     0.120 C 
ATOM     17  C   UNL A   1      33.084  28.305  26.289  1.00  0.00     0.226 C 
ATOM     18  H   UNL A   1      31.653  29.712  26.386  1.00  0.00     0.171 HD
ATOM     19  O   UNL A   1      33.463  28.464  27.447  1.00  0.00    -0.275 OA
BRANCH   9  20
ATOM     20  N   UNL A   1      31.543  26.797  21.580  1.00  0.00    -0.383 N 
ATOM     21  H   UNL A   1      30.870  26.525  20.915  1.00  0.00     0.158 HD
ATOM     22  H   UNL A   1      32.434  26.377  21.578  1.00  0.00     0.158 HD
ENDBRANCH   9  20
BRANCH  12  23
ATOM     23  N   UNL A   1      28.737  30.265  22.847  1.00  0.00    -0.341 N 
ATOM     24  C   UNL A   1      28.052  30.139  21.575  1.00  0.00     0.119 C 
ATOM     25  C   UNL A   1      28.541  31.454  23.648  1.00  0.00     0.119 C 
ATOM     26  C   UNL A   1      28.269  31.378  20.712  1.00  0.00     0.022 C 
ATOM     27  C   UNL A   1      28.810  32.693  22.789  1.00  0.00     0.022 C 
ATOM     28  C   UNL A   1      27.987  32.658  21.499  1.00  0.00     0.004 C 
ENDBRANCH  12  23
ENDBRANCH   6   8
ENDBRANCH   5   6
ENDBRANCH   4   5
ENDBRANCH   3   4
ENDBRANCH   2   3
ENDBRANCH   1   2
BRANCH   1  29
ATOM     29  C   UNL A   1      36.610  20.614  25.079  1.00  0.00     0.261 C 
BRANCH  29  30
ATOM     30  O   UNL A   1      37.751  21.485  24.974  1.00  0.00    -0.460 OA
BRANCH  30  31
ATOM     31  C   UNL A   1      38.778  21.161  25.795  1.00  0.00     0.338 C 
ATOM     32  O   UNL A   1      39.335  20.073  25.885  1.00  0.00    -0.246 OA
BRANCH  31  33
ATOM     33  C   UNL A   1      39.310  22.371  26.440  1.00  0.00     0.060 A 
ATOM     34  C   UNL A   1      38.709  23.593  26.110  1.00  0.00     0.016 A 
ATOM     35  C   UNL A   1      40.435  22.330  27.268  1.00  0.00     0.016 A 
ATOM     36  C   UNL A   1      39.266  24.785  26.560  1.00  0.00     0.010 A 
ATOM     37  C   UNL A   1      41.003  23.531  27.706  1.00  0.00     0.010 A 
ATOM     38  C   UNL A   1      40.444  24.762  27.318  1.00  0.00    -0.014 A 
BRANCH  38  39
ATOM     39  C   UNL A   1      41.181  26.033  27.517  1.00  0.00     0.031 A 
ATOM     40  C   UNL A   1      40.552  27.100  28.371  1.00  0.00     0.074 A 
ATOM     41  C   UNL A   1      42.426  26.190  27.031  1.00  0.00     0.049 A 
ATOM     42  N   UNL A   1      41.022  28.270  28.716  1.00  0.00    -0.248 NA
ATOM     43  C   UNL A   1      39.217  26.802  28.918  1.00  0.00     0.031 C 
ATOM     44  C   UNL A   1      43.159  25.191  26.254  1.00  0.00     0.029 A 
ATOM     45  N   UNL A   1      43.299  27.241  27.139  1.00  0.00    -0.354 N 
ATOM     46  C   UNL A   1      40.050  28.842  29.531  1.00  0.00     0.074 A 
ATOM     47  C   UNL A   1      38.947  27.908  29.597  1.00  0.00     0.031 C 
ATOM     48  C   UNL A   1      44.380  25.675  25.967  1.00  0.00     0.029 A 
ATOM     49  C   UNL A   1      44.503  27.025  26.512  1.00  0.00     0.049 A 
ATOM     50  H   UNL A   1      43.085  28.073  27.622  1.00  0.00     0.167 HD
ATOM     51  C   UNL A   1      40.082  30.031  30.178  1.00  0.00     0.034 A 
ATOM     52  C   UNL A   1      45.576  27.833  26.385  1.00  0.00     0.034 A 
ATOM     53  C   UNL A   1      41.182  30.956  30.098  1.00  0.00     0.049 A 
ATOM     54  C   UNL A   1      45.541  29.201  27.017  1.00  0.00     0.074 A 
ATOM     55  C   UNL A   1      41.310  32.194  30.701  1.00  0.00     0.029 A 
ATOM     56  N   UNL A   1      42.341  30.747  29.363  1.00  0.00    -0.354 N 
ATOM     57  N   UNL A   1      44.599  29.744  27.754  1.00  0.00    -0.248 NA
ATOM     58  C   UNL A   1      46.707  30.067  26.797  1.00  0.00     0.031 C 
ATOM     59  C   UNL A   1      42.521  32.759  30.284  1.00  0.00     0.029 A 
ATOM     60  C   UNL A   1      43.175  31.846  29.471  1.00  0.00     0.049 A 
ATOM     61  H   UNL A   1      42.539  29.936  28.842  1.00  0.00     0.167 HD
ATOM     62  C   UNL A   1      45.066  31.010  28.095  1.00  0.00     0.074 A 
ATOM     63  C   UNL A   1      46.377  31.146  27.493  1.00  0.00     0.031 C 
ATOM     64  C   UNL A   1      44.468  31.970  28.843  1.00  0.00     0.034 A 
BRANCH  51  65
ATOM     65  C   UNL A   1      38.876  30.410  30.996  1.00  0.00     0.023 A 
ATOM     66  C   UNL A   1      37.788  31.093  30.427  1.00  0.00     0.031 A 
ATOM     67  C   UNL A   1      38.813  30.076  32.360  1.00  0.00     0.131 A 
ATOM     68  C   UNL A   1      36.698  31.457  31.231  1.00  0.00     0.055 A 
ATOM     69  C   UNL A   1      37.701  30.391  33.141  1.00  0.00     0.041 A 
ATOM     70  F   UNL A   1      39.836  29.442  32.955  1.00  0.00    -0.206 F 
ATOM     71  C   UNL A   1      36.637  31.091  32.578  1.00  0.00     0.022 A 
BRANCH  68  72
ATOM     72  S   UNL A   1      35.387  32.482  30.510  1.00  0.00     0.124 S 
ATOM     73  O   UNL A   1      34.331  32.356  31.512  1.00  0.00    -0.237 OA
ATOM     74  O   UNL A   1      36.023  33.791  30.414  1.00  0.00    -0.237 OA
ATOM     75  O   UNL A   1      35.107  31.830  29.232  1.00  0.00    -0.744 OA
ENDBRANCH  68  72
ENDBRANCH  51  65
BRANCH  52  76
ATOM     76  C   UNL A   1      46.759  27.386  25.598  1.00  0.00     0.023 A 
ATOM     77  C   UNL A   1      46.941  27.788  24.266  1.00  0.00     0.031 A 
ATOM     78  C   UNL A   1      47.720  26.532  26.169  1.00  0.00     0.131 A 
ATOM     79  C   UNL A   1      48.048  27.318  23.541  1.00  0.00     0.055 A 
ATOM     80  C   UNL A   1      48.838  26.097  25.456  1.00  0.00     0.041 A 
ATOM     81  F   UNL A   1      47.591  26.121  27.441  1.00  0.00    -0.206 F 
ATOM     82  C   UNL A   1      49.003  26.486  24.130  1.00  0.00     0.022 A 
BRANCH  79  83
ATOM     83  S   UNL A   1      48.212  27.789  21.796  1.00  0.00     0.124 S 
ATOM     84  O   UNL A   1      46.943  28.463  21.550  1.00  0.00    -0.237 OA
ATOM     85  O   UNL A   1      49.399  28.638  21.820  1.00  0.00    -0.237 OA
ATOM     86  O   UNL A   1      48.383  26.507  21.114  1.00  0.00    -0.744 OA
ENDBRANCH  79  83
ENDBRANCH  52  76
BRANCH  64  87
ATOM     87  C   UNL A   1      45.226  33.253  29.058  1.00  0.00     0.023 A 
ATOM     88  C   UNL A   1      45.157  34.304  28.130  1.00  0.00     0.031 A 
ATOM     89  C   UNL A   1      45.985  33.441  30.227  1.00  0.00     0.131 A 
ATOM     90  C   UNL A   1      45.858  35.494  28.374  1.00  0.00     0.055 A 
ATOM     91  C   UNL A   1      46.643  34.643  30.485  1.00  0.00     0.041 A 
ATOM     92  F   UNL A   1      46.077  32.466  31.145  1.00  0.00    -0.206 F 
ATOM     93  C   UNL A   1      46.587  35.676  29.554  1.00  0.00     0.022 A 
BRANCH  90  94
ATOM     94  S   UNL A   1      45.831  36.796  27.112  1.00  0.00     0.124 S 
ATOM     95  O   UNL A   1      46.739  37.786  27.680  1.00  0.00    -0.237 OA
ATOM     96  O   UNL A   1      46.313  36.095  25.926  1.00  0.00    -0.237 OA
ATOM     97  O   UNL A   1      44.427  37.197  27.063  1.00  0.00    -0.744 OA
ENDBRANCH  90  94
ENDBRANCH  64  87
ENDBRANCH  38  39
ENDBRANCH  31  33
ENDBRANCH  30  31
ENDBRANCH  29  30
ENDBRANCH   1  29
TORSDOF 19
ENDMDL
