MODEL 1
REMARK VINA RESULT:     -10.5      0.000      0.000
REMARK SMILES C/C(=N\Nc1nc(-c2ccc(Cl)cc2)cs1)c1nnn(-c2ccc(C(=O)OCCOCCOC(=O)c3ccc(-c4c5nc(c(-c6cc(S(=O)(=O)[O-])ccc6F)c6ccc([nH]6)c(-c6cc(S(=O)(=O)[O-])ccc6F)c6nc(c(-c7cc(S(=O)(=O)[O-])ccc7F)c7ccc4[nH]7)C=C6)C=C5)cc3)cc2)c1C
REMARK SMILES IDX 29 1 28 2 27 3 25 4 26 5 24 6 21 7 22 8 100 9 23 10 99 11
REMARK SMILES IDX 20 12 17 13 18 14 101 15 19 16 102 17 2 18 1 19 3 20 4 21
REMARK SMILES IDX 5 23 6 24 16 25 7 26 15 27 8 28 9 29 14 30 10 31 13 32 11 33
REMARK SMILES IDX 12 34 30 35 31 36 32 37 33 38 34 39 35 40 36 41 37 42 98 43
REMARK SMILES IDX 38 44 97 45 39 46 40 47 41 48 91 49 42 50 96 51 90 52 92 53
REMARK SMILES IDX 43 54 95 55 89 56 88 57 44 59 76 60 56 61 75 62 57 63 60 64
REMARK SMILES IDX 74 65 93 66 58 67 59 68 73 70 94 71 61 72 45 73 46 74 54 75
REMARK SMILES IDX 47 76 53 77 55 78 52 79 48 80 49 81 50 82 51 83 77 84 78 85
REMARK SMILES IDX 86 86 79 87 85 88 87 89 84 90 80 91 81 92 82 93 83 94 62 95
REMARK SMILES IDX 63 96 71 97 64 98 70 99 72 100 69 101 65 102 66 103 67 104
REMARK SMILES IDX 68 105
REMARK H PARENT 4 22 92 58 60 69
REMARK Flexibility Score: inf
ROOT
ATOM      1  C   UNL A   1      39.384  28.321  28.696  1.00  0.00     0.202 C 
ENDROOT
BRANCH   1   2
ATOM      2  C   UNL A   1      40.641  29.107  28.328  1.00  0.00     0.261 C 
BRANCH   2   3
ATOM      3  O   UNL A   1      41.330  28.532  27.208  1.00  0.00    -0.460 OA
BRANCH   3   4
ATOM      4  C   UNL A   1      42.487  27.909  27.519  1.00  0.00     0.338 C 
ATOM      5  O   UNL A   1      43.518  28.426  27.931  1.00  0.00    -0.246 OA
BRANCH   4   6
ATOM      6  C   UNL A   1      42.328  26.446  27.409  1.00  0.00     0.060 A 
ATOM      7  C   UNL A   1      41.556  23.822  27.014  1.00  0.00     0.067 A 
ATOM      8  C   UNL A   1      42.086  24.533  25.935  1.00  0.00     0.029 A 
ATOM      9  C   UNL A   1      41.580  24.353  28.313  1.00  0.00     0.029 A 
ATOM     10  C   UNL A   1      42.451  25.863  26.137  1.00  0.00     0.018 A 
ATOM     11  C   UNL A   1      41.969  25.672  28.514  1.00  0.00     0.018 A 
BRANCH   7  12
ATOM     12  N   UNL A   1      40.726  22.712  26.747  1.00  0.00    -0.217 N 
ATOM     13  C   UNL A   1      39.065  21.511  25.999  1.00  0.00     0.132 A 
ATOM     14  N   UNL A   1      40.180  20.723  26.066  1.00  0.00    -0.128 NA
ATOM     15  C   UNL A   1      39.381  22.793  26.417  1.00  0.00     0.071 A 
ATOM     16  N   UNL A   1      41.205  21.491  26.425  1.00  0.00    -0.061 NA
ATOM     17  C   UNL A   1      38.597  24.056  26.346  1.00  0.00     0.069 C 
BRANCH  13  18
ATOM     18  C   UNL A   1      37.796  21.108  25.409  1.00  0.00     0.087 C 
ATOM     19  C   UNL A   1      37.758  19.693  24.885  1.00  0.00     0.071 C 
ATOM     20  N   UNL A   1      36.888  22.037  25.322  1.00  0.00    -0.176 NA
BRANCH  20  21
ATOM     21  N   UNL A   1      35.710  21.918  24.624  1.00  0.00    -0.252 N 
ATOM     22  H   UNL A   1      35.639  21.097  24.085  1.00  0.00     0.193 HD
BRANCH  21  23
ATOM     23  C   UNL A   1      34.626  22.730  24.544  1.00  0.00     0.203 A 
ATOM     24  N   UNL A   1      34.580  24.002  24.867  1.00  0.00    -0.219 NA
ATOM     25  S   UNL A   1      33.099  22.091  24.038  1.00  0.00    -0.103 S 
ATOM     26  C   UNL A   1      33.275  24.421  25.019  1.00  0.00     0.084 A 
ATOM     27  C   UNL A   1      32.322  23.510  24.617  1.00  0.00     0.097 A 
BRANCH  26  28
ATOM     28  C   UNL A   1      32.998  25.708  25.631  1.00  0.00     0.001 A 
ATOM     29  C   UNL A   1      31.691  26.008  26.035  1.00  0.00     0.012 A 
ATOM     30  C   UNL A   1      33.990  26.694  25.727  1.00  0.00     0.012 A 
ATOM     31  C   UNL A   1      31.382  27.265  26.560  1.00  0.00     0.021 A 
ATOM     32  C   UNL A   1      33.678  27.957  26.242  1.00  0.00     0.021 A 
ATOM     33  C   UNL A   1      32.378  28.234  26.663  1.00  0.00     0.041 A 
ATOM     34  Cl  UNL A   1      31.998  29.785  27.301  1.00  0.00    -0.084 Cl
ENDBRANCH  26  28
ENDBRANCH  21  23
ENDBRANCH  20  21
ENDBRANCH  13  18
ENDBRANCH   7  12
ENDBRANCH   4   6
ENDBRANCH   3   4
ENDBRANCH   2   3
ENDBRANCH   1   2
BRANCH   1  35
ATOM     35  O   UNL A   1      38.126  28.784  28.209  1.00  0.00    -0.374 OA
BRANCH  35  36
ATOM     36  C   UNL A   1      37.619  30.056  28.602  1.00  0.00     0.202 C 
BRANCH  36  37
ATOM     37  C   UNL A   1      36.448  30.664  27.844  1.00  0.00     0.261 C 
BRANCH  37  38
ATOM     38  O   UNL A   1      36.266  32.036  28.147  1.00  0.00    -0.460 OA
BRANCH  38  39
ATOM     39  C   UNL A   1      35.213  32.275  28.955  1.00  0.00     0.338 C 
ATOM     40  O   UNL A   1      34.028  32.332  28.627  1.00  0.00    -0.246 OA
BRANCH  39  41
ATOM     41  C   UNL A   1      35.710  32.604  30.288  1.00  0.00     0.060 A 
ATOM     42  C   UNL A   1      36.709  33.576  30.338  1.00  0.00     0.016 A 
ATOM     43  C   UNL A   1      35.477  31.705  31.340  1.00  0.00     0.016 A 
ATOM     44  C   UNL A   1      37.672  33.452  31.309  1.00  0.00     0.010 A 
ATOM     45  C   UNL A   1      36.454  31.565  32.289  1.00  0.00     0.010 A 
ATOM     46  C   UNL A   1      37.583  32.373  32.193  1.00  0.00    -0.014 A 
BRANCH  46  47
ATOM     47  C   UNL A   1      38.671  32.160  33.117  1.00  0.00     0.031 A 
ATOM     48  C   UNL A   1      38.449  32.887  34.381  1.00  0.00     0.074 A 
ATOM     49  C   UNL A   1      39.677  31.303  32.868  1.00  0.00     0.049 A 
ATOM     50  N   UNL A   1      39.019  33.978  34.768  1.00  0.00    -0.248 NA
ATOM     51  C   UNL A   1      37.263  32.516  35.173  1.00  0.00     0.031 C 
ATOM     52  C   UNL A   1      39.825  30.360  31.757  1.00  0.00     0.029 A 
ATOM     53  N   UNL A   1      40.761  31.035  33.635  1.00  0.00    -0.354 N 
ATOM     54  C   UNL A   1      38.438  34.268  35.994  1.00  0.00     0.074 A 
ATOM     55  C   UNL A   1      37.204  33.538  36.023  1.00  0.00     0.031 C 
ATOM     56  C   UNL A   1      40.809  29.476  32.052  1.00  0.00     0.029 A 
ATOM     57  C   UNL A   1      41.439  29.867  33.305  1.00  0.00     0.049 A 
ATOM     58  H   UNL A   1      41.048  31.625  34.371  1.00  0.00     0.167 HD
ATOM     59  C   UNL A   1      39.174  34.811  37.001  1.00  0.00     0.034 A 
ATOM     60  C   UNL A   1      42.388  29.246  34.061  1.00  0.00     0.034 A 
ATOM     61  C   UNL A   1      40.390  35.403  36.476  1.00  0.00     0.049 A 
ATOM     62  C   UNL A   1      42.914  30.274  35.002  1.00  0.00     0.074 A 
ATOM     63  C   UNL A   1      40.655  36.399  35.555  1.00  0.00     0.029 A 
ATOM     64  N   UNL A   1      41.563  34.686  36.590  1.00  0.00    -0.354 N 
ATOM     65  N   UNL A   1      43.576  31.327  34.604  1.00  0.00    -0.248 NA
ATOM     66  C   UNL A   1      42.257  30.417  36.295  1.00  0.00     0.031 C 
ATOM     67  C   UNL A   1      41.781  35.930  34.816  1.00  0.00     0.029 A 
ATOM     68  C   UNL A   1      42.204  34.721  35.374  1.00  0.00     0.049 A 
ATOM     69  H   UNL A   1      41.885  34.228  37.401  1.00  0.00     0.167 HD
ATOM     70  C   UNL A   1      43.076  32.381  35.357  1.00  0.00     0.074 A 
ATOM     71  C   UNL A   1      42.331  31.746  36.443  1.00  0.00     0.031 C 
ATOM     72  C   UNL A   1      43.055  33.658  34.866  1.00  0.00     0.034 A 
BRANCH  59  73
ATOM     73  C   UNL A   1      39.012  34.429  38.461  1.00  0.00     0.023 A 
ATOM     74  C   UNL A   1      38.441  33.169  38.713  1.00  0.00     0.031 A 
ATOM     75  C   UNL A   1      39.106  35.285  39.585  1.00  0.00     0.131 A 
ATOM     76  C   UNL A   1      37.872  32.868  39.960  1.00  0.00     0.055 A 
ATOM     77  C   UNL A   1      38.591  34.957  40.842  1.00  0.00     0.041 A 
ATOM     78  F   UNL A   1      39.629  36.514  39.541  1.00  0.00    -0.206 F 
ATOM     79  C   UNL A   1      37.932  33.757  41.026  1.00  0.00     0.022 A 
BRANCH  76  80
ATOM     80  S   UNL A   1      36.884  31.361  40.097  1.00  0.00     0.124 S 
ATOM     81  O   UNL A   1      35.713  31.847  40.818  1.00  0.00    -0.237 OA
ATOM     82  O   UNL A   1      36.682  31.012  38.695  1.00  0.00    -0.237 OA
ATOM     83  O   UNL A   1      37.753  30.458  40.848  1.00  0.00    -0.744 OA
ENDBRANCH  76  80
ENDBRANCH  59  73
BRANCH  60  84
ATOM     84  C   UNL A   1      42.551  27.774  34.264  1.00  0.00     0.023 A 
ATOM     85  C   UNL A   1      43.516  26.993  33.587  1.00  0.00     0.031 A 
ATOM     86  C   UNL A   1      41.883  27.148  35.342  1.00  0.00     0.131 A 
ATOM     87  C   UNL A   1      43.766  25.654  33.989  1.00  0.00     0.055 A 
ATOM     88  C   UNL A   1      42.133  25.829  35.733  1.00  0.00     0.041 A 
ATOM     89  F   UNL A   1      41.018  27.826  36.112  1.00  0.00    -0.206 F 
ATOM     90  C   UNL A   1      43.082  25.079  35.062  1.00  0.00     0.022 A 
BRANCH  87  91
ATOM     91  S   UNL A   1      45.049  24.649  33.165  1.00  0.00     0.124 S 
ATOM     92  O   UNL A   1      46.278  25.170  33.751  1.00  0.00    -0.237 OA
ATOM     93  O   UNL A   1      44.674  23.291  33.540  1.00  0.00    -0.237 OA
ATOM     94  O   UNL A   1      44.869  24.961  31.746  1.00  0.00    -0.744 OA
ENDBRANCH  87  91
ENDBRANCH  60  84
BRANCH  72  95
ATOM     95  C   UNL A   1      43.820  33.945  33.583  1.00  0.00     0.023 A 
ATOM     96  C   UNL A   1      43.271  33.889  32.279  1.00  0.00     0.031 A 
ATOM     97  C   UNL A   1      45.136  34.418  33.712  1.00  0.00     0.131 A 
ATOM     98  C   UNL A   1      44.042  34.292  31.169  1.00  0.00     0.055 A 
ATOM     99  C   UNL A   1      45.887  34.838  32.613  1.00  0.00     0.041 A 
ATOM    100  F   UNL A   1      45.706  34.522  34.923  1.00  0.00    -0.206 F 
ATOM    101  C   UNL A   1      45.345  34.771  31.336  1.00  0.00     0.022 A 
BRANCH  98 102
ATOM    102  S   UNL A   1      43.369  34.190  29.475  1.00  0.00     0.124 S 
ATOM    103  O   UNL A   1      41.938  34.392  29.667  1.00  0.00    -0.237 OA
ATOM    104  O   UNL A   1      44.081  35.264  28.787  1.00  0.00    -0.237 OA
ATOM    105  O   UNL A   1      43.740  32.843  29.041  1.00  0.00    -0.744 OA
ENDBRANCH  98 102
ENDBRANCH  72  95
ENDBRANCH  46  47
ENDBRANCH  39  41
ENDBRANCH  38  39
ENDBRANCH  37  38
ENDBRANCH  36  37
ENDBRANCH  35  36
ENDBRANCH   1  35
TORSDOF 22
ENDMDL
MODEL 2
REMARK VINA RESULT:     -10.3      5.641     11.280
REMARK SMILES C/C(=N\Nc1nc(-c2ccc(Cl)cc2)cs1)c1nnn(-c2ccc(C(=O)OCCOCCOC(=O)c3ccc(-c4c5nc(c(-c6cc(S(=O)(=O)[O-])ccc6F)c6ccc([nH]6)c(-c6cc(S(=O)(=O)[O-])ccc6F)c6nc(c(-c7cc(S(=O)(=O)[O-])ccc7F)c7ccc4[nH]7)C=C6)C=C5)cc3)cc2)c1C
REMARK SMILES IDX 29 1 28 2 27 3 25 4 26 5 24 6 21 7 22 8 100 9 23 10 99 11
REMARK SMILES IDX 20 12 17 13 18 14 101 15 19 16 102 17 2 18 1 19 3 20 4 21
REMARK SMILES IDX 5 23 6 24 16 25 7 26 15 27 8 28 9 29 14 30 10 31 13 32 11 33
REMARK SMILES IDX 12 34 30 35 31 36 32 37 33 38 34 39 35 40 36 41 37 42 98 43
REMARK SMILES IDX 38 44 97 45 39 46 40 47 41 48 91 49 42 50 96 51 90 52 92 53
REMARK SMILES IDX 43 54 95 55 89 56 88 57 44 59 76 60 56 61 75 62 57 63 60 64
REMARK SMILES IDX 74 65 93 66 58 67 59 68 73 70 94 71 61 72 45 73 46 74 54 75
REMARK SMILES IDX 47 76 53 77 55 78 52 79 48 80 49 81 50 82 51 83 77 84 78 85
REMARK SMILES IDX 86 86 79 87 85 88 87 89 84 90 80 91 81 92 82 93 83 94 62 95
REMARK SMILES IDX 63 96 71 97 64 98 70 99 72 100 69 101 65 102 66 103 67 104
REMARK SMILES IDX 68 105
REMARK H PARENT 4 22 92 58 60 69
REMARK Flexibility Score: inf
ROOT
ATOM      1  C   UNL A   1      36.365  33.638  32.687  1.00  0.00     0.202 C 
ENDROOT
BRANCH   1   2
ATOM      2  C   UNL A   1      37.669  34.125  33.314  1.00  0.00     0.261 C 
BRANCH   2   3
ATOM      3  O   UNL A   1      38.795  33.921  32.450  1.00  0.00    -0.460 OA
BRANCH   3   4
ATOM      4  C   UNL A   1      39.943  34.490  32.875  1.00  0.00     0.338 C 
ATOM      5  O   UNL A   1      40.170  34.958  33.984  1.00  0.00    -0.246 OA
BRANCH   4   6
ATOM      6  C   UNL A   1      40.987  34.377  31.839  1.00  0.00     0.060 A 
ATOM      7  C   UNL A   1      42.915  34.688  29.884  1.00  0.00     0.067 A 
ATOM      8  C   UNL A   1      43.294  34.815  31.222  1.00  0.00     0.029 A 
ATOM      9  C   UNL A   1      41.635  34.234  29.533  1.00  0.00     0.029 A 
ATOM     10  C   UNL A   1      42.311  34.680  32.201  1.00  0.00     0.018 A 
ATOM     11  C   UNL A   1      40.664  34.075  30.515  1.00  0.00     0.018 A 
BRANCH   7  12
ATOM     12  N   UNL A   1      43.712  35.308  28.897  1.00  0.00    -0.217 N 
ATOM     13  C   UNL A   1      44.772  36.844  27.767  1.00  0.00     0.132 A 
ATOM     14  N   UNL A   1      45.448  35.662  27.640  1.00  0.00    -0.128 NA
ATOM     15  C   UNL A   1      43.662  36.656  28.573  1.00  0.00     0.071 A 
ATOM     16  N   UNL A   1      44.850  34.762  28.415  1.00  0.00    -0.061 NA
ATOM     17  C   UNL A   1      42.726  37.642  29.178  1.00  0.00     0.069 C 
BRANCH  13  18
ATOM     18  C   UNL A   1      45.249  38.131  27.279  1.00  0.00     0.087 C 
ATOM     19  C   UNL A   1      46.231  38.054  26.135  1.00  0.00     0.071 C 
ATOM     20  N   UNL A   1      44.844  39.176  27.941  1.00  0.00    -0.176 NA
BRANCH  20  21
ATOM     21  N   UNL A   1      45.333  40.449  27.770  1.00  0.00    -0.252 N 
ATOM     22  H   UNL A   1      46.174  40.629  28.249  1.00  0.00     0.193 HD
BRANCH  21  23
ATOM     23  C   UNL A   1      44.862  41.504  27.058  1.00  0.00     0.203 A 
ATOM     24  N   UNL A   1      44.077  41.448  26.007  1.00  0.00    -0.219 NA
ATOM     25  S   UNL A   1      45.349  43.113  27.470  1.00  0.00    -0.103 S 
ATOM     26  C   UNL A   1      44.095  42.643  25.319  1.00  0.00     0.084 A 
ATOM     27  C   UNL A   1      44.744  43.674  25.963  1.00  0.00     0.097 A 
BRANCH  26  28
ATOM     28  C   UNL A   1      43.515  42.718  23.990  1.00  0.00     0.001 A 
ATOM     29  C   UNL A   1      44.245  43.318  22.957  1.00  0.00     0.012 A 
ATOM     30  C   UNL A   1      42.200  42.295  23.747  1.00  0.00     0.012 A 
ATOM     31  C   UNL A   1      43.684  43.468  21.686  1.00  0.00     0.021 A 
ATOM     32  C   UNL A   1      41.634  42.456  22.478  1.00  0.00     0.021 A 
ATOM     33  C   UNL A   1      42.380  43.034  21.452  1.00  0.00     0.041 A 
ATOM     34  Cl  UNL A   1      41.684  43.225  19.891  1.00  0.00    -0.084 Cl
ENDBRANCH  26  28
ENDBRANCH  21  23
ENDBRANCH  20  21
ENDBRANCH  13  18
ENDBRANCH   7  12
ENDBRANCH   4   6
ENDBRANCH   3   4
ENDBRANCH   2   3
ENDBRANCH   1   2
BRANCH   1  35
ATOM     35  O   UNL A   1      35.663  34.515  31.807  1.00  0.00    -0.374 OA
BRANCH  35  36
ATOM     36  C   UNL A   1      34.756  33.999  30.839  1.00  0.00     0.202 C 
BRANCH  36  37
ATOM     37  C   UNL A   1      34.645  32.494  30.642  1.00  0.00     0.261 C 
BRANCH  37  38
ATOM     38  O   UNL A   1      34.569  32.137  29.273  1.00  0.00    -0.460 OA
BRANCH  38  39
ATOM     39  C   UNL A   1      35.775  31.969  28.691  1.00  0.00     0.338 C 
ATOM     40  O   UNL A   1      36.111  32.342  27.568  1.00  0.00    -0.246 OA
BRANCH  39  41
ATOM     41  C   UNL A   1      36.602  31.135  29.559  1.00  0.00     0.060 A 
ATOM     42  C   UNL A   1      37.727  31.757  30.101  1.00  0.00     0.016 A 
ATOM     43  C   UNL A   1      36.472  29.740  29.485  1.00  0.00     0.016 A 
ATOM     44  C   UNL A   1      38.850  30.991  30.291  1.00  0.00     0.010 A 
ATOM     45  C   UNL A   1      37.600  28.983  29.646  1.00  0.00     0.010 A 
ATOM     46  C   UNL A   1      38.793  29.637  29.944  1.00  0.00    -0.014 A 
BRANCH  46  47
ATOM     47  C   UNL A   1      40.011  28.868  30.005  1.00  0.00     0.031 A 
ATOM     48  C   UNL A   1      40.421  28.624  31.401  1.00  0.00     0.074 A 
ATOM     49  C   UNL A   1      40.599  28.353  28.910  1.00  0.00     0.049 A 
ATOM     50  N   UNL A   1      41.369  29.209  32.054  1.00  0.00    -0.248 NA
ATOM     51  C   UNL A   1      39.497  27.850  32.249  1.00  0.00     0.031 C 
ATOM     52  C   UNL A   1      40.111  28.334  27.530  1.00  0.00     0.029 A 
ATOM     53  N   UNL A   1      41.750  27.642  28.832  1.00  0.00    -0.354 N 
ATOM     54  C   UNL A   1      41.318  28.658  33.326  1.00  0.00     0.074 A 
ATOM     55  C   UNL A   1      40.005  28.095  33.455  1.00  0.00     0.031 C 
ATOM     56  C   UNL A   1      40.846  27.452  26.811  1.00  0.00     0.029 A 
ATOM     57  C   UNL A   1      41.927  26.943  27.643  1.00  0.00     0.049 A 
ATOM     58  H   UNL A   1      42.411  27.622  29.562  1.00  0.00     0.167 HD
ATOM     59  C   UNL A   1      42.459  28.422  34.027  1.00  0.00     0.034 A 
ATOM     60  C   UNL A   1      42.852  25.969  27.411  1.00  0.00     0.034 A 
ATOM     61  C   UNL A   1      43.558  29.195  33.480  1.00  0.00     0.049 A 
ATOM     62  C   UNL A   1      43.919  26.152  28.434  1.00  0.00     0.074 A 
ATOM     63  C   UNL A   1      43.784  30.546  33.293  1.00  0.00     0.029 A 
ATOM     64  N   UNL A   1      44.452  28.553  32.649  1.00  0.00    -0.354 N 
ATOM     65  N   UNL A   1      44.688  27.207  28.476  1.00  0.00    -0.248 NA
ATOM     66  C   UNL A   1      43.780  25.446  29.702  1.00  0.00     0.031 C 
ATOM     67  C   UNL A   1      44.434  30.640  32.026  1.00  0.00     0.029 A 
ATOM     68  C   UNL A   1      44.652  29.348  31.544  1.00  0.00     0.049 A 
ATOM     69  H   UNL A   1      44.874  27.679  32.817  1.00  0.00     0.167 HD
ATOM     70  C   UNL A   1      44.775  27.545  29.820  1.00  0.00     0.074 A 
ATOM     71  C   UNL A   1      44.269  26.373  30.535  1.00  0.00     0.031 C 
ATOM     72  C   UNL A   1      44.959  28.842  30.216  1.00  0.00     0.034 A 
BRANCH  59  73
ATOM     73  C   UNL A   1      42.672  27.198  34.900  1.00  0.00     0.023 A 
ATOM     74  C   UNL A   1      43.502  26.196  34.370  1.00  0.00     0.031 A 
ATOM     75  C   UNL A   1      41.927  26.824  36.044  1.00  0.00     0.131 A 
ATOM     76  C   UNL A   1      43.458  24.883  34.864  1.00  0.00     0.055 A 
ATOM     77  C   UNL A   1      41.932  25.529  36.570  1.00  0.00     0.041 A 
ATOM     78  F   UNL A   1      41.094  27.645  36.691  1.00  0.00    -0.206 F 
ATOM     79  C   UNL A   1      42.670  24.537  35.955  1.00  0.00     0.022 A 
BRANCH  76  80
ATOM     80  S   UNL A   1      44.312  23.597  33.924  1.00  0.00     0.124 S 
ATOM     81  O   UNL A   1      45.669  24.129  33.873  1.00  0.00    -0.237 OA
ATOM     82  O   UNL A   1      44.106  22.427  34.771  1.00  0.00    -0.237 OA
ATOM     83  O   UNL A   1      43.596  23.582  32.650  1.00  0.00    -0.744 OA
ENDBRANCH  76  80
ENDBRANCH  59  73
BRANCH  60  84
ATOM     84  C   UNL A   1      42.649  24.704  26.641  1.00  0.00     0.023 A 
ATOM     85  C   UNL A   1      43.649  24.107  25.840  1.00  0.00     0.031 A 
ATOM     86  C   UNL A   1      41.494  23.924  26.886  1.00  0.00     0.131 A 
ATOM     87  C   UNL A   1      43.465  22.798  25.320  1.00  0.00     0.055 A 
ATOM     88  C   UNL A   1      41.319  22.637  26.371  1.00  0.00     0.041 A 
ATOM     89  F   UNL A   1      40.526  24.355  27.710  1.00  0.00    -0.206 F 
ATOM     90  C   UNL A   1      42.309  22.065  25.592  1.00  0.00     0.022 A 
BRANCH  87  91
ATOM     91  S   UNL A   1      44.770  21.988  24.333  1.00  0.00     0.124 S 
ATOM     92  O   UNL A   1      44.608  22.614  23.026  1.00  0.00    -0.237 OA
ATOM     93  O   UNL A   1      45.981  22.328  25.071  1.00  0.00    -0.237 OA
ATOM     94  O   UNL A   1      44.405  20.571  24.380  1.00  0.00    -0.744 OA
ENDBRANCH  87  91
ENDBRANCH  60  84
BRANCH  72  95
ATOM     95  C   UNL A   1      45.321  29.870  29.156  1.00  0.00     0.023 A 
ATOM     96  C   UNL A   1      46.638  30.170  28.729  1.00  0.00     0.031 A 
ATOM     97  C   UNL A   1      44.262  30.479  28.464  1.00  0.00     0.131 A 
ATOM     98  C   UNL A   1      46.848  31.057  27.653  1.00  0.00     0.055 A 
ATOM     99  C   UNL A   1      44.473  31.338  27.385  1.00  0.00     0.041 A 
ATOM    100  F   UNL A   1      42.989  30.216  28.801  1.00  0.00    -0.206 F 
ATOM    101  C   UNL A   1      45.768  31.634  26.978  1.00  0.00     0.022 A 
BRANCH  98 102
ATOM    102  S   UNL A   1      48.536  31.489  27.112  1.00  0.00     0.124 S 
ATOM    103  O   UNL A   1      49.162  31.996  28.327  1.00  0.00    -0.237 OA
ATOM    104  O   UNL A   1      49.045  30.213  26.613  1.00  0.00    -0.237 OA
ATOM    105  O   UNL A   1      48.314  32.498  26.075  1.00  0.00    -0.744 OA
ENDBRANCH  98 102
ENDBRANCH  72  95
ENDBRANCH  46  47
ENDBRANCH  39  41
ENDBRANCH  38  39
ENDBRANCH  37  38
ENDBRANCH  36  37
ENDBRANCH  35  36
ENDBRANCH   1  35
TORSDOF 22
ENDMDL
MODEL 3
REMARK VINA RESULT:     -10.1      4.685     10.241
REMARK SMILES C/C(=N\Nc1nc(-c2ccc(Cl)cc2)cs1)c1nnn(-c2ccc(C(=O)OCCOCCOC(=O)c3ccc(-c4c5nc(c(-c6cc(S(=O)(=O)[O-])ccc6F)c6ccc([nH]6)c(-c6cc(S(=O)(=O)[O-])ccc6F)c6nc(c(-c7cc(S(=O)(=O)[O-])ccc7F)c7ccc4[nH]7)C=C6)C=C5)cc3)cc2)c1C
REMARK SMILES IDX 29 1 28 2 27 3 25 4 26 5 24 6 21 7 22 8 100 9 23 10 99 11
REMARK SMILES IDX 20 12 17 13 18 14 101 15 19 16 102 17 2 18 1 19 3 20 4 21
REMARK SMILES IDX 5 23 6 24 16 25 7 26 15 27 8 28 9 29 14 30 10 31 13 32 11 33
REMARK SMILES IDX 12 34 30 35 31 36 32 37 33 38 34 39 35 40 36 41 37 42 98 43
REMARK SMILES IDX 38 44 97 45 39 46 40 47 41 48 91 49 42 50 96 51 90 52 92 53
REMARK SMILES IDX 43 54 95 55 89 56 88 57 44 59 76 60 56 61 75 62 57 63 60 64
REMARK SMILES IDX 74 65 93 66 58 67 59 68 73 70 94 71 61 72 45 73 46 74 54 75
REMARK SMILES IDX 47 76 53 77 55 78 52 79 48 80 49 81 50 82 51 83 77 84 78 85
REMARK SMILES IDX 86 86 79 87 85 88 87 89 84 90 80 91 81 92 82 93 83 94 62 95
REMARK SMILES IDX 63 96 71 97 64 98 70 99 72 100 69 101 65 102 66 103 67 104
REMARK SMILES IDX 68 105
REMARK H PARENT 4 22 92 58 60 69
REMARK Flexibility Score: inf
ROOT
ATOM      1  C   UNL A   1      41.707  33.541  36.961  1.00  0.00     0.202 C 
ENDROOT
BRANCH   1   2
ATOM      2  C   UNL A   1      42.165  34.738  36.131  1.00  0.00     0.261 C 
BRANCH   2   3
ATOM      3  O   UNL A   1      41.295  34.991  35.019  1.00  0.00    -0.460 OA
BRANCH   3   4
ATOM      4  C   UNL A   1      41.712  34.467  33.847  1.00  0.00     0.338 C 
ATOM      5  O   UNL A   1      42.859  34.437  33.416  1.00  0.00    -0.246 OA
BRANCH   4   6
ATOM      6  C   UNL A   1      40.594  33.797  33.156  1.00  0.00     0.060 A 
ATOM      7  C   UNL A   1      38.666  32.806  31.441  1.00  0.00     0.067 A 
ATOM      8  C   UNL A   1      39.919  32.191  31.465  1.00  0.00     0.029 A 
ATOM      9  C   UNL A   1      38.320  33.783  32.388  1.00  0.00     0.029 A 
ATOM     10  C   UNL A   1      40.894  32.712  32.315  1.00  0.00     0.018 A 
ATOM     11  C   UNL A   1      39.289  34.282  33.252  1.00  0.00     0.018 A 
BRANCH   7  12
ATOM     12  N   UNL A   1      37.869  32.666  30.285  1.00  0.00    -0.217 N 
ATOM     13  C   UNL A   1      36.118  32.478  28.996  1.00  0.00     0.132 A 
ATOM     14  N   UNL A   1      37.114  33.100  28.295  1.00  0.00    -0.128 NA
ATOM     15  C   UNL A   1      36.564  32.196  30.277  1.00  0.00     0.071 A 
ATOM     16  N   UNL A   1      38.136  33.299  29.121  1.00  0.00    -0.061 NA
ATOM     17  C   UNL A   1      35.824  31.719  31.477  1.00  0.00     0.069 C 
BRANCH  13  18
ATOM     18  C   UNL A   1      34.751  32.308  28.525  1.00  0.00     0.087 C 
ATOM     19  C   UNL A   1      33.873  33.528  28.660  1.00  0.00     0.071 C 
ATOM     20  N   UNL A   1      34.430  31.108  28.132  1.00  0.00    -0.176 NA
BRANCH  20  21
ATOM     21  N   UNL A   1      33.151  30.695  27.844  1.00  0.00    -0.252 N 
ATOM     22  H   UNL A   1      32.478  30.965  28.510  1.00  0.00     0.193 HD
BRANCH  21  23
ATOM     23  C   UNL A   1      32.651  29.979  26.806  1.00  0.00     0.203 A 
ATOM     24  N   UNL A   1      32.103  30.464  25.716  1.00  0.00    -0.219 NA
ATOM     25  S   UNL A   1      32.635  28.249  26.875  1.00  0.00    -0.103 S 
ATOM     26  C   UNL A   1      31.381  29.491  25.057  1.00  0.00     0.084 A 
ATOM     27  C   UNL A   1      31.545  28.214  25.546  1.00  0.00     0.097 A 
BRANCH  26  28
ATOM     28  C   UNL A   1      30.480  29.867  23.982  1.00  0.00     0.001 A 
ATOM     29  C   UNL A   1      30.614  29.255  22.730  1.00  0.00     0.012 A 
ATOM     30  C   UNL A   1      29.550  30.904  24.145  1.00  0.00     0.012 A 
ATOM     31  C   UNL A   1      29.808  29.648  21.658  1.00  0.00     0.021 A 
ATOM     32  C   UNL A   1      28.751  31.306  23.068  1.00  0.00     0.021 A 
ATOM     33  C   UNL A   1      28.879  30.672  21.834  1.00  0.00     0.041 A 
ATOM     34  Cl  UNL A   1      27.892  31.164  20.513  1.00  0.00    -0.084 Cl
ENDBRANCH  26  28
ENDBRANCH  21  23
ENDBRANCH  20  21
ENDBRANCH  13  18
ENDBRANCH   7  12
ENDBRANCH   4   6
ENDBRANCH   3   4
ENDBRANCH   2   3
ENDBRANCH   1   2
BRANCH   1  35
ATOM     35  O   UNL A   1      40.370  33.531  37.459  1.00  0.00    -0.374 OA
BRANCH  35  36
ATOM     36  C   UNL A   1      39.528  32.400  37.257  1.00  0.00     0.202 C 
BRANCH  36  37
ATOM     37  C   UNL A   1      39.134  32.003  35.841  1.00  0.00     0.261 C 
BRANCH  37  38
ATOM     38  O   UNL A   1      39.797  30.827  35.411  1.00  0.00    -0.460 OA
BRANCH  38  39
ATOM     39  C   UNL A   1      39.214  30.237  34.347  1.00  0.00     0.338 C 
ATOM     40  O   UNL A   1      38.063  30.407  33.948  1.00  0.00    -0.246 OA
BRANCH  39  41
ATOM     41  C   UNL A   1      40.128  29.235  33.807  1.00  0.00     0.060 A 
ATOM     42  C   UNL A   1      41.426  29.263  34.318  1.00  0.00     0.016 A 
ATOM     43  C   UNL A   1      39.808  28.607  32.594  1.00  0.00     0.016 A 
ATOM     44  C   UNL A   1      42.453  28.928  33.470  1.00  0.00     0.010 A 
ATOM     45  C   UNL A   1      40.834  28.302  31.740  1.00  0.00     0.010 A 
ATOM     46  C   UNL A   1      42.135  28.568  32.157  1.00  0.00    -0.014 A 
BRANCH  46  47
ATOM     47  C   UNL A   1      43.219  28.359  31.228  1.00  0.00     0.031 A 
ATOM     48  C   UNL A   1      43.302  29.459  30.249  1.00  0.00     0.074 A 
ATOM     49  C   UNL A   1      44.093  27.344  31.350  1.00  0.00     0.049 A 
ATOM     50  N   UNL A   1      42.928  29.440  29.014  1.00  0.00    -0.248 NA
ATOM     51  C   UNL A   1      43.570  30.810  30.774  1.00  0.00     0.031 C 
ATOM     52  C   UNL A   1      44.226  26.373  32.437  1.00  0.00     0.029 A 
ATOM     53  N   UNL A   1      45.128  27.027  30.535  1.00  0.00    -0.354 N 
ATOM     54  C   UNL A   1      43.178  30.722  28.546  1.00  0.00     0.074 A 
ATOM     55  C   UNL A   1      43.267  31.552  29.711  1.00  0.00     0.031 C 
ATOM     56  C   UNL A   1      45.416  25.735  32.320  1.00  0.00     0.029 A 
ATOM     57  C   UNL A   1      46.064  26.159  31.088  1.00  0.00     0.049 A 
ATOM     58  H   UNL A   1      45.212  27.383  29.621  1.00  0.00     0.167 HD
ATOM     59  C   UNL A   1      43.616  30.923  27.274  1.00  0.00     0.034 A 
ATOM     60  C   UNL A   1      47.303  25.887  30.590  1.00  0.00     0.034 A 
ATOM     61  C   UNL A   1      43.346  29.757  26.454  1.00  0.00     0.049 A 
ATOM     62  C   UNL A   1      47.267  26.262  29.149  1.00  0.00     0.074 A 
ATOM     63  C   UNL A   1      42.196  29.077  26.100  1.00  0.00     0.029 A 
ATOM     64  N   UNL A   1      44.383  28.881  26.210  1.00  0.00    -0.354 N 
ATOM     65  N   UNL A   1      46.517  25.646  28.274  1.00  0.00    -0.248 NA
ATOM     66  C   UNL A   1      47.635  27.625  28.787  1.00  0.00     0.031 C 
ATOM     67  C   UNL A   1      42.556  27.697  26.139  1.00  0.00     0.029 A 
ATOM     68  C   UNL A   1      43.920  27.603  26.425  1.00  0.00     0.049 A 
ATOM     69  H   UNL A   1      45.295  29.127  25.930  1.00  0.00     0.167 HD
ATOM     70  C   UNL A   1      45.970  26.651  27.488  1.00  0.00     0.074 A 
ATOM     71  C   UNL A   1      46.764  27.841  27.793  1.00  0.00     0.031 C 
ATOM     72  C   UNL A   1      44.744  26.503  26.898  1.00  0.00     0.034 A 
BRANCH  59  73
ATOM     73  C   UNL A   1      44.652  31.968  26.898  1.00  0.00     0.023 A 
ATOM     74  C   UNL A   1      45.994  31.627  27.143  1.00  0.00     0.031 A 
ATOM     75  C   UNL A   1      44.421  33.331  26.594  1.00  0.00     0.131 A 
ATOM     76  C   UNL A   1      46.988  32.614  27.228  1.00  0.00     0.055 A 
ATOM     77  C   UNL A   1      45.426  34.302  26.621  1.00  0.00     0.041 A 
ATOM     78  F   UNL A   1      43.215  33.838  26.323  1.00  0.00    -0.206 F 
ATOM     79  C   UNL A   1      46.713  33.953  26.979  1.00  0.00     0.022 A 
BRANCH  76  80
ATOM     80  S   UNL A   1      48.610  32.128  27.858  1.00  0.00     0.124 S 
ATOM     81  O   UNL A   1      49.250  31.620  26.650  1.00  0.00    -0.237 OA
ATOM     82  O   UNL A   1      49.117  33.394  28.377  1.00  0.00    -0.237 OA
ATOM     83  O   UNL A   1      48.290  31.121  28.868  1.00  0.00    -0.744 OA
ENDBRANCH  76  80
ENDBRANCH  59  73
BRANCH  60  84
ATOM     84  C   UNL A   1      48.566  25.714  31.371  1.00  0.00     0.023 A 
ATOM     85  C   UNL A   1      48.626  25.765  32.782  1.00  0.00     0.031 A 
ATOM     86  C   UNL A   1      49.728  25.249  30.711  1.00  0.00     0.131 A 
ATOM     87  C   UNL A   1      49.807  25.372  33.465  1.00  0.00     0.055 A 
ATOM     88  C   UNL A   1      50.888  24.864  31.388  1.00  0.00     0.041 A 
ATOM     89  F   UNL A   1      49.748  25.071  29.381  1.00  0.00    -0.206 F 
ATOM     90  C   UNL A   1      50.930  24.916  32.770  1.00  0.00     0.022 A 
BRANCH  87  91
ATOM     91  S   UNL A   1      49.884  25.375  35.290  1.00  0.00     0.124 S 
ATOM     92  O   UNL A   1      51.006  26.268  35.554  1.00  0.00    -0.237 OA
ATOM     93  O   UNL A   1      48.562  25.866  35.659  1.00  0.00    -0.237 OA
ATOM     94  O   UNL A   1      50.129  23.971  35.624  1.00  0.00    -0.744 OA
ENDBRANCH  87  91
ENDBRANCH  60  84
BRANCH  72  95
ATOM     95  C   UNL A   1      44.106  25.123  26.909  1.00  0.00     0.023 A 
ATOM     96  C   UNL A   1      44.436  24.067  26.025  1.00  0.00     0.031 A 
ATOM     97  C   UNL A   1      43.209  24.838  27.952  1.00  0.00     0.131 A 
ATOM     98  C   UNL A   1      43.864  22.789  26.205  1.00  0.00     0.055 A 
ATOM     99  C   UNL A   1      42.664  23.568  28.139  1.00  0.00     0.041 A 
ATOM    100  F   UNL A   1      42.876  25.789  28.840  1.00  0.00    -0.206 F 
ATOM    101  C   UNL A   1      42.985  22.539  27.263  1.00  0.00     0.022 A 
BRANCH  98 102
ATOM    102  S   UNL A   1      44.244  21.424  25.055  1.00  0.00     0.124 S 
ATOM    103  O   UNL A   1      44.254  22.073  23.749  1.00  0.00    -0.237 OA
ATOM    104  O   UNL A   1      45.536  20.949  25.544  1.00  0.00    -0.237 OA
ATOM    105  O   UNL A   1      43.138  20.488  25.260  1.00  0.00    -0.744 OA
ENDBRANCH  98 102
ENDBRANCH  72  95
ENDBRANCH  46  47
ENDBRANCH  39  41
ENDBRANCH  38  39
ENDBRANCH  37  38
ENDBRANCH  36  37
ENDBRANCH  35  36
ENDBRANCH   1  35
TORSDOF 22
ENDMDL
