MODEL 1
REMARK VINA RESULT:     -11.5      0.000      0.000
REMARK SMILES O=C(OCCOCCOC(=O)c1cc(-c2cccc(C(F)(F)F)c2)nc2c(F)cccc12)c1ccc(-c2c3nc(c(-c4cc(S(=O)(=O)[O-])ccc4F)c4ccc([nH]4)c(-c4cc(S(=O)(=O)[O-])ccc4F)c4nc(c(-c5cc(S(=O)(=O)[O-])ccc5F)c5ccc2[nH]5)C=C4)C=C3)cc1
REMARK SMILES IDX 5 1 4 2 3 3 2 4 1 5 33 6 34 7 95 8 35 9 94 10 36 11 37 12
REMARK SMILES IDX 38 13 88 14 39 15 93 16 87 17 89 18 40 19 92 20 86 21 85 22
REMARK SMILES IDX 41 24 73 25 53 26 72 27 54 28 57 29 71 30 90 31 55 32 56 33
REMARK SMILES IDX 70 35 91 36 58 37 42 38 43 39 51 40 44 41 50 42 52 43 49 44
REMARK SMILES IDX 45 45 46 46 47 47 48 48 74 49 75 50 83 51 76 52 82 53 84 54
REMARK SMILES IDX 81 55 77 56 78 57 79 58 80 59 59 60 60 61 68 62 61 63 67 64
REMARK SMILES IDX 69 65 66 66 62 67 63 68 64 69 65 70 6 71 7 72 8 73 9 74
REMARK SMILES IDX 10 75 11 76 12 77 13 78 32 79 14 80 26 81 31 82 25 83 27 84
REMARK SMILES IDX 30 85 28 86 29 87 15 88 16 89 24 90 17 91 19 92 18 93 20 94
REMARK SMILES IDX 21 95 22 96 23 97
REMARK H PARENT 89 23 57 34
REMARK Flexibility Score: inf
ROOT
ATOM      1  C   UNL A   1      40.253  20.841  26.806  1.00  0.00     0.202 C 
ENDROOT
BRANCH   1   2
ATOM      2  C   UNL A   1      40.703  19.613  26.010  1.00  0.00     0.261 C 
BRANCH   2   3
ATOM      3  O   UNL A   1      42.130  19.465  26.090  1.00  0.00    -0.460 OA
BRANCH   3   4
ATOM      4  C   UNL A   1      43.088  20.176  25.453  1.00  0.00     0.338 C 
ATOM      5  O   UNL A   1      43.723  19.621  24.556  1.00  0.00    -0.246 OA
BRANCH   4   6
ATOM      6  C   UNL A   1      43.441  21.591  25.789  1.00  0.00     0.060 A 
ATOM      7  C   UNL A   1      43.349  22.670  24.910  1.00  0.00     0.016 A 
ATOM      8  C   UNL A   1      43.794  21.861  27.123  1.00  0.00     0.016 A 
ATOM      9  C   UNL A   1      43.632  23.965  25.310  1.00  0.00     0.010 A 
ATOM     10  C   UNL A   1      44.054  23.169  27.547  1.00  0.00     0.010 A 
ATOM     11  C   UNL A   1      43.980  24.221  26.630  1.00  0.00    -0.014 A 
BRANCH  11  12
ATOM     12  C   UNL A   1      44.363  25.601  26.967  1.00  0.00     0.031 A 
ATOM     13  C   UNL A   1      43.330  26.485  27.592  1.00  0.00     0.074 A 
ATOM     14  C   UNL A   1      45.652  25.970  26.861  1.00  0.00     0.049 A 
ATOM     15  N   UNL A   1      43.423  27.728  27.969  1.00  0.00    -0.248 NA
ATOM     16  C   UNL A   1      42.016  25.869  27.843  1.00  0.00     0.031 C 
ATOM     17  C   UNL A   1      46.738  25.101  26.395  1.00  0.00     0.029 A 
ATOM     18  N   UNL A   1      46.278  27.147  27.169  1.00  0.00    -0.354 N 
ATOM     19  C   UNL A   1      42.175  28.055  28.486  1.00  0.00     0.074 A 
ATOM     20  C   UNL A   1      41.341  26.880  28.365  1.00  0.00     0.031 C 
ATOM     21  C   UNL A   1      47.897  25.772  26.469  1.00  0.00     0.029 A 
ATOM     22  C   UNL A   1      47.629  27.134  26.912  1.00  0.00     0.049 A 
ATOM     23  H   UNL A   1      45.806  27.927  27.540  1.00  0.00     0.167 HD
ATOM     24  C   UNL A   1      41.771  29.242  28.998  1.00  0.00     0.034 A 
ATOM     25  C   UNL A   1      48.530  28.134  26.990  1.00  0.00     0.034 A 
ATOM     26  C   UNL A   1      42.638  30.391  29.066  1.00  0.00     0.049 A 
ATOM     27  C   UNL A   1      48.029  29.479  27.455  1.00  0.00     0.074 A 
ATOM     28  C   UNL A   1      42.342  31.682  29.462  1.00  0.00     0.029 A 
ATOM     29  N   UNL A   1      43.986  30.379  28.715  1.00  0.00    -0.354 N 
ATOM     30  N   UNL A   1      46.820  29.815  27.852  1.00  0.00    -0.248 NA
ATOM     31  C   UNL A   1      48.999  30.577  27.475  1.00  0.00     0.031 C 
ATOM     32  C   UNL A   1      43.494  32.461  29.290  1.00  0.00     0.029 A 
ATOM     33  C   UNL A   1      44.529  31.644  28.860  1.00  0.00     0.049 A 
ATOM     34  H   UNL A   1      44.481  29.586  28.407  1.00  0.00     0.167 HD
ATOM     35  C   UNL A   1      46.887  31.163  28.179  1.00  0.00     0.074 A 
ATOM     36  C   UNL A   1      48.264  31.568  27.959  1.00  0.00     0.031 C 
ATOM     37  C   UNL A   1      45.909  32.000  28.616  1.00  0.00     0.034 A 
BRANCH  24  38
ATOM     38  C   UNL A   1      40.320  29.351  29.391  1.00  0.00     0.023 A 
ATOM     39  C   UNL A   1      39.899  29.263  30.731  1.00  0.00     0.031 A 
ATOM     40  C   UNL A   1      39.329  29.429  28.395  1.00  0.00     0.131 A 
ATOM     41  C   UNL A   1      38.530  29.167  31.030  1.00  0.00     0.055 A 
ATOM     42  C   UNL A   1      37.968  29.415  28.706  1.00  0.00     0.041 A 
ATOM     43  F   UNL A   1      39.668  29.478  27.098  1.00  0.00    -0.206 F 
ATOM     44  C   UNL A   1      37.561  29.265  30.029  1.00  0.00     0.022 A 
BRANCH  41  45
ATOM     45  S   UNL A   1      38.036  28.745  32.726  1.00  0.00     0.124 S 
ATOM     46  O   UNL A   1      39.048  29.448  33.511  1.00  0.00    -0.237 OA
ATOM     47  O   UNL A   1      36.683  29.279  32.805  1.00  0.00    -0.237 OA
ATOM     48  O   UNL A   1      38.135  27.287  32.759  1.00  0.00    -0.744 OA
ENDBRANCH  41  45
ENDBRANCH  24  38
BRANCH  25  49
ATOM     49  C   UNL A   1      49.941  27.930  26.543  1.00  0.00     0.023 A 
ATOM     50  C   UNL A   1      50.349  28.212  25.231  1.00  0.00     0.031 A 
ATOM     51  C   UNL A   1      50.902  27.400  27.426  1.00  0.00     0.131 A 
ATOM     52  C   UNL A   1      51.668  27.931  24.830  1.00  0.00     0.055 A 
ATOM     53  C   UNL A   1      52.224  27.176  27.041  1.00  0.00     0.041 A 
ATOM     54  F   UNL A   1      50.570  27.100  28.693  1.00  0.00    -0.206 F 
ATOM     55  C   UNL A   1      52.611  27.430  25.731  1.00  0.00     0.022 A 
BRANCH  52  56
ATOM     56  S   UNL A   1      52.118  28.147  23.085  1.00  0.00     0.124 S 
ATOM     57  O   UNL A   1      52.472  26.786  22.699  1.00  0.00    -0.237 OA
ATOM     58  O   UNL A   1      50.882  28.676  22.517  1.00  0.00    -0.237 OA
ATOM     59  O   UNL A   1      53.232  29.091  23.135  1.00  0.00    -0.744 OA
ENDBRANCH  52  56
ENDBRANCH  25  49
BRANCH  37  60
ATOM     60  C   UNL A   1      46.323  33.419  28.906  1.00  0.00     0.023 A 
ATOM     61  C   UNL A   1      46.316  34.404  27.905  1.00  0.00     0.031 A 
ATOM     62  C   UNL A   1      46.730  33.783  30.201  1.00  0.00     0.131 A 
ATOM     63  C   UNL A   1      46.765  35.698  28.202  1.00  0.00     0.055 A 
ATOM     64  C   UNL A   1      47.116  35.087  30.505  1.00  0.00     0.041 A 
ATOM     65  F   UNL A   1      46.753  32.875  31.190  1.00  0.00    -0.206 F 
ATOM     66  C   UNL A   1      47.148  36.050  29.499  1.00  0.00     0.022 A 
BRANCH  63  67
ATOM     67  S   UNL A   1      46.925  36.892  26.849  1.00  0.00     0.124 S 
ATOM     68  O   UNL A   1      46.831  36.032  25.674  1.00  0.00    -0.237 OA
ATOM     69  O   UNL A   1      45.793  37.782  27.080  1.00  0.00    -0.237 OA
ATOM     70  O   UNL A   1      48.240  37.491  27.075  1.00  0.00    -0.744 OA
ENDBRANCH  63  67
ENDBRANCH  37  60
ENDBRANCH  11  12
ENDBRANCH   4   6
ENDBRANCH   3   4
ENDBRANCH   2   3
ENDBRANCH   1   2
BRANCH   1  71
ATOM     71  O   UNL A   1      40.007  22.008  26.023  1.00  0.00    -0.374 OA
BRANCH  71  72
ATOM     72  C   UNL A   1      38.865  22.788  26.399  1.00  0.00     0.202 C 
BRANCH  72  73
ATOM     73  C   UNL A   1      37.694  22.416  25.492  1.00  0.00     0.261 C 
BRANCH  73  74
ATOM     74  O   UNL A   1      37.236  23.626  24.871  1.00  0.00    -0.460 OA
BRANCH  74  75
ATOM     75  C   UNL A   1      36.326  23.468  23.879  1.00  0.00     0.338 C 
ATOM     76  O   UNL A   1      36.514  23.062  22.746  1.00  0.00    -0.246 OA
BRANCH  75  77
ATOM     77  C   UNL A   1      34.986  23.646  24.475  1.00  0.00     0.071 A 
ATOM     78  C   UNL A   1      34.613  24.965  24.738  1.00  0.00     0.045 A 
ATOM     79  C   UNL A   1      34.089  22.576  24.683  1.00  0.00     0.018 A 
ATOM     80  C   UNL A   1      33.319  25.207  25.146  1.00  0.00     0.072 A 
ATOM     81  C   UNL A   1      32.796  22.925  25.114  1.00  0.00     0.107 A 
ATOM     82  C   UNL A   1      34.417  21.207  24.491  1.00  0.00     0.011 A 
ATOM     83  N   UNL A   1      32.427  24.209  25.332  1.00  0.00    -0.245 NA
ATOM     84  C   UNL A   1      31.881  21.888  25.306  1.00  0.00     0.149 A 
ATOM     85  C   UNL A   1      33.478  20.200  24.687  1.00  0.00     0.004 A 
ATOM     86  F   UNL A   1      30.631  22.168  25.708  1.00  0.00    -0.205 F 
ATOM     87  C   UNL A   1      32.201  20.545  25.096  1.00  0.00     0.041 A 
BRANCH  80  88
ATOM     88  C   UNL A   1      32.826  26.565  25.394  1.00  0.00     0.001 A 
ATOM     89  C   UNL A   1      33.208  27.284  26.537  1.00  0.00     0.010 A 
ATOM     90  C   UNL A   1      31.943  27.172  24.487  1.00  0.00     0.023 A 
ATOM     91  C   UNL A   1      32.713  28.569  26.775  1.00  0.00     0.001 A 
ATOM     92  C   UNL A   1      31.431  28.460  24.716  1.00  0.00     0.056 A 
ATOM     93  C   UNL A   1      31.824  29.152  25.871  1.00  0.00     0.013 A 
BRANCH  92  94
ATOM     94  C   UNL A   1      30.468  29.096  23.745  1.00  0.00     0.416 C 
ATOM     95  F   UNL A   1      29.983  30.288  24.192  1.00  0.00    -0.166 F 
ATOM     96  F   UNL A   1      31.041  29.357  22.538  1.00  0.00    -0.166 F 
ATOM     97  F   UNL A   1      29.374  28.328  23.476  1.00  0.00    -0.166 F 
ENDBRANCH  92  94
ENDBRANCH  80  88
ENDBRANCH  75  77
ENDBRANCH  74  75
ENDBRANCH  73  74
ENDBRANCH  72  73
ENDBRANCH  71  72
ENDBRANCH   1  71
TORSDOF 19
ENDMDL
MODEL 2
REMARK VINA RESULT:     -11.4      5.743     10.256
REMARK SMILES O=C(OCCOCCOC(=O)c1cc(-c2cccc(C(F)(F)F)c2)nc2c(F)cccc12)c1ccc(-c2c3nc(c(-c4cc(S(=O)(=O)[O-])ccc4F)c4ccc([nH]4)c(-c4cc(S(=O)(=O)[O-])ccc4F)c4nc(c(-c5cc(S(=O)(=O)[O-])ccc5F)c5ccc2[nH]5)C=C4)C=C3)cc1
REMARK SMILES IDX 5 1 4 2 3 3 2 4 1 5 33 6 34 7 95 8 35 9 94 10 36 11 37 12
REMARK SMILES IDX 38 13 88 14 39 15 93 16 87 17 89 18 40 19 92 20 86 21 85 22
REMARK SMILES IDX 41 24 73 25 53 26 72 27 54 28 57 29 71 30 90 31 55 32 56 33
REMARK SMILES IDX 70 35 91 36 58 37 42 38 43 39 51 40 44 41 50 42 52 43 49 44
REMARK SMILES IDX 45 45 46 46 47 47 48 48 74 49 75 50 83 51 76 52 82 53 84 54
REMARK SMILES IDX 81 55 77 56 78 57 79 58 80 59 59 60 60 61 68 62 61 63 67 64
REMARK SMILES IDX 69 65 66 66 62 67 63 68 64 69 65 70 6 71 7 72 8 73 9 74
REMARK SMILES IDX 10 75 11 76 12 77 13 78 32 79 14 80 26 81 31 82 25 83 27 84
REMARK SMILES IDX 30 85 28 86 29 87 15 88 16 89 24 90 17 91 19 92 18 93 20 94
REMARK SMILES IDX 21 95 22 96 23 97
REMARK H PARENT 89 23 57 34
REMARK Flexibility Score: inf
ROOT
ATOM      1  C   UNL A   1      34.372  33.926  27.696  1.00  0.00     0.202 C 
ENDROOT
BRANCH   1   2
ATOM      2  C   UNL A   1      32.943  33.997  28.240  1.00  0.00     0.261 C 
BRANCH   2   3
ATOM      3  O   UNL A   1      32.859  34.969  29.295  1.00  0.00    -0.460 OA
BRANCH   3   4
ATOM      4  C   UNL A   1      33.274  34.857  30.578  1.00  0.00     0.338 C 
ATOM      5  O   UNL A   1      32.630  35.443  31.449  1.00  0.00    -0.246 OA
BRANCH   4   6
ATOM      6  C   UNL A   1      34.483  34.085  31.001  1.00  0.00     0.060 A 
ATOM      7  C   UNL A   1      34.466  32.788  31.515  1.00  0.00     0.016 A 
ATOM      8  C   UNL A   1      35.736  34.679  30.765  1.00  0.00     0.016 A 
ATOM      9  C   UNL A   1      35.632  32.109  31.826  1.00  0.00     0.010 A 
ATOM     10  C   UNL A   1      36.922  33.993  31.048  1.00  0.00     0.010 A 
ATOM     11  C   UNL A   1      36.865  32.706  31.589  1.00  0.00    -0.014 A 
BRANCH  11  12
ATOM     12  C   UNL A   1      38.061  31.972  32.032  1.00  0.00     0.031 A 
ATOM     13  C   UNL A   1      38.597  32.261  33.398  1.00  0.00     0.074 A 
ATOM     14  C   UNL A   1      38.529  30.961  31.277  1.00  0.00     0.049 A 
ATOM     15  N   UNL A   1      39.633  31.755  34.004  1.00  0.00    -0.248 NA
ATOM     16  C   UNL A   1      37.847  33.247  34.194  1.00  0.00     0.031 C 
ATOM     17  C   UNL A   1      37.952  30.533  29.998  1.00  0.00     0.029 A 
ATOM     18  N   UNL A   1      39.561  30.089  31.485  1.00  0.00    -0.354 N 
ATOM     19  C   UNL A   1      39.673  32.371  35.249  1.00  0.00     0.074 A 
ATOM     20  C   UNL A   1      38.562  33.296  35.305  1.00  0.00     0.031 C 
ATOM     21  C   UNL A   1      38.631  29.466  29.548  1.00  0.00     0.029 A 
ATOM     22  C   UNL A   1      39.730  29.184  30.463  1.00  0.00     0.049 A 
ATOM     23  H   UNL A   1      40.128  30.107  32.289  1.00  0.00     0.167 HD
ATOM     24  C   UNL A   1      40.575  32.183  36.241  1.00  0.00     0.034 A 
ATOM     25  C   UNL A   1      40.696  28.262  30.280  1.00  0.00     0.034 A 
ATOM     26  C   UNL A   1      41.682  31.269  36.120  1.00  0.00     0.049 A 
ATOM     27  C   UNL A   1      41.755  28.152  31.348  1.00  0.00     0.074 A 
ATOM     28  C   UNL A   1      42.729  31.048  36.995  1.00  0.00     0.029 A 
ATOM     29  N   UNL A   1      41.884  30.422  35.032  1.00  0.00    -0.354 N 
ATOM     30  N   UNL A   1      41.849  28.807  32.486  1.00  0.00    -0.248 NA
ATOM     31  C   UNL A   1      42.839  27.194  31.111  1.00  0.00     0.031 C 
ATOM     32  C   UNL A   1      43.594  30.116  36.407  1.00  0.00     0.029 A 
ATOM     33  C   UNL A   1      43.051  29.697  35.201  1.00  0.00     0.049 A 
ATOM     34  H   UNL A   1      41.284  30.351  34.254  1.00  0.00     0.167 HD
ATOM     35  C   UNL A   1      42.998  28.333  33.105  1.00  0.00     0.074 A 
ATOM     36  C   UNL A   1      43.545  27.316  32.226  1.00  0.00     0.031 C 
ATOM     37  C   UNL A   1      43.561  28.700  34.287  1.00  0.00     0.034 A 
BRANCH  24  38
ATOM     38  C   UNL A   1      40.442  33.069  37.455  1.00  0.00     0.023 A 
ATOM     39  C   UNL A   1      39.803  32.636  38.631  1.00  0.00     0.031 A 
ATOM     40  C   UNL A   1      40.860  34.411  37.389  1.00  0.00     0.131 A 
ATOM     41  C   UNL A   1      39.525  33.556  39.656  1.00  0.00     0.055 A 
ATOM     42  C   UNL A   1      40.652  35.301  38.445  1.00  0.00     0.041 A 
ATOM     43  F   UNL A   1      41.441  34.891  36.280  1.00  0.00    -0.206 F 
ATOM     44  C   UNL A   1      39.965  34.879  39.580  1.00  0.00     0.022 A 
BRANCH  41  45
ATOM     45  S   UNL A   1      38.435  33.043  41.014  1.00  0.00     0.124 S 
ATOM     46  O   UNL A   1      38.423  31.591  40.850  1.00  0.00    -0.237 OA
ATOM     47  O   UNL A   1      39.133  33.547  42.190  1.00  0.00    -0.237 OA
ATOM     48  O   UNL A   1      37.169  33.707  40.707  1.00  0.00    -0.744 OA
ENDBRANCH  41  45
ENDBRANCH  24  38
BRANCH  25  49
ATOM     49  C   UNL A   1      40.756  27.455  29.024  1.00  0.00     0.023 A 
ATOM     50  C   UNL A   1      41.693  27.727  28.014  1.00  0.00     0.031 A 
ATOM     51  C   UNL A   1      39.834  26.415  28.796  1.00  0.00     0.131 A 
ATOM     52  C   UNL A   1      41.664  26.994  26.815  1.00  0.00     0.055 A 
ATOM     53  C   UNL A   1      39.845  25.653  27.627  1.00  0.00     0.041 A 
ATOM     54  F   UNL A   1      38.907  26.114  29.719  1.00  0.00    -0.206 F 
ATOM     55  C   UNL A   1      40.757  25.949  26.622  1.00  0.00     0.022 A 
BRANCH  52  56
ATOM     56  S   UNL A   1      42.774  27.481  25.464  1.00  0.00     0.124 S 
ATOM     57  O   UNL A   1      43.977  27.867  26.192  1.00  0.00    -0.237 OA
ATOM     58  O   UNL A   1      42.862  26.250  24.685  1.00  0.00    -0.237 OA
ATOM     59  O   UNL A   1      42.059  28.577  24.814  1.00  0.00    -0.744 OA
ENDBRANCH  52  56
ENDBRANCH  25  49
BRANCH  37  60
ATOM     60  C   UNL A   1      44.812  27.963  34.689  1.00  0.00     0.023 A 
ATOM     61  C   UNL A   1      44.754  26.767  35.424  1.00  0.00     0.031 A 
ATOM     62  C   UNL A   1      46.073  28.469  34.332  1.00  0.00     0.131 A 
ATOM     63  C   UNL A   1      45.943  26.145  35.830  1.00  0.00     0.055 A 
ATOM     64  C   UNL A   1      47.250  27.812  34.685  1.00  0.00     0.041 A 
ATOM     65  F   UNL A   1      46.178  29.609  33.629  1.00  0.00    -0.206 F 
ATOM     66  C   UNL A   1      47.189  26.649  35.450  1.00  0.00     0.022 A 
BRANCH  63  67
ATOM     67  S   UNL A   1      45.837  24.714  36.936  1.00  0.00     0.124 S 
ATOM     68  O   UNL A   1      44.739  23.955  36.346  1.00  0.00    -0.237 OA
ATOM     69  O   UNL A   1      47.163  24.120  36.809  1.00  0.00    -0.237 OA
ATOM     70  O   UNL A   1      45.549  25.311  38.240  1.00  0.00    -0.744 OA
ENDBRANCH  63  67
ENDBRANCH  37  60
ENDBRANCH  11  12
ENDBRANCH   4   6
ENDBRANCH   3   4
ENDBRANCH   2   3
ENDBRANCH   1   2
BRANCH   1  71
ATOM     71  O   UNL A   1      34.956  32.624  27.707  1.00  0.00    -0.374 OA
BRANCH  71  72
ATOM     72  C   UNL A   1      34.060  31.536  27.969  1.00  0.00     0.202 C 
BRANCH  72  73
ATOM     73  C   UNL A   1      34.686  30.246  27.443  1.00  0.00     0.261 C 
BRANCH  73  74
ATOM     74  O   UNL A   1      33.782  29.702  26.469  1.00  0.00    -0.460 OA
BRANCH  74  75
ATOM     75  C   UNL A   1      33.065  28.625  26.872  1.00  0.00     0.338 C 
ATOM     76  O   UNL A   1      32.372  28.517  27.869  1.00  0.00    -0.246 OA
BRANCH  75  77
ATOM     77  C   UNL A   1      33.061  27.653  25.760  1.00  0.00     0.071 A 
ATOM     78  C   UNL A   1      33.884  26.539  25.930  1.00  0.00     0.045 A 
ATOM     79  C   UNL A   1      32.216  27.774  24.636  1.00  0.00     0.018 A 
ATOM     80  C   UNL A   1      33.805  25.523  25.002  1.00  0.00     0.072 A 
ATOM     81  C   UNL A   1      32.217  26.690  23.739  1.00  0.00     0.107 A 
ATOM     82  C   UNL A   1      31.394  28.902  24.369  1.00  0.00     0.011 A 
ATOM     83  N   UNL A   1      32.990  25.595  23.927  1.00  0.00    -0.245 NA
ATOM     84  C   UNL A   1      31.373  26.774  22.629  1.00  0.00     0.149 A 
ATOM     85  C   UNL A   1      30.562  28.949  23.256  1.00  0.00     0.004 A 
ATOM     86  F   UNL A   1      31.330  25.762  21.747  1.00  0.00    -0.205 F 
ATOM     87  C   UNL A   1      30.551  27.876  22.382  1.00  0.00     0.041 A 
BRANCH  80  88
ATOM     88  C   UNL A   1      34.594  24.295  25.130  1.00  0.00     0.001 A 
ATOM     89  C   UNL A   1      35.970  24.334  25.403  1.00  0.00     0.010 A 
ATOM     90  C   UNL A   1      33.981  23.042  24.968  1.00  0.00     0.023 A 
ATOM     91  C   UNL A   1      36.717  23.157  25.498  1.00  0.00     0.001 A 
ATOM     92  C   UNL A   1      34.720  21.850  25.053  1.00  0.00     0.056 A 
ATOM     93  C   UNL A   1      36.095  21.921  25.319  1.00  0.00     0.013 A 
BRANCH  92  94
ATOM     94  C   UNL A   1      34.056  20.510  24.858  1.00  0.00     0.416 C 
ATOM     95  F   UNL A   1      33.369  20.100  25.960  1.00  0.00    -0.166 F 
ATOM     96  F   UNL A   1      33.154  20.519  23.838  1.00  0.00    -0.166 F 
ATOM     97  F   UNL A   1      34.929  19.503  24.570  1.00  0.00    -0.166 F 
ENDBRANCH  92  94
ENDBRANCH  80  88
ENDBRANCH  75  77
ENDBRANCH  74  75
ENDBRANCH  73  74
ENDBRANCH  72  73
ENDBRANCH  71  72
ENDBRANCH   1  71
TORSDOF 19
ENDMDL
MODEL 3
REMARK VINA RESULT:     -11.4      3.322      8.963
REMARK SMILES O=C(OCCOCCOC(=O)c1cc(-c2cccc(C(F)(F)F)c2)nc2c(F)cccc12)c1ccc(-c2c3nc(c(-c4cc(S(=O)(=O)[O-])ccc4F)c4ccc([nH]4)c(-c4cc(S(=O)(=O)[O-])ccc4F)c4nc(c(-c5cc(S(=O)(=O)[O-])ccc5F)c5ccc2[nH]5)C=C4)C=C3)cc1
REMARK SMILES IDX 5 1 4 2 3 3 2 4 1 5 33 6 34 7 95 8 35 9 94 10 36 11 37 12
REMARK SMILES IDX 38 13 88 14 39 15 93 16 87 17 89 18 40 19 92 20 86 21 85 22
REMARK SMILES IDX 41 24 73 25 53 26 72 27 54 28 57 29 71 30 90 31 55 32 56 33
REMARK SMILES IDX 70 35 91 36 58 37 42 38 43 39 51 40 44 41 50 42 52 43 49 44
REMARK SMILES IDX 45 45 46 46 47 47 48 48 74 49 75 50 83 51 76 52 82 53 84 54
REMARK SMILES IDX 81 55 77 56 78 57 79 58 80 59 59 60 60 61 68 62 61 63 67 64
REMARK SMILES IDX 69 65 66 66 62 67 63 68 64 69 65 70 6 71 7 72 8 73 9 74
REMARK SMILES IDX 10 75 11 76 12 77 13 78 32 79 14 80 26 81 31 82 25 83 27 84
REMARK SMILES IDX 30 85 28 86 29 87 15 88 16 89 24 90 17 91 19 92 18 93 20 94
REMARK SMILES IDX 21 95 22 96 23 97
REMARK H PARENT 89 23 57 34
REMARK Flexibility Score: inf
ROOT
ATOM      1  C   UNL A   1      36.575  21.225  24.567  1.00  0.00     0.202 C 
ENDROOT
BRANCH   1   2
ATOM      2  C   UNL A   1      37.926  20.636  24.982  1.00  0.00     0.261 C 
BRANCH   2   3
ATOM      3  O   UNL A   1      38.439  21.327  26.132  1.00  0.00    -0.460 OA
BRANCH   3   4
ATOM      4  C   UNL A   1      39.723  21.632  26.429  1.00  0.00     0.338 C 
ATOM      5  O   UNL A   1      40.562  20.733  26.364  1.00  0.00    -0.246 OA
BRANCH   4   6
ATOM      6  C   UNL A   1      40.183  22.989  26.857  1.00  0.00     0.060 A 
ATOM      7  C   UNL A   1      39.726  24.194  26.324  1.00  0.00     0.016 A 
ATOM      8  C   UNL A   1      41.067  23.050  27.949  1.00  0.00     0.016 A 
ATOM      9  C   UNL A   1      40.149  25.418  26.814  1.00  0.00     0.010 A 
ATOM     10  C   UNL A   1      41.480  24.280  28.473  1.00  0.00     0.010 A 
ATOM     11  C   UNL A   1      41.023  25.467  27.894  1.00  0.00    -0.014 A 
BRANCH  11  12
ATOM     12  C   UNL A   1      41.510  26.793  28.303  1.00  0.00     0.031 A 
ATOM     13  C   UNL A   1      42.910  27.171  27.939  1.00  0.00     0.074 A 
ATOM     14  C   UNL A   1      40.644  27.676  28.835  1.00  0.00     0.049 A 
ATOM     15  N   UNL A   1      43.563  28.270  28.191  1.00  0.00    -0.248 NA
ATOM     16  C   UNL A   1      43.671  26.175  27.166  1.00  0.00     0.031 C 
ATOM     17  C   UNL A   1      39.222  27.413  29.078  1.00  0.00     0.029 A 
ATOM     18  N   UNL A   1      40.815  28.974  29.229  1.00  0.00    -0.354 N 
ATOM     19  C   UNL A   1      44.820  28.094  27.625  1.00  0.00     0.074 A 
ATOM     20  C   UNL A   1      44.839  26.779  27.024  1.00  0.00     0.031 C 
ATOM     21  C   UNL A   1      38.649  28.526  29.562  1.00  0.00     0.029 A 
ATOM     22  C   UNL A   1      39.671  29.550  29.734  1.00  0.00     0.049 A 
ATOM     23  H   UNL A   1      41.673  29.451  29.158  1.00  0.00     0.167 HD
ATOM     24  C   UNL A   1      45.862  28.959  27.629  1.00  0.00     0.034 A 
ATOM     25  C   UNL A   1      39.495  30.757  30.306  1.00  0.00     0.034 A 
ATOM     26  C   UNL A   1      45.798  30.248  28.270  1.00  0.00     0.049 A 
ATOM     27  C   UNL A   1      40.703  31.658  30.401  1.00  0.00     0.074 A 
ATOM     28  C   UNL A   1      46.799  31.185  28.444  1.00  0.00     0.029 A 
ATOM     29  N   UNL A   1      44.650  30.776  28.856  1.00  0.00    -0.354 N 
ATOM     30  N   UNL A   1      41.922  31.450  29.952  1.00  0.00    -0.248 NA
ATOM     31  C   UNL A   1      40.520  32.941  31.084  1.00  0.00     0.031 C 
ATOM     32  C   UNL A   1      46.271  32.248  29.188  1.00  0.00     0.029 A 
ATOM     33  C   UNL A   1      44.923  32.013  29.414  1.00  0.00     0.049 A 
ATOM     34  H   UNL A   1      43.770  30.333  28.871  1.00  0.00     0.167 HD
ATOM     35  C   UNL A   1      42.650  32.584  30.288  1.00  0.00     0.074 A 
ATOM     36  C   UNL A   1      41.723  33.482  30.953  1.00  0.00     0.031 C 
ATOM     37  C   UNL A   1      43.963  32.866  30.079  1.00  0.00     0.034 A 
BRANCH  24  38
ATOM     38  C   UNL A   1      47.155  28.465  27.029  1.00  0.00     0.023 A 
ATOM     39  C   UNL A   1      47.355  28.396  25.638  1.00  0.00     0.031 A 
ATOM     40  C   UNL A   1      48.160  27.945  27.864  1.00  0.00     0.131 A 
ATOM     41  C   UNL A   1      48.489  27.744  25.126  1.00  0.00     0.055 A 
ATOM     42  C   UNL A   1      49.323  27.370  27.349  1.00  0.00     0.041 A 
ATOM     43  F   UNL A   1      48.009  27.949  29.197  1.00  0.00    -0.206 F 
ATOM     44  C   UNL A   1      49.485  27.251  25.972  1.00  0.00     0.022 A 
BRANCH  41  45
ATOM     45  S   UNL A   1      48.565  27.399  23.344  1.00  0.00     0.124 S 
ATOM     46  O   UNL A   1      48.557  25.938  23.327  1.00  0.00    -0.237 OA
ATOM     47  O   UNL A   1      47.362  28.050  22.843  1.00  0.00    -0.237 OA
ATOM     48  O   UNL A   1      49.826  28.012  22.930  1.00  0.00    -0.744 OA
ENDBRANCH  41  45
ENDBRANCH  24  38
BRANCH  25  49
ATOM     49  C   UNL A   1      38.179  31.138  30.901  1.00  0.00     0.023 A 
ATOM     50  C   UNL A   1      37.188  31.788  30.150  1.00  0.00     0.031 A 
ATOM     51  C   UNL A   1      37.910  30.891  32.261  1.00  0.00     0.131 A 
ATOM     52  C   UNL A   1      35.994  32.199  30.769  1.00  0.00     0.055 A 
ATOM     53  C   UNL A   1      36.701  31.249  32.859  1.00  0.00     0.041 A 
ATOM     54  F   UNL A   1      38.823  30.281  33.036  1.00  0.00    -0.206 F 
ATOM     55  C   UNL A   1      35.739  31.919  32.114  1.00  0.00     0.022 A 
BRANCH  52  56
ATOM     56  S   UNL A   1      34.808  33.186  29.816  1.00  0.00     0.124 S 
ATOM     57  O   UNL A   1      33.954  33.725  30.868  1.00  0.00    -0.237 OA
ATOM     58  O   UNL A   1      35.681  34.143  29.143  1.00  0.00    -0.237 OA
ATOM     59  O   UNL A   1      34.173  32.204  28.939  1.00  0.00    -0.744 OA
ENDBRANCH  52  56
ENDBRANCH  25  49
BRANCH  37  60
ATOM     60  C   UNL A   1      44.442  34.213  30.552  1.00  0.00     0.023 A 
ATOM     61  C   UNL A   1      44.953  34.395  31.848  1.00  0.00     0.031 A 
ATOM     62  C   UNL A   1      44.382  35.324  29.694  1.00  0.00     0.131 A 
ATOM     63  C   UNL A   1      45.332  35.677  32.270  1.00  0.00     0.055 A 
ATOM     64  C   UNL A   1      44.820  36.584  30.099  1.00  0.00     0.041 A 
ATOM     65  F   UNL A   1      43.902  35.198  28.446  1.00  0.00    -0.206 F 
ATOM     66  C   UNL A   1      45.286  36.768  31.398  1.00  0.00     0.022 A 
BRANCH  63  67
ATOM     67  S   UNL A   1      45.805  35.914  34.003  1.00  0.00     0.124 S 
ATOM     68  O   UNL A   1      45.078  34.837  34.666  1.00  0.00    -0.237 OA
ATOM     69  O   UNL A   1      47.256  35.768  33.955  1.00  0.00    -0.237 OA
ATOM     70  O   UNL A   1      45.328  37.263  34.306  1.00  0.00    -0.744 OA
ENDBRANCH  63  67
ENDBRANCH  37  60
ENDBRANCH  11  12
ENDBRANCH   4   6
ENDBRANCH   3   4
ENDBRANCH   2   3
ENDBRANCH   1   2
BRANCH   1  71
ATOM     71  O   UNL A   1      36.652  22.355  23.699  1.00  0.00    -0.374 OA
BRANCH  71  72
ATOM     72  C   UNL A   1      36.766  23.632  24.339  1.00  0.00     0.202 C 
BRANCH  72  73
ATOM     73  C   UNL A   1      35.494  23.895  25.142  1.00  0.00     0.261 C 
BRANCH  73  74
ATOM     74  O   UNL A   1      34.822  25.003  24.523  1.00  0.00    -0.460 OA
BRANCH  74  75
ATOM     75  C   UNL A   1      34.027  24.693  23.470  1.00  0.00     0.338 C 
ATOM     76  O   UNL A   1      34.162  25.025  22.305  1.00  0.00    -0.246 OA
BRANCH  75  77
ATOM     77  C   UNL A   1      33.074  23.660  23.923  1.00  0.00     0.071 A 
ATOM     78  C   UNL A   1      33.310  22.370  23.448  1.00  0.00     0.045 A 
ATOM     79  C   UNL A   1      32.044  23.921  24.853  1.00  0.00     0.018 A 
ATOM     80  C   UNL A   1      32.552  21.338  23.958  1.00  0.00     0.072 A 
ATOM     81  C   UNL A   1      31.316  22.803  25.303  1.00  0.00     0.107 A 
ATOM     82  C   UNL A   1      31.709  25.214  25.337  1.00  0.00     0.011 A 
ATOM     83  N   UNL A   1      31.574  21.548  24.867  1.00  0.00    -0.245 NA
ATOM     84  C   UNL A   1      30.306  23.030  26.240  1.00  0.00     0.149 A 
ATOM     85  C   UNL A   1      30.699  25.401  26.275  1.00  0.00     0.004 A 
ATOM     86  F   UNL A   1      29.588  21.995  26.709  1.00  0.00    -0.205 F 
ATOM     87  C   UNL A   1      29.995  24.300  26.729  1.00  0.00     0.041 A 
BRANCH  80  88
ATOM     88  C   UNL A   1      32.767  19.946  23.555  1.00  0.00     0.001 A 
ATOM     89  C   UNL A   1      32.145  19.410  22.416  1.00  0.00     0.010 A 
ATOM     90  C   UNL A   1      33.599  19.110  24.317  1.00  0.00     0.023 A 
ATOM     91  C   UNL A   1      32.339  18.074  22.054  1.00  0.00     0.001 A 
ATOM     92  C   UNL A   1      33.797  17.763  23.970  1.00  0.00     0.056 A 
ATOM     93  C   UNL A   1      33.157  17.254  22.831  1.00  0.00     0.013 A 
BRANCH  92  94
ATOM     94  C   UNL A   1      34.678  16.869  24.805  1.00  0.00     0.416 C 
ATOM     95  F   UNL A   1      34.141  16.597  26.027  1.00  0.00    -0.166 F 
ATOM     96  F   UNL A   1      34.899  15.659  24.219  1.00  0.00    -0.166 F 
ATOM     97  F   UNL A   1      35.913  17.391  25.050  1.00  0.00    -0.166 F 
ENDBRANCH  92  94
ENDBRANCH  80  88
ENDBRANCH  75  77
ENDBRANCH  74  75
ENDBRANCH  73  74
ENDBRANCH  72  73
ENDBRANCH  71  72
ENDBRANCH   1  71
TORSDOF 19
ENDMDL
