MODEL 1
REMARK VINA RESULT:     -10.4      0.000      0.000
REMARK SMILES C[NH+](C)Cc1noc(C[C@@](C)(C(=O)OCCOCCOC(=O)c2ccc(-c3c4nc(c(-c5cc(S(=O)(=O)[O-])ccc5F)c5ccc([nH]5)c(-c5cc(S(=O)(=O)[O-])ccc5F)c5nc(c(-c6cc(S(=O)(=O)[O-])ccc6F)c6ccc3[nH]6)C=C5)C=C4)cc2)c2ccccc2)n1
REMARK SMILES IDX 16 1 15 2 14 3 12 4 13 5 10 6 11 7 9 8 8 9 5 10 6 11 92 12
REMARK SMILES IDX 7 13 4 14 2 15 1 16 3 17 86 19 87 20 91 21 88 22 90 23 89 24
REMARK SMILES IDX 17 25 18 26 19 27 20 28 21 29 22 30 23 31 24 32 85 33 25 34
REMARK SMILES IDX 84 35 26 36 27 37 28 38 78 39 29 40 83 41 77 42 79 43 30 44
REMARK SMILES IDX 82 45 76 46 75 47 31 49 63 50 43 51 62 52 44 53 47 54 61 55
REMARK SMILES IDX 80 56 45 57 46 58 60 60 81 61 48 62 32 63 33 64 41 65 34 66
REMARK SMILES IDX 40 67 42 68 39 69 35 70 36 71 37 72 38 73 64 74 65 75 73 76
REMARK SMILES IDX 66 77 72 78 74 79 71 80 67 81 68 82 69 83 70 84 49 85 50 86
REMARK SMILES IDX 58 87 51 88 57 89 59 90 56 91 52 92 53 93 54 94 55 95
REMARK H PARENT 2 18 79 48 47 59
REMARK Flexibility Score: inf
ROOT
ATOM      1  C   UNL A   1      32.192  28.520  24.026  1.00  0.00     0.202 C 
ENDROOT
BRANCH   1   2
ATOM      2  C   UNL A   1      31.743  27.194  23.399  1.00  0.00     0.261 C 
BRANCH   2   3
ATOM      3  O   UNL A   1      32.513  26.066  23.851  1.00  0.00    -0.463 OA
BRANCH   3   4
ATOM      4  C   UNL A   1      33.249  25.450  22.884  1.00  0.00     0.316 C 
ATOM      5  O   UNL A   1      33.750  26.042  21.931  1.00  0.00    -0.251 OA
BRANCH   4   6
ATOM      6  C   UNL A   1      33.395  23.918  23.088  1.00  0.00     0.099 C 
ATOM      7  C   UNL A   1      33.378  23.339  21.646  1.00  0.00     0.029 C 
BRANCH   6   8
ATOM      8  C   UNL A   1      32.172  23.306  23.847  1.00  0.00     0.123 C 
BRANCH   8   9
ATOM      9  C   UNL A   1      32.345  21.865  24.192  1.00  0.00     0.228 A 
ATOM     10  C   UNL A   1      32.452  19.770  24.287  1.00  0.00     0.226 A 
ATOM     11  N   UNL A   1      32.413  20.144  25.576  1.00  0.00    -0.056 NA
ATOM     12  N   UNL A   1      32.449  20.822  23.399  1.00  0.00    -0.190 NA
ATOM     13  O   UNL A   1      32.358  21.535  25.515  1.00  0.00    -0.339 OA
BRANCH  10  14
ATOM     14  C   UNL A   1      32.412  18.315  23.905  1.00  0.00     0.344 C 
BRANCH  14  15
ATOM     15  N   UNL A   1      33.287  17.378  24.642  1.00  0.00    -0.333 N 
ATOM     16  C   UNL A   1      32.551  16.351  25.369  1.00  0.00     0.332 C 
ATOM     17  C   UNL A   1      34.335  16.804  23.806  1.00  0.00     0.332 C 
ATOM     18  H   UNL A   1      33.752  17.949  25.347  1.00  0.00     0.348 HD
ENDBRANCH  14  15
ENDBRANCH  10  14
ENDBRANCH   8   9
ENDBRANCH   6   8
BRANCH   6  19
ATOM     19  C   UNL A   1      34.767  23.682  23.781  1.00  0.00    -0.030 A 
ATOM     20  C   UNL A   1      35.782  22.887  23.217  1.00  0.00     0.005 A 
ATOM     21  C   UNL A   1      35.012  24.200  25.069  1.00  0.00     0.005 A 
ATOM     22  C   UNL A   1      36.991  22.660  23.882  1.00  0.00     0.000 A 
ATOM     23  C   UNL A   1      36.213  23.960  25.743  1.00  0.00     0.000 A 
ATOM     24  C   UNL A   1      37.208  23.196  25.145  1.00  0.00     0.000 A 
ENDBRANCH   6  19
ENDBRANCH   4   6
ENDBRANCH   3   4
ENDBRANCH   2   3
ENDBRANCH   1   2
BRANCH   1  25
ATOM     25  O   UNL A   1      31.577  28.913  25.249  1.00  0.00    -0.374 OA
BRANCH  25  26
ATOM     26  C   UNL A   1      32.100  28.374  26.461  1.00  0.00     0.202 C 
BRANCH  26  27
ATOM     27  C   UNL A   1      33.626  28.295  26.612  1.00  0.00     0.261 C 
BRANCH  27  28
ATOM     28  O   UNL A   1      34.278  29.548  26.330  1.00  0.00    -0.460 OA
BRANCH  28  29
ATOM     29  C   UNL A   1      34.415  30.365  27.406  1.00  0.00     0.338 C 
ATOM     30  O   UNL A   1      33.559  31.106  27.876  1.00  0.00    -0.246 OA
BRANCH  29  31
ATOM     31  C   UNL A   1      35.694  30.108  28.091  1.00  0.00     0.060 A 
ATOM     32  C   UNL A   1      36.870  30.267  27.346  1.00  0.00     0.016 A 
ATOM     33  C   UNL A   1      35.746  29.635  29.404  1.00  0.00     0.016 A 
ATOM     34  C   UNL A   1      38.101  29.913  27.896  1.00  0.00     0.010 A 
ATOM     35  C   UNL A   1      36.982  29.269  29.950  1.00  0.00     0.010 A 
ATOM     36  C   UNL A   1      38.162  29.375  29.188  1.00  0.00    -0.014 A 
BRANCH  36  37
ATOM     37  C   UNL A   1      39.437  28.793  29.675  1.00  0.00     0.031 A 
ATOM     38  C   UNL A   1      40.087  29.379  30.900  1.00  0.00     0.074 A 
ATOM     39  C   UNL A   1      39.987  27.729  29.062  1.00  0.00     0.049 A 
ATOM     40  N   UNL A   1      41.207  29.045  31.488  1.00  0.00    -0.248 NA
ATOM     41  C   UNL A   1      39.376  30.492  31.545  1.00  0.00     0.031 C 
ATOM     42  C   UNL A   1      39.424  27.044  27.898  1.00  0.00     0.029 A 
ATOM     43  N   UNL A   1      41.142  27.040  29.331  1.00  0.00    -0.354 N 
ATOM     44  C   UNL A   1      41.336  29.906  32.573  1.00  0.00     0.074 A 
ATOM     45  C   UNL A   1      40.199  30.800  32.536  1.00  0.00     0.031 C 
ATOM     46  C   UNL A   1      40.242  26.037  27.548  1.00  0.00     0.029 A 
ATOM     47  C   UNL A   1      41.404  26.028  28.437  1.00  0.00     0.049 A 
ATOM     48  H   UNL A   1      41.730  27.250  30.092  1.00  0.00     0.167 HD
ATOM     49  C   UNL A   1      42.310  29.939  33.518  1.00  0.00     0.034 A 
ATOM     50  C   UNL A   1      42.469  25.207  28.332  1.00  0.00     0.034 A 
ATOM     51  C   UNL A   1      43.445  29.049  33.534  1.00  0.00     0.049 A 
ATOM     52  C   UNL A   1      43.588  25.327  29.339  1.00  0.00     0.074 A 
ATOM     53  C   UNL A   1      44.479  28.986  34.452  1.00  0.00     0.029 A 
ATOM     54  N   UNL A   1      43.707  28.075  32.578  1.00  0.00    -0.354 N 
ATOM     55  N   UNL A   1      43.694  26.138  30.365  1.00  0.00    -0.248 NA
ATOM     56  C   UNL A   1      44.727  24.414  29.174  1.00  0.00     0.031 C 
ATOM     57  C   UNL A   1      45.399  28.028  34.013  1.00  0.00     0.029 A 
ATOM     58  C   UNL A   1      44.903  27.435  32.862  1.00  0.00     0.049 A 
ATOM     59  H   UNL A   1      43.127  27.869  31.810  1.00  0.00     0.167 HD
ATOM     60  C   UNL A   1      44.899  25.813  30.983  1.00  0.00     0.074 A 
ATOM     61  C   UNL A   1      45.475  24.724  30.223  1.00  0.00     0.031 C 
ATOM     62  C   UNL A   1      45.477  26.362  32.084  1.00  0.00     0.034 A 
BRANCH  49  63
ATOM     63  C   UNL A   1      42.210  31.011  34.576  1.00  0.00     0.023 A 
ATOM     64  C   UNL A   1      42.749  32.295  34.385  1.00  0.00     0.031 A 
ATOM     65  C   UNL A   1      41.591  30.734  35.809  1.00  0.00     0.131 A 
ATOM     66  C   UNL A   1      42.719  33.230  35.432  1.00  0.00     0.055 A 
ATOM     67  C   UNL A   1      41.498  31.693  36.819  1.00  0.00     0.041 A 
ATOM     68  F   UNL A   1      41.079  29.518  36.058  1.00  0.00    -0.206 F 
ATOM     69  C   UNL A   1      42.076  32.946  36.638  1.00  0.00     0.022 A 
BRANCH  66  70
ATOM     70  S   UNL A   1      43.656  34.772  35.245  1.00  0.00     0.124 S 
ATOM     71  O   UNL A   1      44.562  34.437  34.149  1.00  0.00    -0.237 OA
ATOM     72  O   UNL A   1      42.610  35.742  34.937  1.00  0.00    -0.237 OA
ATOM     73  O   UNL A   1      44.300  34.942  36.546  1.00  0.00    -0.744 OA
ENDBRANCH  66  70
ENDBRANCH  49  63
BRANCH  50  74
ATOM     74  C   UNL A   1      42.562  24.232  27.208  1.00  0.00     0.023 A 
ATOM     75  C   UNL A   1      41.953  22.970  27.286  1.00  0.00     0.031 A 
ATOM     76  C   UNL A   1      43.313  24.532  26.057  1.00  0.00     0.131 A 
ATOM     77  C   UNL A   1      42.142  22.038  26.252  1.00  0.00     0.055 A 
ATOM     78  C   UNL A   1      43.456  23.622  25.009  1.00  0.00     0.041 A 
ATOM     79  F   UNL A   1      43.916  25.725  25.932  1.00  0.00    -0.206 F 
ATOM     80  C   UNL A   1      42.878  22.361  25.109  1.00  0.00     0.022 A 
BRANCH  77  81
ATOM     81  S   UNL A   1      41.477  20.363  26.459  1.00  0.00     0.124 S 
ATOM     82  O   UNL A   1      42.129  19.648  25.368  1.00  0.00    -0.237 OA
ATOM     83  O   UNL A   1      41.922  20.026  27.806  1.00  0.00    -0.237 OA
ATOM     84  O   UNL A   1      40.034  20.550  26.309  1.00  0.00    -0.744 OA
ENDBRANCH  77  81
ENDBRANCH  50  74
BRANCH  62  85
ATOM     85  C   UNL A   1      46.781  25.760  32.546  1.00  0.00     0.023 A 
ATOM     86  C   UNL A   1      48.005  26.086  31.935  1.00  0.00     0.031 A 
ATOM     87  C   UNL A   1      46.799  24.837  33.608  1.00  0.00     0.131 A 
ATOM     88  C   UNL A   1      49.186  25.453  32.352  1.00  0.00     0.055 A 
ATOM     89  C   UNL A   1      47.985  24.255  34.058  1.00  0.00     0.041 A 
ATOM     90  F   UNL A   1      45.660  24.487  34.227  1.00  0.00    -0.206 F 
ATOM     91  C   UNL A   1      49.186  24.552  33.421  1.00  0.00     0.022 A 
BRANCH  88  92
ATOM     92  S   UNL A   1      50.714  25.756  31.422  1.00  0.00     0.124 S 
ATOM     93  O   UNL A   1      51.735  25.302  32.360  1.00  0.00    -0.237 OA
ATOM     94  O   UNL A   1      50.526  24.929  30.235  1.00  0.00    -0.237 OA
ATOM     95  O   UNL A   1      50.690  27.198  31.181  1.00  0.00    -0.744 OA
ENDBRANCH  88  92
ENDBRANCH  62  85
ENDBRANCH  36  37
ENDBRANCH  29  31
ENDBRANCH  28  29
ENDBRANCH  27  28
ENDBRANCH  26  27
ENDBRANCH  25  26
ENDBRANCH   1  25
TORSDOF 22
ENDMDL
MODEL 2
REMARK VINA RESULT:     -10.3      1.808      2.112
REMARK SMILES C[NH+](C)Cc1noc(C[C@@](C)(C(=O)OCCOCCOC(=O)c2ccc(-c3c4nc(c(-c5cc(S(=O)(=O)[O-])ccc5F)c5ccc([nH]5)c(-c5cc(S(=O)(=O)[O-])ccc5F)c5nc(c(-c6cc(S(=O)(=O)[O-])ccc6F)c6ccc3[nH]6)C=C5)C=C4)cc2)c2ccccc2)n1
REMARK SMILES IDX 16 1 15 2 14 3 12 4 13 5 10 6 11 7 9 8 8 9 5 10 6 11 92 12
REMARK SMILES IDX 7 13 4 14 2 15 1 16 3 17 86 19 87 20 91 21 88 22 90 23 89 24
REMARK SMILES IDX 17 25 18 26 19 27 20 28 21 29 22 30 23 31 24 32 85 33 25 34
REMARK SMILES IDX 84 35 26 36 27 37 28 38 78 39 29 40 83 41 77 42 79 43 30 44
REMARK SMILES IDX 82 45 76 46 75 47 31 49 63 50 43 51 62 52 44 53 47 54 61 55
REMARK SMILES IDX 80 56 45 57 46 58 60 60 81 61 48 62 32 63 33 64 41 65 34 66
REMARK SMILES IDX 40 67 42 68 39 69 35 70 36 71 37 72 38 73 64 74 65 75 73 76
REMARK SMILES IDX 66 77 72 78 74 79 71 80 67 81 68 82 69 83 70 84 49 85 50 86
REMARK SMILES IDX 58 87 51 88 57 89 59 90 56 91 52 92 53 93 54 94 55 95
REMARK H PARENT 2 18 79 48 47 59
REMARK Flexibility Score: inf
ROOT
ATOM      1  C   UNL A   1      32.473  28.068  24.731  1.00  0.00     0.202 C 
ENDROOT
BRANCH   1   2
ATOM      2  C   UNL A   1      32.048  27.448  23.394  1.00  0.00     0.261 C 
BRANCH   2   3
ATOM      3  O   UNL A   1      32.089  26.010  23.399  1.00  0.00    -0.463 OA
BRANCH   3   4
ATOM      4  C   UNL A   1      33.062  25.461  22.620  1.00  0.00     0.316 C 
ATOM      5  O   UNL A   1      33.732  26.105  21.816  1.00  0.00    -0.251 OA
BRANCH   4   6
ATOM      6  C   UNL A   1      33.249  23.935  22.833  1.00  0.00     0.099 C 
ATOM      7  C   UNL A   1      33.374  23.364  21.393  1.00  0.00     0.029 C 
BRANCH   6   8
ATOM      8  C   UNL A   1      31.991  23.274  23.485  1.00  0.00     0.123 C 
BRANCH   8   9
ATOM      9  C   UNL A   1      32.213  21.861  23.910  1.00  0.00     0.228 A 
ATOM     10  C   UNL A   1      32.401  19.780  24.117  1.00  0.00     0.226 A 
ATOM     11  N   UNL A   1      32.319  20.219  25.384  1.00  0.00    -0.056 NA
ATOM     12  N   UNL A   1      32.376  20.783  23.175  1.00  0.00    -0.190 NA
ATOM     13  O   UNL A   1      32.210  21.602  25.248  1.00  0.00    -0.339 OA
BRANCH  10  14
ATOM     14  C   UNL A   1      32.426  18.307  23.813  1.00  0.00     0.344 C 
BRANCH  14  15
ATOM     15  N   UNL A   1      33.653  17.549  24.140  1.00  0.00    -0.333 N 
ATOM     16  C   UNL A   1      33.526  16.734  25.342  1.00  0.00     0.332 C 
ATOM     17  C   UNL A   1      34.160  16.776  23.012  1.00  0.00     0.332 C 
ATOM     18  H   UNL A   1      34.354  18.260  24.350  1.00  0.00     0.348 HD
ENDBRANCH  14  15
ENDBRANCH  10  14
ENDBRANCH   8   9
ENDBRANCH   6   8
BRANCH   6  19
ATOM     19  C   UNL A   1      34.566  23.748  23.638  1.00  0.00    -0.030 A 
ATOM     20  C   UNL A   1      35.635  22.957  23.180  1.00  0.00     0.005 A 
ATOM     21  C   UNL A   1      34.700  24.309  24.923  1.00  0.00     0.005 A 
ATOM     22  C   UNL A   1      36.793  22.774  23.944  1.00  0.00     0.000 A 
ATOM     23  C   UNL A   1      35.848  24.113  25.696  1.00  0.00     0.000 A 
ATOM     24  C   UNL A   1      36.900  23.352  25.202  1.00  0.00     0.000 A 
ENDBRANCH   6  19
ENDBRANCH   4   6
ENDBRANCH   3   4
ENDBRANCH   2   3
ENDBRANCH   1   2
BRANCH   1  25
ATOM     25  O   UNL A   1      31.626  29.065  25.295  1.00  0.00    -0.374 OA
BRANCH  25  26
ATOM     26  C   UNL A   1      31.945  29.548  26.599  1.00  0.00     0.202 C 
BRANCH  26  27
ATOM     27  C   UNL A   1      32.971  30.684  26.712  1.00  0.00     0.261 C 
BRANCH  27  28
ATOM     28  O   UNL A   1      33.888  30.498  27.806  1.00  0.00    -0.460 OA
BRANCH  28  29
ATOM     29  C   UNL A   1      34.715  31.551  28.032  1.00  0.00     0.338 C 
ATOM     30  O   UNL A   1      34.457  32.736  27.850  1.00  0.00    -0.246 OA
BRANCH  29  31
ATOM     31  C   UNL A   1      35.935  31.111  28.730  1.00  0.00     0.060 A 
ATOM     32  C   UNL A   1      37.140  31.738  28.384  1.00  0.00     0.016 A 
ATOM     33  C   UNL A   1      35.925  30.048  29.636  1.00  0.00     0.016 A 
ATOM     34  C   UNL A   1      38.346  31.277  28.910  1.00  0.00     0.010 A 
ATOM     35  C   UNL A   1      37.138  29.580  30.154  1.00  0.00     0.010 A 
ATOM     36  C   UNL A   1      38.357  30.171  29.769  1.00  0.00    -0.014 A 
BRANCH  36  37
ATOM     37  C   UNL A   1      39.654  29.550  30.140  1.00  0.00     0.031 A 
ATOM     38  C   UNL A   1      40.445  30.136  31.279  1.00  0.00     0.074 A 
ATOM     39  C   UNL A   1      40.101  28.454  29.500  1.00  0.00     0.049 A 
ATOM     40  N   UNL A   1      41.605  29.771  31.760  1.00  0.00    -0.248 NA
ATOM     41  C   UNL A   1      39.842  31.287  31.966  1.00  0.00     0.031 C 
ATOM     42  C   UNL A   1      39.400  27.768  28.415  1.00  0.00     0.029 A 
ATOM     43  N   UNL A   1      41.253  27.728  29.668  1.00  0.00    -0.354 N 
ATOM     44  C   UNL A   1      41.874  30.648  32.806  1.00  0.00     0.074 A 
ATOM     45  C   UNL A   1      40.771  31.583  32.862  1.00  0.00     0.031 C 
ATOM     46  C   UNL A   1      40.142  26.725  28.008  1.00  0.00     0.029 A 
ATOM     47  C   UNL A   1      41.386  26.689  28.777  1.00  0.00     0.049 A 
ATOM     48  H   UNL A   1      41.921  27.931  30.362  1.00  0.00     0.167 HD
ATOM     49  C   UNL A   1      42.938  30.663  33.648  1.00  0.00     0.034 A 
ATOM     50  C   UNL A   1      42.405  25.827  28.585  1.00  0.00     0.034 A 
ATOM     51  C   UNL A   1      44.037  29.732  33.572  1.00  0.00     0.049 A 
ATOM     52  C   UNL A   1      43.624  25.924  29.472  1.00  0.00     0.074 A 
ATOM     53  C   UNL A   1      45.155  29.648  34.383  1.00  0.00     0.029 A 
ATOM     54  N   UNL A   1      44.166  28.730  32.618  1.00  0.00    -0.354 N 
ATOM     55  N   UNL A   1      43.862  26.751  30.463  1.00  0.00    -0.248 NA
ATOM     56  C   UNL A   1      44.708  24.966  29.216  1.00  0.00     0.031 C 
ATOM     57  C   UNL A   1      45.992  28.647  33.877  1.00  0.00     0.029 A 
ATOM     58  C   UNL A   1      45.362  28.051  32.796  1.00  0.00     0.049 A 
ATOM     59  H   UNL A   1      43.505  28.531  31.916  1.00  0.00     0.167 HD
ATOM     60  C   UNL A   1      45.111  26.393  30.965  1.00  0.00     0.074 A 
ATOM     61  C   UNL A   1      45.567  25.268  30.177  1.00  0.00     0.031 C 
ATOM     62  C   UNL A   1      45.815  26.941  31.990  1.00  0.00     0.034 A 
BRANCH  49  63
ATOM     63  C   UNL A   1      42.983  31.759  34.686  1.00  0.00     0.023 A 
ATOM     64  C   UNL A   1      42.311  31.645  35.915  1.00  0.00     0.031 A 
ATOM     65  C   UNL A   1      43.686  32.950  34.428  1.00  0.00     0.131 A 
ATOM     66  C   UNL A   1      42.300  32.728  36.810  1.00  0.00     0.055 A 
ATOM     67  C   UNL A   1      43.734  33.993  35.354  1.00  0.00     0.041 A 
ATOM     68  F   UNL A   1      44.327  33.125  33.261  1.00  0.00    -0.206 F 
ATOM     69  C   UNL A   1      43.026  33.891  36.548  1.00  0.00     0.022 A 
BRANCH  66  70
ATOM     70  S   UNL A   1      41.207  32.646  38.256  1.00  0.00     0.124 S 
ATOM     71  O   UNL A   1      39.990  32.083  37.676  1.00  0.00    -0.237 OA
ATOM     72  O   UNL A   1      41.947  31.775  39.162  1.00  0.00    -0.237 OA
ATOM     73  O   UNL A   1      41.098  34.041  38.681  1.00  0.00    -0.744 OA
ENDBRANCH  66  70
ENDBRANCH  49  63
BRANCH  50  74
ATOM     74  C   UNL A   1      42.351  24.827  27.481  1.00  0.00     0.023 A 
ATOM     75  C   UNL A   1      41.592  23.652  27.599  1.00  0.00     0.031 A 
ATOM     76  C   UNL A   1      43.105  25.010  26.307  1.00  0.00     0.131 A 
ATOM     77  C   UNL A   1      41.640  22.684  26.581  1.00  0.00     0.055 A 
ATOM     78  C   UNL A   1      43.108  24.070  25.277  1.00  0.00     0.041 A 
ATOM     79  F   UNL A   1      43.848  26.117  26.144  1.00  0.00    -0.206 F 
ATOM     80  C   UNL A   1      42.382  22.892  25.416  1.00  0.00     0.022 A 
BRANCH  77  81
ATOM     81  S   UNL A   1      40.778  21.109  26.839  1.00  0.00     0.124 S 
ATOM     82  O   UNL A   1      39.477  21.381  26.237  1.00  0.00    -0.237 OA
ATOM     83  O   UNL A   1      41.636  20.174  26.120  1.00  0.00    -0.237 OA
ATOM     84  O   UNL A   1      40.774  20.957  28.293  1.00  0.00    -0.744 OA
ENDBRANCH  77  81
ENDBRANCH  50  74
BRANCH  62  85
ATOM     85  C   UNL A   1      47.138  26.300  32.333  1.00  0.00     0.023 A 
ATOM     86  C   UNL A   1      47.231  25.245  33.258  1.00  0.00     0.031 A 
ATOM     87  C   UNL A   1      48.324  26.759  31.733  1.00  0.00     0.131 A 
ATOM     88  C   UNL A   1      48.488  24.721  33.598  1.00  0.00     0.055 A 
ATOM     89  C   UNL A   1      49.565  26.194  32.031  1.00  0.00     0.041 A 
ATOM     90  F   UNL A   1      48.295  27.765  30.845  1.00  0.00    -0.206 F 
ATOM     91  C   UNL A   1      49.654  25.178  32.977  1.00  0.00     0.022 A 
BRANCH  88  92
ATOM     92  S   UNL A   1      48.590  23.492  34.929  1.00  0.00     0.124 S 
ATOM     93  O   UNL A   1      48.530  24.331  36.121  1.00  0.00    -0.237 OA
ATOM     94  O   UNL A   1      47.420  22.659  34.675  1.00  0.00    -0.237 OA
ATOM     95  O   UNL A   1      49.878  22.839  34.695  1.00  0.00    -0.744 OA
ENDBRANCH  88  92
ENDBRANCH  62  85
ENDBRANCH  36  37
ENDBRANCH  29  31
ENDBRANCH  28  29
ENDBRANCH  27  28
ENDBRANCH  26  27
ENDBRANCH  25  26
ENDBRANCH   1  25
TORSDOF 22
ENDMDL
MODEL 3
REMARK VINA RESULT:     -10.2      2.965      3.665
REMARK SMILES C[NH+](C)Cc1noc(C[C@@](C)(C(=O)OCCOCCOC(=O)c2ccc(-c3c4nc(c(-c5cc(S(=O)(=O)[O-])ccc5F)c5ccc([nH]5)c(-c5cc(S(=O)(=O)[O-])ccc5F)c5nc(c(-c6cc(S(=O)(=O)[O-])ccc6F)c6ccc3[nH]6)C=C5)C=C4)cc2)c2ccccc2)n1
REMARK SMILES IDX 16 1 15 2 14 3 12 4 13 5 10 6 11 7 9 8 8 9 5 10 6 11 92 12
REMARK SMILES IDX 7 13 4 14 2 15 1 16 3 17 86 19 87 20 91 21 88 22 90 23 89 24
REMARK SMILES IDX 17 25 18 26 19 27 20 28 21 29 22 30 23 31 24 32 85 33 25 34
REMARK SMILES IDX 84 35 26 36 27 37 28 38 78 39 29 40 83 41 77 42 79 43 30 44
REMARK SMILES IDX 82 45 76 46 75 47 31 49 63 50 43 51 62 52 44 53 47 54 61 55
REMARK SMILES IDX 80 56 45 57 46 58 60 60 81 61 48 62 32 63 33 64 41 65 34 66
REMARK SMILES IDX 40 67 42 68 39 69 35 70 36 71 37 72 38 73 64 74 65 75 73 76
REMARK SMILES IDX 66 77 72 78 74 79 71 80 67 81 68 82 69 83 70 84 49 85 50 86
REMARK SMILES IDX 58 87 51 88 57 89 59 90 56 91 52 92 53 93 54 94 55 95
REMARK H PARENT 2 18 79 48 47 59
REMARK Flexibility Score: inf
ROOT
ATOM      1  C   UNL A   1      32.226  28.202  24.243  1.00  0.00     0.202 C 
ENDROOT
BRANCH   1   2
ATOM      2  C   UNL A   1      31.946  27.501  22.908  1.00  0.00     0.261 C 
BRANCH   2   3
ATOM      3  O   UNL A   1      31.995  26.066  23.001  1.00  0.00    -0.463 OA
BRANCH   3   4
ATOM      4  C   UNL A   1      32.972  25.476  22.258  1.00  0.00     0.316 C 
ATOM      5  O   UNL A   1      33.636  26.073  21.413  1.00  0.00    -0.251 OA
BRANCH   4   6
ATOM      6  C   UNL A   1      33.171  23.968  22.567  1.00  0.00     0.099 C 
ATOM      7  C   UNL A   1      33.405  23.322  21.172  1.00  0.00     0.029 C 
BRANCH   6   8
ATOM      8  C   UNL A   1      31.884  23.316  23.169  1.00  0.00     0.123 C 
BRANCH   8   9
ATOM      9  C   UNL A   1      32.162  22.121  24.016  1.00  0.00     0.228 A 
ATOM     10  C   UNL A   1      32.655  20.255  24.845  1.00  0.00     0.226 A 
ATOM     11  N   UNL A   1      31.881  20.824  25.784  1.00  0.00    -0.056 NA
ATOM     12  N   UNL A   1      32.881  21.053  23.747  1.00  0.00    -0.190 NA
ATOM     13  O   UNL A   1      31.566  22.069  25.241  1.00  0.00    -0.339 OA
BRANCH  10  14
ATOM     14  C   UNL A   1      33.132  18.836  24.997  1.00  0.00     0.344 C 
BRANCH  14  15
ATOM     15  N   UNL A   1      32.367  17.768  24.320  1.00  0.00    -0.333 N 
ATOM     16  C   UNL A   1      32.592  17.719  22.880  1.00  0.00     0.332 C 
ATOM     17  C   UNL A   1      32.546  16.461  24.941  1.00  0.00     0.332 C 
ATOM     18  H   UNL A   1      31.387  18.023  24.447  1.00  0.00     0.348 HD
ENDBRANCH  14  15
ENDBRANCH  10  14
ENDBRANCH   8   9
ENDBRANCH   6   8
BRANCH   6  19
ATOM     19  C   UNL A   1      34.434  23.854  23.468  1.00  0.00    -0.030 A 
ATOM     20  C   UNL A   1      35.561  23.093  23.109  1.00  0.00     0.005 A 
ATOM     21  C   UNL A   1      34.454  24.453  24.743  1.00  0.00     0.005 A 
ATOM     22  C   UNL A   1      36.667  22.975  23.958  1.00  0.00     0.000 A 
ATOM     23  C   UNL A   1      35.551  24.322  25.600  1.00  0.00     0.000 A 
ATOM     24  C   UNL A   1      36.663  23.589  25.203  1.00  0.00     0.000 A 
ENDBRANCH   6  19
ENDBRANCH   4   6
ENDBRANCH   3   4
ENDBRANCH   2   3
ENDBRANCH   1   2
BRANCH   1  25
ATOM     25  O   UNL A   1      31.236  29.099  24.738  1.00  0.00    -0.374 OA
BRANCH  25  26
ATOM     26  C   UNL A   1      31.488  29.746  25.983  1.00  0.00     0.202 C 
BRANCH  26  27
ATOM     27  C   UNL A   1      32.839  30.453  26.164  1.00  0.00     0.261 C 
BRANCH  27  28
ATOM     28  O   UNL A   1      33.005  31.009  27.482  1.00  0.00    -0.460 OA
BRANCH  28  29
ATOM     29  C   UNL A   1      33.903  32.023  27.556  1.00  0.00     0.338 C 
ATOM     30  O   UNL A   1      33.672  33.218  27.410  1.00  0.00    -0.246 OA
BRANCH  29  31
ATOM     31  C   UNL A   1      35.203  31.529  28.042  1.00  0.00     0.060 A 
ATOM     32  C   UNL A   1      35.269  30.197  28.474  1.00  0.00     0.016 A 
ATOM     33  C   UNL A   1      36.314  32.367  28.162  1.00  0.00     0.016 A 
ATOM     34  C   UNL A   1      36.432  29.709  29.066  1.00  0.00     0.010 A 
ATOM     35  C   UNL A   1      37.477  31.878  28.768  1.00  0.00     0.010 A 
ATOM     36  C   UNL A   1      37.531  30.557  29.253  1.00  0.00    -0.014 A 
BRANCH  36  37
ATOM     37  C   UNL A   1      38.672  30.098  30.084  1.00  0.00     0.031 A 
ATOM     38  C   UNL A   1      38.807  30.616  31.491  1.00  0.00     0.074 A 
ATOM     39  C   UNL A   1      39.552  29.197  29.609  1.00  0.00     0.049 A 
ATOM     40  N   UNL A   1      39.730  30.368  32.384  1.00  0.00    -0.248 NA
ATOM     41  C   UNL A   1      37.758  31.539  31.948  1.00  0.00     0.031 C 
ATOM     42  C   UNL A   1      39.497  28.586  28.281  1.00  0.00     0.029 A 
ATOM     43  N   UNL A   1      40.665  28.643  30.188  1.00  0.00    -0.354 N 
ATOM     44  C   UNL A   1      39.374  31.103  33.510  1.00  0.00     0.074 A 
ATOM     45  C   UNL A   1      38.172  31.835  33.170  1.00  0.00     0.031 C 
ATOM     46  C   UNL A   1      40.537  27.747  28.144  1.00  0.00     0.029 A 
ATOM     47  C   UNL A   1      41.353  27.789  29.358  1.00  0.00     0.049 A 
ATOM     48  H   UNL A   1      40.946  28.838  31.111  1.00  0.00     0.167 HD
ATOM     49  C   UNL A   1      39.989  31.155  34.719  1.00  0.00     0.034 A 
ATOM     50  C   UNL A   1      42.518  27.137  29.546  1.00  0.00     0.034 A 
ATOM     51  C   UNL A   1      41.195  30.430  35.039  1.00  0.00     0.049 A 
ATOM     52  C   UNL A   1      43.237  27.285  30.866  1.00  0.00     0.074 A 
ATOM     53  C   UNL A   1      41.891  30.398  36.235  1.00  0.00     0.029 A 
ATOM     54  N   UNL A   1      41.895  29.621  34.153  1.00  0.00    -0.354 N 
ATOM     55  N   UNL A   1      42.885  27.976  31.925  1.00  0.00    -0.248 NA
ATOM     56  C   UNL A   1      44.505  26.560  31.014  1.00  0.00     0.031 C 
ATOM     57  C   UNL A   1      43.046  29.630  36.051  1.00  0.00     0.029 A 
ATOM     58  C   UNL A   1      43.034  29.118  34.763  1.00  0.00     0.049 A 
ATOM     59  H   UNL A   1      41.623  29.431  33.227  1.00  0.00     0.167 HD
ATOM     60  C   UNL A   1      43.878  27.744  32.875  1.00  0.00     0.074 A 
ATOM     61  C   UNL A   1      44.831  26.840  32.267  1.00  0.00     0.031 C 
ATOM     62  C   UNL A   1      43.989  28.231  34.139  1.00  0.00     0.034 A 
BRANCH  49  63
ATOM     63  C   UNL A   1      39.392  32.071  35.761  1.00  0.00     0.023 A 
ATOM     64  C   UNL A   1      39.792  33.412  35.886  1.00  0.00     0.031 A 
ATOM     65  C   UNL A   1      38.428  31.585  36.662  1.00  0.00     0.131 A 
ATOM     66  C   UNL A   1      39.283  34.200  36.931  1.00  0.00     0.055 A 
ATOM     67  C   UNL A   1      37.868  32.395  37.651  1.00  0.00     0.041 A 
ATOM     68  F   UNL A   1      38.024  30.305  36.605  1.00  0.00    -0.206 F 
ATOM     69  C   UNL A   1      38.306  33.708  37.798  1.00  0.00     0.022 A 
BRANCH  66  70
ATOM     70  S   UNL A   1      40.018  35.832  37.224  1.00  0.00     0.124 S 
ATOM     71  O   UNL A   1      39.319  36.258  38.435  1.00  0.00    -0.237 OA
ATOM     72  O   UNL A   1      41.434  35.518  37.379  1.00  0.00    -0.237 OA
ATOM     73  O   UNL A   1      39.675  36.584  36.019  1.00  0.00    -0.744 OA
ENDBRANCH  66  70
ENDBRANCH  49  63
BRANCH  50  74
ATOM     74  C   UNL A   1      43.113  26.323  28.447  1.00  0.00     0.023 A 
ATOM     75  C   UNL A   1      44.156  26.823  27.652  1.00  0.00     0.031 A 
ATOM     76  C   UNL A   1      42.605  25.047  28.142  1.00  0.00     0.131 A 
ATOM     77  C   UNL A   1      44.628  26.070  26.564  1.00  0.00     0.055 A 
ATOM     78  C   UNL A   1      43.112  24.281  27.091  1.00  0.00     0.041 A 
ATOM     79  F   UNL A   1      41.607  24.522  28.871  1.00  0.00    -0.206 F 
ATOM     80  C   UNL A   1      44.122  24.798  26.287  1.00  0.00     0.022 A 
BRANCH  77  81
ATOM     81  S   UNL A   1      45.863  26.814  25.463  1.00  0.00     0.124 S 
ATOM     82  O   UNL A   1      46.154  25.711  24.555  1.00  0.00    -0.237 OA
ATOM     83  O   UNL A   1      45.123  27.936  24.894  1.00  0.00    -0.237 OA
ATOM     84  O   UNL A   1      46.949  27.182  26.369  1.00  0.00    -0.744 OA
ENDBRANCH  77  81
ENDBRANCH  50  74
BRANCH  62  85
ATOM     85  C   UNL A   1      45.168  27.759  34.955  1.00  0.00     0.023 A 
ATOM     86  C   UNL A   1      45.056  26.703  35.877  1.00  0.00     0.031 A 
ATOM     87  C   UNL A   1      46.421  28.383  34.814  1.00  0.00     0.131 A 
ATOM     88  C   UNL A   1      46.161  26.340  36.662  1.00  0.00     0.055 A 
ATOM     89  C   UNL A   1      47.531  27.978  35.556  1.00  0.00     0.041 A 
ATOM     90  F   UNL A   1      46.586  29.397  33.950  1.00  0.00    -0.206 F 
ATOM     91  C   UNL A   1      47.402  26.960  36.495  1.00  0.00     0.022 A 
BRANCH  88  92
ATOM     92  S   UNL A   1      45.932  25.104  37.970  1.00  0.00     0.124 S 
ATOM     93  O   UNL A   1      45.906  23.859  37.209  1.00  0.00    -0.237 OA
ATOM     94  O   UNL A   1      47.107  25.315  38.808  1.00  0.00    -0.237 OA
ATOM     95  O   UNL A   1      44.659  25.483  38.582  1.00  0.00    -0.744 OA
ENDBRANCH  88  92
ENDBRANCH  62  85
ENDBRANCH  36  37
ENDBRANCH  29  31
ENDBRANCH  28  29
ENDBRANCH  27  28
ENDBRANCH  26  27
ENDBRANCH  25  26
ENDBRANCH   1  25
TORSDOF 22
ENDMDL
