MODEL 1
REMARK VINA RESULT:     -11.3      0.000      0.000
REMARK SMILES O=C(C[C@@H]([NH2+]Cc1ccccc1)C(=O)/N=c1/[nH]c(-c2ccccc2)cs1)OCCOCCOC(=O)c1ccc(-c2c3nc(c(-c4cc(S(=O)(=O)[O-])ccc4F)c4ccc([nH]4)c(-c4cc(S(=O)(=O)[O-])ccc4F)c4nc(c(-c5cc(S(=O)(=O)[O-])ccc5F)c5ccc2[nH]5)C=C4)C=C3)cc1
REMARK SMILES IDX 29 1 28 2 27 3 2 4 1 5 3 6 4 7 5 8 6 11 7 12 8 13 12 14 9 15
REMARK SMILES IDX 11 16 10 17 13 18 14 19 15 20 16 21 17 22 26 23 18 24 25 26
REMARK SMILES IDX 19 27 20 28 24 29 21 30 23 31 22 32 30 33 31 34 32 35 33 36
REMARK SMILES IDX 34 37 35 38 36 39 37 40 98 41 38 42 97 43 39 44 40 45 41 46
REMARK SMILES IDX 91 47 42 48 96 49 90 50 92 51 43 52 95 53 89 54 88 55 44 57
REMARK SMILES IDX 76 58 56 59 75 60 57 61 60 62 74 63 93 64 58 65 59 66 73 68
REMARK SMILES IDX 94 69 61 70 45 71 46 72 54 73 47 74 53 75 55 76 52 77 48 78
REMARK SMILES IDX 49 79 50 80 51 81 77 82 78 83 86 84 79 85 85 86 87 87 84 88
REMARK SMILES IDX 80 89 81 90 82 91 83 92 62 93 63 94 71 95 64 96 70 97 72 98
REMARK SMILES IDX 69 99 65 100 66 101 67 102 68 103
REMARK H PARENT 5 9 5 10 17 25 92 56 60 67
REMARK Flexibility Score: inf
ROOT
ATOM      1  C   UNL A   1      32.887  29.686  25.300  1.00  0.00     0.202 C 
ENDROOT
BRANCH   1   2
ATOM      2  C   UNL A   1      33.839  28.583  25.781  1.00  0.00     0.261 C 
BRANCH   2   3
ATOM      3  O   UNL A   1      34.101  27.531  24.829  1.00  0.00    -0.463 OA
BRANCH   3   4
ATOM      4  C   UNL A   1      33.257  26.476  24.812  1.00  0.00     0.312 C 
ATOM      5  O   UNL A   1      33.457  25.481  24.124  1.00  0.00    -0.252 OA
BRANCH   4   6
ATOM      6  C   UNL A   1      32.038  26.636  25.684  1.00  0.00     0.198 C 
BRANCH   6   7
ATOM      7  C   UNL A   1      30.652  26.293  25.120  1.00  0.00     0.286 C 
BRANCH   7   8
ATOM      8  N   UNL A   1      30.498  26.295  23.645  1.00  0.00    -0.332 N 
ATOM      9  H   UNL A   1      29.529  26.066  23.423  1.00  0.00     0.347 HD
ATOM     10  H   UNL A   1      31.160  25.609  23.280  1.00  0.00     0.347 HD
BRANCH   8  11
ATOM     11  C   UNL A   1      30.824  27.574  23.011  1.00  0.00     0.297 C 
BRANCH  11  12
ATOM     12  C   UNL A   1      29.653  28.530  23.053  1.00  0.00     0.006 A 
ATOM     13  C   UNL A   1      28.340  28.055  22.930  1.00  0.00     0.009 A 
ATOM     14  C   UNL A   1      29.857  29.894  23.317  1.00  0.00     0.009 A 
ATOM     15  C   UNL A   1      27.255  28.908  23.119  1.00  0.00     0.001 A 
ATOM     16  C   UNL A   1      28.769  30.752  23.476  1.00  0.00     0.001 A 
ATOM     17  C   UNL A   1      27.469  30.256  23.393  1.00  0.00     0.000 A 
ENDBRANCH  11  12
ENDBRANCH   8  11
ENDBRANCH   7   8
BRANCH   7  18
ATOM     18  C   UNL A   1      30.228  24.914  25.707  1.00  0.00     0.307 C 
ATOM     19  O   UNL A   1      29.751  24.842  26.839  1.00  0.00    -0.265 OA
BRANCH  18  20
ATOM     20  N   UNL A   1      30.388  23.816  24.888  1.00  0.00    -0.180 NA
ATOM     21  C   UNL A   1      31.247  22.914  25.225  1.00  0.00     0.190 A 
ATOM     22  N   UNL A   1      31.530  21.772  24.515  1.00  0.00    -0.330 N 
ATOM     23  S   UNL A   1      32.318  22.921  26.659  1.00  0.00    -0.105 S 
ATOM     24  C   UNL A   1      32.588  21.000  24.965  1.00  0.00     0.058 A 
ATOM     25  H   UNL A   1      31.006  21.514  23.723  1.00  0.00     0.169 HD
ATOM     26  C   UNL A   1      33.161  21.507  26.074  1.00  0.00     0.095 A 
BRANCH  24  27
ATOM     27  C   UNL A   1      33.006  19.750  24.300  1.00  0.00    -0.001 A 
ATOM     28  C   UNL A   1      32.302  19.207  23.214  1.00  0.00     0.010 A 
ATOM     29  C   UNL A   1      34.118  19.031  24.779  1.00  0.00     0.010 A 
ATOM     30  C   UNL A   1      32.688  17.987  22.643  1.00  0.00     0.001 A 
ATOM     31  C   UNL A   1      34.512  17.820  24.202  1.00  0.00     0.001 A 
ATOM     32  C   UNL A   1      33.791  17.294  23.137  1.00  0.00     0.000 A 
ENDBRANCH  24  27
ENDBRANCH  18  20
ENDBRANCH   7  18
ENDBRANCH   6   7
ENDBRANCH   4   6
ENDBRANCH   3   4
ENDBRANCH   2   3
ENDBRANCH   1   2
BRANCH   1  33
ATOM     33  O   UNL A   1      32.085  30.332  26.281  1.00  0.00    -0.374 OA
BRANCH  33  34
ATOM     34  C   UNL A   1      32.706  31.167  27.252  1.00  0.00     0.202 C 
BRANCH  34  35
ATOM     35  C   UNL A   1      32.091  32.560  27.332  1.00  0.00     0.261 C 
BRANCH  35  36
ATOM     36  O   UNL A   1      33.137  33.534  27.420  1.00  0.00    -0.460 OA
BRANCH  36  37
ATOM     37  C   UNL A   1      33.334  34.101  28.632  1.00  0.00     0.338 C 
ATOM     38  O   UNL A   1      32.547  34.779  29.271  1.00  0.00    -0.246 OA
BRANCH  37  39
ATOM     39  C   UNL A   1      34.590  33.539  29.176  1.00  0.00     0.060 A 
ATOM     40  C   UNL A   1      34.509  32.515  30.130  1.00  0.00     0.016 A 
ATOM     41  C   UNL A   1      35.831  33.966  28.697  1.00  0.00     0.016 A 
ATOM     42  C   UNL A   1      35.672  31.914  30.609  1.00  0.00     0.010 A 
ATOM     43  C   UNL A   1      36.993  33.373  29.182  1.00  0.00     0.010 A 
ATOM     44  C   UNL A   1      36.918  32.357  30.148  1.00  0.00    -0.014 A 
BRANCH  44  45
ATOM     45  C   UNL A   1      38.174  31.878  30.760  1.00  0.00     0.031 A 
ATOM     46  C   UNL A   1      38.943  30.812  30.037  1.00  0.00     0.074 A 
ATOM     47  C   UNL A   1      38.556  32.323  31.970  1.00  0.00     0.049 A 
ATOM     48  N   UNL A   1      39.951  30.094  30.451  1.00  0.00    -0.248 NA
ATOM     49  C   UNL A   1      38.499  30.501  28.668  1.00  0.00     0.031 C 
ATOM     50  C   UNL A   1      37.882  33.375  32.733  1.00  0.00     0.029 A 
ATOM     51  N   UNL A   1      39.577  31.917  32.788  1.00  0.00    -0.354 N 
ATOM     52  C   UNL A   1      40.247  29.228  29.406  1.00  0.00     0.074 A 
ATOM     53  C   UNL A   1      39.306  29.502  28.343  1.00  0.00     0.031 C 
ATOM     54  C   UNL A   1      38.488  33.504  33.926  1.00  0.00     0.029 A 
ATOM     55  C   UNL A   1      39.554  32.509  34.031  1.00  0.00     0.049 A 
ATOM     56  H   UNL A   1      40.262  31.265  32.514  1.00  0.00     0.167 HD
ATOM     57  C   UNL A   1      41.215  28.284  29.351  1.00  0.00     0.034 A 
ATOM     58  C   UNL A   1      40.277  32.236  35.137  1.00  0.00     0.034 A 
ATOM     59  C   UNL A   1      42.135  28.031  30.431  1.00  0.00     0.049 A 
ATOM     60  C   UNL A   1      41.305  31.129  35.069  1.00  0.00     0.074 A 
ATOM     61  C   UNL A   1      43.198  27.148  30.465  1.00  0.00     0.029 A 
ATOM     62  N   UNL A   1      42.085  28.648  31.673  1.00  0.00    -0.354 N 
ATOM     63  N   UNL A   1      41.618  30.352  34.055  1.00  0.00    -0.248 NA
ATOM     64  C   UNL A   1      42.075  30.858  36.291  1.00  0.00     0.031 C 
ATOM     65  C   UNL A   1      43.739  27.172  31.754  1.00  0.00     0.029 A 
ATOM     66  C   UNL A   1      43.066  28.127  32.500  1.00  0.00     0.049 A 
ATOM     67  H   UNL A   1      41.446  29.352  31.929  1.00  0.00     0.167 HD
ATOM     68  C   UNL A   1      42.636  29.520  34.513  1.00  0.00     0.074 A 
ATOM     69  C   UNL A   1      42.899  29.904  35.885  1.00  0.00     0.031 C 
ATOM     70  C   UNL A   1      43.299  28.527  33.866  1.00  0.00     0.034 A 
BRANCH  57  71
ATOM     71  C   UNL A   1      41.289  27.421  28.119  1.00  0.00     0.023 A 
ATOM     72  C   UNL A   1      40.884  26.076  28.124  1.00  0.00     0.031 A 
ATOM     73  C   UNL A   1      41.767  27.963  26.913  1.00  0.00     0.131 A 
ATOM     74  C   UNL A   1      41.005  25.306  26.957  1.00  0.00     0.055 A 
ATOM     75  C   UNL A   1      41.824  27.212  25.739  1.00  0.00     0.041 A 
ATOM     76  F   UNL A   1      42.195  29.236  26.858  1.00  0.00    -0.206 F 
ATOM     77  C   UNL A   1      41.448  25.872  25.759  1.00  0.00     0.022 A 
BRANCH  74  78
ATOM     78  S   UNL A   1      40.666  23.527  27.049  1.00  0.00     0.124 S 
ATOM     79  O   UNL A   1      41.142  23.204  28.391  1.00  0.00    -0.237 OA
ATOM     80  O   UNL A   1      39.222  23.470  26.854  1.00  0.00    -0.237 OA
ATOM     81  O   UNL A   1      41.465  22.969  25.959  1.00  0.00    -0.744 OA
ENDBRANCH  74  78
ENDBRANCH  57  71
BRANCH  58  82
ATOM     82  C   UNL A   1      40.018  32.952  36.421  1.00  0.00     0.023 A 
ATOM     83  C   UNL A   1      39.087  32.459  37.350  1.00  0.00     0.031 A 
ATOM     84  C   UNL A   1      40.633  34.186  36.701  1.00  0.00     0.131 A 
ATOM     85  C   UNL A   1      38.750  33.224  38.478  1.00  0.00     0.055 A 
ATOM     86  C   UNL A   1      40.341  34.913  37.857  1.00  0.00     0.041 A 
ATOM     87  F   UNL A   1      41.527  34.710  35.847  1.00  0.00    -0.206 F 
ATOM     88  C   UNL A   1      39.380  34.441  38.746  1.00  0.00     0.022 A 
BRANCH  85  89
ATOM     89  S   UNL A   1      37.381  32.661  39.527  1.00  0.00     0.124 S 
ATOM     90  O   UNL A   1      36.242  32.796  38.626  1.00  0.00    -0.237 OA
ATOM     91  O   UNL A   1      37.788  31.296  39.846  1.00  0.00    -0.237 OA
ATOM     92  O   UNL A   1      37.405  33.596  40.649  1.00  0.00    -0.744 OA
ENDBRANCH  85  89
ENDBRANCH  58  82
BRANCH  70  93
ATOM     93  C   UNL A   1      44.391  27.821  34.628  1.00  0.00     0.023 A 
ATOM     94  C   UNL A   1      44.113  26.738  35.480  1.00  0.00     0.031 A 
ATOM     95  C   UNL A   1      45.729  28.228  34.486  1.00  0.00     0.131 A 
ATOM     96  C   UNL A   1      45.154  26.128  36.194  1.00  0.00     0.055 A 
ATOM     97  C   UNL A   1      46.768  27.578  35.151  1.00  0.00     0.041 A 
ATOM     98  F   UNL A   1      46.049  29.257  33.684  1.00  0.00    -0.206 F 
ATOM     99  C   UNL A   1      46.482  26.529  36.019  1.00  0.00     0.022 A 
BRANCH  96 100
ATOM    100  S   UNL A   1      44.743  24.847  37.408  1.00  0.00     0.124 S 
ATOM    101  O   UNL A   1      43.285  24.830  37.347  1.00  0.00    -0.237 OA
ATOM    102  O   UNL A   1      45.417  23.671  36.865  1.00  0.00    -0.237 OA
ATOM    103  O   UNL A   1      45.306  25.362  38.654  1.00  0.00    -0.744 OA
ENDBRANCH  96 100
ENDBRANCH  70  93
ENDBRANCH  44  45
ENDBRANCH  37  39
ENDBRANCH  36  37
ENDBRANCH  35  36
ENDBRANCH  34  35
ENDBRANCH  33  34
ENDBRANCH   1  33
TORSDOF 24
ENDMDL
MODEL 2
REMARK VINA RESULT:     -11.2      2.166      2.508
REMARK SMILES O=C(C[C@@H]([NH2+]Cc1ccccc1)C(=O)/N=c1/[nH]c(-c2ccccc2)cs1)OCCOCCOC(=O)c1ccc(-c2c3nc(c(-c4cc(S(=O)(=O)[O-])ccc4F)c4ccc([nH]4)c(-c4cc(S(=O)(=O)[O-])ccc4F)c4nc(c(-c5cc(S(=O)(=O)[O-])ccc5F)c5ccc2[nH]5)C=C4)C=C3)cc1
REMARK SMILES IDX 29 1 28 2 27 3 2 4 1 5 3 6 4 7 5 8 6 11 7 12 8 13 12 14 9 15
REMARK SMILES IDX 11 16 10 17 13 18 14 19 15 20 16 21 17 22 26 23 18 24 25 26
REMARK SMILES IDX 19 27 20 28 24 29 21 30 23 31 22 32 30 33 31 34 32 35 33 36
REMARK SMILES IDX 34 37 35 38 36 39 37 40 98 41 38 42 97 43 39 44 40 45 41 46
REMARK SMILES IDX 91 47 42 48 96 49 90 50 92 51 43 52 95 53 89 54 88 55 44 57
REMARK SMILES IDX 76 58 56 59 75 60 57 61 60 62 74 63 93 64 58 65 59 66 73 68
REMARK SMILES IDX 94 69 61 70 45 71 46 72 54 73 47 74 53 75 55 76 52 77 48 78
REMARK SMILES IDX 49 79 50 80 51 81 77 82 78 83 86 84 79 85 85 86 87 87 84 88
REMARK SMILES IDX 80 89 81 90 82 91 83 92 62 93 63 94 71 95 64 96 70 97 72 98
REMARK SMILES IDX 69 99 65 100 66 101 67 102 68 103
REMARK H PARENT 5 9 5 10 17 25 92 56 60 67
REMARK Flexibility Score: inf
ROOT
ATOM      1  C   UNL A   1      32.890  29.633  25.147  1.00  0.00     0.202 C 
ENDROOT
BRANCH   1   2
ATOM      2  C   UNL A   1      33.808  28.496  25.614  1.00  0.00     0.261 C 
BRANCH   2   3
ATOM      3  O   UNL A   1      34.130  27.508  24.613  1.00  0.00    -0.463 OA
BRANCH   3   4
ATOM      4  C   UNL A   1      33.532  26.300  24.709  1.00  0.00     0.312 C 
ATOM      5  O   UNL A   1      33.873  25.338  24.030  1.00  0.00    -0.252 OA
BRANCH   4   6
ATOM      6  C   UNL A   1      32.395  26.241  25.697  1.00  0.00     0.198 C 
BRANCH   6   7
ATOM      7  C   UNL A   1      30.971  25.958  25.198  1.00  0.00     0.286 C 
BRANCH   7   8
ATOM      8  N   UNL A   1      30.750  25.967  23.732  1.00  0.00    -0.332 N 
ATOM      9  H   UNL A   1      29.769  25.749  23.554  1.00  0.00     0.347 HD
ATOM     10  H   UNL A   1      31.386  25.275  23.334  1.00  0.00     0.347 HD
BRANCH   8  11
ATOM     11  C   UNL A   1      31.060  27.244  23.087  1.00  0.00     0.297 C 
BRANCH  11  12
ATOM     12  C   UNL A   1      29.818  28.085  22.892  1.00  0.00     0.006 A 
ATOM     13  C   UNL A   1      28.562  27.604  23.287  1.00  0.00     0.009 A 
ATOM     14  C   UNL A   1      29.917  29.399  22.406  1.00  0.00     0.009 A 
ATOM     15  C   UNL A   1      27.440  28.429  23.249  1.00  0.00     0.001 A 
ATOM     16  C   UNL A   1      28.787  30.214  22.341  1.00  0.00     0.001 A 
ATOM     17  C   UNL A   1      27.553  29.734  22.778  1.00  0.00     0.000 A 
ENDBRANCH  11  12
ENDBRANCH   8  11
ENDBRANCH   7   8
BRANCH   7  18
ATOM     18  C   UNL A   1      30.516  24.598  25.807  1.00  0.00     0.307 C 
ATOM     19  O   UNL A   1      30.038  24.556  26.940  1.00  0.00    -0.265 OA
BRANCH  18  20
ATOM     20  N   UNL A   1      30.650  23.485  25.005  1.00  0.00    -0.180 NA
ATOM     21  C   UNL A   1      31.508  22.582  25.341  1.00  0.00     0.190 A 
ATOM     22  N   UNL A   1      31.768  21.424  24.646  1.00  0.00    -0.330 N 
ATOM     23  S   UNL A   1      32.609  22.606  26.751  1.00  0.00    -0.105 S 
ATOM     24  C   UNL A   1      32.828  20.652  25.088  1.00  0.00     0.058 A 
ATOM     25  H   UNL A   1      31.225  21.157  23.870  1.00  0.00     0.169 HD
ATOM     26  C   UNL A   1      33.428  21.175  26.176  1.00  0.00     0.095 A 
BRANCH  24  27
ATOM     27  C   UNL A   1      33.222  19.387  24.438  1.00  0.00    -0.001 A 
ATOM     28  C   UNL A   1      34.401  18.705  24.777  1.00  0.00     0.010 A 
ATOM     29  C   UNL A   1      32.432  18.845  23.406  1.00  0.00     0.010 A 
ATOM     30  C   UNL A   1      34.779  17.538  24.099  1.00  0.00     0.001 A 
ATOM     31  C   UNL A   1      32.800  17.673  22.738  1.00  0.00     0.001 A 
ATOM     32  C   UNL A   1      33.980  17.023  23.081  1.00  0.00     0.000 A 
ENDBRANCH  24  27
ENDBRANCH  18  20
ENDBRANCH   7  18
ENDBRANCH   6   7
ENDBRANCH   4   6
ENDBRANCH   3   4
ENDBRANCH   2   3
ENDBRANCH   1   2
BRANCH   1  33
ATOM     33  O   UNL A   1      32.209  30.377  26.151  1.00  0.00    -0.374 OA
BRANCH  33  34
ATOM     34  C   UNL A   1      32.956  31.210  27.031  1.00  0.00     0.202 C 
BRANCH  34  35
ATOM     35  C   UNL A   1      32.209  32.474  27.442  1.00  0.00     0.261 C 
BRANCH  35  36
ATOM     36  O   UNL A   1      33.116  33.583  27.431  1.00  0.00    -0.460 OA
BRANCH  36  37
ATOM     37  C   UNL A   1      33.276  34.244  28.601  1.00  0.00     0.338 C 
ATOM     38  O   UNL A   1      32.477  34.982  29.151  1.00  0.00    -0.246 OA
BRANCH  37  39
ATOM     39  C   UNL A   1      34.501  33.711  29.236  1.00  0.00     0.060 A 
ATOM     40  C   UNL A   1      34.374  32.679  30.176  1.00  0.00     0.016 A 
ATOM     41  C   UNL A   1      35.763  34.174  28.857  1.00  0.00     0.016 A 
ATOM     42  C   UNL A   1      35.513  32.105  30.740  1.00  0.00     0.010 A 
ATOM     43  C   UNL A   1      36.900  33.608  29.427  1.00  0.00     0.010 A 
ATOM     44  C   UNL A   1      36.778  32.583  30.379  1.00  0.00    -0.014 A 
BRANCH  44  45
ATOM     45  C   UNL A   1      37.996  32.133  31.084  1.00  0.00     0.031 A 
ATOM     46  C   UNL A   1      38.809  31.043  30.450  1.00  0.00     0.074 A 
ATOM     47  C   UNL A   1      38.303  32.627  32.296  1.00  0.00     0.049 A 
ATOM     48  N   UNL A   1      39.791  30.345  30.951  1.00  0.00    -0.248 NA
ATOM     49  C   UNL A   1      38.448  30.677  29.070  1.00  0.00     0.031 C 
ATOM     50  C   UNL A   1      37.584  33.705  32.975  1.00  0.00     0.029 A 
ATOM     51  N   UNL A   1      39.274  32.256  33.189  1.00  0.00    -0.354 N 
ATOM     52  C   UNL A   1      40.150  29.440  29.961  1.00  0.00     0.074 A 
ATOM     53  C   UNL A   1      39.274  29.670  28.833  1.00  0.00     0.031 C 
ATOM     54  C   UNL A   1      38.116  33.882  34.197  1.00  0.00     0.029 A 
ATOM     55  C   UNL A   1      39.176  32.897  34.404  1.00  0.00     0.049 A 
ATOM     56  H   UNL A   1      39.975  31.597  32.983  1.00  0.00     0.167 HD
ATOM     57  C   UNL A   1      41.121  28.498  30.001  1.00  0.00     0.034 A 
ATOM     58  C   UNL A   1      39.831  32.669  35.561  1.00  0.00     0.034 A 
ATOM     59  C   UNL A   1      41.975  28.291  31.143  1.00  0.00     0.049 A 
ATOM     60  C   UNL A   1      40.862  31.564  35.599  1.00  0.00     0.074 A 
ATOM     61  C   UNL A   1      43.035  27.414  31.275  1.00  0.00     0.029 A 
ATOM     62  N   UNL A   1      41.849  28.955  32.355  1.00  0.00    -0.354 N 
ATOM     63  N   UNL A   1      41.237  30.749  34.637  1.00  0.00    -0.248 NA
ATOM     64  C   UNL A   1      41.558  31.343  36.874  1.00  0.00     0.031 C 
ATOM     65  C   UNL A   1      43.497  27.490  32.593  1.00  0.00     0.029 A 
ATOM     66  C   UNL A   1      42.779  28.471  33.259  1.00  0.00     0.049 A 
ATOM     67  H   UNL A   1      41.195  29.667  32.545  1.00  0.00     0.167 HD
ATOM     68  C   UNL A   1      42.227  29.939  35.187  1.00  0.00     0.074 A 
ATOM     69  C   UNL A   1      42.407  30.377  36.556  1.00  0.00     0.031 C 
ATOM     70  C   UNL A   1      42.929  28.924  34.620  1.00  0.00     0.034 A 
BRANCH  57  71
ATOM     71  C   UNL A   1      41.269  27.588  28.810  1.00  0.00     0.023 A 
ATOM     72  C   UNL A   1      42.258  27.792  27.834  1.00  0.00     0.031 A 
ATOM     73  C   UNL A   1      40.405  26.489  28.658  1.00  0.00     0.131 A 
ATOM     74  C   UNL A   1      42.332  26.933  26.726  1.00  0.00     0.055 A 
ATOM     75  C   UNL A   1      40.524  25.601  27.589  1.00  0.00     0.041 A 
ATOM     76  F   UNL A   1      39.423  26.264  29.547  1.00  0.00    -0.206 F 
ATOM     77  C   UNL A   1      41.488  25.826  26.610  1.00  0.00     0.022 A 
BRANCH  74  78
ATOM     78  S   UNL A   1      43.483  27.341  25.386  1.00  0.00     0.124 S 
ATOM     79  O   UNL A   1      42.586  27.921  24.390  1.00  0.00    -0.237 OA
ATOM     80  O   UNL A   1      44.405  28.268  26.031  1.00  0.00    -0.237 OA
ATOM     81  O   UNL A   1      44.056  26.046  25.020  1.00  0.00    -0.744 OA
ENDBRANCH  74  78
ENDBRANCH  57  71
BRANCH  58  82
ATOM     82  C   UNL A   1      39.494  33.433  36.798  1.00  0.00     0.023 A 
ATOM     83  C   UNL A   1      40.161  34.626  37.118  1.00  0.00     0.031 A 
ATOM     84  C   UNL A   1      38.559  32.937  37.726  1.00  0.00     0.131 A 
ATOM     85  C   UNL A   1      39.935  35.247  38.357  1.00  0.00     0.055 A 
ATOM     86  C   UNL A   1      38.289  33.593  38.928  1.00  0.00     0.041 A 
ATOM     87  F   UNL A   1      37.893  31.798  37.476  1.00  0.00    -0.206 F 
ATOM     88  C   UNL A   1      38.993  34.746  39.259  1.00  0.00     0.022 A 
BRANCH  85  89
ATOM     89  S   UNL A   1      40.983  36.652  38.826  1.00  0.00     0.124 S 
ATOM     90  O   UNL A   1      40.020  37.746  38.849  1.00  0.00    -0.237 OA
ATOM     91  O   UNL A   1      41.498  36.222  40.122  1.00  0.00    -0.237 OA
ATOM     92  O   UNL A   1      41.972  36.711  37.752  1.00  0.00    -0.744 OA
ENDBRANCH  85  89
ENDBRANCH  58  82
BRANCH  70  93
ATOM     93  C   UNL A   1      43.974  28.252  35.473  1.00  0.00     0.023 A 
ATOM     94  C   UNL A   1      45.290  28.739  35.544  1.00  0.00     0.031 A 
ATOM     95  C   UNL A   1      43.643  27.119  36.236  1.00  0.00     0.131 A 
ATOM     96  C   UNL A   1      46.240  28.067  36.327  1.00  0.00     0.055 A 
ATOM     97  C   UNL A   1      44.576  26.491  37.060  1.00  0.00     0.041 A 
ATOM     98  F   UNL A   1      42.398  26.613  36.204  1.00  0.00    -0.206 F 
ATOM     99  C   UNL A   1      45.886  26.958  37.100  1.00  0.00     0.022 A 
BRANCH  96 100
ATOM    100  S   UNL A   1      47.965  28.621  36.267  1.00  0.00     0.124 S 
ATOM    101  O   UNL A   1      47.822  30.009  35.840  1.00  0.00    -0.237 OA
ATOM    102  O   UNL A   1      48.408  28.419  37.643  1.00  0.00    -0.237 OA
ATOM    103  O   UNL A   1      48.577  27.729  35.284  1.00  0.00    -0.744 OA
ENDBRANCH  96 100
ENDBRANCH  70  93
ENDBRANCH  44  45
ENDBRANCH  37  39
ENDBRANCH  36  37
ENDBRANCH  35  36
ENDBRANCH  34  35
ENDBRANCH  33  34
ENDBRANCH   1  33
TORSDOF 24
ENDMDL
MODEL 3
REMARK VINA RESULT:     -10.6      2.374      9.579
REMARK SMILES O=C(C[C@@H]([NH2+]Cc1ccccc1)C(=O)/N=c1/[nH]c(-c2ccccc2)cs1)OCCOCCOC(=O)c1ccc(-c2c3nc(c(-c4cc(S(=O)(=O)[O-])ccc4F)c4ccc([nH]4)c(-c4cc(S(=O)(=O)[O-])ccc4F)c4nc(c(-c5cc(S(=O)(=O)[O-])ccc5F)c5ccc2[nH]5)C=C4)C=C3)cc1
REMARK SMILES IDX 29 1 28 2 27 3 2 4 1 5 3 6 4 7 5 8 6 11 7 12 8 13 12 14 9 15
REMARK SMILES IDX 11 16 10 17 13 18 14 19 15 20 16 21 17 22 26 23 18 24 25 26
REMARK SMILES IDX 19 27 20 28 24 29 21 30 23 31 22 32 30 33 31 34 32 35 33 36
REMARK SMILES IDX 34 37 35 38 36 39 37 40 98 41 38 42 97 43 39 44 40 45 41 46
REMARK SMILES IDX 91 47 42 48 96 49 90 50 92 51 43 52 95 53 89 54 88 55 44 57
REMARK SMILES IDX 76 58 56 59 75 60 57 61 60 62 74 63 93 64 58 65 59 66 73 68
REMARK SMILES IDX 94 69 61 70 45 71 46 72 54 73 47 74 53 75 55 76 52 77 48 78
REMARK SMILES IDX 49 79 50 80 51 81 77 82 78 83 86 84 79 85 85 86 87 87 84 88
REMARK SMILES IDX 80 89 81 90 82 91 83 92 62 93 63 94 71 95 64 96 70 97 72 98
REMARK SMILES IDX 69 99 65 100 66 101 67 102 68 103
REMARK H PARENT 5 9 5 10 17 25 92 56 60 67
REMARK Flexibility Score: inf
ROOT
ATOM      1  C   UNL A   1      40.220  20.230  26.499  1.00  0.00     0.202 C 
ENDROOT
BRANCH   1   2
ATOM      2  C   UNL A   1      39.328  21.314  25.882  1.00  0.00     0.261 C 
BRANCH   2   3
ATOM      3  O   UNL A   1      38.164  20.833  25.177  1.00  0.00    -0.463 OA
BRANCH   3   4
ATOM      4  C   UNL A   1      37.138  21.694  25.002  1.00  0.00     0.312 C 
ATOM      5  O   UNL A   1      37.291  22.819  24.538  1.00  0.00    -0.252 OA
BRANCH   4   6
ATOM      6  C   UNL A   1      35.797  21.170  25.448  1.00  0.00     0.198 C 
BRANCH   6   7
ATOM      7  C   UNL A   1      34.513  21.809  24.901  1.00  0.00     0.286 C 
BRANCH   7   8
ATOM      8  N   UNL A   1      33.459  20.894  24.397  1.00  0.00    -0.332 N 
ATOM      9  H   UNL A   1      33.848  20.353  23.623  1.00  0.00     0.347 HD
ATOM     10  H   UNL A   1      32.673  21.479  24.113  1.00  0.00     0.347 HD
BRANCH   8  11
ATOM     11  C   UNL A   1      32.948  19.958  25.400  1.00  0.00     0.297 C 
BRANCH  11  12
ATOM     12  C   UNL A   1      33.113  18.522  24.957  1.00  0.00     0.006 A 
ATOM     13  C   UNL A   1      33.812  18.215  23.781  1.00  0.00     0.009 A 
ATOM     14  C   UNL A   1      32.657  17.470  25.767  1.00  0.00     0.009 A 
ATOM     15  C   UNL A   1      34.097  16.892  23.448  1.00  0.00     0.001 A 
ATOM     16  C   UNL A   1      32.916  16.145  25.416  1.00  0.00     0.001 A 
ATOM     17  C   UNL A   1      33.650  15.858  24.266  1.00  0.00     0.000 A 
ENDBRANCH  11  12
ENDBRANCH   8  11
ENDBRANCH   7   8
BRANCH   7  18
ATOM     18  C   UNL A   1      33.936  22.740  26.008  1.00  0.00     0.307 C 
ATOM     19  O   UNL A   1      34.574  22.943  27.041  1.00  0.00    -0.265 OA
BRANCH  18  20
ATOM     20  N   UNL A   1      32.717  23.330  25.750  1.00  0.00    -0.180 NA
ATOM     21  C   UNL A   1      32.696  24.446  25.103  1.00  0.00     0.190 A 
ATOM     22  N   UNL A   1      31.569  25.162  24.776  1.00  0.00    -0.330 N 
ATOM     23  S   UNL A   1      34.102  25.377  24.504  1.00  0.00    -0.105 S 
ATOM     24  C   UNL A   1      31.762  26.411  24.209  1.00  0.00     0.058 A 
ATOM     25  H   UNL A   1      30.666  24.805  24.938  1.00  0.00     0.169 HD
ATOM     26  C   UNL A   1      33.067  26.707  24.048  1.00  0.00     0.095 A 
BRANCH  24  27
ATOM     27  C   UNL A   1      30.645  27.290  23.811  1.00  0.00    -0.001 A 
ATOM     28  C   UNL A   1      29.302  26.901  23.940  1.00  0.00     0.010 A 
ATOM     29  C   UNL A   1      30.905  28.548  23.235  1.00  0.00     0.010 A 
ATOM     30  C   UNL A   1      28.266  27.733  23.497  1.00  0.00     0.001 A 
ATOM     31  C   UNL A   1      29.871  29.385  22.804  1.00  0.00     0.001 A 
ATOM     32  C   UNL A   1      28.549  28.973  22.928  1.00  0.00     0.000 A 
ENDBRANCH  24  27
ENDBRANCH  18  20
ENDBRANCH   7  18
ENDBRANCH   6   7
ENDBRANCH   4   6
ENDBRANCH   3   4
ENDBRANCH   2   3
ENDBRANCH   1   2
BRANCH   1  33
ATOM     33  O   UNL A   1      41.628  20.415  26.413  1.00  0.00    -0.374 OA
BRANCH  33  34
ATOM     34  C   UNL A   1      42.143  21.655  25.942  1.00  0.00     0.202 C 
BRANCH  34  35
ATOM     35  C   UNL A   1      43.658  21.653  25.770  1.00  0.00     0.261 C 
BRANCH  35  36
ATOM     36  O   UNL A   1      44.204  22.829  26.380  1.00  0.00    -0.460 OA
BRANCH  36  37
ATOM     37  C   UNL A   1      44.086  23.981  25.682  1.00  0.00     0.338 C 
ATOM     38  O   UNL A   1      44.140  24.126  24.473  1.00  0.00    -0.246 OA
BRANCH  37  39
ATOM     39  C   UNL A   1      43.618  25.016  26.630  1.00  0.00     0.060 A 
ATOM     40  C   UNL A   1      44.230  26.277  26.602  1.00  0.00     0.016 A 
ATOM     41  C   UNL A   1      42.542  24.769  27.486  1.00  0.00     0.016 A 
ATOM     42  C   UNL A   1      43.764  27.297  27.431  1.00  0.00     0.010 A 
ATOM     43  C   UNL A   1      42.083  25.783  28.321  1.00  0.00     0.010 A 
ATOM     44  C   UNL A   1      42.701  27.044  28.306  1.00  0.00    -0.014 A 
BRANCH  44  45
ATOM     45  C   UNL A   1      42.298  28.033  29.327  1.00  0.00     0.031 A 
ATOM     46  C   UNL A   1      43.028  28.024  30.637  1.00  0.00     0.074 A 
ATOM     47  C   UNL A   1      41.249  28.846  29.111  1.00  0.00     0.049 A 
ATOM     48  N   UNL A   1      42.741  28.644  31.749  1.00  0.00    -0.248 NA
ATOM     49  C   UNL A   1      44.236  27.183  30.706  1.00  0.00     0.031 C 
ATOM     50  C   UNL A   1      40.497  28.940  27.859  1.00  0.00     0.029 A 
ATOM     51  N   UNL A   1      40.608  29.717  29.954  1.00  0.00    -0.354 N 
ATOM     52  C   UNL A   1      43.714  28.250  32.658  1.00  0.00     0.074 A 
ATOM     53  C   UNL A   1      44.595  27.330  31.972  1.00  0.00     0.031 C 
ATOM     54  C   UNL A   1      39.472  29.792  28.029  1.00  0.00     0.029 A 
ATOM     55  C   UNL A   1      39.464  30.261  29.413  1.00  0.00     0.049 A 
ATOM     56  H   UNL A   1      40.934  29.933  30.857  1.00  0.00     0.167 HD
ATOM     57  C   UNL A   1      43.849  28.622  33.953  1.00  0.00     0.034 A 
ATOM     58  C   UNL A   1      38.500  31.006  29.993  1.00  0.00     0.034 A 
ATOM     59  C   UNL A   1      42.951  29.538  34.609  1.00  0.00     0.049 A 
ATOM     60  C   UNL A   1      38.639  31.349  31.459  1.00  0.00     0.074 A 
ATOM     61  C   UNL A   1      43.025  30.040  35.895  1.00  0.00     0.029 A 
ATOM     62  N   UNL A   1      41.805  30.070  34.035  1.00  0.00    -0.354 N 
ATOM     63  N   UNL A   1      39.596  31.018  32.299  1.00  0.00    -0.248 NA
ATOM     64  C   UNL A   1      37.572  32.161  32.058  1.00  0.00     0.031 C 
ATOM     65  C   UNL A   1      41.881  30.809  36.125  1.00  0.00     0.029 A 
ATOM     66  C   UNL A   1      41.134  30.854  34.958  1.00  0.00     0.049 A 
ATOM     67  H   UNL A   1      41.512  29.913  33.108  1.00  0.00     0.167 HD
ATOM     68  C   UNL A   1      39.254  31.604  33.515  1.00  0.00     0.074 A 
ATOM     69  C   UNL A   1      38.017  32.325  33.294  1.00  0.00     0.031 C 
ATOM     70  C   UNL A   1      39.898  31.555  34.709  1.00  0.00     0.034 A 
BRANCH  57  71
ATOM     71  C   UNL A   1      44.960  27.996  34.754  1.00  0.00     0.023 A 
ATOM     72  C   UNL A   1      44.768  26.831  35.514  1.00  0.00     0.031 A 
ATOM     73  C   UNL A   1      46.240  28.578  34.746  1.00  0.00     0.131 A 
ATOM     74  C   UNL A   1      45.829  26.308  36.270  1.00  0.00     0.055 A 
ATOM     75  C   UNL A   1      47.308  28.018  35.447  1.00  0.00     0.041 A 
ATOM     76  F   UNL A   1      46.473  29.709  34.059  1.00  0.00    -0.206 F 
ATOM     77  C   UNL A   1      47.103  26.880  36.221  1.00  0.00     0.022 A 
BRANCH  74  78
ATOM     78  S   UNL A   1      45.497  24.926  37.395  1.00  0.00     0.124 S 
ATOM     79  O   UNL A   1      45.759  25.534  38.697  1.00  0.00    -0.237 OA
ATOM     80  O   UNL A   1      44.102  24.612  37.108  1.00  0.00    -0.237 OA
ATOM     81  O   UNL A   1      46.463  23.909  36.984  1.00  0.00    -0.744 OA
ENDBRANCH  74  78
ENDBRANCH  57  71
BRANCH  58  82
ATOM     82  C   UNL A   1      37.283  31.415  29.231  1.00  0.00     0.023 A 
ATOM     83  C   UNL A   1      36.375  30.460  28.747  1.00  0.00     0.031 A 
ATOM     84  C   UNL A   1      37.054  32.764  28.900  1.00  0.00     0.131 A 
ATOM     85  C   UNL A   1      35.322  30.855  27.907  1.00  0.00     0.055 A 
ATOM     86  C   UNL A   1      35.968  33.160  28.117  1.00  0.00     0.041 A 
ATOM     87  F   UNL A   1      37.891  33.721  29.330  1.00  0.00    -0.206 F 
ATOM     88  C   UNL A   1      35.103  32.200  27.600  1.00  0.00     0.022 A 
BRANCH  85  89
ATOM     89  S   UNL A   1      34.314  29.569  27.119  1.00  0.00     0.124 S 
ATOM     90  O   UNL A   1      35.336  28.708  26.535  1.00  0.00    -0.237 OA
ATOM     91  O   UNL A   1      33.585  29.019  28.258  1.00  0.00    -0.237 OA
ATOM     92  O   UNL A   1      33.500  30.314  26.161  1.00  0.00    -0.744 OA
ENDBRANCH  85  89
ENDBRANCH  58  82
BRANCH  70  93
ATOM     93  C   UNL A   1      39.291  32.333  35.849  1.00  0.00     0.023 A 
ATOM     94  C   UNL A   1      39.715  33.636  36.159  1.00  0.00     0.031 A 
ATOM     95  C   UNL A   1      38.263  31.766  36.623  1.00  0.00     0.131 A 
ATOM     96  C   UNL A   1      39.144  34.314  37.246  1.00  0.00     0.055 A 
ATOM     97  C   UNL A   1      37.657  32.468  37.664  1.00  0.00     0.041 A 
ATOM     98  F   UNL A   1      37.821  30.524  36.368  1.00  0.00    -0.206 F 
ATOM     99  C   UNL A   1      38.104  33.745  37.987  1.00  0.00     0.022 A 
BRANCH  96 100
ATOM    100  S   UNL A   1      39.827  35.924  37.723  1.00  0.00     0.124 S 
ATOM    101  O   UNL A   1      38.970  36.296  38.844  1.00  0.00    -0.237 OA
ATOM    102  O   UNL A   1      41.208  35.593  38.059  1.00  0.00    -0.237 OA
ATOM    103  O   UNL A   1      39.661  36.736  36.519  1.00  0.00    -0.744 OA
ENDBRANCH  96 100
ENDBRANCH  70  93
ENDBRANCH  44  45
ENDBRANCH  37  39
ENDBRANCH  36  37
ENDBRANCH  35  36
ENDBRANCH  34  35
ENDBRANCH  33  34
ENDBRANCH   1  33
TORSDOF 24
ENDMDL
