MODEL 1
REMARK VINA RESULT:     -10.7      0.000      0.000
REMARK SMILES O=C(/C=C/c1ccc(O)cc1)NC[C@@H]1CC[C@H](C(=O)OCCOCCOC(=O)c2ccc(-c3c4nc(c(-c5cc(S(=O)(=O)[O-])ccc5F)c5ccc([nH]5)c(-c5cc(S(=O)(=O)[O-])ccc5F)c5nc(c(-c6cc(S(=O)(=O)[O-])ccc6F)c6ccc3[nH]6)C=C5)C=C4)cc2)O1
REMARK SMILES IDX 22 1 21 2 20 3 18 4 19 5 17 6 14 7 15 8 92 9 16 10 13 11
REMARK SMILES IDX 12 12 1 13 2 14 3 16 4 17 5 18 6 19 11 20 7 21 10 22 8 23
REMARK SMILES IDX 9 24 23 26 24 27 25 28 26 29 27 30 28 31 29 32 30 33 91 34
REMARK SMILES IDX 31 35 90 36 32 37 33 38 34 39 84 40 35 41 89 42 83 43 85 44
REMARK SMILES IDX 36 45 88 46 82 47 81 48 37 50 69 51 49 52 68 53 50 54 53 55
REMARK SMILES IDX 67 56 86 57 51 58 52 59 66 61 87 62 54 63 38 64 39 65 47 66
REMARK SMILES IDX 40 67 46 68 48 69 45 70 41 71 42 72 43 73 44 74 70 75 71 76
REMARK SMILES IDX 79 77 72 78 78 79 80 80 77 81 73 82 74 83 75 84 76 85 55 86
REMARK SMILES IDX 56 87 64 88 57 89 63 90 65 91 62 92 58 93 59 94 60 95 61 96
REMARK H PARENT 12 15 9 25 85 49 53 60
REMARK Flexibility Score: inf
ROOT
ATOM      1  C   UNL A   1      33.655  23.613  26.004  1.00  0.00     0.202 C 
ENDROOT
BRANCH   1   2
ATOM      2  C   UNL A   1      32.253  24.131  26.304  1.00  0.00     0.261 C 
BRANCH   2   3
ATOM      3  O   UNL A   1      31.765  24.873  25.171  1.00  0.00    -0.461 OA
BRANCH   3   4
ATOM      4  C   UNL A   1      30.555  25.462  25.335  1.00  0.00     0.335 C 
ATOM      5  O   UNL A   1      30.044  25.736  26.416  1.00  0.00    -0.249 OA
BRANCH   4   6
ATOM      6  C   UNL A   1      29.886  25.789  23.997  1.00  0.00     0.228 C 
ATOM      7  C   UNL A   1      30.998  27.094  22.399  1.00  0.00     0.138 C 
ATOM      8  C   UNL A   1      30.103  28.029  23.200  1.00  0.00     0.037 C 
ATOM      9  O   UNL A   1      30.842  25.769  22.939  1.00  0.00    -0.361 OA
ATOM     10  C   UNL A   1      29.136  27.108  23.897  1.00  0.00     0.047 C 
BRANCH   7  11
ATOM     11  C   UNL A   1      32.497  27.459  22.318  1.00  0.00     0.148 C 
BRANCH  11  12
ATOM     12  N   UNL A   1      32.959  28.348  23.370  1.00  0.00    -0.350 N 
ATOM     13  O   UNL A   1      34.040  26.736  24.587  1.00  0.00    -0.270 OA
ATOM     14  C   UNL A   1      33.627  27.883  24.466  1.00  0.00     0.244 C 
ATOM     15  H   UNL A   1      32.783  29.314  23.291  1.00  0.00     0.163 HD
BRANCH  14  16
ATOM     16  C   UNL A   1      33.842  28.852  25.570  1.00  0.00     0.072 C 
ATOM     17  C   UNL A   1      34.562  28.700  26.696  1.00  0.00     0.014 C 
BRANCH  17  18
ATOM     18  C   UNL A   1      34.836  29.848  27.608  1.00  0.00    -0.025 A 
ATOM     19  C   UNL A   1      33.681  31.274  27.642  1.00  0.00     0.012 A 
ATOM     20  C   UNL A   1      36.478  30.002  28.342  1.00  0.00     0.012 A 
ATOM     21  C   UNL A   1      34.171  32.887  28.292  1.00  0.00     0.047 A 
ATOM     22  C   UNL A   1      37.089  31.696  28.741  1.00  0.00     0.047 A 
ATOM     23  C   UNL A   1      35.902  33.145  28.670  1.00  0.00     0.115 A 
BRANCH  23  24
ATOM     24  O   UNL A   1      36.293  34.451  28.752  1.00  0.00    -0.508 OA
ATOM     25  H   UNL A   1      37.064  34.680  29.232  1.00  0.00     0.293 HD
ENDBRANCH  23  24
ENDBRANCH  17  18
ENDBRANCH  14  16
ENDBRANCH  11  12
ENDBRANCH   7  11
ENDBRANCH   4   6
ENDBRANCH   3   4
ENDBRANCH   2   3
ENDBRANCH   1   2
BRANCH   1  26
ATOM     26  O   UNL A   1      34.256  22.782  27.001  1.00  0.00    -0.374 OA
BRANCH  26  27
ATOM     27  C   UNL A   1      34.469  21.417  26.643  1.00  0.00     0.202 C 
BRANCH  27  28
ATOM     28  C   UNL A   1      34.968  21.143  25.217  1.00  0.00     0.261 C 
BRANCH  28  29
ATOM     29  O   UNL A   1      36.169  21.853  24.920  1.00  0.00    -0.460 OA
BRANCH  29  30
ATOM     30  C   UNL A   1      37.341  21.246  25.260  1.00  0.00     0.338 C 
ATOM     31  O   UNL A   1      37.738  20.151  24.917  1.00  0.00    -0.246 OA
BRANCH  30  32
ATOM     32  C   UNL A   1      38.139  22.289  25.931  1.00  0.00     0.060 A 
ATOM     33  C   UNL A   1      39.454  22.083  26.309  1.00  0.00     0.016 A 
ATOM     34  C   UNL A   1      37.632  23.552  26.003  1.00  0.00     0.016 A 
ATOM     35  C   UNL A   1      40.278  23.159  26.786  1.00  0.00     0.010 A 
ATOM     36  C   UNL A   1      38.444  24.591  26.476  1.00  0.00     0.010 A 
ATOM     37  C   UNL A   1      39.928  24.641  27.057  1.00  0.00    -0.014 A 
BRANCH  37  38
ATOM     38  C   UNL A   1      40.954  26.246  28.071  1.00  0.00     0.031 A 
ATOM     39  C   UNL A   1      42.804  26.660  27.860  1.00  0.00     0.074 A 
ATOM     40  C   UNL A   1      40.642  27.307  29.080  1.00  0.00     0.049 A 
ATOM     41  N   UNL A   1      43.639  27.450  28.568  1.00  0.00    -0.248 NA
ATOM     42  C   UNL A   1      43.726  25.955  26.831  1.00  0.00     0.031 C 
ATOM     43  C   UNL A   1      39.346  27.548  29.807  1.00  0.00     0.029 A 
ATOM     44  N   UNL A   1      41.358  28.405  29.646  1.00  0.00    -0.354 N 
ATOM     45  C   UNL A   1      44.965  27.177  28.089  1.00  0.00     0.074 A 
ATOM     46  C   UNL A   1      44.910  25.960  27.377  1.00  0.00     0.031 C 
ATOM     47  C   UNL A   1      39.308  28.671  30.498  1.00  0.00     0.029 A 
ATOM     48  C   UNL A   1      40.618  29.242  30.512  1.00  0.00     0.049 A 
ATOM     49  H   UNL A   1      42.308  28.570  29.446  1.00  0.00     0.167 HD
ATOM     50  C   UNL A   1      46.160  27.828  28.008  1.00  0.00     0.034 A 
ATOM     51  C   UNL A   1      40.809  30.318  31.320  1.00  0.00     0.034 A 
ATOM     52  C   UNL A   1      46.460  29.029  28.692  1.00  0.00     0.049 A 
ATOM     53  C   UNL A   1      42.150  30.952  31.449  1.00  0.00     0.074 A 
ATOM     54  C   UNL A   1      47.660  29.711  28.764  1.00  0.00     0.029 A 
ATOM     55  N   UNL A   1      45.549  29.690  29.475  1.00  0.00    -0.354 N 
ATOM     56  N   UNL A   1      43.263  30.632  30.846  1.00  0.00    -0.248 NA
ATOM     57  C   UNL A   1      42.261  32.088  32.376  1.00  0.00     0.031 C 
ATOM     58  C   UNL A   1      47.498  30.744  29.686  1.00  0.00     0.029 A 
ATOM     59  C   UNL A   1      46.175  30.748  30.090  1.00  0.00     0.049 A 
ATOM     60  H   UNL A   1      44.601  29.446  29.580  1.00  0.00     0.167 HD
ATOM     61  C   UNL A   1      44.199  31.550  31.302  1.00  0.00     0.074 A 
ATOM     62  C   UNL A   1      43.528  32.438  32.220  1.00  0.00     0.031 C 
ATOM     63  C   UNL A   1      45.507  31.642  30.979  1.00  0.00     0.034 A 
BRANCH  50  64
ATOM     64  C   UNL A   1      47.268  27.218  27.117  1.00  0.00     0.023 A 
ATOM     65  C   UNL A   1      47.482  27.655  25.786  1.00  0.00     0.031 A 
ATOM     66  C   UNL A   1      48.022  26.117  27.561  1.00  0.00     0.131 A 
ATOM     67  C   UNL A   1      48.355  26.947  24.936  1.00  0.00     0.055 A 
ATOM     68  C   UNL A   1      48.944  25.466  26.733  1.00  0.00     0.041 A 
ATOM     69  F   UNL A   1      47.847  25.626  28.797  1.00  0.00    -0.206 F 
ATOM     70  C   UNL A   1      49.103  25.868  25.409  1.00  0.00     0.022 A 
BRANCH  67  71
ATOM     71  S   UNL A   1      48.389  27.344  23.159  1.00  0.00     0.124 S 
ATOM     72  O   UNL A   1      49.630  28.107  23.049  1.00  0.00    -0.237 OA
ATOM     73  O   UNL A   1      48.393  26.024  22.538  1.00  0.00    -0.237 OA
ATOM     74  O   UNL A   1      47.169  28.124  22.955  1.00  0.00    -0.744 OA
ENDBRANCH  67  71
ENDBRANCH  50  64
BRANCH  51  75
ATOM     75  C   UNL A   1      39.663  30.866  32.166  1.00  0.00     0.023 A 
ATOM     76  C   UNL A   1      38.959  32.035  31.811  1.00  0.00     0.031 A 
ATOM     77  C   UNL A   1      39.251  30.206  33.345  1.00  0.00     0.131 A 
ATOM     78  C   UNL A   1      37.899  32.498  32.619  1.00  0.00     0.055 A 
ATOM     79  C   UNL A   1      38.145  30.622  34.093  1.00  0.00     0.041 A 
ATOM     80  F   UNL A   1      39.883  29.094  33.753  1.00  0.00    -0.206 F 
ATOM     81  C   UNL A   1      37.466  31.779  33.735  1.00  0.00     0.022 A 
BRANCH  78  82
ATOM     82  S   UNL A   1      37.147  34.114  32.259  1.00  0.00     0.124 S 
ATOM     83  O   UNL A   1      37.993  34.600  31.175  1.00  0.00    -0.237 OA
ATOM     84  O   UNL A   1      35.785  33.742  31.895  1.00  0.00    -0.237 OA
ATOM     85  O   UNL A   1      37.277  34.841  33.521  1.00  0.00    -0.744 OA
ENDBRANCH  78  82
ENDBRANCH  51  75
BRANCH  63  86
ATOM     86  C   UNL A   1      46.295  32.765  31.550  1.00  0.00     0.023 A 
ATOM     87  C   UNL A   1      47.029  32.602  32.730  1.00  0.00     0.031 A 
ATOM     88  C   UNL A   1      46.345  33.992  30.873  1.00  0.00     0.131 A 
ATOM     89  C   UNL A   1      47.758  33.682  33.231  1.00  0.00     0.055 A 
ATOM     90  C   UNL A   1      47.127  35.042  31.339  1.00  0.00     0.041 A 
ATOM     91  F   UNL A   1      45.653  34.175  29.737  1.00  0.00    -0.206 F 
ATOM     92  C   UNL A   1      47.832  34.892  32.532  1.00  0.00     0.022 A 
BRANCH  89  93
ATOM     93  S   UNL A   1      48.538  33.502  34.850  1.00  0.00     0.124 S 
ATOM     94  O   UNL A   1      47.595  32.630  35.543  1.00  0.00    -0.237 OA
ATOM     95  O   UNL A   1      49.827  32.905  34.514  1.00  0.00    -0.237 OA
ATOM     96  O   UNL A   1      48.602  34.873  35.351  1.00  0.00    -0.744 OA
ENDBRANCH  89  93
ENDBRANCH  63  86
ENDBRANCH  37  38
ENDBRANCH  30  32
ENDBRANCH  29  30
ENDBRANCH  28  29
ENDBRANCH  27  28
ENDBRANCH  26  27
ENDBRANCH   1  26
TORSDOF 22
ENDMDL
MODEL 2
REMARK VINA RESULT:     -10.4      1.935      2.238
REMARK SMILES O=C(/C=C/c1ccc(O)cc1)NC[C@@H]1CC[C@H](C(=O)OCCOCCOC(=O)c2ccc(-c3c4nc(c(-c5cc(S(=O)(=O)[O-])ccc5F)c5ccc([nH]5)c(-c5cc(S(=O)(=O)[O-])ccc5F)c5nc(c(-c6cc(S(=O)(=O)[O-])ccc6F)c6ccc3[nH]6)C=C5)C=C4)cc2)O1
REMARK SMILES IDX 22 1 21 2 20 3 18 4 19 5 17 6 14 7 15 8 92 9 16 10 13 11
REMARK SMILES IDX 12 12 1 13 2 14 3 16 4 17 5 18 6 19 11 20 7 21 10 22 8 23
REMARK SMILES IDX 9 24 23 26 24 27 25 28 26 29 27 30 28 31 29 32 30 33 91 34
REMARK SMILES IDX 31 35 90 36 32 37 33 38 34 39 84 40 35 41 89 42 83 43 85 44
REMARK SMILES IDX 36 45 88 46 82 47 81 48 37 50 69 51 49 52 68 53 50 54 53 55
REMARK SMILES IDX 67 56 86 57 51 58 52 59 66 61 87 62 54 63 38 64 39 65 47 66
REMARK SMILES IDX 40 67 46 68 48 69 45 70 41 71 42 72 43 73 44 74 70 75 71 76
REMARK SMILES IDX 79 77 72 78 78 79 80 80 77 81 73 82 74 83 75 84 76 85 55 86
REMARK SMILES IDX 56 87 64 88 57 89 63 90 65 91 62 92 58 93 59 94 60 95 61 96
REMARK H PARENT 12 15 9 25 85 49 53 60
REMARK Flexibility Score: inf
ROOT
ATOM      1  C   UNL A   1      33.239  23.590  23.541  1.00  0.00     0.202 C 
ENDROOT
BRANCH   1   2
ATOM      2  C   UNL A   1      32.109  23.615  24.564  1.00  0.00     0.261 C 
BRANCH   2   3
ATOM      3  O   UNL A   1      31.833  24.978  24.936  1.00  0.00    -0.461 OA
BRANCH   3   4
ATOM      4  C   UNL A   1      30.527  25.275  25.143  1.00  0.00     0.335 C 
ATOM      5  O   UNL A   1      29.952  25.217  26.226  1.00  0.00    -0.249 OA
BRANCH   4   6
ATOM      6  C   UNL A   1      29.828  25.734  23.860  1.00  0.00     0.228 C 
ATOM      7  C   UNL A   1      30.907  27.195  22.378  1.00  0.00     0.138 C 
ATOM      8  C   UNL A   1      30.030  28.044  23.288  1.00  0.00     0.037 C 
ATOM      9  O   UNL A   1      30.761  25.822  22.785  1.00  0.00    -0.361 OA
ATOM     10  C   UNL A   1      29.078  27.056  23.910  1.00  0.00     0.047 C 
BRANCH   7  11
ATOM     11  C   UNL A   1      32.404  27.567  22.300  1.00  0.00     0.148 C 
BRANCH  11  12
ATOM     12  N   UNL A   1      32.860  28.451  23.359  1.00  0.00    -0.350 N 
ATOM     13  O   UNL A   1      34.071  26.866  24.487  1.00  0.00    -0.270 OA
ATOM     14  C   UNL A   1      33.594  27.993  24.415  1.00  0.00     0.244 C 
ATOM     15  H   UNL A   1      32.632  29.409  23.315  1.00  0.00     0.163 HD
BRANCH  14  16
ATOM     16  C   UNL A   1      33.803  28.942  25.538  1.00  0.00     0.072 C 
ATOM     17  C   UNL A   1      34.539  28.780  26.652  1.00  0.00     0.014 C 
BRANCH  17  18
ATOM     18  C   UNL A   1      34.801  29.913  27.585  1.00  0.00    -0.025 A 
ATOM     19  C   UNL A   1      33.638  31.333  27.636  1.00  0.00     0.012 A 
ATOM     20  C   UNL A   1      36.436  30.062  28.334  1.00  0.00     0.012 A 
ATOM     21  C   UNL A   1      34.116  32.937  28.317  1.00  0.00     0.047 A 
ATOM     22  C   UNL A   1      37.036  31.752  28.768  1.00  0.00     0.047 A 
ATOM     23  C   UNL A   1      35.842  33.196  28.712  1.00  0.00     0.115 A 
BRANCH  23  24
ATOM     24  O   UNL A   1      36.227  34.502  28.820  1.00  0.00    -0.508 OA
ATOM     25  H   UNL A   1      36.854  34.755  29.468  1.00  0.00     0.293 HD
ENDBRANCH  23  24
ENDBRANCH  17  18
ENDBRANCH  14  16
ENDBRANCH  11  12
ENDBRANCH   7  11
ENDBRANCH   4   6
ENDBRANCH   3   4
ENDBRANCH   2   3
ENDBRANCH   1   2
BRANCH   1  26
ATOM     26  O   UNL A   1      33.954  22.358  23.412  1.00  0.00    -0.374 OA
BRANCH  26  27
ATOM     27  C   UNL A   1      33.686  21.363  24.398  1.00  0.00     0.202 C 
BRANCH  27  28
ATOM     28  C   UNL A   1      34.889  20.562  24.921  1.00  0.00     0.261 C 
BRANCH  28  29
ATOM     29  O   UNL A   1      35.888  21.402  25.495  1.00  0.00    -0.460 OA
BRANCH  29  30
ATOM     30  C   UNL A   1      37.182  20.995  25.363  1.00  0.00     0.338 C 
ATOM     31  O   UNL A   1      37.605  20.058  24.718  1.00  0.00    -0.246 OA
BRANCH  30  32
ATOM     32  C   UNL A   1      37.991  22.071  25.967  1.00  0.00     0.060 A 
ATOM     33  C   UNL A   1      39.332  21.906  26.263  1.00  0.00     0.016 A 
ATOM     34  C   UNL A   1      37.454  23.320  26.053  1.00  0.00     0.016 A 
ATOM     35  C   UNL A   1      40.154  23.012  26.672  1.00  0.00     0.010 A 
ATOM     36  C   UNL A   1      38.264  24.389  26.459  1.00  0.00     0.010 A 
ATOM     37  C   UNL A   1      39.780  24.488  26.943  1.00  0.00    -0.014 A 
BRANCH  37  38
ATOM     38  C   UNL A   1      40.823  26.136  27.866  1.00  0.00     0.031 A 
ATOM     39  C   UNL A   1      42.649  26.584  27.549  1.00  0.00     0.074 A 
ATOM     40  C   UNL A   1      40.541  27.213  28.868  1.00  0.00     0.049 A 
ATOM     41  N   UNL A   1      43.503  27.407  28.194  1.00  0.00    -0.248 NA
ATOM     42  C   UNL A   1      43.532  25.875  26.488  1.00  0.00     0.031 C 
ATOM     43  C   UNL A   1      39.280  27.444  29.657  1.00  0.00     0.029 A 
ATOM     44  N   UNL A   1      41.262  28.339  29.371  1.00  0.00    -0.354 N 
ATOM     45  C   UNL A   1      44.807  27.151  27.652  1.00  0.00     0.074 A 
ATOM     46  C   UNL A   1      44.742  25.918  26.970  1.00  0.00     0.031 C 
ATOM     47  C   UNL A   1      39.254  28.581  30.325  1.00  0.00     0.029 A 
ATOM     48  C   UNL A   1      40.550  29.179  30.257  1.00  0.00     0.049 A 
ATOM     49  H   UNL A   1      42.196  28.518  29.118  1.00  0.00     0.167 HD
ATOM     50  C   UNL A   1      45.982  27.825  27.493  1.00  0.00     0.034 A 
ATOM     51  C   UNL A   1      40.760  30.277  31.031  1.00  0.00     0.034 A 
ATOM     52  C   UNL A   1      46.291  29.047  28.136  1.00  0.00     0.049 A 
ATOM     53  C   UNL A   1      42.091  30.941  31.075  1.00  0.00     0.074 A 
ATOM     54  C   UNL A   1      47.479  29.755  28.129  1.00  0.00     0.029 A 
ATOM     55  N   UNL A   1      45.408  29.707  28.952  1.00  0.00    -0.354 N 
ATOM     56  N   UNL A   1      43.178  30.631  30.421  1.00  0.00    -0.248 NA
ATOM     57  C   UNL A   1      42.226  32.100  31.971  1.00  0.00     0.031 C 
ATOM     58  C   UNL A   1      47.342  30.805  29.036  1.00  0.00     0.029 A 
ATOM     59  C   UNL A   1      46.043  30.791  29.509  1.00  0.00     0.049 A 
ATOM     60  H   UNL A   1      44.473  29.445  29.112  1.00  0.00     0.167 HD
ATOM     61  C   UNL A   1      44.116  31.579  30.807  1.00  0.00     0.074 A 
ATOM     62  C   UNL A   1      43.474  32.473  31.740  1.00  0.00     0.031 C 
ATOM     63  C   UNL A   1      45.402  31.690  30.413  1.00  0.00     0.034 A 
BRANCH  50  64
ATOM     64  C   UNL A   1      47.055  27.218  26.558  1.00  0.00     0.023 A 
ATOM     65  C   UNL A   1      48.159  26.486  27.063  1.00  0.00     0.031 A 
ATOM     66  C   UNL A   1      47.034  27.479  25.176  1.00  0.00     0.131 A 
ATOM     67  C   UNL A   1      49.220  26.122  26.211  1.00  0.00     0.055 A 
ATOM     68  C   UNL A   1      48.057  27.046  24.324  1.00  0.00     0.041 A 
ATOM     69  F   UNL A   1      46.038  28.196  24.634  1.00  0.00    -0.206 F 
ATOM     70  C   UNL A   1      49.165  26.380  24.841  1.00  0.00     0.022 A 
BRANCH  67  71
ATOM     71  S   UNL A   1      50.753  25.450  26.930  1.00  0.00     0.124 S 
ATOM     72  O   UNL A   1      51.517  25.109  25.733  1.00  0.00    -0.237 OA
ATOM     73  O   UNL A   1      51.256  26.573  27.712  1.00  0.00    -0.237 OA
ATOM     74  O   UNL A   1      50.293  24.303  27.712  1.00  0.00    -0.744 OA
ENDBRANCH  67  71
ENDBRANCH  50  64
BRANCH  51  75
ATOM     75  C   UNL A   1      39.647  30.820  31.924  1.00  0.00     0.023 A 
ATOM     76  C   UNL A   1      39.000  32.044  31.659  1.00  0.00     0.031 A 
ATOM     77  C   UNL A   1      39.211  30.100  33.059  1.00  0.00     0.131 A 
ATOM     78  C   UNL A   1      37.970  32.501  32.508  1.00  0.00     0.055 A 
ATOM     79  C   UNL A   1      38.132  30.516  33.845  1.00  0.00     0.041 A 
ATOM     80  F   UNL A   1      39.790  28.932  33.382  1.00  0.00    -0.206 F 
ATOM     81  C   UNL A   1      37.509  31.728  33.576  1.00  0.00     0.022 A 
BRANCH  78  82
ATOM     82  S   UNL A   1      37.297  34.173  32.269  1.00  0.00     0.124 S 
ATOM     83  O   UNL A   1      37.581  34.794  33.558  1.00  0.00    -0.237 OA
ATOM     84  O   UNL A   1      38.077  34.656  31.136  1.00  0.00    -0.237 OA
ATOM     85  O   UNL A   1      35.881  33.936  31.993  1.00  0.00    -0.744 OA
ENDBRANCH  78  82
ENDBRANCH  51  75
BRANCH  63  86
ATOM     86  C   UNL A   1      46.195  32.842  30.917  1.00  0.00     0.023 A 
ATOM     87  C   UNL A   1      46.258  34.041  30.200  1.00  0.00     0.031 A 
ATOM     88  C   UNL A   1      46.849  32.746  32.155  1.00  0.00     0.131 A 
ATOM     89  C   UNL A   1      47.012  35.099  30.710  1.00  0.00     0.055 A 
ATOM     90  C   UNL A   1      47.540  33.825  32.691  1.00  0.00     0.041 A 
ATOM     91  F   UNL A   1      46.802  31.608  32.867  1.00  0.00    -0.206 F 
ATOM     92  C   UNL A   1      47.633  35.009  31.961  1.00  0.00     0.022 A 
BRANCH  89  93
ATOM     93  S   UNL A   1      47.233  36.562  29.673  1.00  0.00     0.124 S 
ATOM     94  O   UNL A   1      45.868  36.826  29.230  1.00  0.00    -0.237 OA
ATOM     95  O   UNL A   1      47.795  37.529  30.610  1.00  0.00    -0.237 OA
ATOM     96  O   UNL A   1      48.148  36.105  28.630  1.00  0.00    -0.744 OA
ENDBRANCH  89  93
ENDBRANCH  63  86
ENDBRANCH  37  38
ENDBRANCH  30  32
ENDBRANCH  29  30
ENDBRANCH  28  29
ENDBRANCH  27  28
ENDBRANCH  26  27
ENDBRANCH   1  26
TORSDOF 22
ENDMDL
MODEL 3
REMARK VINA RESULT:      -9.3      6.979     10.413
REMARK SMILES O=C(/C=C/c1ccc(O)cc1)NC[C@@H]1CC[C@H](C(=O)OCCOCCOC(=O)c2ccc(-c3c4nc(c(-c5cc(S(=O)(=O)[O-])ccc5F)c5ccc([nH]5)c(-c5cc(S(=O)(=O)[O-])ccc5F)c5nc(c(-c6cc(S(=O)(=O)[O-])ccc6F)c6ccc3[nH]6)C=C5)C=C4)cc2)O1
REMARK SMILES IDX 22 1 21 2 20 3 18 4 19 5 17 6 14 7 15 8 92 9 16 10 13 11
REMARK SMILES IDX 12 12 1 13 2 14 3 16 4 17 5 18 6 19 11 20 7 21 10 22 8 23
REMARK SMILES IDX 9 24 23 26 24 27 25 28 26 29 27 30 28 31 29 32 30 33 91 34
REMARK SMILES IDX 31 35 90 36 32 37 33 38 34 39 84 40 35 41 89 42 83 43 85 44
REMARK SMILES IDX 36 45 88 46 82 47 81 48 37 50 69 51 49 52 68 53 50 54 53 55
REMARK SMILES IDX 67 56 86 57 51 58 52 59 66 61 87 62 54 63 38 64 39 65 47 66
REMARK SMILES IDX 40 67 46 68 48 69 45 70 41 71 42 72 43 73 44 74 70 75 71 76
REMARK SMILES IDX 79 77 72 78 78 79 80 80 77 81 73 82 74 83 75 84 76 85 55 86
REMARK SMILES IDX 56 87 64 88 57 89 63 90 65 91 62 92 58 93 59 94 60 95 61 96
REMARK H PARENT 12 15 9 25 85 49 53 60
REMARK Flexibility Score: inf
ROOT
ATOM      1  C   UNL A   1      32.823  27.575  26.932  1.00  0.00     0.202 C 
ENDROOT
BRANCH   1   2
ATOM      2  C   UNL A   1      31.913  26.693  26.084  1.00  0.00     0.261 C 
BRANCH   2   3
ATOM      3  O   UNL A   1      32.611  25.485  25.731  1.00  0.00    -0.461 OA
BRANCH   3   4
ATOM      4  C   UNL A   1      32.200  24.364  26.373  1.00  0.00     0.335 C 
ATOM      5  O   UNL A   1      31.283  24.312  27.187  1.00  0.00    -0.249 OA
BRANCH   4   6
ATOM      6  C   UNL A   1      32.996  23.128  25.943  1.00  0.00     0.228 C 
ATOM      7  C   UNL A   1      33.485  22.757  23.682  1.00  0.00     0.138 C 
ATOM      8  C   UNL A   1      32.224  21.967  24.005  1.00  0.00     0.037 C 
ATOM      9  O   UNL A   1      33.887  23.450  24.878  1.00  0.00    -0.361 OA
ATOM     10  C   UNL A   1      32.203  21.905  25.510  1.00  0.00     0.047 C 
BRANCH   7  11
ATOM     11  C   UNL A   1      33.408  23.746  22.497  1.00  0.00     0.148 C 
BRANCH  11  12
ATOM     12  N   UNL A   1      32.378  24.762  22.627  1.00  0.00    -0.350 N 
ATOM     13  O   UNL A   1      33.308  26.235  21.139  1.00  0.00    -0.270 OA
ATOM     14  C   UNL A   1      32.467  25.965  21.989  1.00  0.00     0.244 C 
ATOM     15  H   UNL A   1      31.592  24.578  23.193  1.00  0.00     0.163 HD
BRANCH  14  16
ATOM     16  C   UNL A   1      31.474  26.997  22.380  1.00  0.00     0.072 C 
ATOM     17  C   UNL A   1      31.690  28.239  22.850  1.00  0.00     0.014 C 
BRANCH  17  18
ATOM     18  C   UNL A   1      30.577  29.219  23.005  1.00  0.00    -0.025 A 
ATOM     19  C   UNL A   1      29.603  29.725  21.533  1.00  0.00     0.012 A 
ATOM     20  C   UNL A   1      30.473  30.184  24.527  1.00  0.00     0.012 A 
ATOM     21  C   UNL A   1      28.616  31.239  21.513  1.00  0.00     0.047 A 
ATOM     22  C   UNL A   1      29.713  31.861  24.435  1.00  0.00     0.047 A 
ATOM     23  C   UNL A   1      28.810  32.381  22.877  1.00  0.00     0.115 A 
BRANCH  23  24
ATOM     24  O   UNL A   1      28.390  33.657  22.633  1.00  0.00    -0.508 OA
ATOM     25  H   UNL A   1      28.574  34.063  21.809  1.00  0.00     0.293 HD
ENDBRANCH  23  24
ENDBRANCH  17  18
ENDBRANCH  14  16
ENDBRANCH  11  12
ENDBRANCH   7  11
ENDBRANCH   4   6
ENDBRANCH   3   4
ENDBRANCH   2   3
ENDBRANCH   1   2
BRANCH   1  26
ATOM     26  O   UNL A   1      33.380  28.724  26.288  1.00  0.00    -0.374 OA
BRANCH  26  27
ATOM     27  C   UNL A   1      33.849  29.765  27.143  1.00  0.00     0.202 C 
BRANCH  27  28
ATOM     28  C   UNL A   1      35.295  29.648  27.650  1.00  0.00     0.261 C 
BRANCH  28  29
ATOM     29  O   UNL A   1      35.520  30.428  28.822  1.00  0.00    -0.460 OA
BRANCH  29  30
ATOM     30  C   UNL A   1      35.985  31.696  28.636  1.00  0.00     0.338 C 
ATOM     31  O   UNL A   1      35.831  32.410  27.666  1.00  0.00    -0.246 OA
BRANCH  30  32
ATOM     32  C   UNL A   1      36.508  32.116  29.950  1.00  0.00     0.060 A 
ATOM     33  C   UNL A   1      36.025  31.593  31.136  1.00  0.00     0.016 A 
ATOM     34  C   UNL A   1      37.628  32.890  29.988  1.00  0.00     0.016 A 
ATOM     35  C   UNL A   1      36.665  31.863  32.393  1.00  0.00     0.010 A 
ATOM     36  C   UNL A   1      38.240  33.150  31.222  1.00  0.00     0.010 A 
ATOM     37  C   UNL A   1      37.870  32.774  32.726  1.00  0.00    -0.014 A 
BRANCH  37  38
ATOM     38  C   UNL A   1      38.702  33.517  34.573  1.00  0.00     0.031 A 
ATOM     39  C   UNL A   1      40.198  34.694  34.697  1.00  0.00     0.074 A 
ATOM     40  C   UNL A   1      38.466  33.364  36.044  1.00  0.00     0.049 A 
ATOM     41  N   UNL A   1      40.974  35.061  35.739  1.00  0.00    -0.248 NA
ATOM     42  C   UNL A   1      40.885  35.337  33.464  1.00  0.00     0.031 C 
ATOM     43  C   UNL A   1      37.466  32.480  36.739  1.00  0.00     0.029 A 
ATOM     44  N   UNL A   1      39.006  33.964  37.222  1.00  0.00    -0.354 N 
ATOM     45  C   UNL A   1      42.092  35.772  35.186  1.00  0.00     0.074 A 
ATOM     46  C   UNL A   1      42.135  35.477  33.807  1.00  0.00     0.031 C 
ATOM     47  C   UNL A   1      37.357  32.692  38.036  1.00  0.00     0.029 A 
ATOM     48  C   UNL A   1      38.396  33.587  38.440  1.00  0.00     0.049 A 
ATOM     49  H   UNL A   1      39.757  34.600  37.189  1.00  0.00     0.167 HD
ATOM     50  C   UNL A   1      42.974  36.732  35.588  1.00  0.00     0.034 A 
ATOM     51  C   UNL A   1      38.546  33.790  39.775  1.00  0.00     0.034 A 
ATOM     52  C   UNL A   1      43.148  37.140  36.931  1.00  0.00     0.049 A 
ATOM     53  C   UNL A   1      39.633  34.660  40.302  1.00  0.00     0.074 A 
ATOM     54  C   UNL A   1      44.077  38.018  37.458  1.00  0.00     0.029 A 
ATOM     55  N   UNL A   1      42.402  36.638  37.967  1.00  0.00    -0.354 N 
ATOM     56  N   UNL A   1      40.529  35.336  39.636  1.00  0.00    -0.248 NA
ATOM     57  C   UNL A   1      39.733  34.786  41.764  1.00  0.00     0.031 C 
ATOM     58  C   UNL A   1      43.955  37.969  38.846  1.00  0.00     0.029 A 
ATOM     59  C   UNL A   1      42.888  37.143  39.149  1.00  0.00     0.049 A 
ATOM     60  H   UNL A   1      41.643  36.018  37.877  1.00  0.00     0.167 HD
ATOM     61  C   UNL A   1      41.280  35.991  40.602  1.00  0.00     0.074 A 
ATOM     62  C   UNL A   1      40.735  35.640  41.890  1.00  0.00     0.031 C 
ATOM     63  C   UNL A   1      42.335  36.816  40.423  1.00  0.00     0.034 A 
BRANCH  50  64
ATOM     64  C   UNL A   1      43.849  37.420  34.513  1.00  0.00     0.023 A 
ATOM     65  C   UNL A   1      43.443  38.618  33.874  1.00  0.00     0.031 A 
ATOM     66  C   UNL A   1      45.025  36.807  34.044  1.00  0.00     0.131 A 
ATOM     67  C   UNL A   1      44.157  39.108  32.762  1.00  0.00     0.055 A 
ATOM     68  C   UNL A   1      45.771  37.344  32.988  1.00  0.00     0.041 A 
ATOM     69  F   UNL A   1      45.450  35.652  34.578  1.00  0.00    -0.206 F 
ATOM     70  C   UNL A   1      45.330  38.489  32.329  1.00  0.00     0.022 A 
BRANCH  67  71
ATOM     71  S   UNL A   1      43.455  40.472  31.780  1.00  0.00     0.124 S 
ATOM     72  O   UNL A   1      44.567  41.418  31.749  1.00  0.00    -0.237 OA
ATOM     73  O   UNL A   1      43.133  39.820  30.516  1.00  0.00    -0.237 OA
ATOM     74  O   UNL A   1      42.302  40.907  32.568  1.00  0.00    -0.744 OA
ENDBRANCH  67  71
ENDBRANCH  50  64
BRANCH  51  75
ATOM     75  C   UNL A   1      37.638  33.078  40.775  1.00  0.00     0.023 A 
ATOM     76  C   UNL A   1      36.351  33.555  41.094  1.00  0.00     0.031 A 
ATOM     77  C   UNL A   1      38.055  31.890  41.415  1.00  0.00     0.131 A 
ATOM     78  C   UNL A   1      35.543  32.858  42.017  1.00  0.00     0.055 A 
ATOM     79  C   UNL A   1      37.216  31.157  42.262  1.00  0.00     0.041 A 
ATOM     80  F   UNL A   1      39.273  31.381  41.170  1.00  0.00    -0.206 F 
ATOM     81  C   UNL A   1      35.953  31.644  42.573  1.00  0.00     0.022 A 
BRANCH  78  82
ATOM     82  S   UNL A   1      33.979  33.602  42.570  1.00  0.00     0.124 S 
ATOM     83  O   UNL A   1      33.554  34.322  41.376  1.00  0.00    -0.237 OA
ATOM     84  O   UNL A   1      33.192  32.428  42.928  1.00  0.00    -0.237 OA
ATOM     85  O   UNL A   1      34.381  34.447  43.694  1.00  0.00    -0.744 OA
ENDBRANCH  78  82
ENDBRANCH  51  75
BRANCH  63  86
ATOM     86  C   UNL A   1      42.935  37.458  41.622  1.00  0.00     0.023 A 
ATOM     87  C   UNL A   1      42.359  38.598  42.192  1.00  0.00     0.031 A 
ATOM     88  C   UNL A   1      44.067  36.886  42.222  1.00  0.00     0.131 A 
ATOM     89  C   UNL A   1      42.954  39.168  43.318  1.00  0.00     0.055 A 
ATOM     90  C   UNL A   1      44.614  37.418  43.383  1.00  0.00     0.041 A 
ATOM     91  F   UNL A   1      44.638  35.789  41.698  1.00  0.00    -0.206 F 
ATOM     92  C   UNL A   1      44.062  38.573  43.932  1.00  0.00     0.022 A 
BRANCH  89  93
ATOM     93  S   UNL A   1      42.303  40.745  43.916  1.00  0.00     0.124 S 
ATOM     94  O   UNL A   1      41.305  40.309  44.888  1.00  0.00    -0.237 OA
ATOM     95  O   UNL A   1      43.492  41.385  44.469  1.00  0.00    -0.237 OA
ATOM     96  O   UNL A   1      41.766  41.370  42.710  1.00  0.00    -0.744 OA
ENDBRANCH  89  93
ENDBRANCH  63  86
ENDBRANCH  37  38
ENDBRANCH  30  32
ENDBRANCH  29  30
ENDBRANCH  28  29
ENDBRANCH  27  28
ENDBRANCH  26  27
ENDBRANCH   1  26
TORSDOF 22
ENDMDL
