MODEL 1
REMARK VINA RESULT:     -11.0      0.000      0.000
REMARK SMILES CC(C)(C)[NH2+]CC(=O)N1Cc2nc[nH]c2C[C@@H]1C(=O)OCCOCCOC(=O)c1ccc(-c2c3nc(c(-c4cc(S(=O)(=O)[O-])ccc4F)c4ccc([nH]4)c(-c4cc(S(=O)(=O)[O-])ccc4F)c4nc(c(-c5cc(S(=O)(=O)[O-])ccc5F)c5ccc2[nH]5)C=C4)C=C3)cc1
REMARK SMILES IDX 22 1 21 2 20 3 18 4 19 5 17 6 9 7 10 8 11 9 16 10 12 11
REMARK SMILES IDX 15 12 13 13 14 14 7 16 8 17 6 18 5 19 2 22 1 23 3 24 4 25
REMARK SMILES IDX 23 26 24 27 25 28 26 29 27 30 28 31 29 32 30 33 91 34 31 35
REMARK SMILES IDX 90 36 32 37 33 38 34 39 84 40 35 41 89 42 83 43 85 44 36 45
REMARK SMILES IDX 88 46 82 47 81 48 37 50 69 51 49 52 68 53 50 54 53 55 67 56
REMARK SMILES IDX 86 57 51 58 52 59 66 61 87 62 54 63 38 64 39 65 47 66 40 67
REMARK SMILES IDX 46 68 48 69 45 70 41 71 42 72 43 73 44 74 70 75 71 76 79 77
REMARK SMILES IDX 72 78 78 79 80 80 77 81 73 82 74 83 75 84 76 85 55 86 56 87
REMARK SMILES IDX 64 88 57 89 63 90 65 91 62 92 58 93 59 94 60 95 61 96
REMARK H PARENT 14 15 5 20 5 21 85 49 53 60
REMARK Flexibility Score: inf
ROOT
ATOM      1  C   UNL A   1      34.437  32.789  28.009  1.00  0.00     0.202 C 
ENDROOT
BRANCH   1   2
ATOM      2  C   UNL A   1      34.143  31.192  27.944  1.00  0.00     0.261 C 
BRANCH   2   3
ATOM      3  O   UNL A   1      33.742  30.506  26.683  1.00  0.00    -0.462 OA
BRANCH   3   4
ATOM      4  C   UNL A   1      32.661  29.645  26.737  1.00  0.00     0.329 C 
ATOM      5  O   UNL A   1      31.587  30.017  27.215  1.00  0.00    -0.250 OA
BRANCH   4   6
ATOM      6  C   UNL A   1      32.884  28.082  26.292  1.00  0.00     0.201 C 
ATOM      7  N   UNL A   1      33.683  27.361  25.105  1.00  0.00    -0.318 N 
ATOM      8  C   UNL A   1      34.032  25.961  25.455  1.00  0.00     0.178 C 
ATOM      9  C   UNL A   1      32.788  25.261  25.917  1.00  0.00     0.081 A 
ATOM     10  C   UNL A   1      31.479  27.382  26.447  1.00  0.00     0.093 C 
ATOM     11  N   UNL A   1      32.594  23.904  25.946  1.00  0.00    -0.240 NA
ATOM     12  C   UNL A   1      31.658  25.913  26.361  1.00  0.00     0.042 A 
ATOM     13  C   UNL A   1      31.357  23.745  26.369  1.00  0.00     0.197 A 
ATOM     14  N   UNL A   1      30.743  24.942  26.628  1.00  0.00    -0.348 N 
ATOM     15  H   UNL A   1      29.820  25.074  26.945  1.00  0.00     0.167 HD
BRANCH   7  16
ATOM     16  C   UNL A   1      33.312  27.396  23.721  1.00  0.00     0.278 C 
ATOM     17  O   UNL A   1      33.620  26.500  22.930  1.00  0.00    -0.268 OA
BRANCH  16  18
ATOM     18  C   UNL A   1      32.563  28.658  23.176  1.00  0.00     0.362 C 
BRANCH  18  19
ATOM     19  N   UNL A   1      31.392  28.339  22.285  1.00  0.00    -0.334 N 
ATOM     20  H   UNL A   1      31.588  28.692  21.349  1.00  0.00     0.347 HD
ATOM     21  H   UNL A   1      31.268  27.327  22.286  1.00  0.00     0.347 HD
BRANCH  19  22
ATOM     22  C   UNL A   1      30.142  28.943  22.764  1.00  0.00     0.088 C 
ATOM     23  C   UNL A   1      29.392  27.692  23.209  1.00  0.00     0.078 C 
ATOM     24  C   UNL A   1      29.628  29.917  21.684  1.00  0.00     0.078 C 
ATOM     25  C   UNL A   1      30.276  29.914  23.959  1.00  0.00     0.078 C 
ENDBRANCH  19  22
ENDBRANCH  18  19
ENDBRANCH  16  18
ENDBRANCH   7  16
ENDBRANCH   4   6
ENDBRANCH   3   4
ENDBRANCH   2   3
ENDBRANCH   1   2
BRANCH   1  26
ATOM     26  O   UNL A   1      34.999  33.417  29.161  1.00  0.00    -0.374 OA
BRANCH  26  27
ATOM     27  C   UNL A   1      34.437  33.516  30.485  1.00  0.00     0.202 C 
BRANCH  27  28
ATOM     28  C   UNL A   1      34.987  32.639  31.631  1.00  0.00     0.261 C 
BRANCH  28  29
ATOM     29  O   UNL A   1      36.340  32.347  31.408  1.00  0.00    -0.460 OA
BRANCH  29  30
ATOM     30  C   UNL A   1      36.539  31.022  31.234  1.00  0.00     0.338 C 
ATOM     31  O   UNL A   1      36.174  30.113  31.945  1.00  0.00    -0.246 OA
BRANCH  30  32
ATOM     32  C   UNL A   1      37.226  30.859  29.942  1.00  0.00     0.060 A 
ATOM     33  C   UNL A   1      36.969  29.602  29.429  1.00  0.00     0.016 A 
ATOM     34  C   UNL A   1      38.440  31.547  29.784  1.00  0.00     0.016 A 
ATOM     35  C   UNL A   1      38.071  28.814  29.363  1.00  0.00     0.010 A 
ATOM     36  C   UNL A   1      39.546  30.766  29.691  1.00  0.00     0.010 A 
ATOM     37  C   UNL A   1      39.319  29.401  29.632  1.00  0.00    -0.014 A 
BRANCH  37  38
ATOM     38  C   UNL A   1      40.420  28.500  29.748  1.00  0.00     0.031 A 
ATOM     39  C   UNL A   1      40.772  28.350  31.163  1.00  0.00     0.074 A 
ATOM     40  C   UNL A   1      41.004  27.927  28.690  1.00  0.00     0.049 A 
ATOM     41  N   UNL A   1      41.711  28.971  31.786  1.00  0.00    -0.248 NA
ATOM     42  C   UNL A   1      39.755  27.739  32.032  1.00  0.00     0.031 C 
ATOM     43  C   UNL A   1      40.559  27.818  27.302  1.00  0.00     0.029 A 
ATOM     44  N   UNL A   1      42.148  27.218  28.703  1.00  0.00    -0.354 N 
ATOM     45  C   UNL A   1      41.541  28.624  33.113  1.00  0.00     0.074 A 
ATOM     46  C   UNL A   1      40.200  28.126  33.225  1.00  0.00     0.031 C 
ATOM     47  C   UNL A   1      41.300  26.864  26.685  1.00  0.00     0.029 A 
ATOM     48  C   UNL A   1      42.345  26.417  27.595  1.00  0.00     0.049 A 
ATOM     49  H   UNL A   1      42.795  27.266  29.444  1.00  0.00     0.167 HD
ATOM     50  C   UNL A   1      42.613  28.510  33.936  1.00  0.00     0.034 A 
ATOM     51  C   UNL A   1      43.226  25.382  27.553  1.00  0.00     0.034 A 
ATOM     52  C   UNL A   1      43.765  29.183  33.372  1.00  0.00     0.049 A 
ATOM     53  C   UNL A   1      44.221  25.633  28.643  1.00  0.00     0.074 A 
ATOM     54  C   UNL A   1      44.037  30.499  33.043  1.00  0.00     0.029 A 
ATOM     55  N   UNL A   1      44.676  28.425  32.664  1.00  0.00    -0.354 N 
ATOM     56  N   UNL A   1      45.038  26.657  28.640  1.00  0.00    -0.248 NA
ATOM     57  C   UNL A   1      43.945  25.083  29.968  1.00  0.00     0.031 C 
ATOM     58  C   UNL A   1      44.759  30.434  31.814  1.00  0.00     0.029 A 
ATOM     59  C   UNL A   1      44.957  29.088  31.491  1.00  0.00     0.049 A 
ATOM     60  H   UNL A   1      45.058  27.563  32.949  1.00  0.00     0.167 HD
ATOM     61  C   UNL A   1      45.063  27.123  29.950  1.00  0.00     0.074 A 
ATOM     62  C   UNL A   1      44.426  26.068  30.737  1.00  0.00     0.031 C 
ATOM     63  C   UNL A   1      45.316  28.436  30.241  1.00  0.00     0.034 A 
BRANCH  50  64
ATOM     64  C   UNL A   1      42.710  27.472  35.024  1.00  0.00     0.023 A 
ATOM     65  C   UNL A   1      43.464  26.328  34.726  1.00  0.00     0.031 A 
ATOM     66  C   UNL A   1      41.917  27.398  36.195  1.00  0.00     0.131 A 
ATOM     67  C   UNL A   1      43.327  25.159  35.489  1.00  0.00     0.055 A 
ATOM     68  C   UNL A   1      41.836  26.254  36.990  1.00  0.00     0.041 A 
ATOM     69  F   UNL A   1      41.104  28.378  36.604  1.00  0.00    -0.206 F 
ATOM     70  C   UNL A   1      42.516  25.113  36.619  1.00  0.00     0.022 A 
BRANCH  67  71
ATOM     71  S   UNL A   1      44.094  23.648  34.865  1.00  0.00     0.124 S 
ATOM     72  O   UNL A   1      45.076  24.181  33.927  1.00  0.00    -0.237 OA
ATOM     73  O   UNL A   1      44.624  23.057  36.090  1.00  0.00    -0.237 OA
ATOM     74  O   UNL A   1      42.975  22.931  34.258  1.00  0.00    -0.744 OA
ENDBRANCH  67  71
ENDBRANCH  50  64
BRANCH  51  75
ATOM     75  C   UNL A   1      42.941  24.045  26.964  1.00  0.00     0.023 A 
ATOM     76  C   UNL A   1      43.828  23.398  26.083  1.00  0.00     0.031 A 
ATOM     77  C   UNL A   1      41.851  23.277  27.441  1.00  0.00     0.131 A 
ATOM     78  C   UNL A   1      43.602  22.052  25.706  1.00  0.00     0.055 A 
ATOM     79  C   UNL A   1      41.629  21.952  27.061  1.00  0.00     0.041 A 
ATOM     80  F   UNL A   1      41.003  23.764  28.361  1.00  0.00    -0.206 F 
ATOM     81  C   UNL A   1      42.511  21.330  26.195  1.00  0.00     0.022 A 
BRANCH  78  82
ATOM     82  S   UNL A   1      44.783  21.189  24.621  1.00  0.00     0.124 S 
ATOM     83  O   UNL A   1      44.202  19.854  24.532  1.00  0.00    -0.237 OA
ATOM     84  O   UNL A   1      44.740  21.998  23.408  1.00  0.00    -0.237 OA
ATOM     85  O   UNL A   1      46.044  21.263  25.361  1.00  0.00    -0.744 OA
ENDBRANCH  78  82
ENDBRANCH  51  75
BRANCH  63  86
ATOM     86  C   UNL A   1      45.823  29.342  29.131  1.00  0.00     0.023 A 
ATOM     87  C   UNL A   1      45.011  30.184  28.334  1.00  0.00     0.031 A 
ATOM     88  C   UNL A   1      47.217  29.463  28.995  1.00  0.00     0.131 A 
ATOM     89  C   UNL A   1      45.608  31.103  27.447  1.00  0.00     0.055 A 
ATOM     90  C   UNL A   1      47.803  30.388  28.132  1.00  0.00     0.041 A 
ATOM     91  F   UNL A   1      48.040  28.710  29.743  1.00  0.00    -0.206 F 
ATOM     92  C   UNL A   1      47.000  31.212  27.352  1.00  0.00     0.022 A 
BRANCH  89  93
ATOM     93  S   UNL A   1      44.587  32.185  26.390  1.00  0.00     0.124 S 
ATOM     94  O   UNL A   1      43.517  31.303  25.940  1.00  0.00    -0.237 OA
ATOM     95  O   UNL A   1      44.196  33.247  27.312  1.00  0.00    -0.237 OA
ATOM     96  O   UNL A   1      45.512  32.605  25.336  1.00  0.00    -0.744 OA
ENDBRANCH  89  93
ENDBRANCH  63  86
ENDBRANCH  37  38
ENDBRANCH  30  32
ENDBRANCH  29  30
ENDBRANCH  28  29
ENDBRANCH  27  28
ENDBRANCH  26  27
ENDBRANCH   1  26
TORSDOF 21
ENDMDL
MODEL 2
REMARK VINA RESULT:     -10.9      3.578      9.436
REMARK SMILES CC(C)(C)[NH2+]CC(=O)N1Cc2nc[nH]c2C[C@@H]1C(=O)OCCOCCOC(=O)c1ccc(-c2c3nc(c(-c4cc(S(=O)(=O)[O-])ccc4F)c4ccc([nH]4)c(-c4cc(S(=O)(=O)[O-])ccc4F)c4nc(c(-c5cc(S(=O)(=O)[O-])ccc5F)c5ccc2[nH]5)C=C4)C=C3)cc1
REMARK SMILES IDX 22 1 21 2 20 3 18 4 19 5 17 6 9 7 10 8 11 9 16 10 12 11
REMARK SMILES IDX 15 12 13 13 14 14 7 16 8 17 6 18 5 19 2 22 1 23 3 24 4 25
REMARK SMILES IDX 23 26 24 27 25 28 26 29 27 30 28 31 29 32 30 33 91 34 31 35
REMARK SMILES IDX 90 36 32 37 33 38 34 39 84 40 35 41 89 42 83 43 85 44 36 45
REMARK SMILES IDX 88 46 82 47 81 48 37 50 69 51 49 52 68 53 50 54 53 55 67 56
REMARK SMILES IDX 86 57 51 58 52 59 66 61 87 62 54 63 38 64 39 65 47 66 40 67
REMARK SMILES IDX 46 68 48 69 45 70 41 71 42 72 43 73 44 74 70 75 71 76 79 77
REMARK SMILES IDX 72 78 78 79 80 80 77 81 73 82 74 83 75 84 76 85 55 86 56 87
REMARK SMILES IDX 64 88 57 89 63 90 65 91 62 92 58 93 59 94 60 95 61 96
REMARK H PARENT 14 15 5 20 5 21 85 49 53 60
REMARK Flexibility Score: inf
ROOT
ATOM      1  C   UNL A   1      39.462  21.971  25.990  1.00  0.00     0.202 C 
ENDROOT
BRANCH   1   2
ATOM      2  C   UNL A   1      37.865  22.156  25.749  1.00  0.00     0.261 C 
BRANCH   2   3
ATOM      3  O   UNL A   1      37.189  21.703  24.500  1.00  0.00    -0.462 OA
BRANCH   3   4
ATOM      4  C   UNL A   1      36.504  22.651  23.763  1.00  0.00     0.329 C 
ATOM      5  O   UNL A   1      37.007  23.142  22.749  1.00  0.00    -0.250 OA
BRANCH   4   6
ATOM      6  C   UNL A   1      35.078  23.214  24.347  1.00  0.00     0.201 C 
ATOM      7  N   UNL A   1      34.359  23.166  25.778  1.00  0.00    -0.318 N 
ATOM      8  C   UNL A   1      33.379  24.269  25.932  1.00  0.00     0.178 C 
ATOM      9  C   UNL A   1      32.460  24.259  24.746  1.00  0.00     0.081 A 
ATOM     10  C   UNL A   1      34.001  22.903  23.236  1.00  0.00     0.093 C 
ATOM     11  N   UNL A   1      31.213  24.827  24.690  1.00  0.00    -0.240 NA
ATOM     12  C   UNL A   1      32.757  23.646  23.547  1.00  0.00     0.042 A 
ATOM     13  C   UNL A   1      30.757  24.533  23.491  1.00  0.00     0.197 A 
ATOM     14  N   UNL A   1      31.660  23.807  22.759  1.00  0.00    -0.348 N 
ATOM     15  H   UNL A   1      31.538  23.468  21.842  1.00  0.00     0.167 HD
BRANCH   7  16
ATOM     16  C   UNL A   1      33.809  21.990  26.386  1.00  0.00     0.278 C 
ATOM     17  O   UNL A   1      33.051  22.041  27.359  1.00  0.00    -0.268 OA
BRANCH  16  18
ATOM     18  C   UNL A   1      34.254  20.589  25.849  1.00  0.00     0.362 C 
BRANCH  18  19
ATOM     19  N   UNL A   1      33.265  19.486  26.119  1.00  0.00    -0.334 N 
ATOM     20  H   UNL A   1      33.576  18.962  26.937  1.00  0.00     0.347 HD
ATOM     21  H   UNL A   1      32.355  19.918  26.274  1.00  0.00     0.347 HD
BRANCH  19  22
ATOM     22  C   UNL A   1      33.135  18.560  24.987  1.00  0.00     0.088 C 
ATOM     23  C   UNL A   1      32.481  19.479  23.961  1.00  0.00     0.078 C 
ATOM     24  C   UNL A   1      32.499  17.252  25.501  1.00  0.00     0.078 C 
ATOM     25  C   UNL A   1      34.458  18.007  24.412  1.00  0.00     0.078 C 
ENDBRANCH  19  22
ENDBRANCH  18  19
ENDBRANCH  16  18
ENDBRANCH   7  16
ENDBRANCH   4   6
ENDBRANCH   3   4
ENDBRANCH   2   3
ENDBRANCH   1   2
BRANCH   1  26
ATOM     26  O   UNL A   1      39.996  21.442  27.203  1.00  0.00    -0.374 OA
BRANCH  26  27
ATOM     27  C   UNL A   1      41.132  20.571  27.370  1.00  0.00     0.202 C 
BRANCH  27  28
ATOM     28  C   UNL A   1      41.853  19.988  26.135  1.00  0.00     0.261 C 
BRANCH  28  29
ATOM     29  O   UNL A   1      42.708  20.948  25.577  1.00  0.00    -0.460 OA
BRANCH  29  30
ATOM     30  C   UNL A   1      43.836  20.385  25.091  1.00  0.00     0.338 C 
ATOM     31  O   UNL A   1      44.059  19.211  24.895  1.00  0.00    -0.246 OA
BRANCH  30  32
ATOM     32  C   UNL A   1      44.750  21.487  24.747  1.00  0.00     0.060 A 
ATOM     33  C   UNL A   1      45.690  21.647  25.748  1.00  0.00     0.016 A 
ATOM     34  C   UNL A   1      44.208  22.541  23.993  1.00  0.00     0.016 A 
ATOM     35  C   UNL A   1      45.577  22.827  26.407  1.00  0.00     0.010 A 
ATOM     36  C   UNL A   1      44.116  23.732  24.635  1.00  0.00     0.010 A 
ATOM     37  C   UNL A   1      44.684  23.785  25.898  1.00  0.00    -0.014 A 
BRANCH  37  38
ATOM     38  C   UNL A   1      44.450  24.922  26.728  1.00  0.00     0.031 A 
ATOM     39  C   UNL A   1      45.604  25.821  26.648  1.00  0.00     0.074 A 
ATOM     40  C   UNL A   1      43.336  25.076  27.452  1.00  0.00     0.049 A 
ATOM     41  N   UNL A   1      46.578  25.891  27.487  1.00  0.00    -0.248 NA
ATOM     42  C   UNL A   1      45.878  26.424  25.334  1.00  0.00     0.031 C 
ATOM     43  C   UNL A   1      42.055  24.374  27.386  1.00  0.00     0.029 A 
ATOM     44  N   UNL A   1      43.122  26.019  28.388  1.00  0.00    -0.354 N 
ATOM     45  C   UNL A   1      47.487  26.752  26.900  1.00  0.00     0.074 A 
ATOM     46  C   UNL A   1      47.142  26.804  25.508  1.00  0.00     0.031 C 
ATOM     47  C   UNL A   1      41.131  25.099  28.064  1.00  0.00     0.029 A 
ATOM     48  C   UNL A   1      41.796  26.219  28.716  1.00  0.00     0.049 A 
ATOM     49  H   UNL A   1      43.854  26.528  28.807  1.00  0.00     0.167 HD
ATOM     50  C   UNL A   1      48.257  27.564  27.665  1.00  0.00     0.034 A 
ATOM     51  C   UNL A   1      41.329  27.324  29.355  1.00  0.00     0.034 A 
ATOM     52  C   UNL A   1      48.289  27.095  29.036  1.00  0.00     0.049 A 
ATOM     53  C   UNL A   1      42.506  27.937  30.047  1.00  0.00     0.074 A 
ATOM     54  C   UNL A   1      48.743  25.936  29.639  1.00  0.00     0.029 A 
ATOM     55  N   UNL A   1      47.414  27.668  29.937  1.00  0.00    -0.354 N 
ATOM     56  N   UNL A   1      43.151  27.341  31.019  1.00  0.00    -0.248 NA
ATOM     57  C   UNL A   1      43.291  28.933  29.322  1.00  0.00     0.031 C 
ATOM     58  C   UNL A   1      47.772  25.632  30.639  1.00  0.00     0.029 A 
ATOM     59  C   UNL A   1      46.817  26.652  30.649  1.00  0.00     0.049 A 
ATOM     60  H   UNL A   1      47.248  28.631  30.052  1.00  0.00     0.167 HD
ATOM     61  C   UNL A   1      44.500  27.581  30.780  1.00  0.00     0.074 A 
ATOM     62  C   UNL A   1      44.520  28.629  29.760  1.00  0.00     0.031 C 
ATOM     63  C   UNL A   1      45.470  26.711  31.197  1.00  0.00     0.034 A 
BRANCH  50  64
ATOM     64  C   UNL A   1      48.635  28.965  27.260  1.00  0.00     0.023 A 
ATOM     65  C   UNL A   1      50.008  29.235  27.165  1.00  0.00     0.031 A 
ATOM     66  C   UNL A   1      47.782  30.095  27.227  1.00  0.00     0.131 A 
ATOM     67  C   UNL A   1      50.481  30.555  27.162  1.00  0.00     0.055 A 
ATOM     68  C   UNL A   1      48.255  31.406  27.156  1.00  0.00     0.041 A 
ATOM     69  F   UNL A   1      46.452  30.025  27.350  1.00  0.00    -0.206 F 
ATOM     70  C   UNL A   1      49.614  31.644  27.159  1.00  0.00     0.022 A 
BRANCH  67  71
ATOM     71  S   UNL A   1      52.258  30.817  27.346  1.00  0.00     0.124 S 
ATOM     72  O   UNL A   1      52.295  32.000  28.198  1.00  0.00    -0.237 OA
ATOM     73  O   UNL A   1      52.680  29.563  27.962  1.00  0.00    -0.237 OA
ATOM     74  O   UNL A   1      52.710  31.022  25.971  1.00  0.00    -0.744 OA
ENDBRANCH  67  71
ENDBRANCH  50  64
BRANCH  51  75
ATOM     75  C   UNL A   1      40.092  28.064  28.983  1.00  0.00     0.023 A 
ATOM     76  C   UNL A   1      39.170  28.533  29.939  1.00  0.00     0.031 A 
ATOM     77  C   UNL A   1      39.904  28.510  27.652  1.00  0.00     0.131 A 
ATOM     78  C   UNL A   1      38.116  29.394  29.550  1.00  0.00     0.055 A 
ATOM     79  C   UNL A   1      38.859  29.354  27.272  1.00  0.00     0.041 A 
ATOM     80  F   UNL A   1      40.782  28.205  26.683  1.00  0.00    -0.206 F 
ATOM     81  C   UNL A   1      37.962  29.806  28.224  1.00  0.00     0.022 A 
BRANCH  78  82
ATOM     82  S   UNL A   1      36.962  30.057  30.793  1.00  0.00     0.124 S 
ATOM     83  O   UNL A   1      36.951  29.000  31.798  1.00  0.00    -0.237 OA
ATOM     84  O   UNL A   1      37.604  31.309  31.176  1.00  0.00    -0.237 OA
ATOM     85  O   UNL A   1      35.712  30.213  30.049  1.00  0.00    -0.744 OA
ENDBRANCH  78  82
ENDBRANCH  51  75
BRANCH  63  86
ATOM     86  C   UNL A   1      45.083  25.595  32.152  1.00  0.00     0.023 A 
ATOM     87  C   UNL A   1      44.983  25.725  33.558  1.00  0.00     0.031 A 
ATOM     88  C   UNL A   1      44.644  24.389  31.577  1.00  0.00     0.131 A 
ATOM     89  C   UNL A   1      44.455  24.667  34.327  1.00  0.00     0.055 A 
ATOM     90  C   UNL A   1      44.102  23.355  32.339  1.00  0.00     0.041 A 
ATOM     91  F   UNL A   1      44.688  24.216  30.246  1.00  0.00    -0.206 F 
ATOM     92  C   UNL A   1      44.007  23.489  33.719  1.00  0.00     0.022 A 
BRANCH  89  93
ATOM     93  S   UNL A   1      44.336  24.798  36.143  1.00  0.00     0.124 S 
ATOM     94  O   UNL A   1      44.946  23.559  36.611  1.00  0.00    -0.237 OA
ATOM     95  O   UNL A   1      45.080  26.022  36.420  1.00  0.00    -0.237 OA
ATOM     96  O   UNL A   1      42.895  24.895  36.385  1.00  0.00    -0.744 OA
ENDBRANCH  89  93
ENDBRANCH  63  86
ENDBRANCH  37  38
ENDBRANCH  30  32
ENDBRANCH  29  30
ENDBRANCH  28  29
ENDBRANCH  27  28
ENDBRANCH  26  27
ENDBRANCH   1  26
TORSDOF 21
ENDMDL
MODEL 3
REMARK VINA RESULT:     -10.6      3.825      8.918
REMARK SMILES CC(C)(C)[NH2+]CC(=O)N1Cc2nc[nH]c2C[C@@H]1C(=O)OCCOCCOC(=O)c1ccc(-c2c3nc(c(-c4cc(S(=O)(=O)[O-])ccc4F)c4ccc([nH]4)c(-c4cc(S(=O)(=O)[O-])ccc4F)c4nc(c(-c5cc(S(=O)(=O)[O-])ccc5F)c5ccc2[nH]5)C=C4)C=C3)cc1
REMARK SMILES IDX 22 1 21 2 20 3 18 4 19 5 17 6 9 7 10 8 11 9 16 10 12 11
REMARK SMILES IDX 15 12 13 13 14 14 7 16 8 17 6 18 5 19 2 22 1 23 3 24 4 25
REMARK SMILES IDX 23 26 24 27 25 28 26 29 27 30 28 31 29 32 30 33 91 34 31 35
REMARK SMILES IDX 90 36 32 37 33 38 34 39 84 40 35 41 89 42 83 43 85 44 36 45
REMARK SMILES IDX 88 46 82 47 81 48 37 50 69 51 49 52 68 53 50 54 53 55 67 56
REMARK SMILES IDX 86 57 51 58 52 59 66 61 87 62 54 63 38 64 39 65 47 66 40 67
REMARK SMILES IDX 46 68 48 69 45 70 41 71 42 72 43 73 44 74 70 75 71 76 79 77
REMARK SMILES IDX 72 78 78 79 80 80 77 81 73 82 74 83 75 84 76 85 55 86 56 87
REMARK SMILES IDX 64 88 57 89 63 90 65 91 62 92 58 93 59 94 60 95 61 96
REMARK H PARENT 14 15 5 20 5 21 85 49 53 60
REMARK Flexibility Score: inf
ROOT
ATOM      1  C   UNL A   1      39.355  23.327  27.260  1.00  0.00     0.202 C 
ENDROOT
BRANCH   1   2
ATOM      2  C   UNL A   1      38.528  23.552  25.878  1.00  0.00     0.261 C 
BRANCH   2   3
ATOM      3  O   UNL A   1      37.065  23.836  25.862  1.00  0.00    -0.462 OA
BRANCH   3   4
ATOM      4  C   UNL A   1      36.203  22.763  25.996  1.00  0.00     0.329 C 
ATOM      5  O   UNL A   1      36.595  21.613  25.785  1.00  0.00    -0.250 OA
BRANCH   4   6
ATOM      6  C   UNL A   1      34.619  23.067  26.295  1.00  0.00     0.201 C 
ATOM      7  N   UNL A   1      33.341  22.148  26.594  1.00  0.00    -0.318 N 
ATOM      8  C   UNL A   1      32.292  22.896  27.330  1.00  0.00     0.178 C 
ATOM      9  C   UNL A   1      32.012  24.174  26.595  1.00  0.00     0.081 A 
ATOM     10  C   UNL A   1      34.195  24.199  25.280  1.00  0.00     0.093 C 
ATOM     11  N   UNL A   1      30.875  24.932  26.706  1.00  0.00    -0.240 NA
ATOM     12  C   UNL A   1      32.877  24.743  25.685  1.00  0.00     0.042 A 
ATOM     13  C   UNL A   1      31.040  25.922  25.853  1.00  0.00     0.197 A 
ATOM     14  N   UNL A   1      32.243  25.845  25.201  1.00  0.00    -0.348 N 
ATOM     15  H   UNL A   1      32.582  26.467  24.516  1.00  0.00     0.167 HD
BRANCH   7  16
ATOM     16  C   UNL A   1      32.695  21.298  25.637  1.00  0.00     0.278 C 
ATOM     17  O   UNL A   1      31.484  21.361  25.406  1.00  0.00    -0.268 OA
BRANCH  16  18
ATOM     18  C   UNL A   1      33.542  20.192  24.923  1.00  0.00     0.362 C 
BRANCH  18  19
ATOM     19  N   UNL A   1      33.377  18.817  25.512  1.00  0.00    -0.334 N 
ATOM     20  H   UNL A   1      34.100  18.675  26.217  1.00  0.00     0.347 HD
ATOM     21  H   UNL A   1      32.443  18.763  25.917  1.00  0.00     0.347 HD
BRANCH  19  22
ATOM     22  C   UNL A   1      33.489  17.756  24.502  1.00  0.00     0.088 C 
ATOM     23  C   UNL A   1      35.005  17.691  24.347  1.00  0.00     0.078 C 
ATOM     24  C   UNL A   1      32.518  18.079  23.349  1.00  0.00     0.078 C 
ATOM     25  C   UNL A   1      32.955  16.367  24.921  1.00  0.00     0.078 C 
ENDBRANCH  19  22
ENDBRANCH  18  19
ENDBRANCH  16  18
ENDBRANCH   7  16
ENDBRANCH   4   6
ENDBRANCH   3   4
ENDBRANCH   2   3
ENDBRANCH   1   2
BRANCH   1  26
ATOM     26  O   UNL A   1      40.771  23.154  27.284  1.00  0.00    -0.374 OA
BRANCH  26  27
ATOM     27  C   UNL A   1      41.690  23.183  26.174  1.00  0.00     0.202 C 
BRANCH  27  28
ATOM     28  C   UNL A   1      42.388  24.502  25.776  1.00  0.00     0.261 C 
BRANCH  28  29
ATOM     29  O   UNL A   1      41.440  25.523  25.626  1.00  0.00    -0.460 OA
BRANCH  29  30
ATOM     30  C   UNL A   1      41.759  26.608  26.366  1.00  0.00     0.338 C 
ATOM     31  O   UNL A   1      42.861  26.994  26.688  1.00  0.00    -0.246 OA
BRANCH  30  32
ATOM     32  C   UNL A   1      40.500  27.315  26.653  1.00  0.00     0.060 A 
ATOM     33  C   UNL A   1      40.672  28.674  26.468  1.00  0.00     0.016 A 
ATOM     34  C   UNL A   1      39.669  26.747  27.633  1.00  0.00     0.016 A 
ATOM     35  C   UNL A   1      40.564  29.389  27.615  1.00  0.00     0.010 A 
ATOM     36  C   UNL A   1      39.534  27.468  28.774  1.00  0.00     0.010 A 
ATOM     37  C   UNL A   1      40.124  28.722  28.771  1.00  0.00    -0.014 A 
BRANCH  37  38
ATOM     38  C   UNL A   1      40.217  29.458  29.989  1.00  0.00     0.031 A 
ATOM     39  C   UNL A   1      38.999  30.255  30.164  1.00  0.00     0.074 A 
ATOM     40  C   UNL A   1      41.283  29.400  30.795  1.00  0.00     0.049 A 
ATOM     41  N   UNL A   1      38.852  31.500  29.872  1.00  0.00    -0.248 NA
ATOM     42  C   UNL A   1      37.743  29.508  30.327  1.00  0.00     0.031 C 
ATOM     43  C   UNL A   1      42.397  28.453  30.828  1.00  0.00     0.029 A 
ATOM     44  N   UNL A   1      41.522  30.193  31.855  1.00  0.00    -0.354 N 
ATOM     45  C   UNL A   1      37.504  31.746  30.054  1.00  0.00     0.074 A 
ATOM     46  C   UNL A   1      36.860  30.464  30.046  1.00  0.00     0.031 C 
ATOM     47  C   UNL A   1      43.037  28.583  32.017  1.00  0.00     0.029 A 
ATOM     48  C   UNL A   1      42.462  29.707  32.742  1.00  0.00     0.049 A 
ATOM     49  H   UNL A   1      41.061  31.053  31.990  1.00  0.00     0.167 HD
ATOM     50  C   UNL A   1      37.080  32.961  30.483  1.00  0.00     0.034 A 
ATOM     51  C   UNL A   1      42.603  30.150  34.019  1.00  0.00     0.034 A 
ATOM     52  C   UNL A   1      38.111  33.960  30.290  1.00  0.00     0.049 A 
ATOM     53  C   UNL A   1      41.974  31.508  34.064  1.00  0.00     0.074 A 
ATOM     54  C   UNL A   1      38.750  34.471  29.175  1.00  0.00     0.029 A 
ATOM     55  N   UNL A   1      38.928  34.263  31.361  1.00  0.00    -0.354 N 
ATOM     56  N   UNL A   1      42.439  32.532  33.391  1.00  0.00    -0.248 NA
ATOM     57  C   UNL A   1      40.556  31.600  34.400  1.00  0.00     0.031 C 
ATOM     58  C   UNL A   1      40.114  34.621  29.564  1.00  0.00     0.029 A 
ATOM     59  C   UNL A   1      40.229  34.267  30.911  1.00  0.00     0.049 A 
ATOM     60  H   UNL A   1      38.633  34.446  32.282  1.00  0.00     0.167 HD
ATOM     61  C   UNL A   1      41.323  33.187  32.881  1.00  0.00     0.074 A 
ATOM     62  C   UNL A   1      40.188  32.608  33.598  1.00  0.00     0.031 C 
ATOM     63  C   UNL A   1      41.383  33.914  31.724  1.00  0.00     0.034 A 
BRANCH  50  64
ATOM     64  C   UNL A   1      35.914  33.143  31.420  1.00  0.00     0.023 A 
ATOM     65  C   UNL A   1      34.953  34.091  31.038  1.00  0.00     0.031 A 
ATOM     66  C   UNL A   1      35.818  32.672  32.752  1.00  0.00     0.131 A 
ATOM     67  C   UNL A   1      34.044  34.607  31.973  1.00  0.00     0.055 A 
ATOM     68  C   UNL A   1      34.867  33.141  33.660  1.00  0.00     0.041 A 
ATOM     69  F   UNL A   1      36.676  31.803  33.296  1.00  0.00    -0.206 F 
ATOM     70  C   UNL A   1      33.995  34.141  33.283  1.00  0.00     0.022 A 
BRANCH  67  71
ATOM     71  S   UNL A   1      33.048  36.033  31.485  1.00  0.00     0.124 S 
ATOM     72  O   UNL A   1      31.739  35.675  32.020  1.00  0.00    -0.237 OA
ATOM     73  O   UNL A   1      33.744  37.125  32.157  1.00  0.00    -0.237 OA
ATOM     74  O   UNL A   1      33.150  36.029  30.027  1.00  0.00    -0.744 OA
ENDBRANCH  67  71
ENDBRANCH  50  64
BRANCH  51  75
ATOM     75  C   UNL A   1      42.804  29.276  35.207  1.00  0.00     0.023 A 
ATOM     76  C   UNL A   1      42.032  28.122  35.441  1.00  0.00     0.031 A 
ATOM     77  C   UNL A   1      43.931  29.463  36.044  1.00  0.00     0.131 A 
ATOM     78  C   UNL A   1      42.388  27.224  36.476  1.00  0.00     0.055 A 
ATOM     79  C   UNL A   1      44.274  28.578  37.068  1.00  0.00     0.041 A 
ATOM     80  F   UNL A   1      44.790  30.476  35.843  1.00  0.00    -0.206 F 
ATOM     81  C   UNL A   1      43.506  27.448  37.284  1.00  0.00     0.022 A 
BRANCH  78  82
ATOM     82  S   UNL A   1      41.434  25.695  36.738  1.00  0.00     0.124 S 
ATOM     83  O   UNL A   1      40.551  26.067  37.837  1.00  0.00    -0.237 OA
ATOM     84  O   UNL A   1      40.803  25.495  35.438  1.00  0.00    -0.237 OA
ATOM     85  O   UNL A   1      42.458  24.708  37.079  1.00  0.00    -0.744 OA
ENDBRANCH  78  82
ENDBRANCH  51  75
BRANCH  63  86
ATOM     86  C   UNL A   1      42.746  34.212  31.123  1.00  0.00     0.023 A 
ATOM     87  C   UNL A   1      43.352  33.476  30.076  1.00  0.00     0.031 A 
ATOM     88  C   UNL A   1      43.377  35.400  31.533  1.00  0.00     0.131 A 
ATOM     89  C   UNL A   1      44.545  33.944  29.486  1.00  0.00     0.055 A 
ATOM     90  C   UNL A   1      44.544  35.869  30.932  1.00  0.00     0.041 A 
ATOM     91  F   UNL A   1      42.836  36.156  32.503  1.00  0.00    -0.206 F 
ATOM     92  C   UNL A   1      45.134  35.142  29.906  1.00  0.00     0.022 A 
BRANCH  89  93
ATOM     93  S   UNL A   1      45.361  33.004  28.152  1.00  0.00     0.124 S 
ATOM     94  O   UNL A   1      44.263  32.672  27.253  1.00  0.00    -0.237 OA
ATOM     95  O   UNL A   1      46.338  33.962  27.644  1.00  0.00    -0.237 OA
ATOM     96  O   UNL A   1      45.944  31.856  28.850  1.00  0.00    -0.744 OA
ENDBRANCH  89  93
ENDBRANCH  63  86
ENDBRANCH  37  38
ENDBRANCH  30  32
ENDBRANCH  29  30
ENDBRANCH  28  29
ENDBRANCH  27  28
ENDBRANCH  26  27
ENDBRANCH   1  26
TORSDOF 21
ENDMDL
