MODEL 1
REMARK VINA RESULT:     -11.8      0.000      0.000
REMARK SMILES Cc1ccc(C(C)(C)C)c(OCC(=O)c2nc(C)c(C(=O)OCCOCCOC(=O)c3ccc(-c4c5nc(c(-c6cc(S(=O)(=O)[O-])ccc6F)c6ccc([nH]6)c(-c6cc(S(=O)(=O)[O-])ccc6F)c6nc(c(-c7cc(S(=O)(=O)[O-])ccc7F)c7ccc4[nH]7)C=C6)C=C5)cc3)s2)c1
REMARK SMILES IDX 24 1 23 2 22 3 20 4 21 5 19 6 15 7 16 8 94 9 17 10 18 11
REMARK SMILES IDX 13 12 14 13 12 14 11 15 10 16 1 17 2 18 3 19 95 20 4 21 5 22
REMARK SMILES IDX 6 23 7 24 8 25 9 26 25 27 26 28 27 29 28 30 29 31 30 32
REMARK SMILES IDX 31 33 32 34 93 35 33 36 92 37 34 38 35 39 36 40 86 41 37 42
REMARK SMILES IDX 91 43 85 44 87 45 38 46 90 47 84 48 83 49 39 51 71 52 51 53
REMARK SMILES IDX 70 54 52 55 55 56 69 57 88 58 53 59 54 60 68 62 89 63 56 64
REMARK SMILES IDX 40 65 41 66 49 67 42 68 48 69 50 70 47 71 43 72 44 73 45 74
REMARK SMILES IDX 46 75 72 76 73 77 81 78 74 79 80 80 82 81 79 82 75 83 76 84
REMARK SMILES IDX 77 85 78 86 57 87 58 88 66 89 59 90 65 91 67 92 64 93 60 94
REMARK SMILES IDX 61 95 62 96 63 97
REMARK H PARENT 87 50 55 61
REMARK Flexibility Score: inf
ROOT
ATOM      1  C   UNL A   1      35.840  20.732  25.040  1.00  0.00     0.202 C 
ENDROOT
BRANCH   1   2
ATOM      2  C   UNL A   1      34.859  21.732  24.494  1.00  0.00     0.261 C 
BRANCH   2   3
ATOM      3  O   UNL A   1      33.642  21.108  24.082  1.00  0.00    -0.459 OA
BRANCH   3   4
ATOM      4  C   UNL A   1      32.719  20.849  25.046  1.00  0.00     0.350 C 
ATOM      5  O   UNL A   1      32.403  19.746  25.437  1.00  0.00    -0.245 OA
BRANCH   4   6
ATOM      6  C   UNL A   1      32.326  22.111  25.632  1.00  0.00     0.136 A 
ATOM      7  C   UNL A   1      31.018  24.099  26.037  1.00  0.00     0.164 A 
ATOM      8  N   UNL A   1      31.736  23.825  27.107  1.00  0.00    -0.237 NA
ATOM      9  S   UNL A   1      31.368  23.146  24.675  1.00  0.00    -0.103 S 
ATOM     10  C   UNL A   1      32.487  22.670  26.890  1.00  0.00     0.064 A 
ATOM     11  C   UNL A   1      33.290  22.166  28.037  1.00  0.00     0.068 C 
BRANCH   7  12
ATOM     12  C   UNL A   1      30.007  25.143  26.024  1.00  0.00     0.228 C 
ATOM     13  O   UNL A   1      29.104  25.229  26.869  1.00  0.00    -0.288 OA
BRANCH  12  14
ATOM     14  C   UNL A   1      29.958  26.109  24.815  1.00  0.00     0.313 C 
BRANCH  14  15
ATOM     15  O   UNL A   1      30.901  27.123  24.530  1.00  0.00    -0.485 OA
BRANCH  15  16
ATOM     16  C   UNL A   1      30.477  28.380  24.204  1.00  0.00     0.123 A 
ATOM     17  C   UNL A   1      27.802  30.060  22.059  1.00  0.00     0.044 C 
ATOM     18  C   UNL A   1      28.945  29.866  23.010  1.00  0.00    -0.047 A 
ATOM     19  C   UNL A   1      29.488  30.949  23.687  1.00  0.00     0.004 A 
ATOM     20  C   UNL A   1      29.486  28.598  23.230  1.00  0.00     0.050 A 
ATOM     21  C   UNL A   1      30.523  30.755  24.605  1.00  0.00     0.008 A 
ATOM     22  C   UNL A   1      31.029  29.470  24.918  1.00  0.00    -0.000 A 
BRANCH  22  23
ATOM     23  C   UNL A   1      32.131  29.384  26.009  1.00  0.00    -0.010 C 
ATOM     24  C   UNL A   1      31.660  28.388  27.092  1.00  0.00     0.016 C 
ATOM     25  C   UNL A   1      33.463  28.867  25.401  1.00  0.00     0.016 C 
ATOM     26  C   UNL A   1      32.498  30.695  26.743  1.00  0.00     0.016 C 
ENDBRANCH  22  23
ENDBRANCH  15  16
ENDBRANCH  14  15
ENDBRANCH  12  14
ENDBRANCH   7  12
ENDBRANCH   4   6
ENDBRANCH   3   4
ENDBRANCH   2   3
ENDBRANCH   1   2
BRANCH   1  27
ATOM     27  O   UNL A   1      36.896  21.478  25.647  1.00  0.00    -0.374 OA
BRANCH  27  28
ATOM     28  C   UNL A   1      38.198  20.985  25.366  1.00  0.00     0.202 C 
BRANCH  28  29
ATOM     29  C   UNL A   1      39.322  21.724  26.111  1.00  0.00     0.261 C 
BRANCH  29  30
ATOM     30  O   UNL A   1      40.259  20.761  26.629  1.00  0.00    -0.460 OA
BRANCH  30  31
ATOM     31  C   UNL A   1      41.543  20.895  26.195  1.00  0.00     0.338 C 
ATOM     32  O   UNL A   1      42.123  20.116  25.458  1.00  0.00    -0.246 OA
BRANCH  31  33
ATOM     33  C   UNL A   1      42.177  22.054  26.885  1.00  0.00     0.060 A 
ATOM     34  C   UNL A   1      42.197  22.119  28.290  1.00  0.00     0.016 A 
ATOM     35  C   UNL A   1      42.531  23.175  26.135  1.00  0.00     0.016 A 
ATOM     36  C   UNL A   1      42.459  23.339  28.936  1.00  0.00     0.010 A 
ATOM     37  C   UNL A   1      42.720  24.386  26.773  1.00  0.00     0.010 A 
ATOM     38  C   UNL A   1      42.664  24.491  28.173  1.00  0.00    -0.014 A 
BRANCH  38  39
ATOM     39  C   UNL A   1      42.633  25.869  28.685  1.00  0.00     0.031 A 
ATOM     40  C   UNL A   1      41.397  26.685  28.616  1.00  0.00     0.074 A 
ATOM     41  C   UNL A   1      43.647  26.330  29.455  1.00  0.00     0.049 A 
ATOM     42  N   UNL A   1      41.375  27.970  28.731  1.00  0.00    -0.248 NA
ATOM     43  C   UNL A   1      40.072  26.118  28.391  1.00  0.00     0.031 C 
ATOM     44  C   UNL A   1      43.597  27.393  30.458  1.00  0.00     0.029 A 
ATOM     45  N   UNL A   1      44.979  25.958  29.442  1.00  0.00    -0.354 N 
ATOM     46  C   UNL A   1      40.068  28.350  28.943  1.00  0.00     0.074 A 
ATOM     47  C   UNL A   1      39.291  27.170  28.642  1.00  0.00     0.031 C 
ATOM     48  C   UNL A   1      44.847  27.706  30.841  1.00  0.00     0.029 A 
ATOM     49  C   UNL A   1      45.768  26.964  29.998  1.00  0.00     0.049 A 
ATOM     50  H   UNL A   1      45.322  25.105  29.089  1.00  0.00     0.167 HD
ATOM     51  C   UNL A   1      39.798  29.569  29.494  1.00  0.00     0.034 A 
ATOM     52  C   UNL A   1      46.839  27.449  29.311  1.00  0.00     0.034 A 
ATOM     53  C   UNL A   1      41.034  30.297  29.819  1.00  0.00     0.049 A 
ATOM     54  C   UNL A   1      46.561  28.878  28.908  1.00  0.00     0.074 A 
ATOM     55  C   UNL A   1      41.685  30.534  31.020  1.00  0.00     0.029 A 
ATOM     56  N   UNL A   1      41.936  30.649  28.813  1.00  0.00    -0.354 N 
ATOM     57  N   UNL A   1      45.375  29.415  29.005  1.00  0.00    -0.248 NA
ATOM     58  C   UNL A   1      47.553  29.817  28.399  1.00  0.00     0.031 C 
ATOM     59  C   UNL A   1      43.006  30.964  30.728  1.00  0.00     0.029 A 
ATOM     60  C   UNL A   1      43.155  31.028  29.351  1.00  0.00     0.049 A 
ATOM     61  H   UNL A   1      41.733  30.631  27.851  1.00  0.00     0.167 HD
ATOM     62  C   UNL A   1      45.404  30.701  28.568  1.00  0.00     0.074 A 
ATOM     63  C   UNL A   1      46.799  30.917  28.214  1.00  0.00     0.031 C 
ATOM     64  C   UNL A   1      44.267  31.454  28.505  1.00  0.00     0.034 A 
BRANCH  51  65
ATOM     65  C   UNL A   1      38.434  29.980  30.031  1.00  0.00     0.023 A 
ATOM     66  C   UNL A   1      37.725  31.029  29.407  1.00  0.00     0.031 A 
ATOM     67  C   UNL A   1      37.781  29.406  31.141  1.00  0.00     0.131 A 
ATOM     68  C   UNL A   1      36.518  31.528  29.938  1.00  0.00     0.055 A 
ATOM     69  C   UNL A   1      36.620  29.945  31.714  1.00  0.00     0.041 A 
ATOM     70  F   UNL A   1      38.188  28.251  31.680  1.00  0.00    -0.206 F 
ATOM     71  C   UNL A   1      35.986  31.021  31.118  1.00  0.00     0.022 A 
BRANCH  68  72
ATOM     72  S   UNL A   1      35.617  32.820  29.038  1.00  0.00     0.124 S 
ATOM     73  O   UNL A   1      34.241  32.598  29.472  1.00  0.00    -0.237 OA
ATOM     74  O   UNL A   1      36.258  34.039  29.517  1.00  0.00    -0.237 OA
ATOM     75  O   UNL A   1      35.878  32.502  27.633  1.00  0.00    -0.744 OA
ENDBRANCH  68  72
ENDBRANCH  51  65
BRANCH  52  76
ATOM     76  C   UNL A   1      47.519  26.381  28.505  1.00  0.00     0.023 A 
ATOM     77  C   UNL A   1      47.414  26.465  27.092  1.00  0.00     0.031 A 
ATOM     78  C   UNL A   1      48.584  25.632  29.028  1.00  0.00     0.131 A 
ATOM     79  C   UNL A   1      48.422  25.943  26.262  1.00  0.00     0.055 A 
ATOM     80  C   UNL A   1      49.575  25.093  28.194  1.00  0.00     0.041 A 
ATOM     81  F   UNL A   1      48.758  25.527  30.352  1.00  0.00    -0.206 F 
ATOM     82  C   UNL A   1      49.521  25.283  26.812  1.00  0.00     0.022 A 
BRANCH  79  83
ATOM     83  S   UNL A   1      48.437  26.357  24.482  1.00  0.00     0.124 S 
ATOM     84  O   UNL A   1      47.630  27.569  24.440  1.00  0.00    -0.237 OA
ATOM     85  O   UNL A   1      49.856  26.532  24.194  1.00  0.00    -0.237 OA
ATOM     86  O   UNL A   1      47.850  25.174  23.856  1.00  0.00    -0.744 OA
ENDBRANCH  79  83
ENDBRANCH  52  76
BRANCH  64  87
ATOM     87  C   UNL A   1      44.170  32.716  27.698  1.00  0.00     0.023 A 
ATOM     88  C   UNL A   1      43.740  33.922  28.268  1.00  0.00     0.031 A 
ATOM     89  C   UNL A   1      44.592  32.778  26.354  1.00  0.00     0.131 A 
ATOM     90  C   UNL A   1      43.611  35.082  27.498  1.00  0.00     0.055 A 
ATOM     91  C   UNL A   1      44.563  33.962  25.613  1.00  0.00     0.041 A 
ATOM     92  F   UNL A   1      45.057  31.696  25.711  1.00  0.00    -0.206 F 
ATOM     93  C   UNL A   1      44.043  35.121  26.175  1.00  0.00     0.022 A 
BRANCH  90  94
ATOM     94  S   UNL A   1      42.759  36.491  28.247  1.00  0.00     0.124 S 
ATOM     95  O   UNL A   1      42.457  37.312  27.076  1.00  0.00    -0.237 OA
ATOM     96  O   UNL A   1      41.611  35.861  28.890  1.00  0.00    -0.237 OA
ATOM     97  O   UNL A   1      43.756  37.051  29.156  1.00  0.00    -0.744 OA
ENDBRANCH  90  94
ENDBRANCH  64  87
ENDBRANCH  38  39
ENDBRANCH  31  33
ENDBRANCH  30  31
ENDBRANCH  29  30
ENDBRANCH  28  29
ENDBRANCH  27  28
ENDBRANCH   1  27
TORSDOF 22
ENDMDL
MODEL 2
REMARK VINA RESULT:     -11.1      4.230     10.203
REMARK SMILES Cc1ccc(C(C)(C)C)c(OCC(=O)c2nc(C)c(C(=O)OCCOCCOC(=O)c3ccc(-c4c5nc(c(-c6cc(S(=O)(=O)[O-])ccc6F)c6ccc([nH]6)c(-c6cc(S(=O)(=O)[O-])ccc6F)c6nc(c(-c7cc(S(=O)(=O)[O-])ccc7F)c7ccc4[nH]7)C=C6)C=C5)cc3)s2)c1
REMARK SMILES IDX 24 1 23 2 22 3 20 4 21 5 19 6 15 7 16 8 94 9 17 10 18 11
REMARK SMILES IDX 13 12 14 13 12 14 11 15 10 16 1 17 2 18 3 19 95 20 4 21 5 22
REMARK SMILES IDX 6 23 7 24 8 25 9 26 25 27 26 28 27 29 28 30 29 31 30 32
REMARK SMILES IDX 31 33 32 34 93 35 33 36 92 37 34 38 35 39 36 40 86 41 37 42
REMARK SMILES IDX 91 43 85 44 87 45 38 46 90 47 84 48 83 49 39 51 71 52 51 53
REMARK SMILES IDX 70 54 52 55 55 56 69 57 88 58 53 59 54 60 68 62 89 63 56 64
REMARK SMILES IDX 40 65 41 66 49 67 42 68 48 69 50 70 47 71 43 72 44 73 45 74
REMARK SMILES IDX 46 75 72 76 73 77 81 78 74 79 80 80 82 81 79 82 75 83 76 84
REMARK SMILES IDX 77 85 78 86 57 87 58 88 66 89 59 90 65 91 67 92 64 93 60 94
REMARK SMILES IDX 61 95 62 96 63 97
REMARK H PARENT 87 50 55 61
REMARK Flexibility Score: inf
ROOT
ATOM      1  C   UNL A   1      33.887  29.225  27.330  1.00  0.00     0.202 C 
ENDROOT
BRANCH   1   2
ATOM      2  C   UNL A   1      32.602  29.513  26.606  1.00  0.00     0.261 C 
BRANCH   2   3
ATOM      3  O   UNL A   1      32.557  28.869  25.332  1.00  0.00    -0.459 OA
BRANCH   3   4
ATOM      4  C   UNL A   1      31.426  29.028  24.595  1.00  0.00     0.350 C 
ATOM      5  O   UNL A   1      30.703  30.001  24.619  1.00  0.00    -0.245 OA
BRANCH   4   6
ATOM      6  C   UNL A   1      31.346  27.924  23.664  1.00  0.00     0.136 A 
ATOM      7  C   UNL A   1      32.069  26.082  22.282  1.00  0.00     0.164 A 
ATOM      8  N   UNL A   1      30.791  25.938  22.565  1.00  0.00    -0.237 NA
ATOM      9  S   UNL A   1      32.749  27.561  22.768  1.00  0.00    -0.103 S 
ATOM     10  C   UNL A   1      30.363  26.991  23.374  1.00  0.00     0.064 A 
ATOM     11  C   UNL A   1      28.958  26.935  23.862  1.00  0.00     0.068 C 
BRANCH   7  12
ATOM     12  C   UNL A   1      32.837  25.052  21.603  1.00  0.00     0.228 C 
ATOM     13  O   UNL A   1      33.277  25.177  20.451  1.00  0.00    -0.288 OA
BRANCH  12  14
ATOM     14  C   UNL A   1      32.986  23.670  22.287  1.00  0.00     0.313 C 
BRANCH  14  15
ATOM     15  O   UNL A   1      32.380  23.281  23.502  1.00  0.00    -0.485 OA
BRANCH  15  16
ATOM     16  C   UNL A   1      32.517  22.000  23.957  1.00  0.00     0.123 A 
ATOM     17  C   UNL A   1      32.345  18.427  22.620  1.00  0.00     0.044 C 
ATOM     18  C   UNL A   1      32.528  19.588  23.551  1.00  0.00    -0.047 A 
ATOM     19  C   UNL A   1      32.987  19.385  24.845  1.00  0.00     0.004 A 
ATOM     20  C   UNL A   1      32.240  20.890  23.138  1.00  0.00     0.050 A 
ATOM     21  C   UNL A   1      33.198  20.475  25.693  1.00  0.00     0.008 A 
ATOM     22  C   UNL A   1      33.004  21.813  25.273  1.00  0.00    -0.000 A 
BRANCH  22  23
ATOM     23  C   UNL A   1      33.343  22.937  26.290  1.00  0.00    -0.010 C 
ATOM     24  C   UNL A   1      33.694  22.274  27.640  1.00  0.00     0.016 C 
ATOM     25  C   UNL A   1      34.566  23.762  25.806  1.00  0.00     0.016 C 
ATOM     26  C   UNL A   1      32.237  23.977  26.582  1.00  0.00     0.016 C 
ENDBRANCH  22  23
ENDBRANCH  15  16
ENDBRANCH  14  15
ENDBRANCH  12  14
ENDBRANCH   7  12
ENDBRANCH   4   6
ENDBRANCH   3   4
ENDBRANCH   2   3
ENDBRANCH   1   2
BRANCH   1  27
ATOM     27  O   UNL A   1      34.339  30.465  27.880  1.00  0.00    -0.374 OA
BRANCH  27  28
ATOM     28  C   UNL A   1      33.795  31.616  27.250  1.00  0.00     0.202 C 
BRANCH  28  29
ATOM     29  C   UNL A   1      33.494  32.774  28.216  1.00  0.00     0.261 C 
BRANCH  29  30
ATOM     30  O   UNL A   1      34.169  32.536  29.466  1.00  0.00    -0.460 OA
BRANCH  30  31
ATOM     31  C   UNL A   1      34.724  33.631  30.054  1.00  0.00     0.338 C 
ATOM     32  O   UNL A   1      34.172  34.707  30.204  1.00  0.00    -0.246 OA
BRANCH  31  33
ATOM     33  C   UNL A   1      36.162  33.359  30.341  1.00  0.00     0.060 A 
ATOM     34  C   UNL A   1      37.141  33.615  29.365  1.00  0.00     0.016 A 
ATOM     35  C   UNL A   1      36.496  32.630  31.482  1.00  0.00     0.016 A 
ATOM     36  C   UNL A   1      38.420  33.043  29.481  1.00  0.00     0.010 A 
ATOM     37  C   UNL A   1      37.731  32.016  31.557  1.00  0.00     0.010 A 
ATOM     38  C   UNL A   1      38.697  32.191  30.553  1.00  0.00    -0.014 A 
BRANCH  38  39
ATOM     39  C   UNL A   1      39.851  31.284  30.644  1.00  0.00     0.031 A 
ATOM     40  C   UNL A   1      39.883  30.008  29.890  1.00  0.00     0.074 A 
ATOM     41  C   UNL A   1      41.006  31.709  31.209  1.00  0.00     0.049 A 
ATOM     42  N   UNL A   1      40.680  29.030  30.165  1.00  0.00    -0.248 NA
ATOM     43  C   UNL A   1      39.001  29.717  28.767  1.00  0.00     0.031 C 
ATOM     44  C   UNL A   1      42.360  31.224  30.950  1.00  0.00     0.029 A 
ATOM     45  N   UNL A   1      41.184  32.654  32.204  1.00  0.00    -0.354 N 
ATOM     46  C   UNL A   1      40.668  28.165  29.092  1.00  0.00     0.074 A 
ATOM     47  C   UNL A   1      39.548  28.597  28.288  1.00  0.00     0.031 C 
ATOM     48  C   UNL A   1      43.203  31.737  31.863  1.00  0.00     0.029 A 
ATOM     49  C   UNL A   1      42.409  32.460  32.842  1.00  0.00     0.049 A 
ATOM     50  H   UNL A   1      40.538  33.361  32.430  1.00  0.00     0.167 HD
ATOM     51  C   UNL A   1      41.692  27.280  28.925  1.00  0.00     0.034 A 
ATOM     52  C   UNL A   1      42.461  32.351  34.198  1.00  0.00     0.034 A 
ATOM     53  C   UNL A   1      42.715  27.439  29.969  1.00  0.00     0.049 A 
ATOM     54  C   UNL A   1      42.859  30.940  34.564  1.00  0.00     0.074 A 
ATOM     55  C   UNL A   1      43.973  28.021  29.958  1.00  0.00     0.029 A 
ATOM     56  N   UNL A   1      42.397  27.232  31.313  1.00  0.00    -0.354 N 
ATOM     57  N   UNL A   1      42.881  29.969  33.692  1.00  0.00    -0.248 NA
ATOM     58  C   UNL A   1      43.279  30.501  35.889  1.00  0.00     0.031 C 
ATOM     59  C   UNL A   1      44.377  28.226  31.304  1.00  0.00     0.029 A 
ATOM     60  C   UNL A   1      43.386  27.736  32.140  1.00  0.00     0.049 A 
ATOM     61  H   UNL A   1      41.578  26.787  31.629  1.00  0.00     0.167 HD
ATOM     62  C   UNL A   1      43.263  28.810  34.288  1.00  0.00     0.074 A 
ATOM     63  C   UNL A   1      43.522  29.196  35.666  1.00  0.00     0.031 C 
ATOM     64  C   UNL A   1      43.295  27.634  33.595  1.00  0.00     0.034 A 
BRANCH  51  65
ATOM     65  C   UNL A   1      41.934  26.485  27.649  1.00  0.00     0.023 A 
ATOM     66  C   UNL A   1      41.938  25.074  27.696  1.00  0.00     0.031 A 
ATOM     67  C   UNL A   1      42.174  27.032  26.372  1.00  0.00     0.131 A 
ATOM     68  C   UNL A   1      42.277  24.295  26.571  1.00  0.00     0.055 A 
ATOM     69  C   UNL A   1      42.581  26.267  25.270  1.00  0.00     0.041 A 
ATOM     70  F   UNL A   1      41.951  28.325  26.105  1.00  0.00    -0.206 F 
ATOM     71  C   UNL A   1      42.646  24.887  25.368  1.00  0.00     0.022 A 
BRANCH  68  72
ATOM     72  S   UNL A   1      42.180  22.486  26.680  1.00  0.00     0.124 S 
ATOM     73  O   UNL A   1      42.295  22.257  28.117  1.00  0.00    -0.237 OA
ATOM     74  O   UNL A   1      40.880  22.207  26.081  1.00  0.00    -0.237 OA
ATOM     75  O   UNL A   1      43.328  22.036  25.891  1.00  0.00    -0.744 OA
ENDBRANCH  68  72
ENDBRANCH  51  65
BRANCH  52  76
ATOM     76  C   UNL A   1      41.444  33.224  34.871  1.00  0.00     0.023 A 
ATOM     77  C   UNL A   1      40.132  32.702  35.018  1.00  0.00     0.031 A 
ATOM     78  C   UNL A   1      41.823  34.264  35.734  1.00  0.00     0.131 A 
ATOM     79  C   UNL A   1      39.309  33.112  36.082  1.00  0.00     0.055 A 
ATOM     80  C   UNL A   1      40.989  34.685  36.780  1.00  0.00     0.041 A 
ATOM     81  F   UNL A   1      43.054  34.790  35.667  1.00  0.00    -0.206 F 
ATOM     82  C   UNL A   1      39.747  34.081  36.984  1.00  0.00     0.022 A 
BRANCH  79  83
ATOM     83  S   UNL A   1      37.774  32.189  36.448  1.00  0.00     0.124 S 
ATOM     84  O   UNL A   1      38.288  30.925  36.958  1.00  0.00    -0.237 OA
ATOM     85  O   UNL A   1      37.101  33.039  37.424  1.00  0.00    -0.237 OA
ATOM     86  O   UNL A   1      37.099  32.131  35.153  1.00  0.00    -0.744 OA
ENDBRANCH  79  83
ENDBRANCH  52  76
BRANCH  64  87
ATOM     87  C   UNL A   1      43.340  26.293  34.268  1.00  0.00     0.023 A 
ATOM     88  C   UNL A   1      44.533  25.568  34.384  1.00  0.00     0.031 A 
ATOM     89  C   UNL A   1      42.208  25.736  34.899  1.00  0.00     0.131 A 
ATOM     90  C   UNL A   1      44.556  24.300  34.974  1.00  0.00     0.055 A 
ATOM     91  C   UNL A   1      42.255  24.517  35.581  1.00  0.00     0.041 A 
ATOM     92  F   UNL A   1      41.018  26.355  34.886  1.00  0.00    -0.206 F 
ATOM     93  C   UNL A   1      43.428  23.775  35.599  1.00  0.00     0.022 A 
BRANCH  90  94
ATOM     94  S   UNL A   1      46.068  23.324  34.796  1.00  0.00     0.124 S 
ATOM     95  O   UNL A   1      46.950  24.264  34.107  1.00  0.00    -0.237 OA
ATOM     96  O   UNL A   1      46.419  23.028  36.180  1.00  0.00    -0.237 OA
ATOM     97  O   UNL A   1      45.643  22.175  33.999  1.00  0.00    -0.744 OA
ENDBRANCH  90  94
ENDBRANCH  64  87
ENDBRANCH  38  39
ENDBRANCH  31  33
ENDBRANCH  30  31
ENDBRANCH  29  30
ENDBRANCH  28  29
ENDBRANCH  27  28
ENDBRANCH   1  27
TORSDOF 22
ENDMDL
MODEL 3
REMARK VINA RESULT:     -11.1      4.312     10.221
REMARK SMILES Cc1ccc(C(C)(C)C)c(OCC(=O)c2nc(C)c(C(=O)OCCOCCOC(=O)c3ccc(-c4c5nc(c(-c6cc(S(=O)(=O)[O-])ccc6F)c6ccc([nH]6)c(-c6cc(S(=O)(=O)[O-])ccc6F)c6nc(c(-c7cc(S(=O)(=O)[O-])ccc7F)c7ccc4[nH]7)C=C6)C=C5)cc3)s2)c1
REMARK SMILES IDX 24 1 23 2 22 3 20 4 21 5 19 6 15 7 16 8 94 9 17 10 18 11
REMARK SMILES IDX 13 12 14 13 12 14 11 15 10 16 1 17 2 18 3 19 95 20 4 21 5 22
REMARK SMILES IDX 6 23 7 24 8 25 9 26 25 27 26 28 27 29 28 30 29 31 30 32
REMARK SMILES IDX 31 33 32 34 93 35 33 36 92 37 34 38 35 39 36 40 86 41 37 42
REMARK SMILES IDX 91 43 85 44 87 45 38 46 90 47 84 48 83 49 39 51 71 52 51 53
REMARK SMILES IDX 70 54 52 55 55 56 69 57 88 58 53 59 54 60 68 62 89 63 56 64
REMARK SMILES IDX 40 65 41 66 49 67 42 68 48 69 50 70 47 71 43 72 44 73 45 74
REMARK SMILES IDX 46 75 72 76 73 77 81 78 74 79 80 80 82 81 79 82 75 83 76 84
REMARK SMILES IDX 77 85 78 86 57 87 58 88 66 89 59 90 65 91 67 92 64 93 60 94
REMARK SMILES IDX 61 95 62 96 63 97
REMARK H PARENT 87 50 55 61
REMARK Flexibility Score: inf
ROOT
ATOM      1  C   UNL A   1      33.740  30.357  27.258  1.00  0.00     0.202 C 
ENDROOT
BRANCH   1   2
ATOM      2  C   UNL A   1      32.288  30.409  26.871  1.00  0.00     0.261 C 
BRANCH   2   3
ATOM      3  O   UNL A   1      31.771  29.109  26.585  1.00  0.00    -0.459 OA
BRANCH   3   4
ATOM      4  C   UNL A   1      31.396  28.858  25.302  1.00  0.00     0.350 C 
ATOM      5  O   UNL A   1      31.411  29.664  24.396  1.00  0.00    -0.245 OA
BRANCH   4   6
ATOM      6  C   UNL A   1      31.154  27.438  25.181  1.00  0.00     0.136 A 
ATOM      7  C   UNL A   1      31.084  25.102  25.787  1.00  0.00     0.164 A 
ATOM      8  N   UNL A   1      30.189  25.336  24.849  1.00  0.00    -0.237 NA
ATOM      9  S   UNL A   1      32.124  26.403  26.125  1.00  0.00    -0.103 S 
ATOM     10  C   UNL A   1      30.211  26.686  24.499  1.00  0.00     0.064 A 
ATOM     11  C   UNL A   1      29.194  27.140  23.511  1.00  0.00     0.068 C 
BRANCH   7  12
ATOM     12  C   UNL A   1      31.175  23.826  26.476  1.00  0.00     0.228 C 
ATOM     13  O   UNL A   1      31.649  23.696  27.613  1.00  0.00    -0.288 OA
BRANCH  12  14
ATOM     14  C   UNL A   1      30.801  22.539  25.698  1.00  0.00     0.313 C 
BRANCH  14  15
ATOM     15  O   UNL A   1      31.664  21.806  24.853  1.00  0.00    -0.485 OA
BRANCH  15  16
ATOM     16  C   UNL A   1      32.561  22.459  24.056  1.00  0.00     0.123 A 
ATOM     17  C   UNL A   1      32.631  25.332  21.542  1.00  0.00     0.044 C 
ATOM     18  C   UNL A   1      33.080  24.211  22.430  1.00  0.00    -0.047 A 
ATOM     19  C   UNL A   1      34.431  23.921  22.569  1.00  0.00     0.004 A 
ATOM     20  C   UNL A   1      32.153  23.436  23.130  1.00  0.00     0.050 A 
ATOM     21  C   UNL A   1      34.844  22.904  23.432  1.00  0.00     0.008 A 
ATOM     22  C   UNL A   1      33.935  22.164  24.226  1.00  0.00    -0.000 A 
BRANCH  22  23
ATOM     23  C   UNL A   1      34.530  21.110  25.198  1.00  0.00    -0.010 C 
ATOM     24  C   UNL A   1      36.059  21.067  24.984  1.00  0.00     0.016 C 
ATOM     25  C   UNL A   1      34.243  21.501  26.672  1.00  0.00     0.016 C 
ATOM     26  C   UNL A   1      34.023  19.656  25.054  1.00  0.00     0.016 C 
ENDBRANCH  22  23
ENDBRANCH  15  16
ENDBRANCH  14  15
ENDBRANCH  12  14
ENDBRANCH   7  12
ENDBRANCH   4   6
ENDBRANCH   3   4
ENDBRANCH   2   3
ENDBRANCH   1   2
BRANCH   1  27
ATOM     27  O   UNL A   1      34.024  31.567  27.964  1.00  0.00    -0.374 OA
BRANCH  27  28
ATOM     28  C   UNL A   1      33.195  32.662  27.602  1.00  0.00     0.202 C 
BRANCH  28  29
ATOM     29  C   UNL A   1      33.491  33.955  28.382  1.00  0.00     0.261 C 
BRANCH  29  30
ATOM     30  O   UNL A   1      33.570  33.652  29.788  1.00  0.00    -0.460 OA
BRANCH  30  31
ATOM     31  C   UNL A   1      34.751  33.959  30.392  1.00  0.00     0.338 C 
ATOM     32  O   UNL A   1      35.005  35.012  30.950  1.00  0.00    -0.246 OA
BRANCH  31  33
ATOM     33  C   UNL A   1      35.736  32.871  30.126  1.00  0.00     0.060 A 
ATOM     34  C   UNL A   1      35.654  31.654  30.824  1.00  0.00     0.016 A 
ATOM     35  C   UNL A   1      36.869  33.158  29.365  1.00  0.00     0.016 A 
ATOM     36  C   UNL A   1      36.755  30.780  30.851  1.00  0.00     0.010 A 
ATOM     37  C   UNL A   1      37.971  32.329  29.449  1.00  0.00     0.010 A 
ATOM     38  C   UNL A   1      37.940  31.147  30.208  1.00  0.00    -0.014 A 
BRANCH  38  39
ATOM     39  C   UNL A   1      39.249  30.509  30.406  1.00  0.00     0.031 A 
ATOM     40  C   UNL A   1      39.567  29.202  29.781  1.00  0.00     0.074 A 
ATOM     41  C   UNL A   1      40.273  31.212  30.945  1.00  0.00     0.049 A 
ATOM     42  N   UNL A   1      40.535  28.438  30.163  1.00  0.00    -0.248 NA
ATOM     43  C   UNL A   1      38.804  28.633  28.677  1.00  0.00     0.031 C 
ATOM     44  C   UNL A   1      41.706  30.993  30.757  1.00  0.00     0.029 A 
ATOM     45  N   UNL A   1      40.220  32.261  31.846  1.00  0.00    -0.354 N 
ATOM     46  C   UNL A   1      40.737  27.494  29.180  1.00  0.00     0.074 A 
ATOM     47  C   UNL A   1      39.583  27.611  28.319  1.00  0.00     0.031 C 
ATOM     48  C   UNL A   1      42.393  31.751  31.629  1.00  0.00     0.029 A 
ATOM     49  C   UNL A   1      41.435  32.382  32.520  1.00  0.00     0.049 A 
ATOM     50  H   UNL A   1      39.436  32.838  31.991  1.00  0.00     0.167 HD
ATOM     51  C   UNL A   1      41.925  26.826  29.116  1.00  0.00     0.034 A 
ATOM     52  C   UNL A   1      41.459  32.412  33.881  1.00  0.00     0.034 A 
ATOM     53  C   UNL A   1      42.856  27.288  30.157  1.00  0.00     0.049 A 
ATOM     54  C   UNL A   1      42.121  31.153  34.390  1.00  0.00     0.074 A 
ATOM     55  C   UNL A   1      43.970  28.112  30.109  1.00  0.00     0.029 A 
ATOM     56  N   UNL A   1      42.538  27.145  31.509  1.00  0.00    -0.354 N 
ATOM     57  N   UNL A   1      42.371  30.131  33.617  1.00  0.00    -0.248 NA
ATOM     58  C   UNL A   1      42.573  30.933  35.758  1.00  0.00     0.031 C 
ATOM     59  C   UNL A   1      44.274  28.519  31.435  1.00  0.00     0.029 A 
ATOM     60  C   UNL A   1      43.374  27.915  32.300  1.00  0.00     0.049 A 
ATOM     61  H   UNL A   1      41.816  26.572  31.854  1.00  0.00     0.167 HD
ATOM     62  C   UNL A   1      42.958  29.134  34.329  1.00  0.00     0.074 A 
ATOM     63  C   UNL A   1      43.083  29.691  35.668  1.00  0.00     0.031 C 
ATOM     64  C   UNL A   1      43.253  27.931  33.755  1.00  0.00     0.034 A 
BRANCH  51  65
ATOM     65  C   UNL A   1      42.369  25.983  27.929  1.00  0.00     0.023 A 
ATOM     66  C   UNL A   1      41.917  24.651  27.810  1.00  0.00     0.031 A 
ATOM     67  C   UNL A   1      43.228  26.408  26.895  1.00  0.00     0.131 A 
ATOM     68  C   UNL A   1      42.394  23.793  26.799  1.00  0.00     0.055 A 
ATOM     69  C   UNL A   1      43.761  25.540  25.931  1.00  0.00     0.041 A 
ATOM     70  F   UNL A   1      43.536  27.699  26.717  1.00  0.00    -0.206 F 
ATOM     71  C   UNL A   1      43.353  24.218  25.885  1.00  0.00     0.022 A 
BRANCH  68  72
ATOM     72  S   UNL A   1      41.708  22.119  26.656  1.00  0.00     0.124 S 
ATOM     73  O   UNL A   1      42.243  21.674  25.373  1.00  0.00    -0.237 OA
ATOM     74  O   UNL A   1      42.241  21.461  27.843  1.00  0.00    -0.237 OA
ATOM     75  O   UNL A   1      40.262  22.342  26.676  1.00  0.00    -0.744 OA
ENDBRANCH  68  72
ENDBRANCH  51  65
BRANCH  52  76
ATOM     76  C   UNL A   1      40.262  33.116  34.448  1.00  0.00     0.023 A 
ATOM     77  C   UNL A   1      39.424  32.376  35.323  1.00  0.00     0.031 A 
ATOM     78  C   UNL A   1      40.205  34.515  34.533  1.00  0.00     0.131 A 
ATOM     79  C   UNL A   1      38.685  33.021  36.331  1.00  0.00     0.055 A 
ATOM     80  C   UNL A   1      39.447  35.156  35.526  1.00  0.00     0.041 A 
ATOM     81  F   UNL A   1      40.983  35.279  33.754  1.00  0.00    -0.206 F 
ATOM     82  C   UNL A   1      38.718  34.410  36.454  1.00  0.00     0.022 A 
BRANCH  79  83
ATOM     83  S   UNL A   1      37.891  32.033  37.647  1.00  0.00     0.124 S 
ATOM     84  O   UNL A   1      36.631  32.738  37.845  1.00  0.00    -0.237 OA
ATOM     85  O   UNL A   1      37.787  30.707  37.050  1.00  0.00    -0.237 OA
ATOM     86  O   UNL A   1      38.848  32.110  38.749  1.00  0.00    -0.744 OA
ENDBRANCH  79  83
ENDBRANCH  52  76
BRANCH  64  87
ATOM     87  C   UNL A   1      43.545  26.696  34.558  1.00  0.00     0.023 A 
ATOM     88  C   UNL A   1      44.854  26.334  34.901  1.00  0.00     0.031 A 
ATOM     89  C   UNL A   1      42.516  25.888  35.085  1.00  0.00     0.131 A 
ATOM     90  C   UNL A   1      45.118  25.158  35.610  1.00  0.00     0.055 A 
ATOM     91  C   UNL A   1      42.776  24.771  35.884  1.00  0.00     0.041 A 
ATOM     92  F   UNL A   1      41.222  26.155  34.854  1.00  0.00    -0.206 F 
ATOM     93  C   UNL A   1      44.086  24.382  36.129  1.00  0.00     0.022 A 
BRANCH  90  94
ATOM     94  S   UNL A   1      46.843  24.626  35.730  1.00  0.00     0.124 S 
ATOM     95  O   UNL A   1      47.558  25.873  35.467  1.00  0.00    -0.237 OA
ATOM     96  O   UNL A   1      46.925  24.126  37.098  1.00  0.00    -0.237 OA
ATOM     97  O   UNL A   1      46.962  23.611  34.685  1.00  0.00    -0.744 OA
ENDBRANCH  90  94
ENDBRANCH  64  87
ENDBRANCH  38  39
ENDBRANCH  31  33
ENDBRANCH  30  31
ENDBRANCH  29  30
ENDBRANCH  28  29
ENDBRANCH  27  28
ENDBRANCH   1  27
TORSDOF 22
ENDMDL
