MODEL 1
REMARK VINA RESULT:     -12.1      0.000      0.000
REMARK SMILES C[C@H](C(=O)OCCOCCOC(=O)c1ccc(-c2c3nc(c(-c4cc(S(=O)(=O)[O-])ccc4F)c4ccc([nH]4)c(-c4cc(S(=O)(=O)[O-])ccc4F)c4nc(c(-c5cc(S(=O)(=O)[O-])ccc5F)c5ccc2[nH]5)C=C4)C=C3)cc1)c1ccc2c3cc(Cl)ccc3n(C(=O)c3cocn3)c2c1
REMARK SMILES IDX 8 1 7 2 6 3 5 4 3 5 4 6 2 7 1 8 77 9 78 10 97 11 79 12 96 13
REMARK SMILES IDX 80 14 88 15 81 16 87 17 82 18 86 19 83 20 85 21 84 22 89 23
REMARK SMILES IDX 90 24 91 25 92 26 95 27 93 28 94 29 9 30 10 31 11 32 12 33
REMARK SMILES IDX 13 34 14 35 15 36 76 37 16 38 75 39 17 40 18 41 19 42 69 43
REMARK SMILES IDX 20 44 74 45 68 46 70 47 21 48 73 49 67 50 66 51 22 53 54 54
REMARK SMILES IDX 34 55 53 56 35 57 38 58 52 59 71 60 36 61 37 62 51 64 72 65
REMARK SMILES IDX 39 66 23 67 24 68 32 69 25 70 31 71 33 72 30 73 26 74 27 75
REMARK SMILES IDX 28 76 29 77 55 78 56 79 64 80 57 81 63 82 65 83 62 84 58 85
REMARK SMILES IDX 59 86 60 87 61 88 40 89 41 90 49 91 42 92 48 93 50 94 47 95
REMARK SMILES IDX 43 96 44 97 45 98 46 99
REMARK H PARENT 70 52 38 63
REMARK Flexibility Score: inf
ROOT
ATOM      1  O   UNL A   1      35.645  21.547  25.918  1.00  0.00    -0.374 OA
ENDROOT
BRANCH   1   2
ATOM      2  C   UNL A   1      34.369  21.403  26.548  1.00  0.00     0.202 C 
BRANCH   2   3
ATOM      3  C   UNL A   1      33.519  22.673  26.625  1.00  0.00     0.261 C 
BRANCH   3   4
ATOM      4  O   UNL A   1      32.342  22.520  25.810  1.00  0.00    -0.463 OA
BRANCH   4   5
ATOM      5  C   UNL A   1      32.510  22.569  24.465  1.00  0.00     0.313 C 
ATOM      6  O   UNL A   1      31.914  21.849  23.668  1.00  0.00    -0.252 OA
BRANCH   5   7
ATOM      7  C   UNL A   1      33.433  23.695  24.003  1.00  0.00     0.126 C 
ATOM      8  C   UNL A   1      34.367  23.115  22.924  1.00  0.00     0.025 C 
BRANCH   7   9
ATOM      9  C   UNL A   1      32.818  25.050  23.634  1.00  0.00    -0.032 A 
ATOM     10  C   UNL A   1      32.344  25.317  22.346  1.00  0.00     0.005 A 
ATOM     11  C   UNL A   1      32.588  26.017  24.635  1.00  0.00     0.032 A 
ATOM     12  C   UNL A   1      31.633  26.488  22.053  1.00  0.00     0.011 A 
ATOM     13  C   UNL A   1      31.892  27.210  24.337  1.00  0.00     0.058 A 
ATOM     14  C   UNL A   1      31.364  27.423  23.071  1.00  0.00     0.008 A 
ATOM     15  N   UNL A   1      31.556  28.307  25.149  1.00  0.00    -0.274 N 
ATOM     16  C   UNL A   1      30.597  28.616  23.123  1.00  0.00     0.009 A 
ATOM     17  C   UNL A   1      30.767  29.188  24.393  1.00  0.00     0.057 A 
ATOM     18  C   UNL A   1      29.783  29.257  22.164  1.00  0.00     0.031 A 
ATOM     19  C   UNL A   1      30.241  30.468  24.664  1.00  0.00     0.029 A 
ATOM     20  C   UNL A   1      29.202  30.483  22.468  1.00  0.00     0.041 A 
ATOM     21  C   UNL A   1      29.449  31.094  23.689  1.00  0.00     0.023 A 
ATOM     22  Cl  UNL A   1      28.186  31.250  21.312  1.00  0.00    -0.084 Cl
BRANCH  15  23
ATOM     23  C   UNL A   1      32.003  28.447  26.493  1.00  0.00     0.284 C 
ATOM     24  O   UNL A   1      31.326  27.864  27.340  1.00  0.00    -0.266 OA
BRANCH  23  25
ATOM     25  C   UNL A   1      33.134  29.261  26.938  1.00  0.00     0.167 A 
ATOM     26  C   UNL A   1      34.474  28.947  27.010  1.00  0.00     0.231 A 
ATOM     27  N   UNL A   1      32.992  30.617  27.220  1.00  0.00    -0.211 NA
ATOM     28  O   UNL A   1      35.168  30.074  27.344  1.00  0.00    -0.451 OA
ATOM     29  C   UNL A   1      34.213  31.035  27.441  1.00  0.00     0.308 A 
ENDBRANCH  23  25
ENDBRANCH  15  23
ENDBRANCH   7   9
ENDBRANCH   5   7
ENDBRANCH   4   5
ENDBRANCH   3   4
ENDBRANCH   2   3
ENDBRANCH   1   2
BRANCH   1  30
ATOM     30  C   UNL A   1      36.060  20.495  25.050  1.00  0.00     0.202 C 
BRANCH  30  31
ATOM     31  C   UNL A   1      37.549  20.131  25.036  1.00  0.00     0.261 C 
BRANCH  31  32
ATOM     32  O   UNL A   1      38.413  21.266  25.194  1.00  0.00    -0.460 OA
BRANCH  32  33
ATOM     33  C   UNL A   1      39.409  21.080  26.092  1.00  0.00     0.338 C 
ATOM     34  O   UNL A   1      40.010  20.035  26.317  1.00  0.00    -0.246 OA
BRANCH  33  35
ATOM     35  C   UNL A   1      39.813  22.368  26.676  1.00  0.00     0.060 A 
ATOM     36  C   UNL A   1      39.184  23.522  26.192  1.00  0.00     0.016 A 
ATOM     37  C   UNL A   1      40.843  22.459  27.615  1.00  0.00     0.016 A 
ATOM     38  C   UNL A   1      39.618  24.777  26.607  1.00  0.00     0.010 A 
ATOM     39  C   UNL A   1      41.282  23.721  28.026  1.00  0.00     0.010 A 
ATOM     40  C   UNL A   1      40.697  24.887  27.496  1.00  0.00    -0.014 A 
BRANCH  40  41
ATOM     41  C   UNL A   1      41.298  26.218  27.751  1.00  0.00     0.031 A 
ATOM     42  C   UNL A   1      42.666  26.519  27.204  1.00  0.00     0.074 A 
ATOM     43  C   UNL A   1      40.614  27.158  28.428  1.00  0.00     0.049 A 
ATOM     44  N   UNL A   1      43.398  27.594  27.338  1.00  0.00    -0.248 NA
ATOM     45  C   UNL A   1      43.294  25.458  26.400  1.00  0.00     0.031 C 
ATOM     46  C   UNL A   1      39.262  26.994  28.961  1.00  0.00     0.029 A 
ATOM     47  N   UNL A   1      40.964  28.435  28.786  1.00  0.00    -0.354 N 
ATOM     48  C   UNL A   1      44.574  27.342  26.639  1.00  0.00     0.074 A 
ATOM     49  C   UNL A   1      44.473  25.994  26.123  1.00  0.00     0.031 C 
ATOM     50  C   UNL A   1      38.900  28.127  29.587  1.00  0.00     0.029 A 
ATOM     51  C   UNL A   1      40.008  29.078  29.537  1.00  0.00     0.049 A 
ATOM     52  H   UNL A   1      41.818  28.851  28.529  1.00  0.00     0.167 HD
ATOM     53  C   UNL A   1      45.634  28.165  26.440  1.00  0.00     0.034 A 
ATOM     54  C   UNL A   1      40.038  30.284  30.139  1.00  0.00     0.034 A 
ATOM     55  C   UNL A   1      45.721  29.502  26.977  1.00  0.00     0.049 A 
ATOM     56  C   UNL A   1      41.267  31.147  29.984  1.00  0.00     0.074 A 
ATOM     57  C   UNL A   1      46.741  30.425  26.833  1.00  0.00     0.029 A 
ATOM     58  N   UNL A   1      44.754  30.103  27.774  1.00  0.00    -0.354 N 
ATOM     59  N   UNL A   1      42.373  30.901  29.319  1.00  0.00    -0.248 NA
ATOM     60  C   UNL A   1      41.248  32.455  30.651  1.00  0.00     0.031 C 
ATOM     61  C   UNL A   1      46.430  31.548  27.606  1.00  0.00     0.029 A 
ATOM     62  C   UNL A   1      45.172  31.369  28.160  1.00  0.00     0.049 A 
ATOM     63  H   UNL A   1      43.896  29.691  28.029  1.00  0.00     0.167 HD
ATOM     64  C   UNL A   1      43.166  32.037  29.462  1.00  0.00     0.074 A 
ATOM     65  C   UNL A   1      42.404  32.973  30.263  1.00  0.00     0.031 C 
ATOM     66  C   UNL A   1      44.407  32.288  28.971  1.00  0.00     0.034 A 
BRANCH  53  67
ATOM     67  C   UNL A   1      46.801  27.615  25.652  1.00  0.00     0.023 A 
ATOM     68  C   UNL A   1      47.077  28.040  24.339  1.00  0.00     0.031 A 
ATOM     69  C   UNL A   1      47.633  26.628  26.210  1.00  0.00     0.131 A 
ATOM     70  C   UNL A   1      48.104  27.427  23.606  1.00  0.00     0.055 A 
ATOM     71  C   UNL A   1      48.708  26.083  25.504  1.00  0.00     0.041 A 
ATOM     72  F   UNL A   1      47.407  26.164  27.449  1.00  0.00    -0.206 F 
ATOM     73  C   UNL A   1      48.939  26.470  24.188  1.00  0.00     0.022 A 
BRANCH  70  74
ATOM     74  S   UNL A   1      48.237  27.786  21.832  1.00  0.00     0.124 S 
ATOM     75  O   UNL A   1      48.604  26.478  21.294  1.00  0.00    -0.237 OA
ATOM     76  O   UNL A   1      46.896  28.258  21.505  1.00  0.00    -0.237 OA
ATOM     77  O   UNL A   1      49.290  28.797  21.765  1.00  0.00    -0.744 OA
ENDBRANCH  70  74
ENDBRANCH  53  67
BRANCH  54  78
ATOM     78  C   UNL A   1      38.893  30.731  30.984  1.00  0.00     0.023 A 
ATOM     79  C   UNL A   1      37.885  31.560  30.467  1.00  0.00     0.031 A 
ATOM     80  C   UNL A   1      38.817  30.370  32.342  1.00  0.00     0.131 A 
ATOM     81  C   UNL A   1      36.870  32.037  31.312  1.00  0.00     0.055 A 
ATOM     82  C   UNL A   1      37.774  30.801  33.164  1.00  0.00     0.041 A 
ATOM     83  F   UNL A   1      39.755  29.581  32.889  1.00  0.00    -0.206 F 
ATOM     84  C   UNL A   1      36.800  31.651  32.653  1.00  0.00     0.022 A 
BRANCH  81  85
ATOM     85  S   UNL A   1      35.689  33.247  30.655  1.00  0.00     0.124 S 
ATOM     86  O   UNL A   1      34.443  32.490  30.682  1.00  0.00    -0.237 OA
ATOM     87  O   UNL A   1      35.801  34.335  31.622  1.00  0.00    -0.237 OA
ATOM     88  O   UNL A   1      36.212  33.543  29.323  1.00  0.00    -0.744 OA
ENDBRANCH  81  85
ENDBRANCH  54  78
BRANCH  66  89
ATOM     89  C   UNL A   1      44.996  33.651  29.251  1.00  0.00     0.023 A 
ATOM     90  C   UNL A   1      44.854  34.722  28.352  1.00  0.00     0.031 A 
ATOM     91  C   UNL A   1      45.720  33.877  30.436  1.00  0.00     0.131 A 
ATOM     92  C   UNL A   1      45.475  35.952  28.624  1.00  0.00     0.055 A 
ATOM     93  C   UNL A   1      46.278  35.121  30.732  1.00  0.00     0.041 A 
ATOM     94  F   UNL A   1      45.893  32.891  31.331  1.00  0.00    -0.206 F 
ATOM     95  C   UNL A   1      46.169  36.164  29.817  1.00  0.00     0.022 A 
BRANCH  92  96
ATOM     96  S   UNL A   1      45.451  37.242  27.348  1.00  0.00     0.124 S 
ATOM     97  O   UNL A   1      46.207  36.615  26.269  1.00  0.00    -0.237 OA
ATOM     98  O   UNL A   1      44.022  37.416  27.107  1.00  0.00    -0.237 OA
ATOM     99  O   UNL A   1      46.112  38.373  27.993  1.00  0.00    -0.744 OA
ENDBRANCH  92  96
ENDBRANCH  66  89
ENDBRANCH  40  41
ENDBRANCH  33  35
ENDBRANCH  32  33
ENDBRANCH  31  32
ENDBRANCH  30  31
ENDBRANCH   1  30
TORSDOF 20
ENDMDL
MODEL 2
REMARK VINA RESULT:     -11.9      0.705      7.247
REMARK SMILES C[C@H](C(=O)OCCOCCOC(=O)c1ccc(-c2c3nc(c(-c4cc(S(=O)(=O)[O-])ccc4F)c4ccc([nH]4)c(-c4cc(S(=O)(=O)[O-])ccc4F)c4nc(c(-c5cc(S(=O)(=O)[O-])ccc5F)c5ccc2[nH]5)C=C4)C=C3)cc1)c1ccc2c3cc(Cl)ccc3n(C(=O)c3cocn3)c2c1
REMARK SMILES IDX 8 1 7 2 6 3 5 4 3 5 4 6 2 7 1 8 77 9 78 10 97 11 79 12 96 13
REMARK SMILES IDX 80 14 88 15 81 16 87 17 82 18 86 19 83 20 85 21 84 22 89 23
REMARK SMILES IDX 90 24 91 25 92 26 95 27 93 28 94 29 9 30 10 31 11 32 12 33
REMARK SMILES IDX 13 34 14 35 15 36 76 37 16 38 75 39 17 40 18 41 19 42 69 43
REMARK SMILES IDX 20 44 74 45 68 46 70 47 21 48 73 49 67 50 66 51 22 53 54 54
REMARK SMILES IDX 34 55 53 56 35 57 38 58 52 59 71 60 36 61 37 62 51 64 72 65
REMARK SMILES IDX 39 66 23 67 24 68 32 69 25 70 31 71 33 72 30 73 26 74 27 75
REMARK SMILES IDX 28 76 29 77 55 78 56 79 64 80 57 81 63 82 65 83 62 84 58 85
REMARK SMILES IDX 59 86 60 87 61 88 40 89 41 90 49 91 42 92 48 93 50 94 47 95
REMARK SMILES IDX 43 96 44 97 45 98 46 99
REMARK H PARENT 70 52 38 63
REMARK Flexibility Score: inf
ROOT
ATOM      1  O   UNL A   1      35.507  21.445  26.521  1.00  0.00    -0.374 OA
ENDROOT
BRANCH   1   2
ATOM      2  C   UNL A   1      34.163  21.657  26.964  1.00  0.00     0.202 C 
BRANCH   2   3
ATOM      3  C   UNL A   1      33.602  23.062  26.735  1.00  0.00     0.261 C 
BRANCH   3   4
ATOM      4  O   UNL A   1      33.404  23.283  25.327  1.00  0.00    -0.463 OA
BRANCH   4   5
ATOM      5  C   UNL A   1      34.331  24.034  24.682  1.00  0.00     0.313 C 
ATOM      6  O   UNL A   1      35.431  24.322  25.148  1.00  0.00    -0.252 OA
BRANCH   5   7
ATOM      7  C   UNL A   1      33.937  24.402  23.253  1.00  0.00     0.126 C 
ATOM      8  C   UNL A   1      33.266  23.166  22.624  1.00  0.00     0.025 C 
BRANCH   7   9
ATOM      9  C   UNL A   1      33.184  25.714  23.007  1.00  0.00    -0.032 A 
ATOM     10  C   UNL A   1      32.677  26.046  21.747  1.00  0.00     0.005 A 
ATOM     11  C   UNL A   1      32.860  26.557  24.091  1.00  0.00     0.032 A 
ATOM     12  C   UNL A   1      31.847  27.159  21.559  1.00  0.00     0.011 A 
ATOM     13  C   UNL A   1      32.042  27.693  23.900  1.00  0.00     0.058 A 
ATOM     14  C   UNL A   1      31.488  27.964  22.657  1.00  0.00     0.008 A 
ATOM     15  N   UNL A   1      31.598  28.670  24.807  1.00  0.00    -0.274 N 
ATOM     16  C   UNL A   1      30.601  29.062  22.814  1.00  0.00     0.009 A 
ATOM     17  C   UNL A   1      30.718  29.530  24.131  1.00  0.00     0.057 A 
ATOM     18  C   UNL A   1      29.720  29.699  21.914  1.00  0.00     0.031 A 
ATOM     19  C   UNL A   1      30.064  30.718  24.516  1.00  0.00     0.029 A 
ATOM     20  C   UNL A   1      29.016  30.825  22.327  1.00  0.00     0.041 A 
ATOM     21  C   UNL A   1      29.205  31.345  23.600  1.00  0.00     0.023 A 
ATOM     22  Cl  UNL A   1      27.920  31.585  21.241  1.00  0.00    -0.084 Cl
BRANCH  15  23
ATOM     23  C   UNL A   1      32.036  28.734  26.160  1.00  0.00     0.284 C 
ATOM     24  O   UNL A   1      31.374  28.076  26.962  1.00  0.00    -0.266 OA
BRANCH  23  25
ATOM     25  C   UNL A   1      33.141  29.549  26.665  1.00  0.00     0.167 A 
ATOM     26  C   UNL A   1      33.127  30.810  27.219  1.00  0.00     0.231 A 
ATOM     27  N   UNL A   1      34.429  29.034  26.793  1.00  0.00    -0.211 NA
ATOM     28  O   UNL A   1      34.381  31.099  27.678  1.00  0.00    -0.451 OA
ATOM     29  C   UNL A   1      35.101  29.981  27.397  1.00  0.00     0.308 A 
ENDBRANCH  23  25
ENDBRANCH  15  23
ENDBRANCH   7   9
ENDBRANCH   5   7
ENDBRANCH   4   5
ENDBRANCH   3   4
ENDBRANCH   2   3
ENDBRANCH   1   2
BRANCH   1  30
ATOM     30  C   UNL A   1      35.684  20.659  25.346  1.00  0.00     0.202 C 
BRANCH  30  31
ATOM     31  C   UNL A   1      37.121  20.380  24.888  1.00  0.00     0.261 C 
BRANCH  31  32
ATOM     32  O   UNL A   1      38.017  21.474  25.131  1.00  0.00    -0.460 OA
BRANCH  32  33
ATOM     33  C   UNL A   1      39.056  21.166  25.942  1.00  0.00     0.338 C 
ATOM     34  O   UNL A   1      39.577  20.065  26.083  1.00  0.00    -0.246 OA
BRANCH  33  35
ATOM     35  C   UNL A   1      39.615  22.389  26.539  1.00  0.00     0.060 A 
ATOM     36  C   UNL A   1      39.081  23.614  26.119  1.00  0.00     0.016 A 
ATOM     37  C   UNL A   1      40.694  22.349  27.425  1.00  0.00     0.016 A 
ATOM     38  C   UNL A   1      39.659  24.807  26.544  1.00  0.00     0.010 A 
ATOM     39  C   UNL A   1      41.277  23.548  27.845  1.00  0.00     0.010 A 
ATOM     40  C   UNL A   1      40.785  24.781  27.378  1.00  0.00    -0.014 A 
BRANCH  40  41
ATOM     41  C   UNL A   1      41.528  26.039  27.637  1.00  0.00     0.031 A 
ATOM     42  C   UNL A   1      40.878  27.113  28.466  1.00  0.00     0.074 A 
ATOM     43  C   UNL A   1      42.779  26.202  27.170  1.00  0.00     0.049 A 
ATOM     44  N   UNL A   1      41.323  28.301  28.783  1.00  0.00    -0.248 NA
ATOM     45  C   UNL A   1      39.546  26.803  29.006  1.00  0.00     0.031 C 
ATOM     46  C   UNL A   1      43.525  25.209  26.398  1.00  0.00     0.029 A 
ATOM     47  N   UNL A   1      43.641  27.264  27.276  1.00  0.00    -0.354 N 
ATOM     48  C   UNL A   1      40.324  28.884  29.558  1.00  0.00     0.074 A 
ATOM     49  C   UNL A   1      39.235  27.933  29.621  1.00  0.00     0.031 C 
ATOM     50  C   UNL A   1      44.732  25.713  26.091  1.00  0.00     0.029 A 
ATOM     51  C   UNL A   1      44.828  27.078  26.606  1.00  0.00     0.049 A 
ATOM     52  H   UNL A   1      43.430  28.081  27.782  1.00  0.00     0.167 HD
ATOM     53  C   UNL A   1      40.324  30.096  30.167  1.00  0.00     0.034 A 
ATOM     54  C   UNL A   1      45.859  27.924  26.407  1.00  0.00     0.034 A 
ATOM     55  C   UNL A   1      41.416  31.036  30.078  1.00  0.00     0.049 A 
ATOM     56  C   UNL A   1      45.797  29.304  27.015  1.00  0.00     0.074 A 
ATOM     57  C   UNL A   1      41.527  32.287  30.658  1.00  0.00     0.029 A 
ATOM     58  N   UNL A   1      42.583  30.833  29.350  1.00  0.00    -0.354 N 
ATOM     59  N   UNL A   1      44.851  29.845  27.747  1.00  0.00    -0.248 NA
ATOM     60  C   UNL A   1      46.949  30.185  26.778  1.00  0.00     0.031 C 
ATOM     61  C   UNL A   1      42.719  32.871  30.218  1.00  0.00     0.029 A 
ATOM     62  C   UNL A   1      43.400  31.951  29.438  1.00  0.00     0.049 A 
ATOM     63  H   UNL A   1      42.798  30.015  28.846  1.00  0.00     0.167 HD
ATOM     64  C   UNL A   1      45.308  31.117  28.085  1.00  0.00     0.074 A 
ATOM     65  C   UNL A   1      46.621  31.254  27.487  1.00  0.00     0.031 C 
ATOM     66  C   UNL A   1      44.703  32.080  28.825  1.00  0.00     0.034 A 
BRANCH  53  67
ATOM     67  C   UNL A   1      39.082  30.487  30.934  1.00  0.00     0.023 A 
ATOM     68  C   UNL A   1      38.087  31.307  30.369  1.00  0.00     0.031 A 
ATOM     69  C   UNL A   1      38.903  30.061  32.262  1.00  0.00     0.131 A 
ATOM     70  C   UNL A   1      37.003  31.733  31.152  1.00  0.00     0.055 A 
ATOM     71  C   UNL A   1      37.779  30.419  33.008  1.00  0.00     0.041 A 
ATOM     72  F   UNL A   1      39.829  29.297  32.865  1.00  0.00    -0.206 F 
ATOM     73  C   UNL A   1      36.828  31.273  32.459  1.00  0.00     0.022 A 
BRANCH  70  74
ATOM     74  S   UNL A   1      35.908  33.019  30.489  1.00  0.00     0.124 S 
ATOM     75  O   UNL A   1      36.056  34.075  31.487  1.00  0.00    -0.237 OA
ATOM     76  O   UNL A   1      36.494  33.288  29.181  1.00  0.00    -0.237 OA
ATOM     77  O   UNL A   1      34.597  32.373  30.465  1.00  0.00    -0.744 OA
ENDBRANCH  70  74
ENDBRANCH  53  67
BRANCH  54  78
ATOM     78  C   UNL A   1      47.016  27.512  25.559  1.00  0.00     0.023 A 
ATOM     79  C   UNL A   1      47.122  27.920  24.221  1.00  0.00     0.031 A 
ATOM     80  C   UNL A   1      48.013  26.660  26.069  1.00  0.00     0.131 A 
ATOM     81  C   UNL A   1      48.174  27.441  23.425  1.00  0.00     0.055 A 
ATOM     82  C   UNL A   1      49.089  26.232  25.290  1.00  0.00     0.041 A 
ATOM     83  F   UNL A   1      47.960  26.236  27.342  1.00  0.00    -0.206 F 
ATOM     84  C   UNL A   1      49.166  26.612  23.954  1.00  0.00     0.022 A 
BRANCH  81  85
ATOM     85  S   UNL A   1      48.180  27.845  21.656  1.00  0.00     0.124 S 
ATOM     86  O   UNL A   1      49.232  28.852  21.585  1.00  0.00    -0.237 OA
ATOM     87  O   UNL A   1      48.484  26.552  21.052  1.00  0.00    -0.237 OA
ATOM     88  O   UNL A   1      46.825  28.338  21.416  1.00  0.00    -0.744 OA
ENDBRANCH  81  85
ENDBRANCH  54  78
BRANCH  66  89
ATOM     89  C   UNL A   1      45.481  33.353  29.069  1.00  0.00     0.023 A 
ATOM     90  C   UNL A   1      45.421  34.444  28.186  1.00  0.00     0.031 A 
ATOM     91  C   UNL A   1      46.304  33.469  30.206  1.00  0.00     0.131 A 
ATOM     92  C   UNL A   1      46.213  35.579  28.420  1.00  0.00     0.055 A 
ATOM     93  C   UNL A   1      47.037  34.627  30.469  1.00  0.00     0.041 A 
ATOM     94  F   UNL A   1      46.404  32.458  31.084  1.00  0.00    -0.206 F 
ATOM     95  C   UNL A   1      47.005  35.685  29.566  1.00  0.00     0.022 A 
BRANCH  92  96
ATOM     96  S   UNL A   1      46.275  36.876  27.153  1.00  0.00     0.124 S 
ATOM     97  O   UNL A   1      44.962  37.496  27.290  1.00  0.00    -0.237 OA
ATOM     98  O   UNL A   1      47.410  37.685  27.589  1.00  0.00    -0.237 OA
ATOM     99  O   UNL A   1      46.485  36.134  25.912  1.00  0.00    -0.744 OA
ENDBRANCH  92  96
ENDBRANCH  66  89
ENDBRANCH  40  41
ENDBRANCH  33  35
ENDBRANCH  32  33
ENDBRANCH  31  32
ENDBRANCH  30  31
ENDBRANCH   1  30
TORSDOF 20
ENDMDL
MODEL 3
REMARK VINA RESULT:     -11.8      1.880      2.170
REMARK SMILES C[C@H](C(=O)OCCOCCOC(=O)c1ccc(-c2c3nc(c(-c4cc(S(=O)(=O)[O-])ccc4F)c4ccc([nH]4)c(-c4cc(S(=O)(=O)[O-])ccc4F)c4nc(c(-c5cc(S(=O)(=O)[O-])ccc5F)c5ccc2[nH]5)C=C4)C=C3)cc1)c1ccc2c3cc(Cl)ccc3n(C(=O)c3cocn3)c2c1
REMARK SMILES IDX 8 1 7 2 6 3 5 4 3 5 4 6 2 7 1 8 77 9 78 10 97 11 79 12 96 13
REMARK SMILES IDX 80 14 88 15 81 16 87 17 82 18 86 19 83 20 85 21 84 22 89 23
REMARK SMILES IDX 90 24 91 25 92 26 95 27 93 28 94 29 9 30 10 31 11 32 12 33
REMARK SMILES IDX 13 34 14 35 15 36 76 37 16 38 75 39 17 40 18 41 19 42 69 43
REMARK SMILES IDX 20 44 74 45 68 46 70 47 21 48 73 49 67 50 66 51 22 53 54 54
REMARK SMILES IDX 34 55 53 56 35 57 38 58 52 59 71 60 36 61 37 62 51 64 72 65
REMARK SMILES IDX 39 66 23 67 24 68 32 69 25 70 31 71 33 72 30 73 26 74 27 75
REMARK SMILES IDX 28 76 29 77 55 78 56 79 64 80 57 81 63 82 65 83 62 84 58 85
REMARK SMILES IDX 59 86 60 87 61 88 40 89 41 90 49 91 42 92 48 93 50 94 47 95
REMARK SMILES IDX 43 96 44 97 45 98 46 99
REMARK H PARENT 70 52 38 63
REMARK Flexibility Score: inf
ROOT
ATOM      1  O   UNL A   1      35.782  21.620  26.217  1.00  0.00    -0.374 OA
ENDROOT
BRANCH   1   2
ATOM      2  C   UNL A   1      34.427  21.546  26.672  1.00  0.00     0.202 C 
BRANCH   2   3
ATOM      3  C   UNL A   1      33.792  22.874  27.088  1.00  0.00     0.261 C 
BRANCH   3   4
ATOM      4  O   UNL A   1      32.670  23.165  26.234  1.00  0.00    -0.463 OA
BRANCH   4   5
ATOM      5  C   UNL A   1      32.810  22.891  24.914  1.00  0.00     0.313 C 
ATOM      6  O   UNL A   1      32.257  21.957  24.339  1.00  0.00    -0.252 OA
BRANCH   5   7
ATOM      7  C   UNL A   1      33.636  23.929  24.156  1.00  0.00     0.126 C 
ATOM      8  C   UNL A   1      34.354  23.200  23.004  1.00  0.00     0.025 C 
BRANCH   7   9
ATOM      9  C   UNL A   1      32.969  25.246  23.742  1.00  0.00    -0.032 A 
ATOM     10  C   UNL A   1      32.460  25.440  22.453  1.00  0.00     0.005 A 
ATOM     11  C   UNL A   1      32.725  26.248  24.704  1.00  0.00     0.032 A 
ATOM     12  C   UNL A   1      31.704  26.573  22.125  1.00  0.00     0.011 A 
ATOM     13  C   UNL A   1      31.983  27.403  24.369  1.00  0.00     0.058 A 
ATOM     14  C   UNL A   1      31.423  27.542  23.106  1.00  0.00     0.008 A 
ATOM     15  N   UNL A   1      31.625  28.523  25.139  1.00  0.00    -0.274 N 
ATOM     16  C   UNL A   1      30.618  28.710  23.122  1.00  0.00     0.009 A 
ATOM     17  C   UNL A   1      30.793  29.343  24.362  1.00  0.00     0.057 A 
ATOM     18  C   UNL A   1      29.764  29.280  22.154  1.00  0.00     0.031 A 
ATOM     19  C   UNL A   1      30.229  30.616  24.589  1.00  0.00     0.029 A 
ATOM     20  C   UNL A   1      29.147  30.499  22.417  1.00  0.00     0.041 A 
ATOM     21  C   UNL A   1      29.397  31.171  23.604  1.00  0.00     0.023 A 
ATOM     22  Cl  UNL A   1      28.084  31.181  21.249  1.00  0.00    -0.084 Cl
BRANCH  15  23
ATOM     23  C   UNL A   1      32.094  28.737  26.466  1.00  0.00     0.284 C 
ATOM     24  O   UNL A   1      31.360  28.318  27.361  1.00  0.00    -0.266 OA
BRANCH  23  25
ATOM     25  C   UNL A   1      33.314  29.454  26.838  1.00  0.00     0.167 A 
ATOM     26  C   UNL A   1      33.485  30.767  27.219  1.00  0.00     0.231 A 
ATOM     27  N   UNL A   1      34.526  28.791  27.011  1.00  0.00    -0.211 NA
ATOM     28  O   UNL A   1      34.782  30.940  27.613  1.00  0.00    -0.451 OA
ATOM     29  C   UNL A   1      35.338  29.709  27.472  1.00  0.00     0.308 A 
ENDBRANCH  23  25
ENDBRANCH  15  23
ENDBRANCH   7   9
ENDBRANCH   5   7
ENDBRANCH   4   5
ENDBRANCH   3   4
ENDBRANCH   2   3
ENDBRANCH   1   2
BRANCH   1  30
ATOM     30  C   UNL A   1      36.180  20.687  25.216  1.00  0.00     0.202 C 
BRANCH  30  31
ATOM     31  C   UNL A   1      37.678  20.578  24.904  1.00  0.00     0.261 C 
BRANCH  31  32
ATOM     32  O   UNL A   1      38.427  21.735  25.299  1.00  0.00    -0.460 OA
BRANCH  32  33
ATOM     33  C   UNL A   1      39.322  21.501  26.287  1.00  0.00     0.338 C 
ATOM     34  O   UNL A   1      39.791  20.416  26.612  1.00  0.00    -0.246 OA
BRANCH  33  35
ATOM     35  C   UNL A   1      39.809  22.773  26.843  1.00  0.00     0.060 A 
ATOM     36  C   UNL A   1      39.259  23.955  26.330  1.00  0.00     0.016 A 
ATOM     37  C   UNL A   1      40.842  22.818  27.782  1.00  0.00     0.016 A 
ATOM     38  C   UNL A   1      39.775  25.188  26.717  1.00  0.00     0.010 A 
ATOM     39  C   UNL A   1      41.363  24.058  28.164  1.00  0.00     0.010 A 
ATOM     40  C   UNL A   1      40.857  25.247  27.606  1.00  0.00    -0.014 A 
BRANCH  40  41
ATOM     41  C   UNL A   1      41.544  26.541  27.832  1.00  0.00     0.031 A 
ATOM     42  C   UNL A   1      42.951  26.719  27.331  1.00  0.00     0.074 A 
ATOM     43  C   UNL A   1      40.905  27.557  28.442  1.00  0.00     0.049 A 
ATOM     44  N   UNL A   1      43.754  27.744  27.451  1.00  0.00    -0.248 NA
ATOM     45  C   UNL A   1      43.529  25.582  26.597  1.00  0.00     0.031 C 
ATOM     46  C   UNL A   1      39.526  27.514  28.924  1.00  0.00     0.029 A 
ATOM     47  N   UNL A   1      41.335  28.820  28.761  1.00  0.00    -0.354 N 
ATOM     48  C   UNL A   1      44.934  27.378  26.812  1.00  0.00     0.074 A 
ATOM     49  C   UNL A   1      44.754  26.019  26.347  1.00  0.00     0.031 C 
ATOM     50  C   UNL A   1      39.225  28.696  29.488  1.00  0.00     0.029 A 
ATOM     51  C   UNL A   1      40.401  29.562  29.446  1.00  0.00     0.049 A 
ATOM     52  H   UNL A   1      42.227  29.161  28.524  1.00  0.00     0.167 HD
ATOM     53  C   UNL A   1      46.059  28.112  26.624  1.00  0.00     0.034 A 
ATOM     54  C   UNL A   1      40.496  30.787  30.000  1.00  0.00     0.034 A 
ATOM     55  C   UNL A   1      46.223  29.462  27.110  1.00  0.00     0.049 A 
ATOM     56  C   UNL A   1      41.791  31.552  29.860  1.00  0.00     0.074 A 
ATOM     57  C   UNL A   1      47.313  30.302  26.971  1.00  0.00     0.029 A 
ATOM     58  N   UNL A   1      45.273  30.165  27.841  1.00  0.00    -0.354 N 
ATOM     59  N   UNL A   1      42.900  31.198  29.252  1.00  0.00    -0.248 NA
ATOM     60  C   UNL A   1      41.842  32.886  30.472  1.00  0.00     0.031 C 
ATOM     61  C   UNL A   1      47.056  31.477  27.685  1.00  0.00     0.029 A 
ATOM     62  C   UNL A   1      45.769  31.413  28.192  1.00  0.00     0.049 A 
ATOM     63  H   UNL A   1      44.379  29.827  28.077  1.00  0.00     0.167 HD
ATOM     64  C   UNL A   1      43.768  32.280  29.382  1.00  0.00     0.074 A 
ATOM     65  C   UNL A   1      43.047  33.302  30.113  1.00  0.00     0.031 C 
ATOM     66  C   UNL A   1      45.042  32.419  28.934  1.00  0.00     0.034 A 
BRANCH  53  67
ATOM     67  C   UNL A   1      47.211  27.447  25.908  1.00  0.00     0.023 A 
ATOM     68  C   UNL A   1      48.181  26.696  26.598  1.00  0.00     0.031 A 
ATOM     69  C   UNL A   1      47.362  27.591  24.517  1.00  0.00     0.131 A 
ATOM     70  C   UNL A   1      49.292  26.185  25.910  1.00  0.00     0.055 A 
ATOM     71  C   UNL A   1      48.426  27.008  23.825  1.00  0.00     0.041 A 
ATOM     72  F   UNL A   1      46.484  28.316  23.806  1.00  0.00    -0.206 F 
ATOM     73  C   UNL A   1      49.407  26.312  24.524  1.00  0.00     0.022 A 
BRANCH  70  74
ATOM     74  S   UNL A   1      50.661  25.485  26.873  1.00  0.00     0.124 S 
ATOM     75  O   UNL A   1      51.029  26.614  27.725  1.00  0.00    -0.237 OA
ATOM     76  O   UNL A   1      50.028  24.356  27.546  1.00  0.00    -0.237 OA
ATOM     77  O   UNL A   1      51.650  25.132  25.856  1.00  0.00    -0.744 OA
ENDBRANCH  70  74
ENDBRANCH  53  67
BRANCH  54  78
ATOM     78  C   UNL A   1      39.355  31.352  30.777  1.00  0.00     0.023 A 
ATOM     79  C   UNL A   1      39.352  31.342  32.180  1.00  0.00     0.031 A 
ATOM     80  C   UNL A   1      38.223  31.869  30.120  1.00  0.00     0.131 A 
ATOM     81  C   UNL A   1      38.223  31.797  32.881  1.00  0.00     0.055 A 
ATOM     82  C   UNL A   1      37.127  32.373  30.821  1.00  0.00     0.041 A 
ATOM     83  F   UNL A   1      38.171  31.900  28.778  1.00  0.00    -0.206 F 
ATOM     84  C   UNL A   1      37.117  32.326  32.211  1.00  0.00     0.022 A 
BRANCH  81  85
ATOM     85  S   UNL A   1      38.182  31.604  34.684  1.00  0.00     0.124 S 
ATOM     86  O   UNL A   1      36.933  32.274  35.025  1.00  0.00    -0.237 OA
ATOM     87  O   UNL A   1      38.195  30.153  34.833  1.00  0.00    -0.237 OA
ATOM     88  O   UNL A   1      39.398  32.285  35.125  1.00  0.00    -0.744 OA
ENDBRANCH  81  85
ENDBRANCH  54  78
BRANCH  66  89
ATOM     89  C   UNL A   1      45.719  33.747  29.182  1.00  0.00     0.023 A 
ATOM     90  C   UNL A   1      45.622  34.814  28.272  1.00  0.00     0.031 A 
ATOM     91  C   UNL A   1      46.482  33.943  30.349  1.00  0.00     0.131 A 
ATOM     92  C   UNL A   1      46.322  36.006  28.514  1.00  0.00     0.055 A 
ATOM     93  C   UNL A   1      47.121  35.155  30.616  1.00  0.00     0.041 A 
ATOM     94  F   UNL A   1      46.614  32.959  31.252  1.00  0.00    -0.206 F 
ATOM     95  C   UNL A   1      47.055  36.190  29.689  1.00  0.00     0.022 A 
BRANCH  92  96
ATOM     96  S   UNL A   1      46.349  37.280  27.221  1.00  0.00     0.124 S 
ATOM     97  O   UNL A   1      47.207  38.298  27.817  1.00  0.00    -0.237 OA
ATOM     98  O   UNL A   1      46.911  36.558  26.083  1.00  0.00    -0.237 OA
ATOM     99  O   UNL A   1      44.944  37.656  27.083  1.00  0.00    -0.744 OA
ENDBRANCH  92  96
ENDBRANCH  66  89
ENDBRANCH  40  41
ENDBRANCH  33  35
ENDBRANCH  32  33
ENDBRANCH  31  32
ENDBRANCH  30  31
ENDBRANCH   1  30
TORSDOF 20
ENDMDL
