MODEL 1
REMARK VINA RESULT:     -13.0      0.000      0.000
REMARK SMILES O=C(OCCOCCOC(=O)[C@]1(CCc2cccnc2)CCC[NH2+]C1)c1ccc(-c2c3nc(c(-c4cc(S(=O)(=O)[O-])ccc4F)c4ccc([nH]4)c(-c4cc(S(=O)(=O)[O-])ccc4F)c4nc(c(-c5cc(S(=O)(=O)[O-])ccc5F)c5ccc2[nH]5)C=C4)C=C3)cc1
REMARK SMILES IDX 6 1 5 2 4 3 3 4 2 5 1 6 26 7 27 8 88 9 28 10 87 11 29 12
REMARK SMILES IDX 30 13 31 14 81 15 32 16 86 17 80 18 82 19 33 20 85 21 79 22
REMARK SMILES IDX 78 23 34 25 66 26 46 27 65 28 47 29 50 30 64 31 83 32 48 33
REMARK SMILES IDX 49 34 63 36 84 37 51 38 35 39 36 40 44 41 37 42 43 43 45 44
REMARK SMILES IDX 42 45 38 46 39 47 40 48 41 49 67 50 68 51 76 52 69 53 75 54
REMARK SMILES IDX 77 55 74 56 70 57 71 58 72 59 73 60 52 61 53 62 61 63 54 64
REMARK SMILES IDX 60 65 62 66 59 67 55 68 56 69 57 70 58 71 7 72 8 73 9 74
REMARK SMILES IDX 10 75 11 76 12 77 21 78 25 79 22 80 24 81 23 82 13 85 14 86
REMARK SMILES IDX 15 87 16 88 20 89 17 90 19 91 18 92
REMARK H PARENT 82 24 50 35 24 83 24 84
REMARK Flexibility Score: inf
ROOT
ATOM      1  O   UNL A   1      31.767  29.180  25.658  1.00  0.00    -0.374 OA
ENDROOT
BRANCH   1   2
ATOM      2  C   UNL A   1      32.185  30.375  26.738  1.00  0.00     0.202 C 
BRANCH   2   3
ATOM      3  C   UNL A   1      31.429  32.442  26.925  1.00  0.00     0.261 C 
BRANCH   3   4
ATOM      4  O   UNL A   1      32.440  33.800  27.480  1.00  0.00    -0.460 OA
BRANCH   4   5
ATOM      5  C   UNL A   1      33.363  33.876  28.544  1.00  0.00     0.338 C 
ATOM      6  O   UNL A   1      33.119  34.342  29.651  1.00  0.00    -0.246 OA
BRANCH   5   7
ATOM      7  C   UNL A   1      34.759  33.360  28.172  1.00  0.00     0.060 A 
ATOM      8  C   UNL A   1      34.869  32.061  27.687  1.00  0.00     0.016 A 
ATOM      9  C   UNL A   1      35.922  33.937  28.665  1.00  0.00     0.016 A 
ATOM     10  C   UNL A   1      35.842  31.224  28.249  1.00  0.00     0.010 A 
ATOM     11  C   UNL A   1      37.055  33.128  28.937  1.00  0.00     0.010 A 
ATOM     12  C   UNL A   1      36.965  31.721  28.921  1.00  0.00    -0.014 A 
BRANCH  12  13
ATOM     13  C   UNL A   1      37.896  30.825  29.730  1.00  0.00     0.031 A 
ATOM     14  C   UNL A   1      38.004  30.996  31.248  1.00  0.00     0.074 A 
ATOM     15  C   UNL A   1      38.595  29.796  29.184  1.00  0.00     0.049 A 
ATOM     16  N   UNL A   1      38.980  30.661  32.057  1.00  0.00    -0.248 NA
ATOM     17  C   UNL A   1      36.872  31.634  31.946  1.00  0.00     0.031 C 
ATOM     18  C   UNL A   1      38.503  29.319  27.801  1.00  0.00     0.029 A 
ATOM     19  N   UNL A   1      39.543  28.948  29.730  1.00  0.00    -0.354 N 
ATOM     20  C   UNL A   1      38.630  31.142  33.321  1.00  0.00     0.074 A 
ATOM     21  C   UNL A   1      37.336  31.772  33.181  1.00  0.00     0.031 C 
ATOM     22  C   UNL A   1      39.281  28.247  27.627  1.00  0.00     0.029 A 
ATOM     23  C   UNL A   1      40.120  28.108  28.795  1.00  0.00     0.049 A 
ATOM     24  H   UNL A   1      39.782  28.944  30.685  1.00  0.00     0.167 HD
ATOM     25  C   UNL A   1      39.340  31.083  34.477  1.00  0.00     0.034 A 
ATOM     26  C   UNL A   1      41.276  27.415  28.791  1.00  0.00     0.034 A 
ATOM     27  C   UNL A   1      40.604  30.392  34.589  1.00  0.00     0.049 A 
ATOM     28  C   UNL A   1      42.141  27.495  30.016  1.00  0.00     0.074 A 
ATOM     29  C   UNL A   1      41.450  30.300  35.681  1.00  0.00     0.029 A 
ATOM     30  N   UNL A   1      41.193  29.655  33.569  1.00  0.00    -0.354 N 
ATOM     31  N   UNL A   1      41.902  28.112  31.150  1.00  0.00    -0.248 NA
ATOM     32  C   UNL A   1      43.433  26.807  29.956  1.00  0.00     0.031 C 
ATOM     33  C   UNL A   1      42.587  29.583  35.294  1.00  0.00     0.029 A 
ATOM     34  C   UNL A   1      42.405  29.137  33.996  1.00  0.00     0.049 A 
ATOM     35  H   UNL A   1      40.805  29.520  32.674  1.00  0.00     0.167 HD
ATOM     36  C   UNL A   1      43.007  27.859  31.952  1.00  0.00     0.074 A 
ATOM     37  C   UNL A   1      43.892  27.008  31.181  1.00  0.00     0.031 C 
ATOM     38  C   UNL A   1      43.272  28.295  33.209  1.00  0.00     0.034 A 
BRANCH  25  39
ATOM     39  C   UNL A   1      38.835  31.853  35.680  1.00  0.00     0.023 A 
ATOM     40  C   UNL A   1      38.214  31.233  36.776  1.00  0.00     0.031 A 
ATOM     41  C   UNL A   1      38.989  33.254  35.725  1.00  0.00     0.131 A 
ATOM     42  C   UNL A   1      37.725  32.013  37.839  1.00  0.00     0.055 A 
ATOM     43  C   UNL A   1      38.574  34.015  36.821  1.00  0.00     0.041 A 
ATOM     44  F   UNL A   1      39.549  33.912  34.697  1.00  0.00    -0.206 F 
ATOM     45  C   UNL A   1      37.928  33.395  37.884  1.00  0.00     0.022 A 
BRANCH  42  46
ATOM     46  S   UNL A   1      36.693  31.213  39.101  1.00  0.00     0.124 S 
ATOM     47  O   UNL A   1      37.612  31.150  40.235  1.00  0.00    -0.237 OA
ATOM     48  O   UNL A   1      35.579  32.143  39.235  1.00  0.00    -0.237 OA
ATOM     49  O   UNL A   1      36.359  29.921  38.504  1.00  0.00    -0.744 OA
ENDBRANCH  42  46
ENDBRANCH  25  39
BRANCH  26  50
ATOM     50  C   UNL A   1      41.763  26.730  27.548  1.00  0.00     0.023 A 
ATOM     51  C   UNL A   1      41.587  25.352  27.363  1.00  0.00     0.031 A 
ATOM     52  C   UNL A   1      42.478  27.431  26.552  1.00  0.00     0.131 A 
ATOM     53  C   UNL A   1      42.162  24.712  26.252  1.00  0.00     0.055 A 
ATOM     54  C   UNL A   1      42.963  26.808  25.402  1.00  0.00     0.041 A 
ATOM     55  F   UNL A   1      42.713  28.748  26.678  1.00  0.00    -0.206 F 
ATOM     56  C   UNL A   1      42.823  25.434  25.256  1.00  0.00     0.022 A 
BRANCH  53  57
ATOM     57  S   UNL A   1      42.173  22.899  26.211  1.00  0.00     0.124 S 
ATOM     58  O   UNL A   1      42.825  22.639  24.932  1.00  0.00    -0.237 OA
ATOM     59  O   UNL A   1      42.947  22.573  27.403  1.00  0.00    -0.237 OA
ATOM     60  O   UNL A   1      40.756  22.550  26.271  1.00  0.00    -0.744 OA
ENDBRANCH  53  57
ENDBRANCH  26  50
BRANCH  38  61
ATOM     61  C   UNL A   1      44.545  27.794  33.836  1.00  0.00     0.023 A 
ATOM     62  C   UNL A   1      44.577  26.600  34.573  1.00  0.00     0.031 A 
ATOM     63  C   UNL A   1      45.723  28.554  33.745  1.00  0.00     0.131 A 
ATOM     64  C   UNL A   1      45.737  26.252  35.276  1.00  0.00     0.055 A 
ATOM     65  C   UNL A   1      46.903  28.150  34.367  1.00  0.00     0.041 A 
ATOM     66  F   UNL A   1      45.744  29.708  33.060  1.00  0.00    -0.206 F 
ATOM     67  C   UNL A   1      46.908  27.004  35.156  1.00  0.00     0.022 A 
BRANCH  64  68
ATOM     68  S   UNL A   1      45.639  24.898  36.477  1.00  0.00     0.124 S 
ATOM     69  O   UNL A   1      45.574  25.624  37.741  1.00  0.00    -0.237 OA
ATOM     70  O   UNL A   1      44.417  24.210  36.073  1.00  0.00    -0.237 OA
ATOM     71  O   UNL A   1      46.875  24.151  36.251  1.00  0.00    -0.744 OA
ENDBRANCH  64  68
ENDBRANCH  38  61
ENDBRANCH  12  13
ENDBRANCH   5   7
ENDBRANCH   4   5
ENDBRANCH   3   4
ENDBRANCH   2   3
ENDBRANCH   1   2
BRANCH   1  72
ATOM     72  C   UNL A   1      32.464  28.674  24.491  1.00  0.00     0.202 C 
BRANCH  72  73
ATOM     73  C   UNL A   1      33.692  27.769  24.637  1.00  0.00     0.261 C 
BRANCH  73  74
ATOM     74  O   UNL A   1      33.399  26.561  25.333  1.00  0.00    -0.463 OA
BRANCH  74  75
ATOM     75  C   UNL A   1      33.103  25.574  24.455  1.00  0.00     0.317 C 
ATOM     76  O   UNL A   1      33.376  25.614  23.261  1.00  0.00    -0.251 OA
BRANCH  75  77
ATOM     77  C   UNL A   1      32.323  24.432  25.078  1.00  0.00     0.117 C 
ATOM     78  C   UNL A   1      31.115  24.243  24.121  1.00  0.00     0.030 C 
ATOM     79  C   UNL A   1      31.781  24.866  26.462  1.00  0.00     0.279 C 
ATOM     80  C   UNL A   1      30.207  25.500  24.129  1.00  0.00     0.063 C 
ATOM     81  N   UNL A   1      30.953  26.065  26.433  1.00  0.00    -0.345 N 
ATOM     82  C   UNL A   1      29.806  25.908  25.543  1.00  0.00     0.260 C 
ATOM     83  H   UNL A   1      30.616  26.257  27.377  1.00  0.00     0.346 HD
ATOM     84  H   UNL A   1      31.522  26.836  26.085  1.00  0.00     0.346 HD
BRANCH  77  85
ATOM     85  C   UNL A   1      33.164  23.148  25.364  1.00  0.00     0.029 C 
BRANCH  85  86
ATOM     86  C   UNL A   1      33.757  22.312  24.238  1.00  0.00     0.038 C 
BRANCH  86  87
ATOM     87  C   UNL A   1      33.668  20.807  24.354  1.00  0.00    -0.030 A 
ATOM     88  C   UNL A   1      32.366  20.114  23.386  1.00  0.00     0.007 A 
ATOM     89  C   UNL A   1      34.971  19.773  24.895  1.00  0.00     0.114 A 
ATOM     90  C   UNL A   1      32.307  18.446  22.902  1.00  0.00     0.020 A 
ATOM     91  N   UNL A   1      34.953  18.047  24.403  1.00  0.00    -0.264 NA
ATOM     92  C   UNL A   1      33.595  17.411  23.386  1.00  0.00     0.111 A 
ENDBRANCH  86  87
ENDBRANCH  85  86
ENDBRANCH  77  85
ENDBRANCH  75  77
ENDBRANCH  74  75
ENDBRANCH  73  74
ENDBRANCH  72  73
ENDBRANCH   1  72
TORSDOF 20
ENDMDL
MODEL 2
REMARK VINA RESULT:     -12.9      1.794      3.917
REMARK SMILES O=C(OCCOCCOC(=O)[C@]1(CCc2cccnc2)CCC[NH2+]C1)c1ccc(-c2c3nc(c(-c4cc(S(=O)(=O)[O-])ccc4F)c4ccc([nH]4)c(-c4cc(S(=O)(=O)[O-])ccc4F)c4nc(c(-c5cc(S(=O)(=O)[O-])ccc5F)c5ccc2[nH]5)C=C4)C=C3)cc1
REMARK SMILES IDX 6 1 5 2 4 3 3 4 2 5 1 6 26 7 27 8 88 9 28 10 87 11 29 12
REMARK SMILES IDX 30 13 31 14 81 15 32 16 86 17 80 18 82 19 33 20 85 21 79 22
REMARK SMILES IDX 78 23 34 25 66 26 46 27 65 28 47 29 50 30 64 31 83 32 48 33
REMARK SMILES IDX 49 34 63 36 84 37 51 38 35 39 36 40 44 41 37 42 43 43 45 44
REMARK SMILES IDX 42 45 38 46 39 47 40 48 41 49 67 50 68 51 76 52 69 53 75 54
REMARK SMILES IDX 77 55 74 56 70 57 71 58 72 59 73 60 52 61 53 62 61 63 54 64
REMARK SMILES IDX 60 65 62 66 59 67 55 68 56 69 57 70 58 71 7 72 8 73 9 74
REMARK SMILES IDX 10 75 11 76 12 77 21 78 25 79 22 80 24 81 23 82 13 85 14 86
REMARK SMILES IDX 15 87 16 88 20 89 17 90 19 91 18 92
REMARK H PARENT 82 24 50 35 24 83 24 84
REMARK Flexibility Score: inf
ROOT
ATOM      1  O   UNL A   1      33.232  29.661  25.977  1.00  0.00    -0.374 OA
ENDROOT
BRANCH   1   2
ATOM      2  C   UNL A   1      32.013  30.397  26.839  1.00  0.00     0.202 C 
BRANCH   2   3
ATOM      3  C   UNL A   1      31.443  32.528  26.947  1.00  0.00     0.261 C 
BRANCH   3   4
ATOM      4  O   UNL A   1      32.574  33.814  27.438  1.00  0.00    -0.460 OA
BRANCH   4   5
ATOM      5  C   UNL A   1      33.456  33.884  28.537  1.00  0.00     0.338 C 
ATOM      6  O   UNL A   1      33.162  34.312  29.646  1.00  0.00    -0.246 OA
BRANCH   5   7
ATOM      7  C   UNL A   1      34.878  33.412  28.201  1.00  0.00     0.060 A 
ATOM      8  C   UNL A   1      35.036  32.140  27.662  1.00  0.00     0.016 A 
ATOM      9  C   UNL A   1      36.006  33.989  28.769  1.00  0.00     0.016 A 
ATOM     10  C   UNL A   1      36.002  31.297  28.226  1.00  0.00     0.010 A 
ATOM     11  C   UNL A   1      37.144  33.189  29.052  1.00  0.00     0.010 A 
ATOM     12  C   UNL A   1      37.085  31.784  28.967  1.00  0.00    -0.014 A 
BRANCH  12  13
ATOM     13  C   UNL A   1      38.000  30.868  29.773  1.00  0.00     0.031 A 
ATOM     14  C   UNL A   1      38.086  31.010  31.296  1.00  0.00     0.074 A 
ATOM     15  C   UNL A   1      38.704  29.847  29.218  1.00  0.00     0.049 A 
ATOM     16  N   UNL A   1      39.048  30.656  32.113  1.00  0.00    -0.248 NA
ATOM     17  C   UNL A   1      36.945  31.639  31.989  1.00  0.00     0.031 C 
ATOM     18  C   UNL A   1      38.631  29.397  27.825  1.00  0.00     0.029 A 
ATOM     19  N   UNL A   1      39.641  28.986  29.763  1.00  0.00    -0.354 N 
ATOM     20  C   UNL A   1      38.679  31.114  33.381  1.00  0.00     0.074 A 
ATOM     21  C   UNL A   1      37.390  31.751  33.233  1.00  0.00     0.031 C 
ATOM     22  C   UNL A   1      39.409  28.326  27.643  1.00  0.00     0.029 A 
ATOM     23  C   UNL A   1      40.229  28.162  28.822  1.00  0.00     0.049 A 
ATOM     24  H   UNL A   1      39.865  28.962  30.722  1.00  0.00     0.167 HD
ATOM     25  C   UNL A   1      39.371  31.031  34.547  1.00  0.00     0.034 A 
ATOM     26  C   UNL A   1      41.383  27.464  28.822  1.00  0.00     0.034 A 
ATOM     27  C   UNL A   1      40.631  30.333  34.665  1.00  0.00     0.049 A 
ATOM     28  C   UNL A   1      42.229  27.518  30.061  1.00  0.00     0.074 A 
ATOM     29  C   UNL A   1      41.459  30.216  35.768  1.00  0.00     0.029 A 
ATOM     30  N   UNL A   1      41.233  29.613  33.640  1.00  0.00    -0.354 N 
ATOM     31  N   UNL A   1      41.974  28.114  31.203  1.00  0.00    -0.248 NA
ATOM     32  C   UNL A   1      43.519  26.826  30.008  1.00  0.00     0.031 C 
ATOM     33  C   UNL A   1      42.600  29.503  35.385  1.00  0.00     0.029 A 
ATOM     34  C   UNL A   1      42.436  29.083  34.075  1.00  0.00     0.049 A 
ATOM     35  H   UNL A   1      40.859  29.497  32.737  1.00  0.00     0.167 HD
ATOM     36  C   UNL A   1      43.066  27.841  32.017  1.00  0.00     0.074 A 
ATOM     37  C   UNL A   1      43.960  27.002  31.243  1.00  0.00     0.031 C 
ATOM     38  C   UNL A   1      43.313  28.253  33.286  1.00  0.00     0.034 A 
BRANCH  25  39
ATOM     39  C   UNL A   1      38.850  31.779  35.756  1.00  0.00     0.023 A 
ATOM     40  C   UNL A   1      38.202  31.141  36.826  1.00  0.00     0.031 A 
ATOM     41  C   UNL A   1      39.017  33.177  35.834  1.00  0.00     0.131 A 
ATOM     42  C   UNL A   1      37.700  31.903  37.897  1.00  0.00     0.055 A 
ATOM     43  C   UNL A   1      38.588  33.918  36.939  1.00  0.00     0.041 A 
ATOM     44  F   UNL A   1      39.602  33.852  34.832  1.00  0.00    -0.206 F 
ATOM     45  C   UNL A   1      37.915  33.282  37.975  1.00  0.00     0.022 A 
BRANCH  42  46
ATOM     46  S   UNL A   1      36.637  31.087  39.120  1.00  0.00     0.124 S 
ATOM     47  O   UNL A   1      36.362  29.810  38.465  1.00  0.00    -0.237 OA
ATOM     48  O   UNL A   1      37.495  31.027  40.297  1.00  0.00    -0.237 OA
ATOM     49  O   UNL A   1      35.488  31.983  39.231  1.00  0.00    -0.744 OA
ENDBRANCH  42  46
ENDBRANCH  25  39
BRANCH  26  50
ATOM     50  C   UNL A   1      41.887  26.802  27.573  1.00  0.00     0.023 A 
ATOM     51  C   UNL A   1      41.720  25.426  27.365  1.00  0.00     0.031 A 
ATOM     52  C   UNL A   1      42.608  27.522  26.597  1.00  0.00     0.131 A 
ATOM     53  C   UNL A   1      42.310  24.806  26.250  1.00  0.00     0.055 A 
ATOM     54  C   UNL A   1      43.109  26.919  25.442  1.00  0.00     0.041 A 
ATOM     55  F   UNL A   1      42.834  28.838  26.745  1.00  0.00    -0.206 F 
ATOM     56  C   UNL A   1      42.978  25.547  25.273  1.00  0.00     0.022 A 
BRANCH  53  57
ATOM     57  S   UNL A   1      42.331  22.994  26.181  1.00  0.00     0.124 S 
ATOM     58  O   UNL A   1      40.915  22.679  26.326  1.00  0.00    -0.237 OA
ATOM     59  O   UNL A   1      42.911  22.748  24.866  1.00  0.00    -0.237 OA
ATOM     60  O   UNL A   1      43.173  22.621  27.315  1.00  0.00    -0.744 OA
ENDBRANCH  53  57
ENDBRANCH  26  50
BRANCH  38  61
ATOM     61  C   UNL A   1      44.575  27.734  33.923  1.00  0.00     0.023 A 
ATOM     62  C   UNL A   1      44.595  26.519  34.624  1.00  0.00     0.031 A 
ATOM     63  C   UNL A   1      45.752  28.499  33.879  1.00  0.00     0.131 A 
ATOM     64  C   UNL A   1      45.741  26.151  35.338  1.00  0.00     0.055 A 
ATOM     65  C   UNL A   1      46.920  28.078  34.512  1.00  0.00     0.041 A 
ATOM     66  F   UNL A   1      45.783  29.675  33.231  1.00  0.00    -0.206 F 
ATOM     67  C   UNL A   1      46.913  26.909  35.266  1.00  0.00     0.022 A 
BRANCH  64  68
ATOM     68  S   UNL A   1      45.622  24.761  36.494  1.00  0.00     0.124 S 
ATOM     69  O   UNL A   1      44.797  25.325  37.557  1.00  0.00    -0.237 OA
ATOM     70  O   UNL A   1      44.992  23.728  35.678  1.00  0.00    -0.237 OA
ATOM     71  O   UNL A   1      47.014  24.500  36.859  1.00  0.00    -0.744 OA
ENDBRANCH  64  68
ENDBRANCH  38  61
ENDBRANCH  12  13
ENDBRANCH   5   7
ENDBRANCH   4   5
ENDBRANCH   3   4
ENDBRANCH   2   3
ENDBRANCH   1   2
BRANCH   1  72
ATOM     72  C   UNL A   1      34.216  28.677  26.383  1.00  0.00     0.202 C 
BRANCH  72  73
ATOM     73  C   UNL A   1      33.917  27.178  26.288  1.00  0.00     0.261 C 
BRANCH  73  74
ATOM     74  O   UNL A   1      32.580  26.913  25.873  1.00  0.00    -0.463 OA
BRANCH  74  75
ATOM     75  C   UNL A   1      32.567  26.441  24.605  1.00  0.00     0.317 C 
ATOM     76  O   UNL A   1      33.531  25.916  24.059  1.00  0.00    -0.251 OA
BRANCH  75  77
ATOM     77  C   UNL A   1      31.257  26.694  23.885  1.00  0.00     0.117 C 
ATOM     78  C   UNL A   1      30.211  25.924  24.736  1.00  0.00     0.030 C 
ATOM     79  C   UNL A   1      31.304  26.051  22.476  1.00  0.00     0.279 C 
ATOM     80  C   UNL A   1      30.488  24.399  24.697  1.00  0.00     0.063 C 
ATOM     81  N   UNL A   1      31.592  24.623  22.479  1.00  0.00    -0.345 N 
ATOM     82  C   UNL A   1      30.617  23.877  23.269  1.00  0.00     0.260 C 
ATOM     83  H   UNL A   1      31.571  24.280  21.518  1.00  0.00     0.346 HD
ATOM     84  H   UNL A   1      32.511  24.485  22.897  1.00  0.00     0.346 HD
BRANCH  77  85
ATOM     85  C   UNL A   1      30.937  28.201  23.625  1.00  0.00     0.029 C 
BRANCH  85  86
ATOM     86  C   UNL A   1      29.541  28.668  23.236  1.00  0.00     0.038 C 
BRANCH  86  87
ATOM     87  C   UNL A   1      29.379  30.097  22.769  1.00  0.00    -0.030 A 
ATOM     88  C   UNL A   1      28.739  30.222  21.130  1.00  0.00     0.007 A 
ATOM     89  C   UNL A   1      29.282  31.484  23.829  1.00  0.00     0.114 A 
ATOM     90  C   UNL A   1      27.978  31.651  20.498  1.00  0.00     0.020 A 
ATOM     91  N   UNL A   1      28.489  32.973  23.218  1.00  0.00    -0.264 NA
ATOM     92  C   UNL A   1      27.831  33.020  21.531  1.00  0.00     0.111 A 
ENDBRANCH  86  87
ENDBRANCH  85  86
ENDBRANCH  77  85
ENDBRANCH  75  77
ENDBRANCH  74  75
ENDBRANCH  73  74
ENDBRANCH  72  73
ENDBRANCH   1  72
TORSDOF 20
ENDMDL
MODEL 3
REMARK VINA RESULT:     -12.4      1.752      2.113
REMARK SMILES O=C(OCCOCCOC(=O)[C@]1(CCc2cccnc2)CCC[NH2+]C1)c1ccc(-c2c3nc(c(-c4cc(S(=O)(=O)[O-])ccc4F)c4ccc([nH]4)c(-c4cc(S(=O)(=O)[O-])ccc4F)c4nc(c(-c5cc(S(=O)(=O)[O-])ccc5F)c5ccc2[nH]5)C=C4)C=C3)cc1
REMARK SMILES IDX 6 1 5 2 4 3 3 4 2 5 1 6 26 7 27 8 88 9 28 10 87 11 29 12
REMARK SMILES IDX 30 13 31 14 81 15 32 16 86 17 80 18 82 19 33 20 85 21 79 22
REMARK SMILES IDX 78 23 34 25 66 26 46 27 65 28 47 29 50 30 64 31 83 32 48 33
REMARK SMILES IDX 49 34 63 36 84 37 51 38 35 39 36 40 44 41 37 42 43 43 45 44
REMARK SMILES IDX 42 45 38 46 39 47 40 48 41 49 67 50 68 51 76 52 69 53 75 54
REMARK SMILES IDX 77 55 74 56 70 57 71 58 72 59 73 60 52 61 53 62 61 63 54 64
REMARK SMILES IDX 60 65 62 66 59 67 55 68 56 69 57 70 58 71 7 72 8 73 9 74
REMARK SMILES IDX 10 75 11 76 12 77 21 78 25 79 22 80 24 81 23 82 13 85 14 86
REMARK SMILES IDX 15 87 16 88 20 89 17 90 19 91 18 92
REMARK H PARENT 82 24 50 35 24 83 24 84
REMARK Flexibility Score: inf
ROOT
ATOM      1  O   UNL A   1      31.265  29.363  25.310  1.00  0.00    -0.374 OA
ENDROOT
BRANCH   1   2
ATOM      2  C   UNL A   1      32.068  30.493  26.231  1.00  0.00     0.202 C 
BRANCH   2   3
ATOM      3  C   UNL A   1      31.405  32.480  26.930  1.00  0.00     0.261 C 
BRANCH   3   4
ATOM      4  O   UNL A   1      32.537  33.766  27.421  1.00  0.00    -0.460 OA
BRANCH   4   5
ATOM      5  C   UNL A   1      33.478  33.802  28.470  1.00  0.00     0.338 C 
ATOM      6  O   UNL A   1      33.280  34.298  29.573  1.00  0.00    -0.246 OA
BRANCH   5   7
ATOM      7  C   UNL A   1      34.835  33.197  28.086  1.00  0.00     0.060 A 
ATOM      8  C   UNL A   1      34.870  31.863  27.692  1.00  0.00     0.016 A 
ATOM      9  C   UNL A   1      36.040  33.754  28.493  1.00  0.00     0.016 A 
ATOM     10  C   UNL A   1      35.827  31.025  28.278  1.00  0.00     0.010 A 
ATOM     11  C   UNL A   1      37.147  32.915  28.781  1.00  0.00     0.010 A 
ATOM     12  C   UNL A   1      36.996  31.516  28.870  1.00  0.00    -0.014 A 
BRANCH  12  13
ATOM     13  C   UNL A   1      37.918  30.637  29.707  1.00  0.00     0.031 A 
ATOM     14  C   UNL A   1      38.005  30.834  31.224  1.00  0.00     0.074 A 
ATOM     15  C   UNL A   1      38.629  29.601  29.189  1.00  0.00     0.049 A 
ATOM     16  N   UNL A   1      38.971  30.517  32.052  1.00  0.00    -0.248 NA
ATOM     17  C   UNL A   1      36.861  31.480  31.895  1.00  0.00     0.031 C 
ATOM     18  C   UNL A   1      38.557  29.101  27.813  1.00  0.00     0.029 A 
ATOM     19  N   UNL A   1      39.572  28.766  29.762  1.00  0.00    -0.354 N 
ATOM     20  C   UNL A   1      38.600  31.017  33.302  1.00  0.00     0.074 A 
ATOM     21  C   UNL A   1      37.307  31.640  33.134  1.00  0.00     0.031 C 
ATOM     22  C   UNL A   1      39.342  28.029  27.668  1.00  0.00     0.029 A 
ATOM     23  C   UNL A   1      40.165  27.913  28.851  1.00  0.00     0.049 A 
ATOM     24  H   UNL A   1      39.797  28.779  30.721  1.00  0.00     0.167 HD
ATOM     25  C   UNL A   1      39.294  30.981  34.469  1.00  0.00     0.034 A 
ATOM     26  C   UNL A   1      41.324  27.224  28.875  1.00  0.00     0.034 A 
ATOM     27  C   UNL A   1      40.560  30.297  34.611  1.00  0.00     0.049 A 
ATOM     28  C   UNL A   1      42.170  27.328  30.109  1.00  0.00     0.074 A 
ATOM     29  C   UNL A   1      41.390  30.226  35.716  1.00  0.00     0.029 A 
ATOM     30  N   UNL A   1      41.165  29.545  33.612  1.00  0.00    -0.354 N 
ATOM     31  N   UNL A   1      41.913  27.963  31.229  1.00  0.00    -0.248 NA
ATOM     32  C   UNL A   1      43.466  26.643  30.080  1.00  0.00     0.031 C 
ATOM     33  C   UNL A   1      42.535  29.507  35.358  1.00  0.00     0.029 A 
ATOM     34  C   UNL A   1      42.372  29.039  34.064  1.00  0.00     0.049 A 
ATOM     35  H   UNL A   1      40.790  29.393  32.714  1.00  0.00     0.167 HD
ATOM     36  C   UNL A   1      43.008  27.728  32.051  1.00  0.00     0.074 A 
ATOM     37  C   UNL A   1      43.906  26.867  31.307  1.00  0.00     0.031 C 
ATOM     38  C   UNL A   1      43.254  28.187  33.304  1.00  0.00     0.034 A 
BRANCH  25  39
ATOM     39  C   UNL A   1      38.769  31.769  35.652  1.00  0.00     0.023 A 
ATOM     40  C   UNL A   1      38.174  31.162  36.769  1.00  0.00     0.031 A 
ATOM     41  C   UNL A   1      38.878  33.175  35.655  1.00  0.00     0.131 A 
ATOM     42  C   UNL A   1      37.664  31.957  37.811  1.00  0.00     0.055 A 
ATOM     43  C   UNL A   1      38.444  33.954  36.730  1.00  0.00     0.041 A 
ATOM     44  F   UNL A   1      39.412  33.820  34.605  1.00  0.00    -0.206 F 
ATOM     45  C   UNL A   1      37.822  33.345  37.814  1.00  0.00     0.022 A 
BRANCH  42  46
ATOM     46  S   UNL A   1      36.664  31.162  39.101  1.00  0.00     0.124 S 
ATOM     47  O   UNL A   1      36.394  29.858  38.500  1.00  0.00    -0.237 OA
ATOM     48  O   UNL A   1      37.567  31.161  40.246  1.00  0.00    -0.237 OA
ATOM     49  O   UNL A   1      35.501  32.038  39.224  1.00  0.00    -0.744 OA
ENDBRANCH  42  46
ENDBRANCH  25  39
BRANCH  26  50
ATOM     50  C   UNL A   1      41.830  26.520  27.650  1.00  0.00     0.023 A 
ATOM     51  C   UNL A   1      41.583  25.156  27.444  1.00  0.00     0.031 A 
ATOM     52  C   UNL A   1      42.634  27.184  26.698  1.00  0.00     0.131 A 
ATOM     53  C   UNL A   1      42.174  24.490  26.356  1.00  0.00     0.055 A 
ATOM     54  C   UNL A   1      43.137  26.541  25.566  1.00  0.00     0.041 A 
ATOM     55  F   UNL A   1      42.938  28.484  26.847  1.00  0.00    -0.206 F 
ATOM     56  C   UNL A   1      42.924  25.179  25.401  1.00  0.00     0.022 A 
BRANCH  53  57
ATOM     57  S   UNL A   1      42.080  22.681  26.298  1.00  0.00     0.124 S 
ATOM     58  O   UNL A   1      42.672  22.398  24.995  1.00  0.00    -0.237 OA
ATOM     59  O   UNL A   1      42.875  22.298  27.459  1.00  0.00    -0.237 OA
ATOM     60  O   UNL A   1      40.648  22.411  26.405  1.00  0.00    -0.744 OA
ENDBRANCH  53  57
ENDBRANCH  26  50
BRANCH  38  61
ATOM     61  C   UNL A   1      44.520  27.700  33.958  1.00  0.00     0.023 A 
ATOM     62  C   UNL A   1      45.725  28.408  33.834  1.00  0.00     0.031 A 
ATOM     63  C   UNL A   1      44.529  26.482  34.657  1.00  0.00     0.131 A 
ATOM     64  C   UNL A   1      46.912  27.842  34.316  1.00  0.00     0.055 A 
ATOM     65  C   UNL A   1      45.697  25.972  35.220  1.00  0.00     0.041 A 
ATOM     66  F   UNL A   1      43.404  25.761  34.795  1.00  0.00    -0.206 F 
ATOM     67  C   UNL A   1      46.902  26.641  35.032  1.00  0.00     0.022 A 
BRANCH  64  68
ATOM     68  S   UNL A   1      48.483  28.613  33.848  1.00  0.00     0.124 S 
ATOM     69  O   UNL A   1      48.370  28.662  32.394  1.00  0.00    -0.237 OA
ATOM     70  O   UNL A   1      48.417  29.899  34.535  1.00  0.00    -0.237 OA
ATOM     71  O   UNL A   1      49.487  27.685  34.363  1.00  0.00    -0.744 OA
ENDBRANCH  64  68
ENDBRANCH  38  61
ENDBRANCH  12  13
ENDBRANCH   5   7
ENDBRANCH   4   5
ENDBRANCH   3   4
ENDBRANCH   2   3
ENDBRANCH   1   2
BRANCH   1  72
ATOM     72  C   UNL A   1      31.025  29.308  23.881  1.00  0.00     0.202 C 
BRANCH  72  73
ATOM     73  C   UNL A   1      32.154  28.959  22.905  1.00  0.00     0.261 C 
BRANCH  73  74
ATOM     74  O   UNL A   1      32.651  27.637  23.095  1.00  0.00    -0.463 OA
BRANCH  74  75
ATOM     75  C   UNL A   1      31.842  26.740  22.483  1.00  0.00     0.317 C 
ATOM     76  O   UNL A   1      31.019  27.033  21.624  1.00  0.00    -0.251 OA
BRANCH  75  77
ATOM     77  C   UNL A   1      31.996  25.330  23.022  1.00  0.00     0.117 C 
ATOM     78  C   UNL A   1      30.534  24.839  23.199  1.00  0.00     0.030 C 
ATOM     79  C   UNL A   1      32.665  25.377  24.418  1.00  0.00     0.279 C 
ATOM     80  C   UNL A   1      29.800  25.681  24.274  1.00  0.00     0.063 C 
ATOM     81  N   UNL A   1      31.960  26.198  25.393  1.00  0.00    -0.345 N 
ATOM     82  C   UNL A   1      30.583  25.751  25.582  1.00  0.00     0.260 C 
ATOM     83  H   UNL A   1      32.450  26.144  26.286  1.00  0.00     0.346 HD
ATOM     84  H   UNL A   1      31.938  27.156  25.046  1.00  0.00     0.346 HD
BRANCH  77  85
ATOM     85  C   UNL A   1      32.919  24.404  22.168  1.00  0.00     0.029 C 
BRANCH  85  86
ATOM     86  C   UNL A   1      33.310  23.010  22.637  1.00  0.00     0.038 C 
BRANCH  86  87
ATOM     87  C   UNL A   1      34.475  22.887  23.593  1.00  0.00    -0.030 A 
ATOM     88  C   UNL A   1      34.039  22.121  25.122  1.00  0.00     0.007 A 
ATOM     89  C   UNL A   1      36.158  22.953  23.124  1.00  0.00     0.114 A 
ATOM     90  C   UNL A   1      35.191  21.388  26.197  1.00  0.00     0.020 A 
ATOM     91  N   UNL A   1      37.376  22.194  24.200  1.00  0.00    -0.264 NA
ATOM     92  C   UNL A   1      36.852  21.402  25.743  1.00  0.00     0.111 A 
ENDBRANCH  86  87
ENDBRANCH  85  86
ENDBRANCH  77  85
ENDBRANCH  75  77
ENDBRANCH  74  75
ENDBRANCH  73  74
ENDBRANCH  72  73
ENDBRANCH   1  72
TORSDOF 20
ENDMDL
