MODEL 1
REMARK VINA RESULT:     -11.1      0.000      0.000
REMARK SMILES COc1ccc(-c2ccc(CCC(=O)OCCOCCOC(=O)c3ccc(-c4c5nc(c(-c6cc(S(=O)(=O)[O-])ccc6F)c6ccc([nH]6)c(-c6cc(S(=O)(=O)[O-])ccc6F)c6nc(c(-c7cc(S(=O)(=O)[O-])ccc7F)c7ccc4[nH]7)C=C6)C=C5)cc3)n2-c2ccc(C(C)=O)cc2)cc1
REMARK SMILES IDX 17 1 16 2 15 3 13 4 14 5 12 6 11 7 10 8 7 9 8 10 87 11 9 12
REMARK SMILES IDX 6 13 3 14 4 15 98 16 5 17 97 18 2 19 1 20 88 21 89 22 96 23
REMARK SMILES IDX 90 24 95 25 91 26 92 27 93 28 94 29 18 30 19 31 20 32 21 33
REMARK SMILES IDX 22 34 23 35 24 36 25 37 86 38 26 39 85 40 27 41 28 42 29 43
REMARK SMILES IDX 79 44 30 45 84 46 78 47 80 48 31 49 83 50 77 51 76 52 32 54
REMARK SMILES IDX 64 55 44 56 63 57 45 58 48 59 62 60 81 61 46 62 47 63 61 65
REMARK SMILES IDX 82 66 49 67 33 68 34 69 42 70 35 71 41 72 43 73 40 74 36 75
REMARK SMILES IDX 37 76 38 77 39 78 65 79 66 80 74 81 67 82 73 83 75 84 72 85
REMARK SMILES IDX 68 86 69 87 70 88 71 89 50 90 51 91 59 92 52 93 58 94 60 95
REMARK SMILES IDX 57 96 53 97 54 98 55 99 56 100
REMARK H PARENT 80 53 48 64
REMARK Flexibility Score: inf
ROOT
ATOM      1  C   UNL A   1      33.357  29.697  27.314  1.00  0.00     0.202 C 
ENDROOT
BRANCH   1   2
ATOM      2  C   UNL A   1      32.682  28.926  26.176  1.00  0.00     0.261 C 
BRANCH   2   3
ATOM      3  O   UNL A   1      32.976  29.523  24.897  1.00  0.00    -0.463 OA
BRANCH   3   4
ATOM      4  C   UNL A   1      32.904  28.731  23.802  1.00  0.00     0.306 C 
ATOM      5  O   UNL A   1      32.368  29.046  22.747  1.00  0.00    -0.252 OA
BRANCH   4   6
ATOM      6  C   UNL A   1      33.555  27.380  24.022  1.00  0.00     0.129 C 
BRANCH   6   7
ATOM      7  C   UNL A   1      33.520  26.373  22.864  1.00  0.00     0.066 C 
BRANCH   7   8
ATOM      8  C   UNL A   1      32.659  25.163  23.116  1.00  0.00     0.024 A 
ATOM      9  C   UNL A   1      32.129  22.984  23.391  1.00  0.00     0.053 A 
ATOM     10  C   UNL A   1      30.978  23.659  23.028  1.00  0.00     0.029 A 
ATOM     11  N   UNL A   1      33.125  23.937  23.592  1.00  0.00    -0.314 N 
ATOM     12  C   UNL A   1      31.304  25.017  22.897  1.00  0.00     0.024 A 
BRANCH   9  13
ATOM     13  C   UNL A   1      32.251  21.548  23.603  1.00  0.00    -0.001 A 
ATOM     14  C   UNL A   1      32.487  18.808  24.098  1.00  0.00     0.118 A 
ATOM     15  C   UNL A   1      32.256  19.268  22.801  1.00  0.00     0.047 A 
ATOM     16  C   UNL A   1      32.666  19.719  25.138  1.00  0.00     0.047 A 
ATOM     17  C   UNL A   1      32.130  20.636  22.552  1.00  0.00     0.014 A 
ATOM     18  C   UNL A   1      32.546  21.084  24.890  1.00  0.00     0.014 A 
BRANCH  14  19
ATOM     19  O   UNL A   1      32.581  17.453  24.260  1.00  0.00    -0.497 OA
ATOM     20  C   UNL A   1      33.925  16.991  24.369  1.00  0.00     0.278 C 
ENDBRANCH  14  19
ENDBRANCH   9  13
BRANCH  11  21
ATOM     21  C   UNL A   1      34.404  23.720  24.162  1.00  0.00     0.046 A 
ATOM     22  C   UNL A   1      35.424  23.195  23.359  1.00  0.00     0.027 A 
ATOM     23  C   UNL A   1      34.639  24.005  25.504  1.00  0.00     0.027 A 
ATOM     24  C   UNL A   1      36.678  22.915  23.911  1.00  0.00     0.014 A 
ATOM     25  C   UNL A   1      35.888  23.704  26.055  1.00  0.00     0.014 A 
ATOM     26  C   UNL A   1      36.913  23.147  25.271  1.00  0.00     0.017 A 
BRANCH  26  27
ATOM     27  C   UNL A   1      38.201  22.807  25.953  1.00  0.00     0.159 C 
ATOM     28  C   UNL A   1      38.871  21.473  25.741  1.00  0.00     0.093 C 
ATOM     29  O   UNL A   1      38.718  23.636  26.705  1.00  0.00    -0.295 OA
ENDBRANCH  26  27
ENDBRANCH  11  21
ENDBRANCH   7   8
ENDBRANCH   6   7
ENDBRANCH   4   6
ENDBRANCH   3   4
ENDBRANCH   2   3
ENDBRANCH   1   2
BRANCH   1  30
ATOM     30  O   UNL A   1      33.460  31.109  27.109  1.00  0.00    -0.374 OA
BRANCH  30  31
ATOM     31  C   UNL A   1      34.473  31.800  27.832  1.00  0.00     0.202 C 
BRANCH  31  32
ATOM     32  C   UNL A   1      35.864  31.191  27.795  1.00  0.00     0.261 C 
BRANCH  32  33
ATOM     33  O   UNL A   1      35.967  30.111  28.714  1.00  0.00    -0.460 OA
BRANCH  33  34
ATOM     34  C   UNL A   1      36.934  30.268  29.645  1.00  0.00     0.338 C 
ATOM     35  O   UNL A   1      36.990  31.106  30.520  1.00  0.00    -0.246 OA
BRANCH  34  36
ATOM     36  C   UNL A   1      38.040  29.368  29.314  1.00  0.00     0.060 A 
ATOM     37  C   UNL A   1      38.180  28.265  30.156  1.00  0.00     0.016 A 
ATOM     38  C   UNL A   1      39.068  29.812  28.469  1.00  0.00     0.016 A 
ATOM     39  C   UNL A   1      39.438  27.742  30.324  1.00  0.00     0.010 A 
ATOM     40  C   UNL A   1      40.336  29.327  28.676  1.00  0.00     0.010 A 
ATOM     41  C   UNL A   1      40.509  28.329  29.637  1.00  0.00    -0.014 A 
BRANCH  41  42
ATOM     42  C   UNL A   1      41.808  27.683  29.781  1.00  0.00     0.031 A 
ATOM     43  C   UNL A   1      41.843  26.508  28.771  1.00  0.00     0.074 A 
ATOM     44  C   UNL A   1      42.593  28.171  30.800  1.00  0.00     0.049 A 
ATOM     45  N   UNL A   1      42.342  25.324  28.902  1.00  0.00    -0.248 NA
ATOM     46  C   UNL A   1      41.074  26.593  27.483  1.00  0.00     0.031 C 
ATOM     47  C   UNL A   1      42.307  29.386  31.615  1.00  0.00     0.029 A 
ATOM     48  N   UNL A   1      43.779  27.770  31.376  1.00  0.00    -0.354 N 
ATOM     49  C   UNL A   1      42.253  24.689  27.644  1.00  0.00     0.074 A 
ATOM     50  C   UNL A   1      41.286  25.415  26.893  1.00  0.00     0.031 C 
ATOM     51  C   UNL A   1      43.212  29.543  32.616  1.00  0.00     0.029 A 
ATOM     52  C   UNL A   1      44.196  28.480  32.552  1.00  0.00     0.049 A 
ATOM     53  H   UNL A   1      44.314  27.034  30.998  1.00  0.00     0.167 HD
ATOM     54  C   UNL A   1      43.163  23.753  27.241  1.00  0.00     0.034 A 
ATOM     55  C   UNL A   1      45.237  28.183  33.407  1.00  0.00     0.034 A 
ATOM     56  C   UNL A   1      44.088  23.536  28.307  1.00  0.00     0.049 A 
ATOM     57  C   UNL A   1      45.945  27.114  32.687  1.00  0.00     0.074 A 
ATOM     58  C   UNL A   1      43.920  23.017  29.565  1.00  0.00     0.029 A 
ATOM     59  N   UNL A   1      45.237  24.300  28.275  1.00  0.00    -0.354 N 
ATOM     60  N   UNL A   1      46.659  27.297  31.620  1.00  0.00    -0.248 NA
ATOM     61  C   UNL A   1      45.761  25.724  33.125  1.00  0.00     0.031 C 
ATOM     62  C   UNL A   1      44.626  23.943  30.357  1.00  0.00     0.029 A 
ATOM     63  C   UNL A   1      45.467  24.727  29.553  1.00  0.00     0.049 A 
ATOM     64  H   UNL A   1      45.786  24.500  27.482  1.00  0.00     0.167 HD
ATOM     65  C   UNL A   1      46.696  26.040  31.076  1.00  0.00     0.074 A 
ATOM     66  C   UNL A   1      46.453  25.114  32.166  1.00  0.00     0.031 C 
ATOM     67  C   UNL A   1      46.316  25.874  29.780  1.00  0.00     0.034 A 
BRANCH  54  68
ATOM     68  C   UNL A   1      43.555  23.212  25.892  1.00  0.00     0.023 A 
ATOM     69  C   UNL A   1      43.524  21.799  25.784  1.00  0.00     0.031 A 
ATOM     70  C   UNL A   1      44.259  23.896  24.895  1.00  0.00     0.131 A 
ATOM     71  C   UNL A   1      44.328  21.120  24.866  1.00  0.00     0.055 A 
ATOM     72  C   UNL A   1      44.991  23.211  23.912  1.00  0.00     0.041 A 
ATOM     73  F   UNL A   1      44.347  25.231  24.878  1.00  0.00    -0.206 F 
ATOM     74  C   UNL A   1      45.071  21.819  23.925  1.00  0.00     0.022 A 
BRANCH  71  75
ATOM     75  S   UNL A   1      44.539  19.333  25.100  1.00  0.00     0.124 S 
ATOM     76  O   UNL A   1      45.715  19.278  25.962  1.00  0.00    -0.237 OA
ATOM     77  O   UNL A   1      43.274  18.956  25.723  1.00  0.00    -0.237 OA
ATOM     78  O   UNL A   1      44.736  18.836  23.741  1.00  0.00    -0.744 OA
ENDBRANCH  71  75
ENDBRANCH  54  68
BRANCH  55  79
ATOM     79  C   UNL A   1      45.843  28.515  34.781  1.00  0.00     0.023 A 
ATOM     80  C   UNL A   1      45.322  28.235  36.059  1.00  0.00     0.031 A 
ATOM     81  C   UNL A   1      47.161  29.092  34.810  1.00  0.00     0.131 A 
ATOM     82  C   UNL A   1      46.134  28.433  37.226  1.00  0.00     0.055 A 
ATOM     83  C   UNL A   1      47.982  29.177  35.934  1.00  0.00     0.041 A 
ATOM     84  F   UNL A   1      47.742  29.614  33.720  1.00  0.00    -0.206 F 
ATOM     85  C   UNL A   1      47.474  28.826  37.156  1.00  0.00     0.022 A 
BRANCH  82  86
ATOM     86  S   UNL A   1      45.493  28.174  38.913  1.00  0.00     0.124 S 
ATOM     87  O   UNL A   1      44.923  29.482  39.223  1.00  0.00    -0.237 OA
ATOM     88  O   UNL A   1      44.542  27.083  38.739  1.00  0.00    -0.237 OA
ATOM     89  O   UNL A   1      46.691  27.828  39.680  1.00  0.00    -0.744 OA
ENDBRANCH  82  86
ENDBRANCH  55  79
BRANCH  67  90
ATOM     90  C   UNL A   1      46.494  27.101  28.882  1.00  0.00     0.023 A 
ATOM     91  C   UNL A   1      45.364  27.857  28.506  1.00  0.00     0.031 A 
ATOM     92  C   UNL A   1      47.710  27.495  28.292  1.00  0.00     0.131 A 
ATOM     93  C   UNL A   1      45.457  28.905  27.567  1.00  0.00     0.055 A 
ATOM     94  C   UNL A   1      47.808  28.540  27.357  1.00  0.00     0.041 A 
ATOM     95  F   UNL A   1      48.852  26.874  28.591  1.00  0.00    -0.206 F 
ATOM     96  C   UNL A   1      46.676  29.251  26.987  1.00  0.00     0.022 A 
BRANCH  93  97
ATOM     97  S   UNL A   1      43.961  29.831  27.123  1.00  0.00     0.124 S 
ATOM     98  O   UNL A   1      43.531  30.381  28.403  1.00  0.00    -0.237 OA
ATOM     99  O   UNL A   1      44.464  30.795  26.149  1.00  0.00    -0.237 OA
ATOM    100  O   UNL A   1      43.078  28.807  26.565  1.00  0.00    -0.744 OA
ENDBRANCH  93  97
ENDBRANCH  67  90
ENDBRANCH  41  42
ENDBRANCH  34  36
ENDBRANCH  33  34
ENDBRANCH  32  33
ENDBRANCH  31  32
ENDBRANCH  30  31
ENDBRANCH   1  30
TORSDOF 23
ENDMDL
MODEL 2
REMARK VINA RESULT:     -10.3      3.526      8.779
REMARK SMILES COc1ccc(-c2ccc(CCC(=O)OCCOCCOC(=O)c3ccc(-c4c5nc(c(-c6cc(S(=O)(=O)[O-])ccc6F)c6ccc([nH]6)c(-c6cc(S(=O)(=O)[O-])ccc6F)c6nc(c(-c7cc(S(=O)(=O)[O-])ccc7F)c7ccc4[nH]7)C=C6)C=C5)cc3)n2-c2ccc(C(C)=O)cc2)cc1
REMARK SMILES IDX 17 1 16 2 15 3 13 4 14 5 12 6 11 7 10 8 7 9 8 10 87 11 9 12
REMARK SMILES IDX 6 13 3 14 4 15 98 16 5 17 97 18 2 19 1 20 88 21 89 22 96 23
REMARK SMILES IDX 90 24 95 25 91 26 92 27 93 28 94 29 18 30 19 31 20 32 21 33
REMARK SMILES IDX 22 34 23 35 24 36 25 37 86 38 26 39 85 40 27 41 28 42 29 43
REMARK SMILES IDX 79 44 30 45 84 46 78 47 80 48 31 49 83 50 77 51 76 52 32 54
REMARK SMILES IDX 64 55 44 56 63 57 45 58 48 59 62 60 81 61 46 62 47 63 61 65
REMARK SMILES IDX 82 66 49 67 33 68 34 69 42 70 35 71 41 72 43 73 40 74 36 75
REMARK SMILES IDX 37 76 38 77 39 78 65 79 66 80 74 81 67 82 73 83 75 84 72 85
REMARK SMILES IDX 68 86 69 87 70 88 71 89 50 90 51 91 59 92 52 93 58 94 60 95
REMARK SMILES IDX 57 96 53 97 54 98 55 99 56 100
REMARK H PARENT 80 53 48 64
REMARK Flexibility Score: inf
ROOT
ATOM      1  C   UNL A   1      32.491  30.036  27.184  1.00  0.00     0.202 C 
ENDROOT
BRANCH   1   2
ATOM      2  C   UNL A   1      32.288  29.006  26.070  1.00  0.00     0.261 C 
BRANCH   2   3
ATOM      3  O   UNL A   1      33.074  29.336  24.907  1.00  0.00    -0.463 OA
BRANCH   3   4
ATOM      4  C   UNL A   1      32.908  28.576  23.800  1.00  0.00     0.306 C 
ATOM      5  O   UNL A   1      32.261  28.909  22.816  1.00  0.00    -0.252 OA
BRANCH   4   6
ATOM      6  C   UNL A   1      33.608  27.236  23.908  1.00  0.00     0.129 C 
BRANCH   6   7
ATOM      7  C   UNL A   1      33.444  26.247  22.745  1.00  0.00     0.066 C 
BRANCH   7   8
ATOM      8  C   UNL A   1      32.609  25.036  23.069  1.00  0.00     0.024 A 
ATOM      9  C   UNL A   1      32.124  22.866  23.466  1.00  0.00     0.053 A 
ATOM     10  C   UNL A   1      30.958  23.498  23.075  1.00  0.00     0.029 A 
ATOM     11  N   UNL A   1      33.102  23.848  23.607  1.00  0.00    -0.314 N 
ATOM     12  C   UNL A   1      31.256  24.852  22.868  1.00  0.00     0.024 A 
BRANCH   9  13
ATOM     13  C   UNL A   1      32.276  21.446  23.756  1.00  0.00    -0.001 A 
ATOM     14  C   UNL A   1      32.565  18.742  24.397  1.00  0.00     0.118 A 
ATOM     15  C   UNL A   1      32.396  19.132  23.068  1.00  0.00     0.047 A 
ATOM     16  C   UNL A   1      32.656  19.707  25.400  1.00  0.00     0.047 A 
ATOM     17  C   UNL A   1      32.244  20.482  22.746  1.00  0.00     0.014 A 
ATOM     18  C   UNL A   1      32.509  21.054  25.079  1.00  0.00     0.014 A 
BRANCH  14  19
ATOM     19  O   UNL A   1      32.689  17.400  24.631  1.00  0.00    -0.497 OA
ATOM     20  C   UNL A   1      33.339  16.702  23.572  1.00  0.00     0.278 C 
ENDBRANCH  14  19
ENDBRANCH   9  13
BRANCH  11  21
ATOM     21  C   UNL A   1      34.389  23.688  24.180  1.00  0.00     0.046 A 
ATOM     22  C   UNL A   1      35.439  23.237  23.370  1.00  0.00     0.027 A 
ATOM     23  C   UNL A   1      34.603  23.954  25.529  1.00  0.00     0.027 A 
ATOM     24  C   UNL A   1      36.704  23.013  23.923  1.00  0.00     0.014 A 
ATOM     25  C   UNL A   1      35.863  23.709  26.080  1.00  0.00     0.014 A 
ATOM     26  C   UNL A   1      36.921  23.227  25.289  1.00  0.00     0.017 A 
BRANCH  26  27
ATOM     27  C   UNL A   1      38.223  22.941  25.970  1.00  0.00     0.159 C 
ATOM     28  C   UNL A   1      39.019  24.039  26.629  1.00  0.00     0.093 C 
ATOM     29  O   UNL A   1      38.650  21.786  25.986  1.00  0.00    -0.295 OA
ENDBRANCH  26  27
ENDBRANCH  11  21
ENDBRANCH   7   8
ENDBRANCH   6   7
ENDBRANCH   4   6
ENDBRANCH   3   4
ENDBRANCH   2   3
ENDBRANCH   1   2
BRANCH   1  30
ATOM     30  O   UNL A   1      32.010  31.350  26.889  1.00  0.00    -0.374 OA
BRANCH  30  31
ATOM     31  C   UNL A   1      32.824  32.447  27.289  1.00  0.00     0.202 C 
BRANCH  31  32
ATOM     32  C   UNL A   1      34.109  32.103  28.023  1.00  0.00     0.261 C 
BRANCH  32  33
ATOM     33  O   UNL A   1      33.996  32.408  29.407  1.00  0.00    -0.460 OA
BRANCH  33  34
ATOM     34  C   UNL A   1      34.372  33.666  29.728  1.00  0.00     0.338 C 
ATOM     35  O   UNL A   1      33.812  34.702  29.439  1.00  0.00    -0.246 OA
BRANCH  34  36
ATOM     36  C   UNL A   1      35.703  33.605  30.334  1.00  0.00     0.060 A 
ATOM     37  C   UNL A   1      36.743  34.072  29.530  1.00  0.00     0.016 A 
ATOM     38  C   UNL A   1      35.920  32.790  31.455  1.00  0.00     0.016 A 
ATOM     39  C   UNL A   1      37.990  33.530  29.715  1.00  0.00     0.010 A 
ATOM     40  C   UNL A   1      37.153  32.207  31.608  1.00  0.00     0.010 A 
ATOM     41  C   UNL A   1      38.159  32.551  30.703  1.00  0.00    -0.014 A 
BRANCH  41  42
ATOM     42  C   UNL A   1      39.519  32.071  30.919  1.00  0.00     0.031 A 
ATOM     43  C   UNL A   1      40.258  33.161  31.736  1.00  0.00     0.074 A 
ATOM     44  C   UNL A   1      39.830  30.893  30.281  1.00  0.00     0.049 A 
ATOM     45  N   UNL A   1      41.476  33.580  31.636  1.00  0.00    -0.248 NA
ATOM     46  C   UNL A   1      39.502  34.031  32.699  1.00  0.00     0.031 C 
ATOM     47  C   UNL A   1      38.866  30.006  29.569  1.00  0.00     0.029 A 
ATOM     48  N   UNL A   1      40.996  30.185  30.085  1.00  0.00    -0.354 N 
ATOM     49  C   UNL A   1      41.703  34.470  32.709  1.00  0.00     0.074 A 
ATOM     50  C   UNL A   1      40.421  34.869  33.181  1.00  0.00     0.031 C 
ATOM     51  C   UNL A   1      39.497  28.975  28.949  1.00  0.00     0.029 A 
ATOM     52  C   UNL A   1      40.922  29.053  29.205  1.00  0.00     0.049 A 
ATOM     53  H   UNL A   1      41.838  30.443  30.526  1.00  0.00     0.167 HD
ATOM     54  C   UNL A   1      42.938  34.620  33.274  1.00  0.00     0.034 A 
ATOM     55  C   UNL A   1      41.955  28.282  28.712  1.00  0.00     0.034 A 
ATOM     56  C   UNL A   1      43.865  33.807  32.554  1.00  0.00     0.049 A 
ATOM     57  C   UNL A   1      43.107  28.758  29.492  1.00  0.00     0.074 A 
ATOM     58  C   UNL A   1      44.309  33.864  31.259  1.00  0.00     0.029 A 
ATOM     59  N   UNL A   1      44.068  32.536  33.055  1.00  0.00    -0.354 N 
ATOM     60  N   UNL A   1      43.299  28.501  30.748  1.00  0.00    -0.248 NA
ATOM     61  C   UNL A   1      44.062  29.674  28.855  1.00  0.00     0.031 C 
ATOM     62  C   UNL A   1      44.215  32.516  30.861  1.00  0.00     0.029 A 
ATOM     63  C   UNL A   1      44.090  31.686  31.984  1.00  0.00     0.049 A 
ATOM     64  H   UNL A   1      44.176  32.290  34.001  1.00  0.00     0.167 HD
ATOM     65  C   UNL A   1      44.165  29.495  31.120  1.00  0.00     0.074 A 
ATOM     66  C   UNL A   1      44.834  29.930  29.908  1.00  0.00     0.031 C 
ATOM     67  C   UNL A   1      43.850  30.275  32.188  1.00  0.00     0.034 A 
BRANCH  54  68
ATOM     68  C   UNL A   1      43.404  35.155  34.602  1.00  0.00     0.023 A 
ATOM     69  C   UNL A   1      43.283  34.248  35.685  1.00  0.00     0.031 A 
ATOM     70  C   UNL A   1      43.592  36.500  34.937  1.00  0.00     0.131 A 
ATOM     71  C   UNL A   1      43.142  34.696  36.999  1.00  0.00     0.055 A 
ATOM     72  C   UNL A   1      43.547  36.938  36.270  1.00  0.00     0.041 A 
ATOM     73  F   UNL A   1      43.736  37.449  34.004  1.00  0.00    -0.206 F 
ATOM     74  C   UNL A   1      43.270  36.044  37.304  1.00  0.00     0.022 A 
BRANCH  71  75
ATOM     75  S   UNL A   1      42.566  33.498  38.235  1.00  0.00     0.124 S 
ATOM     76  O   UNL A   1      41.555  34.267  38.953  1.00  0.00    -0.237 OA
ATOM     77  O   UNL A   1      42.066  32.413  37.397  1.00  0.00    -0.237 OA
ATOM     78  O   UNL A   1      43.775  33.190  38.996  1.00  0.00    -0.744 OA
ENDBRANCH  71  75
ENDBRANCH  54  68
BRANCH  55  79
ATOM     79  C   UNL A   1      42.310  27.214  27.665  1.00  0.00     0.023 A 
ATOM     80  C   UNL A   1      43.073  26.043  27.832  1.00  0.00     0.031 A 
ATOM     81  C   UNL A   1      41.717  27.334  26.358  1.00  0.00     0.131 A 
ATOM     82  C   UNL A   1      43.118  25.058  26.789  1.00  0.00     0.055 A 
ATOM     83  C   UNL A   1      41.674  26.327  25.395  1.00  0.00     0.041 A 
ATOM     84  F   UNL A   1      41.130  28.462  25.936  1.00  0.00    -0.206 F 
ATOM     85  C   UNL A   1      42.364  25.165  25.616  1.00  0.00     0.022 A 
BRANCH  82  86
ATOM     86  S   UNL A   1      44.156  23.564  26.905  1.00  0.00     0.124 S 
ATOM     87  O   UNL A   1      44.597  23.394  25.524  1.00  0.00    -0.237 OA
ATOM     88  O   UNL A   1      45.182  23.950  27.865  1.00  0.00    -0.237 OA
ATOM     89  O   UNL A   1      43.222  22.541  27.383  1.00  0.00    -0.744 OA
ENDBRANCH  82  86
ENDBRANCH  55  79
BRANCH  67  90
ATOM     90  C   UNL A   1      42.945  29.621  33.235  1.00  0.00     0.023 A 
ATOM     91  C   UNL A   1      41.722  30.235  33.579  1.00  0.00     0.031 A 
ATOM     92  C   UNL A   1      43.282  28.479  33.987  1.00  0.00     0.131 A 
ATOM     93  C   UNL A   1      40.925  29.750  34.636  1.00  0.00     0.055 A 
ATOM     94  C   UNL A   1      42.490  27.992  35.041  1.00  0.00     0.041 A 
ATOM     95  F   UNL A   1      44.399  27.796  33.736  1.00  0.00    -0.206 F 
ATOM     96  C   UNL A   1      41.304  28.630  35.373  1.00  0.00     0.022 A 
BRANCH  93  97
ATOM     97  S   UNL A   1      39.368  30.594  35.029  1.00  0.00     0.124 S 
ATOM     98  O   UNL A   1      38.521  30.255  33.892  1.00  0.00    -0.237 OA
ATOM     99  O   UNL A   1      38.996  29.992  36.306  1.00  0.00    -0.237 OA
ATOM    100  O   UNL A   1      39.753  32.003  35.110  1.00  0.00    -0.744 OA
ENDBRANCH  93  97
ENDBRANCH  67  90
ENDBRANCH  41  42
ENDBRANCH  34  36
ENDBRANCH  33  34
ENDBRANCH  32  33
ENDBRANCH  31  32
ENDBRANCH  30  31
ENDBRANCH   1  30
TORSDOF 23
ENDMDL
MODEL 3
REMARK VINA RESULT:      -9.7      3.700      8.647
REMARK SMILES COc1ccc(-c2ccc(CCC(=O)OCCOCCOC(=O)c3ccc(-c4c5nc(c(-c6cc(S(=O)(=O)[O-])ccc6F)c6ccc([nH]6)c(-c6cc(S(=O)(=O)[O-])ccc6F)c6nc(c(-c7cc(S(=O)(=O)[O-])ccc7F)c7ccc4[nH]7)C=C6)C=C5)cc3)n2-c2ccc(C(C)=O)cc2)cc1
REMARK SMILES IDX 17 1 16 2 15 3 13 4 14 5 12 6 11 7 10 8 7 9 8 10 87 11 9 12
REMARK SMILES IDX 6 13 3 14 4 15 98 16 5 17 97 18 2 19 1 20 88 21 89 22 96 23
REMARK SMILES IDX 90 24 95 25 91 26 92 27 93 28 94 29 18 30 19 31 20 32 21 33
REMARK SMILES IDX 22 34 23 35 24 36 25 37 86 38 26 39 85 40 27 41 28 42 29 43
REMARK SMILES IDX 79 44 30 45 84 46 78 47 80 48 31 49 83 50 77 51 76 52 32 54
REMARK SMILES IDX 64 55 44 56 63 57 45 58 48 59 62 60 81 61 46 62 47 63 61 65
REMARK SMILES IDX 82 66 49 67 33 68 34 69 42 70 35 71 41 72 43 73 40 74 36 75
REMARK SMILES IDX 37 76 38 77 39 78 65 79 66 80 74 81 67 82 73 83 75 84 72 85
REMARK SMILES IDX 68 86 69 87 70 88 71 89 50 90 51 91 59 92 52 93 58 94 60 95
REMARK SMILES IDX 57 96 53 97 54 98 55 99 56 100
REMARK H PARENT 80 53 48 64
REMARK Flexibility Score: inf
ROOT
ATOM      1  C   UNL A   1      32.054  29.451  27.215  1.00  0.00     0.202 C 
ENDROOT
BRANCH   1   2
ATOM      2  C   UNL A   1      31.734  28.552  26.018  1.00  0.00     0.261 C 
BRANCH   2   3
ATOM      3  O   UNL A   1      32.531  28.910  24.871  1.00  0.00    -0.463 OA
BRANCH   3   4
ATOM      4  C   UNL A   1      32.440  28.125  23.772  1.00  0.00     0.306 C 
ATOM      5  O   UNL A   1      31.602  28.256  22.889  1.00  0.00    -0.252 OA
BRANCH   4   6
ATOM      6  C   UNL A   1      33.493  27.035  23.751  1.00  0.00     0.129 C 
BRANCH   6   7
ATOM      7  C   UNL A   1      33.422  25.994  22.625  1.00  0.00     0.066 C 
BRANCH   7   8
ATOM      8  C   UNL A   1      32.614  24.768  22.960  1.00  0.00     0.024 A 
ATOM      9  C   UNL A   1      32.175  22.591  23.370  1.00  0.00     0.053 A 
ATOM     10  C   UNL A   1      30.994  23.197  22.984  1.00  0.00     0.029 A 
ATOM     11  N   UNL A   1      33.134  23.593  23.500  1.00  0.00    -0.314 N 
ATOM     12  C   UNL A   1      31.263  24.556  22.769  1.00  0.00     0.024 A 
BRANCH   9  13
ATOM     13  C   UNL A   1      32.358  21.175  23.664  1.00  0.00    -0.001 A 
ATOM     14  C   UNL A   1      32.711  18.481  24.315  1.00  0.00     0.118 A 
ATOM     15  C   UNL A   1      32.447  18.853  22.997  1.00  0.00     0.047 A 
ATOM     16  C   UNL A   1      32.864  19.458  25.298  1.00  0.00     0.047 A 
ATOM     17  C   UNL A   1      32.262  20.199  22.670  1.00  0.00     0.014 A 
ATOM     18  C   UNL A   1      32.685  20.801  24.972  1.00  0.00     0.014 A 
BRANCH  14  19
ATOM     19  O   UNL A   1      32.861  17.143  24.555  1.00  0.00    -0.497 OA
ATOM     20  C   UNL A   1      32.546  16.773  25.895  1.00  0.00     0.278 C 
ENDBRANCH  14  19
ENDBRANCH   9  13
BRANCH  11  21
ATOM     21  C   UNL A   1      34.428  23.461  24.064  1.00  0.00     0.046 A 
ATOM     22  C   UNL A   1      35.477  23.007  23.254  1.00  0.00     0.027 A 
ATOM     23  C   UNL A   1      34.650  23.757  25.406  1.00  0.00     0.027 A 
ATOM     24  C   UNL A   1      36.749  22.811  23.799  1.00  0.00     0.014 A 
ATOM     25  C   UNL A   1      35.919  23.539  25.950  1.00  0.00     0.014 A 
ATOM     26  C   UNL A   1      36.976  23.055  25.159  1.00  0.00     0.017 A 
BRANCH  26  27
ATOM     27  C   UNL A   1      38.287  22.800  25.834  1.00  0.00     0.159 C 
ATOM     28  C   UNL A   1      38.948  21.446  25.776  1.00  0.00     0.093 C 
ATOM     29  O   UNL A   1      38.830  23.718  26.452  1.00  0.00    -0.295 OA
ENDBRANCH  26  27
ENDBRANCH  11  21
ENDBRANCH   7   8
ENDBRANCH   6   7
ENDBRANCH   4   6
ENDBRANCH   3   4
ENDBRANCH   2   3
ENDBRANCH   1   2
BRANCH   1  30
ATOM     30  O   UNL A   1      31.679  30.822  27.059  1.00  0.00    -0.374 OA
BRANCH  30  31
ATOM     31  C   UNL A   1      32.711  31.796  27.165  1.00  0.00     0.202 C 
BRANCH  31  32
ATOM     32  C   UNL A   1      34.059  31.300  27.660  1.00  0.00     0.261 C 
BRANCH  32  33
ATOM     33  O   UNL A   1      34.306  31.750  28.986  1.00  0.00    -0.460 OA
BRANCH  33  34
ATOM     34  C   UNL A   1      34.780  33.014  29.061  1.00  0.00     0.338 C 
ATOM     35  O   UNL A   1      34.337  34.003  28.518  1.00  0.00    -0.246 OA
BRANCH  34  36
ATOM     36  C   UNL A   1      36.063  32.981  29.765  1.00  0.00     0.060 A 
ATOM     37  C   UNL A   1      37.164  33.389  29.011  1.00  0.00     0.016 A 
ATOM     38  C   UNL A   1      36.188  32.235  30.946  1.00  0.00     0.016 A 
ATOM     39  C   UNL A   1      38.387  32.850  29.320  1.00  0.00     0.010 A 
ATOM     40  C   UNL A   1      37.400  31.653  31.223  1.00  0.00     0.010 A 
ATOM     41  C   UNL A   1      38.473  31.932  30.375  1.00  0.00    -0.014 A 
BRANCH  41  42
ATOM     42  C   UNL A   1      39.808  31.457  30.718  1.00  0.00     0.031 A 
ATOM     43  C   UNL A   1      40.547  32.637  31.398  1.00  0.00     0.074 A 
ATOM     44  C   UNL A   1      40.108  30.190  30.274  1.00  0.00     0.049 A 
ATOM     45  N   UNL A   1      41.780  33.007  31.292  1.00  0.00    -0.248 NA
ATOM     46  C   UNL A   1      39.780  33.657  32.190  1.00  0.00     0.031 C 
ATOM     47  C   UNL A   1      39.147  29.232  29.657  1.00  0.00     0.029 A 
ATOM     48  N   UNL A   1      41.259  29.433  30.234  1.00  0.00    -0.354 N 
ATOM     49  C   UNL A   1      41.992  34.040  32.233  1.00  0.00     0.074 A 
ATOM     50  C   UNL A   1      40.704  34.534  32.584  1.00  0.00     0.031 C 
ATOM     51  C   UNL A   1      39.770  28.106  29.223  1.00  0.00     0.029 A 
ATOM     52  C   UNL A   1      41.185  28.186  29.527  1.00  0.00     0.049 A 
ATOM     53  H   UNL A   1      42.090  29.733  30.670  1.00  0.00     0.167 HD
ATOM     54  C   UNL A   1      43.207  34.241  32.823  1.00  0.00     0.034 A 
ATOM     55  C   UNL A   1      42.213  27.326  29.198  1.00  0.00     0.034 A 
ATOM     56  C   UNL A   1      44.136  33.308  32.271  1.00  0.00     0.049 A 
ATOM     57  C   UNL A   1      43.348  27.884  29.950  1.00  0.00     0.074 A 
ATOM     58  C   UNL A   1      44.633  33.163  31.002  1.00  0.00     0.029 A 
ATOM     59  N   UNL A   1      44.280  32.120  32.961  1.00  0.00    -0.354 N 
ATOM     60  N   UNL A   1      43.481  27.809  31.237  1.00  0.00    -0.248 NA
ATOM     61  C   UNL A   1      44.355  28.672  29.228  1.00  0.00     0.031 C 
ATOM     62  C   UNL A   1      44.515  31.774  30.802  1.00  0.00     0.029 A 
ATOM     63  C   UNL A   1      44.320  31.122  32.028  1.00  0.00     0.049 A 
ATOM     64  H   UNL A   1      44.344  32.014  33.937  1.00  0.00     0.167 HD
ATOM     65  C   UNL A   1      44.362  28.826  31.497  1.00  0.00     0.074 A 
ATOM     66  C   UNL A   1      45.092  29.062  30.266  1.00  0.00     0.031 C 
ATOM     67  C   UNL A   1      44.029  29.763  32.425  1.00  0.00     0.034 A 
BRANCH  54  68
ATOM     68  C   UNL A   1      43.635  34.954  34.079  1.00  0.00     0.023 A 
ATOM     69  C   UNL A   1      44.498  36.059  33.872  1.00  0.00     0.031 A 
ATOM     70  C   UNL A   1      43.573  34.450  35.382  1.00  0.00     0.131 A 
ATOM     71  C   UNL A   1      45.394  36.479  34.856  1.00  0.00     0.055 A 
ATOM     72  C   UNL A   1      44.407  34.940  36.399  1.00  0.00     0.041 A 
ATOM     73  F   UNL A   1      42.783  33.420  35.707  1.00  0.00    -0.206 F 
ATOM     74  C   UNL A   1      45.359  35.923  36.128  1.00  0.00     0.022 A 
BRANCH  71  75
ATOM     75  S   UNL A   1      46.731  37.596  34.350  1.00  0.00     0.124 S 
ATOM     76  O   UNL A   1      47.894  36.980  34.979  1.00  0.00    -0.237 OA
ATOM     77  O   UNL A   1      46.670  37.504  32.894  1.00  0.00    -0.237 OA
ATOM     78  O   UNL A   1      46.326  38.884  34.909  1.00  0.00    -0.744 OA
ENDBRANCH  71  75
ENDBRANCH  54  68
BRANCH  55  79
ATOM     79  C   UNL A   1      42.577  26.107  28.334  1.00  0.00     0.023 A 
ATOM     80  C   UNL A   1      43.755  25.875  27.599  1.00  0.00     0.031 A 
ATOM     81  C   UNL A   1      41.669  24.990  28.337  1.00  0.00     0.131 A 
ATOM     82  C   UNL A   1      44.003  24.582  27.026  1.00  0.00     0.055 A 
ATOM     83  C   UNL A   1      41.965  23.708  27.875  1.00  0.00     0.041 A 
ATOM     84  F   UNL A   1      40.417  25.082  28.804  1.00  0.00    -0.206 F 
ATOM     85  C   UNL A   1      43.152  23.491  27.228  1.00  0.00     0.022 A 
BRANCH  82  86
ATOM     86  S   UNL A   1      45.463  24.241  25.989  1.00  0.00     0.124 S 
ATOM     87  O   UNL A   1      45.501  22.781  25.992  1.00  0.00    -0.237 OA
ATOM     88  O   UNL A   1      45.120  24.873  24.721  1.00  0.00    -0.237 OA
ATOM     89  O   UNL A   1      46.555  24.887  26.720  1.00  0.00    -0.744 OA
ENDBRANCH  82  86
ENDBRANCH  55  79
BRANCH  67  90
ATOM     90  C   UNL A   1      43.063  29.291  33.516  1.00  0.00     0.023 A 
ATOM     91  C   UNL A   1      41.857  29.993  33.727  1.00  0.00     0.031 A 
ATOM     92  C   UNL A   1      43.326  28.251  34.426  1.00  0.00     0.131 A 
ATOM     93  C   UNL A   1      41.006  29.688  34.809  1.00  0.00     0.055 A 
ATOM     94  C   UNL A   1      42.480  27.942  35.506  1.00  0.00     0.041 A 
ATOM     95  F   UNL A   1      44.420  27.498  34.312  1.00  0.00    -0.206 F 
ATOM     96  C   UNL A   1      41.312  28.664  35.704  1.00  0.00     0.022 A 
BRANCH  93  97
ATOM     97  S   UNL A   1      39.474  30.636  35.026  1.00  0.00     0.124 S 
ATOM     98  O   UNL A   1      38.957  30.128  36.291  1.00  0.00    -0.237 OA
ATOM     99  O   UNL A   1      39.955  32.014  35.038  1.00  0.00    -0.237 OA
ATOM    100  O   UNL A   1      38.681  30.279  33.850  1.00  0.00    -0.744 OA
ENDBRANCH  93  97
ENDBRANCH  67  90
ENDBRANCH  41  42
ENDBRANCH  34  36
ENDBRANCH  33  34
ENDBRANCH  32  33
ENDBRANCH  31  32
ENDBRANCH  30  31
ENDBRANCH   1  30
TORSDOF 23
ENDMDL
