MODEL 1
REMARK VINA RESULT:     -11.6      0.000      0.000
REMARK SMILES Cc1ccc(NC(=O)C[NH+]2CCC(C(=O)OCCOCCOC(=O)c3ccc(-c4c5nc(c(-c6cc(S(=O)(=O)[O-])ccc6F)c6ccc([nH]6)c(-c6cc(S(=O)(=O)[O-])ccc6F)c6nc(c(-c7cc(S(=O)(=O)[O-])ccc7F)c7ccc4[nH]7)C=C6)C=C5)cc3)CC2)cc1Cl
REMARK SMILES IDX 19 1 18 2 17 3 16 4 14 5 15 6 13 7 10 8 11 9 89 10 12 12
REMARK SMILES IDX 88 13 9 14 7 15 6 16 8 18 5 19 1 20 2 21 3 22 91 23 4 24
REMARK SMILES IDX 90 25 92 26 20 27 21 28 22 29 23 30 24 31 25 32 26 33 87 34
REMARK SMILES IDX 27 35 86 36 28 37 29 38 30 39 80 40 31 41 85 42 79 43 81 44
REMARK SMILES IDX 32 45 84 46 78 47 77 48 33 50 65 51 45 52 64 53 46 54 49 55
REMARK SMILES IDX 63 56 82 57 47 58 48 59 62 61 83 62 50 63 34 64 35 65 43 66
REMARK SMILES IDX 36 67 42 68 44 69 41 70 37 71 38 72 39 73 40 74 66 75 67 76
REMARK SMILES IDX 75 77 68 78 74 79 76 80 73 81 69 82 70 83 71 84 72 85 51 86
REMARK SMILES IDX 52 87 60 88 53 89 59 90 61 91 58 92 54 93 55 94 56 95 57 96
REMARK H PARENT 10 11 6 17 81 49 49 60
REMARK Flexibility Score: inf
ROOT
ATOM      1  O   UNL A   1      34.759  20.471  24.347  1.00  0.00    -0.374 OA
ENDROOT
BRANCH   1   2
ATOM      2  C   UNL A   1      33.970  19.341  24.705  1.00  0.00     0.202 C 
BRANCH   2   3
ATOM      3  C   UNL A   1      32.863  19.552  25.740  1.00  0.00     0.261 C 
BRANCH   3   4
ATOM      4  O   UNL A   1      31.918  20.560  25.351  1.00  0.00    -0.463 OA
BRANCH   4   5
ATOM      5  C   UNL A   1      32.190  21.802  25.824  1.00  0.00     0.309 C 
ATOM      6  O   UNL A   1      32.432  22.083  26.994  1.00  0.00    -0.252 OA
BRANCH   5   7
ATOM      7  C   UNL A   1      32.106  22.859  24.761  1.00  0.00     0.110 C 
ATOM      8  N   UNL A   1      31.262  24.648  22.644  1.00  0.00    -0.327 N 
ATOM      9  C   UNL A   1      32.406  23.750  22.442  1.00  0.00     0.263 C 
ATOM     10  C   UNL A   1      30.852  24.814  24.032  1.00  0.00     0.263 C 
ATOM     11  H   UNL A   1      30.501  24.145  22.189  1.00  0.00     0.348 HD
ATOM     12  C   UNL A   1      32.329  22.467  23.302  1.00  0.00     0.077 C 
ATOM     13  C   UNL A   1      30.760  23.551  24.856  1.00  0.00     0.077 C 
BRANCH   8  14
ATOM     14  C   UNL A   1      31.382  25.958  21.945  1.00  0.00     0.363 C 
BRANCH  14  15
ATOM     15  C   UNL A   1      32.810  26.428  21.593  1.00  0.00     0.279 C 
ATOM     16  N   UNL A   1      33.615  27.185  22.406  1.00  0.00    -0.321 N 
ATOM     17  H   UNL A   1      34.462  27.460  21.988  1.00  0.00     0.170 HD
ATOM     18  O   UNL A   1      33.318  26.076  20.517  1.00  0.00    -0.268 OA
BRANCH  16  19
ATOM     19  C   UNL A   1      33.455  27.637  23.726  1.00  0.00     0.042 A 
ATOM     20  C   UNL A   1      31.793  28.110  27.663  1.00  0.00     0.046 C 
ATOM     21  C   UNL A   1      32.529  28.058  26.353  1.00  0.00    -0.032 A 
ATOM     22  C   UNL A   1      33.256  26.904  26.029  1.00  0.00     0.007 A 
ATOM     23  C   UNL A   1      32.406  29.060  25.376  1.00  0.00     0.046 A 
ATOM     24  C   UNL A   1      33.745  26.710  24.734  1.00  0.00     0.026 A 
ATOM     25  C   UNL A   1      32.883  28.857  24.072  1.00  0.00     0.047 A 
ATOM     26  Cl  UNL A   1      31.545  30.525  25.693  1.00  0.00    -0.084 Cl
ENDBRANCH  16  19
ENDBRANCH  14  15
ENDBRANCH   8  14
ENDBRANCH   5   7
ENDBRANCH   4   5
ENDBRANCH   3   4
ENDBRANCH   2   3
ENDBRANCH   1   2
BRANCH   1  27
ATOM     27  C   UNL A   1      35.761  20.914  25.259  1.00  0.00     0.202 C 
BRANCH  27  28
ATOM     28  C   UNL A   1      37.205  20.455  25.026  1.00  0.00     0.261 C 
BRANCH  28  29
ATOM     29  O   UNL A   1      38.162  21.525  25.138  1.00  0.00    -0.460 OA
BRANCH  29  30
ATOM     30  C   UNL A   1      39.180  21.274  25.997  1.00  0.00     0.338 C 
ATOM     31  O   UNL A   1      39.762  20.207  26.149  1.00  0.00    -0.246 OA
BRANCH  30  32
ATOM     32  C   UNL A   1      39.655  22.516  26.632  1.00  0.00     0.060 A 
ATOM     33  C   UNL A   1      39.141  23.725  26.147  1.00  0.00     0.016 A 
ATOM     34  C   UNL A   1      40.682  22.509  27.578  1.00  0.00     0.016 A 
ATOM     35  C   UNL A   1      39.691  24.934  26.562  1.00  0.00     0.010 A 
ATOM     36  C   UNL A   1      41.241  23.727  27.986  1.00  0.00     0.010 A 
ATOM     37  C   UNL A   1      40.777  24.941  27.448  1.00  0.00    -0.014 A 
BRANCH  37  38
ATOM     38  C   UNL A   1      41.523  26.206  27.660  1.00  0.00     0.031 A 
ATOM     39  C   UNL A   1      40.869  27.314  28.444  1.00  0.00     0.074 A 
ATOM     40  C   UNL A   1      42.786  26.344  27.218  1.00  0.00     0.049 A 
ATOM     41  N   UNL A   1      41.324  28.503  28.743  1.00  0.00    -0.248 NA
ATOM     42  C   UNL A   1      39.518  27.038  28.957  1.00  0.00     0.031 C 
ATOM     43  C   UNL A   1      43.541  25.320  26.496  1.00  0.00     0.029 A 
ATOM     44  N   UNL A   1      43.655  27.401  27.311  1.00  0.00    -0.354 N 
ATOM     45  C   UNL A   1      40.320  29.118  29.484  1.00  0.00     0.074 A 
ATOM     46  C   UNL A   1      39.216  28.184  29.549  1.00  0.00     0.031 C 
ATOM     47  C   UNL A   1      44.758  25.806  26.200  1.00  0.00     0.029 A 
ATOM     48  C   UNL A   1      44.857  27.184  26.680  1.00  0.00     0.049 A 
ATOM     49  H   UNL A   1      43.439  28.236  27.785  1.00  0.00     0.167 HD
ATOM     50  C   UNL A   1      40.323  30.344  30.065  1.00  0.00     0.034 A 
ATOM     51  C   UNL A   1      45.905  28.012  26.489  1.00  0.00     0.034 A 
ATOM     52  C   UNL A   1      41.424  31.272  29.973  1.00  0.00     0.049 A 
ATOM     53  C   UNL A   1      45.851  29.406  27.064  1.00  0.00     0.074 A 
ATOM     54  C   UNL A   1      41.532  32.540  30.517  1.00  0.00     0.029 A 
ATOM     55  N   UNL A   1      42.607  31.037  29.283  1.00  0.00    -0.354 N 
ATOM     56  N   UNL A   1      44.894  29.977  27.760  1.00  0.00    -0.248 NA
ATOM     57  C   UNL A   1      47.022  30.263  26.838  1.00  0.00     0.031 C 
ATOM     58  C   UNL A   1      42.748  33.095  30.101  1.00  0.00     0.029 A 
ATOM     59  C   UNL A   1      43.435  32.146  29.361  1.00  0.00     0.049 A 
ATOM     60  H   UNL A   1      42.825  30.203  28.808  1.00  0.00     0.167 HD
ATOM     61  C   UNL A   1      45.361  31.251  28.076  1.00  0.00     0.074 A 
ATOM     62  C   UNL A   1      46.689  31.357  27.507  1.00  0.00     0.031 C 
ATOM     63  C   UNL A   1      44.753  32.241  28.776  1.00  0.00     0.034 A 
BRANCH  50  64
ATOM     64  C   UNL A   1      39.073  30.763  30.800  1.00  0.00     0.023 A 
ATOM     65  C   UNL A   1      38.020  31.432  30.149  1.00  0.00     0.031 A 
ATOM     66  C   UNL A   1      38.945  30.521  32.179  1.00  0.00     0.131 A 
ATOM     67  C   UNL A   1      36.921  31.896  30.888  1.00  0.00     0.055 A 
ATOM     68  C   UNL A   1      37.813  30.917  32.894  1.00  0.00     0.041 A 
ATOM     69  F   UNL A   1      39.926  29.908  32.859  1.00  0.00    -0.206 F 
ATOM     70  C   UNL A   1      36.799  31.621  32.252  1.00  0.00     0.022 A 
BRANCH  67  71
ATOM     71  S   UNL A   1      35.719  32.980  30.070  1.00  0.00     0.124 S 
ATOM     72  O   UNL A   1      36.582  33.772  29.197  1.00  0.00    -0.237 OA
ATOM     73  O   UNL A   1      34.836  32.030  29.405  1.00  0.00    -0.237 OA
ATOM     74  O   UNL A   1      35.117  33.722  31.177  1.00  0.00    -0.744 OA
ENDBRANCH  67  71
ENDBRANCH  50  64
BRANCH  51  75
ATOM     75  C   UNL A   1      47.074  27.569  25.675  1.00  0.00     0.023 A 
ATOM     76  C   UNL A   1      47.200  27.921  24.323  1.00  0.00     0.031 A 
ATOM     77  C   UNL A   1      48.060  26.738  26.235  1.00  0.00     0.131 A 
ATOM     78  C   UNL A   1      48.265  27.408  23.564  1.00  0.00     0.055 A 
ATOM     79  C   UNL A   1      49.143  26.272  25.491  1.00  0.00     0.041 A 
ATOM     80  F   UNL A   1      47.986  26.370  27.525  1.00  0.00    -0.206 F 
ATOM     81  C   UNL A   1      49.244  26.596  24.142  1.00  0.00     0.022 A 
BRANCH  78  82
ATOM     82  S   UNL A   1      48.310  27.751  21.783  1.00  0.00     0.124 S 
ATOM     83  O   UNL A   1      48.574  26.427  21.232  1.00  0.00    -0.237 OA
ATOM     84  O   UNL A   1      46.974  28.290  21.546  1.00  0.00    -0.237 OA
ATOM     85  O   UNL A   1      49.401  28.713  21.649  1.00  0.00    -0.744 OA
ENDBRANCH  78  82
ENDBRANCH  51  75
BRANCH  63  86
ATOM     86  C   UNL A   1      45.540  33.509  29.000  1.00  0.00     0.023 A 
ATOM     87  C   UNL A   1      45.484  34.587  28.099  1.00  0.00     0.031 A 
ATOM     88  C   UNL A   1      46.370  33.634  30.129  1.00  0.00     0.131 A 
ATOM     89  C   UNL A   1      46.282  35.721  28.313  1.00  0.00     0.055 A 
ATOM     90  C   UNL A   1      47.118  34.789  30.368  1.00  0.00     0.041 A 
ATOM     91  F   UNL A   1      46.464  32.637  31.023  1.00  0.00    -0.206 F 
ATOM     92  C   UNL A   1      47.086  35.835  29.451  1.00  0.00     0.022 A 
BRANCH  89  93
ATOM     93  S   UNL A   1      46.323  37.013  27.041  1.00  0.00     0.124 S 
ATOM     94  O   UNL A   1      47.297  37.950  27.593  1.00  0.00    -0.237 OA
ATOM     95  O   UNL A   1      46.749  36.274  25.857  1.00  0.00    -0.237 OA
ATOM     96  O   UNL A   1      44.946  37.502  27.003  1.00  0.00    -0.744 OA
ENDBRANCH  89  93
ENDBRANCH  63  86
ENDBRANCH  37  38
ENDBRANCH  30  32
ENDBRANCH  29  30
ENDBRANCH  28  29
ENDBRANCH  27  28
ENDBRANCH   1  27
TORSDOF 20
ENDMDL
MODEL 2
REMARK VINA RESULT:     -11.5      1.520      7.497
REMARK SMILES Cc1ccc(NC(=O)C[NH+]2CCC(C(=O)OCCOCCOC(=O)c3ccc(-c4c5nc(c(-c6cc(S(=O)(=O)[O-])ccc6F)c6ccc([nH]6)c(-c6cc(S(=O)(=O)[O-])ccc6F)c6nc(c(-c7cc(S(=O)(=O)[O-])ccc7F)c7ccc4[nH]7)C=C6)C=C5)cc3)CC2)cc1Cl
REMARK SMILES IDX 19 1 18 2 17 3 16 4 14 5 15 6 13 7 10 8 11 9 89 10 12 12
REMARK SMILES IDX 88 13 9 14 7 15 6 16 8 18 5 19 1 20 2 21 3 22 91 23 4 24
REMARK SMILES IDX 90 25 92 26 20 27 21 28 22 29 23 30 24 31 25 32 26 33 87 34
REMARK SMILES IDX 27 35 86 36 28 37 29 38 30 39 80 40 31 41 85 42 79 43 81 44
REMARK SMILES IDX 32 45 84 46 78 47 77 48 33 50 65 51 45 52 64 53 46 54 49 55
REMARK SMILES IDX 63 56 82 57 47 58 48 59 62 61 83 62 50 63 34 64 35 65 43 66
REMARK SMILES IDX 36 67 42 68 44 69 41 70 37 71 38 72 39 73 40 74 66 75 67 76
REMARK SMILES IDX 75 77 68 78 74 79 76 80 73 81 69 82 70 83 71 84 72 85 51 86
REMARK SMILES IDX 52 87 60 88 53 89 59 90 61 91 58 92 54 93 55 94 56 95 57 96
REMARK H PARENT 10 11 6 17 81 49 49 60
REMARK Flexibility Score: inf
ROOT
ATOM      1  O   UNL A   1      34.933  20.346  24.501  1.00  0.00    -0.374 OA
ENDROOT
BRANCH   1   2
ATOM      2  C   UNL A   1      34.219  19.148  24.788  1.00  0.00     0.202 C 
BRANCH   2   3
ATOM      3  C   UNL A   1      32.920  19.274  25.586  1.00  0.00     0.261 C 
BRANCH   3   4
ATOM      4  O   UNL A   1      32.097  20.365  25.147  1.00  0.00    -0.463 OA
BRANCH   4   5
ATOM      5  C   UNL A   1      32.445  21.574  25.655  1.00  0.00     0.309 C 
ATOM      6  O   UNL A   1      32.791  21.788  26.813  1.00  0.00    -0.252 OA
BRANCH   5   7
ATOM      7  C   UNL A   1      32.307  22.685  24.655  1.00  0.00     0.110 C 
ATOM      8  N   UNL A   1      31.368  24.556  22.652  1.00  0.00    -0.327 N 
ATOM      9  C   UNL A   1      32.545  23.718  22.388  1.00  0.00     0.263 C 
ATOM     10  C   UNL A   1      30.968  24.627  24.051  1.00  0.00     0.263 C 
ATOM     11  H   UNL A   1      30.623  24.049  22.176  1.00  0.00     0.348 HD
ATOM     12  C   UNL A   1      32.529  22.386  23.174  1.00  0.00     0.077 C 
ATOM     13  C   UNL A   1      30.936  23.316  24.801  1.00  0.00     0.077 C 
BRANCH   8  14
ATOM     14  C   UNL A   1      31.428  25.908  22.028  1.00  0.00     0.363 C 
BRANCH  14  15
ATOM     15  C   UNL A   1      32.828  26.432  21.641  1.00  0.00     0.279 C 
ATOM     16  N   UNL A   1      33.623  27.220  22.434  1.00  0.00    -0.321 N 
ATOM     17  H   UNL A   1      34.449  27.527  21.996  1.00  0.00     0.170 HD
ATOM     18  O   UNL A   1      33.323  26.098  20.553  1.00  0.00    -0.268 OA
BRANCH  16  19
ATOM     19  C   UNL A   1      33.479  27.668  23.758  1.00  0.00     0.042 A 
ATOM     20  C   UNL A   1      31.856  28.132  27.712  1.00  0.00     0.046 C 
ATOM     21  C   UNL A   1      32.579  28.082  26.394  1.00  0.00    -0.032 A 
ATOM     22  C   UNL A   1      33.297  26.925  26.059  1.00  0.00     0.007 A 
ATOM     23  C   UNL A   1      32.452  29.088  25.424  1.00  0.00     0.046 A 
ATOM     24  C   UNL A   1      33.773  26.735  24.759  1.00  0.00     0.026 A 
ATOM     25  C   UNL A   1      32.916  28.889  24.114  1.00  0.00     0.047 A 
ATOM     26  Cl  UNL A   1      31.602  30.557  25.755  1.00  0.00    -0.084 Cl
ENDBRANCH  16  19
ENDBRANCH  14  15
ENDBRANCH   8  14
ENDBRANCH   5   7
ENDBRANCH   4   5
ENDBRANCH   3   4
ENDBRANCH   2   3
ENDBRANCH   1   2
BRANCH   1  27
ATOM     27  C   UNL A   1      36.011  20.714  25.359  1.00  0.00     0.202 C 
BRANCH  27  28
ATOM     28  C   UNL A   1      37.413  20.192  25.023  1.00  0.00     0.261 C 
BRANCH  28  29
ATOM     29  O   UNL A   1      38.429  21.209  25.107  1.00  0.00    -0.460 OA
BRANCH  29  30
ATOM     30  C   UNL A   1      39.385  20.966  26.036  1.00  0.00     0.338 C 
ATOM     31  O   UNL A   1      39.998  19.918  26.198  1.00  0.00    -0.246 OA
BRANCH  30  32
ATOM     32  C   UNL A   1      39.755  22.201  26.750  1.00  0.00     0.060 A 
ATOM     33  C   UNL A   1      39.105  23.382  26.372  1.00  0.00     0.016 A 
ATOM     34  C   UNL A   1      40.809  22.231  27.665  1.00  0.00     0.016 A 
ATOM     35  C   UNL A   1      39.545  24.608  26.862  1.00  0.00     0.010 A 
ATOM     36  C   UNL A   1      41.257  23.467  28.149  1.00  0.00     0.010 A 
ATOM     37  C   UNL A   1      40.655  24.663  27.716  1.00  0.00    -0.014 A 
BRANCH  37  38
ATOM     38  C   UNL A   1      41.277  25.979  28.003  1.00  0.00     0.031 A 
ATOM     39  C   UNL A   1      42.686  26.236  27.534  1.00  0.00     0.074 A 
ATOM     40  C   UNL A   1      40.580  26.952  28.616  1.00  0.00     0.049 A 
ATOM     41  N   UNL A   1      43.431  27.300  27.681  1.00  0.00    -0.248 NA
ATOM     42  C   UNL A   1      43.337  25.140  26.800  1.00  0.00     0.031 C 
ATOM     43  C   UNL A   1      39.193  26.838  29.066  1.00  0.00     0.029 A 
ATOM     44  N   UNL A   1      40.943  28.228  28.965  1.00  0.00    -0.354 N 
ATOM     45  C   UNL A   1      44.638  27.008  27.054  1.00  0.00     0.074 A 
ATOM     46  C   UNL A   1      44.537  25.648  26.565  1.00  0.00     0.031 C 
ATOM     47  C   UNL A   1      38.828  27.995  29.645  1.00  0.00     0.029 A 
ATOM     48  C   UNL A   1      39.962  28.918  29.637  1.00  0.00     0.049 A 
ATOM     49  H   UNL A   1      41.825  28.614  28.755  1.00  0.00     0.167 HD
ATOM     50  C   UNL A   1      45.725  27.802  26.892  1.00  0.00     0.034 A 
ATOM     51  C   UNL A   1      39.986  30.141  30.204  1.00  0.00     0.034 A 
ATOM     52  C   UNL A   1      45.819  29.148  27.403  1.00  0.00     0.049 A 
ATOM     53  C   UNL A   1      41.239  30.975  30.093  1.00  0.00     0.074 A 
ATOM     54  C   UNL A   1      46.872  30.040  27.302  1.00  0.00     0.029 A 
ATOM     55  N   UNL A   1      44.821  29.796  28.122  1.00  0.00    -0.354 N 
ATOM     56  N   UNL A   1      42.376  30.685  29.502  1.00  0.00    -0.248 NA
ATOM     57  C   UNL A   1      41.209  32.304  30.717  1.00  0.00     0.031 C 
ATOM     58  C   UNL A   1      46.539  31.197  28.015  1.00  0.00     0.029 A 
ATOM     59  C   UNL A   1      45.247  31.061  28.498  1.00  0.00     0.049 A 
ATOM     60  H   UNL A   1      43.940  29.412  28.335  1.00  0.00     0.167 HD
ATOM     61  C   UNL A   1      43.185  31.808  29.660  1.00  0.00     0.074 A 
ATOM     62  C   UNL A   1      42.401  32.782  30.390  1.00  0.00     0.031 C 
ATOM     63  C   UNL A   1      44.457  32.017  29.238  1.00  0.00     0.034 A 
BRANCH  50  64
ATOM     64  C   UNL A   1      46.916  27.206  26.180  1.00  0.00     0.023 A 
ATOM     65  C   UNL A   1      47.907  26.486  26.871  1.00  0.00     0.031 A 
ATOM     66  C   UNL A   1      47.081  27.390  24.796  1.00  0.00     0.131 A 
ATOM     67  C   UNL A   1      49.050  26.037  26.190  1.00  0.00     0.055 A 
ATOM     68  C   UNL A   1      48.182  26.874  24.110  1.00  0.00     0.041 A 
ATOM     69  F   UNL A   1      46.179  28.088  24.087  1.00  0.00    -0.206 F 
ATOM     70  C   UNL A   1      49.182  26.206  24.809  1.00  0.00     0.022 A 
BRANCH  67  71
ATOM     71  S   UNL A   1      50.425  25.352  27.155  1.00  0.00     0.124 S 
ATOM     72  O   UNL A   1      50.766  26.478  28.022  1.00  0.00    -0.237 OA
ATOM     73  O   UNL A   1      49.809  24.205  27.811  1.00  0.00    -0.237 OA
ATOM     74  O   UNL A   1      51.428  25.029  26.142  1.00  0.00    -0.744 OA
ENDBRANCH  67  71
ENDBRANCH  50  64
BRANCH  51  75
ATOM     75  C   UNL A   1      38.808  30.636  30.973  1.00  0.00     0.023 A 
ATOM     76  C   UNL A   1      37.847  31.471  30.383  1.00  0.00     0.031 A 
ATOM     77  C   UNL A   1      38.659  30.319  32.335  1.00  0.00     0.131 A 
ATOM     78  C   UNL A   1      36.803  31.995  31.163  1.00  0.00     0.055 A 
ATOM     79  C   UNL A   1      37.592  30.800  33.094  1.00  0.00     0.041 A 
ATOM     80  F   UNL A   1      39.551  29.524  32.949  1.00  0.00    -0.206 F 
ATOM     81  C   UNL A   1      36.662  31.654  32.511  1.00  0.00     0.022 A 
BRANCH  78  82
ATOM     82  S   UNL A   1      35.672  33.198  30.411  1.00  0.00     0.124 S 
ATOM     83  O   UNL A   1      34.422  32.448  30.375  1.00  0.00    -0.237 OA
ATOM     84  O   UNL A   1      35.731  34.303  31.362  1.00  0.00    -0.237 OA
ATOM     85  O   UNL A   1      36.278  33.465  29.108  1.00  0.00    -0.744 OA
ENDBRANCH  78  82
ENDBRANCH  51  75
BRANCH  63  86
ATOM     86  C   UNL A   1      45.061  33.372  29.520  1.00  0.00     0.023 A 
ATOM     87  C   UNL A   1      44.971  34.431  28.599  1.00  0.00     0.031 A 
ATOM     88  C   UNL A   1      45.747  33.602  30.726  1.00  0.00     0.131 A 
ATOM     89  C   UNL A   1      45.601  35.653  28.874  1.00  0.00     0.055 A 
ATOM     90  C   UNL A   1      46.323  34.839  31.020  1.00  0.00     0.041 A 
ATOM     91  F   UNL A   1      45.865  32.627  31.641  1.00  0.00    -0.206 F 
ATOM     92  C   UNL A   1      46.263  35.869  30.086  1.00  0.00     0.022 A 
BRANCH  89  93
ATOM     93  S   UNL A   1      45.621  36.934  27.591  1.00  0.00     0.124 S 
ATOM     94  O   UNL A   1      46.106  38.097  28.330  1.00  0.00    -0.237 OA
ATOM     95  O   UNL A   1      46.540  36.377  26.605  1.00  0.00    -0.237 OA
ATOM     96  O   UNL A   1      44.226  37.013  27.162  1.00  0.00    -0.744 OA
ENDBRANCH  89  93
ENDBRANCH  63  86
ENDBRANCH  37  38
ENDBRANCH  30  32
ENDBRANCH  29  30
ENDBRANCH  28  29
ENDBRANCH  27  28
ENDBRANCH   1  27
TORSDOF 20
ENDMDL
MODEL 3
REMARK VINA RESULT:     -10.9      1.465      7.549
REMARK SMILES Cc1ccc(NC(=O)C[NH+]2CCC(C(=O)OCCOCCOC(=O)c3ccc(-c4c5nc(c(-c6cc(S(=O)(=O)[O-])ccc6F)c6ccc([nH]6)c(-c6cc(S(=O)(=O)[O-])ccc6F)c6nc(c(-c7cc(S(=O)(=O)[O-])ccc7F)c7ccc4[nH]7)C=C6)C=C5)cc3)CC2)cc1Cl
REMARK SMILES IDX 19 1 18 2 17 3 16 4 14 5 15 6 13 7 10 8 11 9 89 10 12 12
REMARK SMILES IDX 88 13 9 14 7 15 6 16 8 18 5 19 1 20 2 21 3 22 91 23 4 24
REMARK SMILES IDX 90 25 92 26 20 27 21 28 22 29 23 30 24 31 25 32 26 33 87 34
REMARK SMILES IDX 27 35 86 36 28 37 29 38 30 39 80 40 31 41 85 42 79 43 81 44
REMARK SMILES IDX 32 45 84 46 78 47 77 48 33 50 65 51 45 52 64 53 46 54 49 55
REMARK SMILES IDX 63 56 82 57 47 58 48 59 62 61 83 62 50 63 34 64 35 65 43 66
REMARK SMILES IDX 36 67 42 68 44 69 41 70 37 71 38 72 39 73 40 74 66 75 67 76
REMARK SMILES IDX 75 77 68 78 74 79 76 80 73 81 69 82 70 83 71 84 72 85 51 86
REMARK SMILES IDX 52 87 60 88 53 89 59 90 61 91 58 92 54 93 55 94 56 95 57 96
REMARK H PARENT 10 11 6 17 81 49 49 60
REMARK Flexibility Score: inf
ROOT
ATOM      1  O   UNL A   1      35.124  20.307  24.776  1.00  0.00    -0.374 OA
ENDROOT
BRANCH   1   2
ATOM      2  C   UNL A   1      34.635  21.584  25.172  1.00  0.00     0.202 C 
BRANCH   2   3
ATOM      3  C   UNL A   1      33.209  21.654  25.723  1.00  0.00     0.261 C 
BRANCH   3   4
ATOM      4  O   UNL A   1      32.307  22.353  24.852  1.00  0.00    -0.463 OA
BRANCH   4   5
ATOM      5  C   UNL A   1      31.109  22.660  25.409  1.00  0.00     0.309 C 
ATOM      6  O   UNL A   1      30.469  21.938  26.167  1.00  0.00    -0.252 OA
BRANCH   5   7
ATOM      7  C   UNL A   1      30.581  23.990  24.953  1.00  0.00     0.110 C 
ATOM      8  N   UNL A   1      30.226  26.613  23.776  1.00  0.00    -0.327 N 
ATOM      9  C   UNL A   1      30.074  26.425  25.225  1.00  0.00     0.263 C 
ATOM     10  C   UNL A   1      30.205  25.385  22.993  1.00  0.00     0.263 C 
ATOM     11  H   UNL A   1      31.176  26.976  23.698  1.00  0.00     0.348 HD
ATOM     12  C   UNL A   1      30.900  25.238  25.773  1.00  0.00     0.077 C 
ATOM     13  C   UNL A   1      31.034  24.240  23.528  1.00  0.00     0.077 C 
BRANCH   8  14
ATOM     14  C   UNL A   1      29.328  27.651  23.196  1.00  0.00     0.363 C 
BRANCH  14  15
ATOM     15  C   UNL A   1      30.005  28.793  22.408  1.00  0.00     0.279 C 
ATOM     16  N   UNL A   1      31.338  29.110  22.469  1.00  0.00    -0.321 N 
ATOM     17  H   UNL A   1      31.582  29.919  21.962  1.00  0.00     0.170 HD
ATOM     18  O   UNL A   1      29.330  29.468  21.615  1.00  0.00    -0.268 OA
BRANCH  16  19
ATOM     19  C   UNL A   1      32.422  28.495  23.117  1.00  0.00     0.042 A 
ATOM     20  C   UNL A   1      34.700  25.555  25.274  1.00  0.00     0.046 C 
ATOM     21  C   UNL A   1      34.077  26.686  24.501  1.00  0.00    -0.032 A 
ATOM     22  C   UNL A   1      33.810  26.507  23.137  1.00  0.00     0.007 A 
ATOM     23  C   UNL A   1      33.624  27.863  25.118  1.00  0.00     0.046 A 
ATOM     24  C   UNL A   1      33.016  27.423  22.441  1.00  0.00     0.026 A 
ATOM     25  C   UNL A   1      32.813  28.773  24.423  1.00  0.00     0.047 A 
ATOM     26  Cl  UNL A   1      33.925  28.177  26.791  1.00  0.00    -0.084 Cl
ENDBRANCH  16  19
ENDBRANCH  14  15
ENDBRANCH   8  14
ENDBRANCH   5   7
ENDBRANCH   4   5
ENDBRANCH   3   4
ENDBRANCH   2   3
ENDBRANCH   1   2
BRANCH   1  27
ATOM     27  C   UNL A   1      36.497  20.004  25.011  1.00  0.00     0.202 C 
BRANCH  27  28
ATOM     28  C   UNL A   1      37.543  21.069  24.661  1.00  0.00     0.261 C 
BRANCH  28  29
ATOM     29  O   UNL A   1      37.872  21.923  25.773  1.00  0.00    -0.460 OA
BRANCH  29  30
ATOM     30  C   UNL A   1      39.149  21.802  26.209  1.00  0.00     0.338 C 
ATOM     31  O   UNL A   1      39.942  20.916  25.914  1.00  0.00    -0.246 OA
BRANCH  30  32
ATOM     32  C   UNL A   1      39.563  22.993  26.971  1.00  0.00     0.060 A 
ATOM     33  C   UNL A   1      38.791  24.152  26.824  1.00  0.00     0.016 A 
ATOM     34  C   UNL A   1      40.755  23.020  27.698  1.00  0.00     0.016 A 
ATOM     35  C   UNL A   1      39.237  25.359  27.354  1.00  0.00     0.010 A 
ATOM     36  C   UNL A   1      41.206  24.239  28.222  1.00  0.00     0.010 A 
ATOM     37  C   UNL A   1      40.470  25.420  28.015  1.00  0.00    -0.014 A 
BRANCH  37  38
ATOM     38  C   UNL A   1      41.056  26.749  28.325  1.00  0.00     0.031 A 
ATOM     39  C   UNL A   1      42.490  27.018  27.948  1.00  0.00     0.074 A 
ATOM     40  C   UNL A   1      40.306  27.720  28.874  1.00  0.00     0.049 A 
ATOM     41  N   UNL A   1      43.209  28.094  28.129  1.00  0.00    -0.248 NA
ATOM     42  C   UNL A   1      43.203  25.921  27.276  1.00  0.00     0.031 C 
ATOM     43  C   UNL A   1      38.893  27.594  29.232  1.00  0.00     0.029 A 
ATOM     44  N   UNL A   1      40.629  29.006  29.229  1.00  0.00    -0.354 N 
ATOM     45  C   UNL A   1      44.460  27.810  27.590  1.00  0.00     0.074 A 
ATOM     46  C   UNL A   1      44.409  26.442  27.115  1.00  0.00     0.031 C 
ATOM     47  C   UNL A   1      38.475  28.753  29.768  1.00  0.00     0.029 A 
ATOM     48  C   UNL A   1      39.596  29.691  29.823  1.00  0.00     0.049 A 
ATOM     49  H   UNL A   1      41.518  29.401  29.073  1.00  0.00     0.167 HD
ATOM     50  C   UNL A   1      45.546  28.617  27.491  1.00  0.00     0.034 A 
ATOM     51  C   UNL A   1      39.566  30.922  30.373  1.00  0.00     0.034 A 
ATOM     52  C   UNL A   1      45.587  29.970  27.987  1.00  0.00     0.049 A 
ATOM     53  C   UNL A   1      40.813  31.772  30.335  1.00  0.00     0.074 A 
ATOM     54  C   UNL A   1      46.633  30.875  27.944  1.00  0.00     0.029 A 
ATOM     55  N   UNL A   1      44.535  30.614  28.628  1.00  0.00    -0.354 N 
ATOM     56  N   UNL A   1      41.991  31.489  29.826  1.00  0.00    -0.248 NA
ATOM     57  C   UNL A   1      40.724  33.108  30.936  1.00  0.00     0.031 C 
ATOM     58  C   UNL A   1      46.239  32.037  28.617  1.00  0.00     0.029 A 
ATOM     59  C   UNL A   1      44.919  31.890  29.013  1.00  0.00     0.049 A 
ATOM     60  H   UNL A   1      43.647  30.221  28.786  1.00  0.00     0.167 HD
ATOM     61  C   UNL A   1      42.773  32.624  30.022  1.00  0.00     0.074 A 
ATOM     62  C   UNL A   1      41.929  33.598  30.683  1.00  0.00     0.031 C 
ATOM     63  C   UNL A   1      44.069  32.846  29.684  1.00  0.00     0.034 A 
BRANCH  50  64
ATOM     64  C   UNL A   1      46.789  28.027  26.869  1.00  0.00     0.023 A 
ATOM     65  C   UNL A   1      47.050  28.136  25.491  1.00  0.00     0.031 A 
ATOM     66  C   UNL A   1      47.710  27.317  27.659  1.00  0.00     0.131 A 
ATOM     67  C   UNL A   1      48.163  27.486  24.935  1.00  0.00     0.055 A 
ATOM     68  C   UNL A   1      48.857  26.739  27.112  1.00  0.00     0.041 A 
ATOM     69  F   UNL A   1      47.503  27.161  28.976  1.00  0.00    -0.206 F 
ATOM     70  C   UNL A   1      49.081  26.808  25.741  1.00  0.00     0.022 A 
BRANCH  67  71
ATOM     71  S   UNL A   1      48.321  27.422  23.129  1.00  0.00     0.124 S 
ATOM     72  O   UNL A   1      48.270  25.983  22.879  1.00  0.00    -0.237 OA
ATOM     73  O   UNL A   1      47.164  28.189  22.683  1.00  0.00    -0.237 OA
ATOM     74  O   UNL A   1      49.619  28.045  22.876  1.00  0.00    -0.744 OA
ENDBRANCH  67  71
ENDBRANCH  50  64
BRANCH  51  75
ATOM     75  C   UNL A   1      38.333  31.412  31.053  1.00  0.00     0.023 A 
ATOM     76  C   UNL A   1      37.265  31.962  30.327  1.00  0.00     0.031 A 
ATOM     77  C   UNL A   1      38.230  31.382  32.456  1.00  0.00     0.131 A 
ATOM     78  C   UNL A   1      36.160  32.500  31.008  1.00  0.00     0.055 A 
ATOM     79  C   UNL A   1      37.109  31.870  33.125  1.00  0.00     0.041 A 
ATOM     80  F   UNL A   1      39.224  30.866  33.198  1.00  0.00    -0.206 F 
ATOM     81  C   UNL A   1      36.070  32.445  32.401  1.00  0.00     0.022 A 
BRANCH  78  82
ATOM     82  S   UNL A   1      34.874  33.347  30.050  1.00  0.00     0.124 S 
ATOM     83  O   UNL A   1      34.340  32.258  29.241  1.00  0.00    -0.237 OA
ATOM     84  O   UNL A   1      33.999  33.856  31.102  1.00  0.00    -0.237 OA
ATOM     85  O   UNL A   1      35.617  34.367  29.312  1.00  0.00    -0.744 OA
ENDBRANCH  78  82
ENDBRANCH  51  75
BRANCH  63  86
ATOM     86  C   UNL A   1      44.634  34.212  29.987  1.00  0.00     0.023 A 
ATOM     87  C   UNL A   1      44.556  35.269  29.063  1.00  0.00     0.031 A 
ATOM     88  C   UNL A   1      45.272  34.455  31.216  1.00  0.00     0.131 A 
ATOM     89  C   UNL A   1      45.152  36.504  29.360  1.00  0.00     0.055 A 
ATOM     90  C   UNL A   1      45.813  35.703  31.531  1.00  0.00     0.041 A 
ATOM     91  F   UNL A   1      45.378  33.483  32.136  1.00  0.00    -0.206 F 
ATOM     92  C   UNL A   1      45.766  36.732  30.594  1.00  0.00     0.022 A 
BRANCH  89  93
ATOM     93  S   UNL A   1      45.191  37.785  28.078  1.00  0.00     0.124 S 
ATOM     94  O   UNL A   1      46.590  37.754  27.660  1.00  0.00    -0.237 OA
ATOM     95  O   UNL A   1      44.224  37.286  27.105  1.00  0.00    -0.237 OA
ATOM     96  O   UNL A   1      44.785  38.996  28.789  1.00  0.00    -0.744 OA
ENDBRANCH  89  93
ENDBRANCH  63  86
ENDBRANCH  37  38
ENDBRANCH  30  32
ENDBRANCH  29  30
ENDBRANCH  28  29
ENDBRANCH  27  28
ENDBRANCH   1  27
TORSDOF 20
ENDMDL
