MODEL 1
REMARK VINA RESULT:     -11.8      0.000      0.000
REMARK SMILES Cc1ccnc(C(=O)c2[nH]c3cc(Cl)c(F)cc3c2CC(=O)OCCOCCOC(=O)c2ccc(-c3c4nc(c(-c5cc(S(=O)(=O)[O-])ccc5F)c5ccc([nH]5)c(-c5cc(S(=O)(=O)[O-])ccc5F)c5nc(c(-c6cc(S(=O)(=O)[O-])ccc6F)c6ccc3[nH]6)C=C5)C=C4)cc2)c1
REMARK SMILES IDX 26 1 25 2 24 3 23 4 21 5 22 6 20 7 19 8 9 9 10 10 11 11
REMARK SMILES IDX 18 13 12 14 17 15 13 16 15 17 14 18 16 19 7 20 8 21 6 22
REMARK SMILES IDX 1 23 2 24 3 25 95 26 4 27 5 28 27 29 28 30 29 31 30 32 31 33
REMARK SMILES IDX 32 34 33 35 94 36 34 37 93 38 35 39 36 40 37 41 87 42 38 43
REMARK SMILES IDX 92 44 86 45 88 46 39 47 91 48 85 49 84 50 40 52 72 53 52 54
REMARK SMILES IDX 71 55 53 56 56 57 70 58 89 59 54 60 55 61 69 63 90 64 57 65
REMARK SMILES IDX 41 66 42 67 50 68 43 69 49 70 51 71 48 72 44 73 45 74 46 75
REMARK SMILES IDX 47 76 73 77 74 78 82 79 75 80 81 81 83 82 80 83 76 84 77 85
REMARK SMILES IDX 78 86 79 87 58 88 59 89 67 90 60 91 66 92 68 93 65 94 61 95
REMARK SMILES IDX 62 96 63 97 64 98
REMARK H PARENT 10 12 88 51 56 62
REMARK Flexibility Score: inf
ROOT
ATOM      1  O   UNL A   1      32.939  28.409  27.028  1.00  0.00    -0.374 OA
ENDROOT
BRANCH   1   2
ATOM      2  C   UNL A   1      32.224  27.600  26.102  1.00  0.00     0.202 C 
BRANCH   2   3
ATOM      3  C   UNL A   1      31.971  26.229  26.740  1.00  0.00     0.261 C 
BRANCH   3   4
ATOM      4  O   UNL A   1      30.687  25.671  26.307  1.00  0.00    -0.463 OA
BRANCH   4   5
ATOM      5  C   UNL A   1      30.756  24.625  25.445  1.00  0.00     0.310 C 
ATOM      6  O   UNL A   1      31.168  23.518  25.783  1.00  0.00    -0.252 OA
BRANCH   5   7
ATOM      7  C   UNL A   1      30.213  24.871  24.032  1.00  0.00     0.161 C 
BRANCH   7   8
ATOM      8  C   UNL A   1      30.591  26.096  23.188  1.00  0.00     0.000 A 
ATOM      9  C   UNL A   1      31.825  26.500  22.587  1.00  0.00     0.093 A 
ATOM     10  N   UNL A   1      31.662  27.851  22.311  1.00  0.00    -0.351 N 
ATOM     11  C   UNL A   1      30.390  28.295  22.559  1.00  0.00     0.048 A 
ATOM     12  H   UNL A   1      32.385  28.429  21.975  1.00  0.00     0.167 HD
ATOM     13  C   UNL A   1      29.671  27.214  23.055  1.00  0.00     0.007 A 
ATOM     14  C   UNL A   1      29.843  29.580  22.410  1.00  0.00     0.050 A 
ATOM     15  C   UNL A   1      28.311  27.421  23.385  1.00  0.00     0.051 A 
ATOM     16  C   UNL A   1      28.499  29.757  22.748  1.00  0.00     0.078 A 
ATOM     17  C   UNL A   1      27.744  28.689  23.216  1.00  0.00     0.142 A 
ATOM     18  Cl  UNL A   1      27.800  31.327  22.592  1.00  0.00    -0.081 Cl
ATOM     19  F   UNL A   1      26.452  28.862  23.538  1.00  0.00    -0.205 F 
BRANCH   9  20
ATOM     20  C   UNL A   1      33.205  25.961  22.451  1.00  0.00     0.227 C 
ATOM     21  O   UNL A   1      33.914  26.424  21.554  1.00  0.00    -0.285 OA
BRANCH  20  22
ATOM     22  C   UNL A   1      33.801  24.764  23.223  1.00  0.00     0.113 A 
ATOM     23  C   UNL A   1      33.220  21.112  24.064  1.00  0.00     0.044 C 
ATOM     24  C   UNL A   1      33.906  22.458  23.974  1.00  0.00    -0.047 A 
ATOM     25  C   UNL A   1      34.615  22.868  25.094  1.00  0.00     0.023 A 
ATOM     26  C   UNL A   1      33.633  23.401  22.941  1.00  0.00     0.036 A 
ATOM     27  C   UNL A   1      34.938  24.204  25.188  1.00  0.00     0.112 A 
ATOM     28  N   UNL A   1      34.518  25.152  24.315  1.00  0.00    -0.253 NA
ENDBRANCH  20  22
ENDBRANCH   9  20
ENDBRANCH   7   8
ENDBRANCH   5   7
ENDBRANCH   4   5
ENDBRANCH   3   4
ENDBRANCH   2   3
ENDBRANCH   1   2
BRANCH   1  29
ATOM     29  C   UNL A   1      32.468  29.746  27.051  1.00  0.00     0.202 C 
BRANCH  29  30
ATOM     30  C   UNL A   1      33.586  30.792  27.088  1.00  0.00     0.261 C 
BRANCH  30  31
ATOM     31  O   UNL A   1      33.300  31.660  28.154  1.00  0.00    -0.460 OA
BRANCH  31  32
ATOM     32  C   UNL A   1      32.962  32.954  28.012  1.00  0.00     0.338 C 
ATOM     33  O   UNL A   1      32.048  33.462  27.396  1.00  0.00    -0.246 OA
BRANCH  32  34
ATOM     34  C   UNL A   1      34.039  33.530  28.842  1.00  0.00     0.060 A 
ATOM     35  C   UNL A   1      35.033  34.092  28.026  1.00  0.00     0.016 A 
ATOM     36  C   UNL A   1      34.369  32.722  29.946  1.00  0.00     0.016 A 
ATOM     37  C   UNL A   1      36.299  33.545  28.102  1.00  0.00     0.010 A 
ATOM     38  C   UNL A   1      35.662  32.218  30.050  1.00  0.00     0.010 A 
ATOM     39  C   UNL A   1      36.602  32.579  29.084  1.00  0.00    -0.014 A 
BRANCH  39  40
ATOM     40  C   UNL A   1      38.025  32.328  29.248  1.00  0.00     0.031 A 
ATOM     41  C   UNL A   1      38.302  30.907  28.924  1.00  0.00     0.074 A 
ATOM     42  C   UNL A   1      39.034  33.139  29.599  1.00  0.00     0.049 A 
ATOM     43  N   UNL A   1      38.479  29.938  29.761  1.00  0.00    -0.248 NA
ATOM     44  C   UNL A   1      38.058  30.496  27.535  1.00  0.00     0.031 C 
ATOM     45  C   UNL A   1      39.117  34.594  29.639  1.00  0.00     0.029 A 
ATOM     46  N   UNL A   1      40.289  32.742  29.952  1.00  0.00    -0.354 N 
ATOM     47  C   UNL A   1      38.494  28.787  28.985  1.00  0.00     0.074 A 
ATOM     48  C   UNL A   1      38.032  29.174  27.675  1.00  0.00     0.031 C 
ATOM     49  C   UNL A   1      40.421  34.951  29.779  1.00  0.00     0.029 A 
ATOM     50  C   UNL A   1      41.225  33.755  29.991  1.00  0.00     0.049 A 
ATOM     51  H   UNL A   1      40.510  31.806  30.162  1.00  0.00     0.167 HD
ATOM     52  C   UNL A   1      39.053  27.627  29.416  1.00  0.00     0.034 A 
ATOM     53  C   UNL A   1      42.567  33.578  30.086  1.00  0.00     0.034 A 
ATOM     54  C   UNL A   1      39.287  27.639  30.832  1.00  0.00     0.049 A 
ATOM     55  C   UNL A   1      42.826  32.210  30.612  1.00  0.00     0.074 A 
ATOM     56  C   UNL A   1      38.475  27.666  31.948  1.00  0.00     0.029 A 
ATOM     57  N   UNL A   1      40.541  27.996  31.264  1.00  0.00    -0.354 N 
ATOM     58  N   UNL A   1      42.575  31.830  31.833  1.00  0.00    -0.248 NA
ATOM     59  C   UNL A   1      42.996  31.132  29.647  1.00  0.00     0.031 C 
ATOM     60  C   UNL A   1      39.175  28.459  32.900  1.00  0.00     0.029 A 
ATOM     61  C   UNL A   1      40.385  28.855  32.321  1.00  0.00     0.049 A 
ATOM     62  H   UNL A   1      41.396  27.691  30.884  1.00  0.00     0.167 HD
ATOM     63  C   UNL A   1      42.133  30.520  31.711  1.00  0.00     0.074 A 
ATOM     64  C   UNL A   1      42.512  30.114  30.361  1.00  0.00     0.031 C 
ATOM     65  C   UNL A   1      41.264  29.972  32.610  1.00  0.00     0.034 A 
BRANCH  52  66
ATOM     66  C   UNL A   1      39.668  26.624  28.480  1.00  0.00     0.023 A 
ATOM     67  C   UNL A   1      40.762  26.940  27.653  1.00  0.00     0.031 A 
ATOM     68  C   UNL A   1      39.315  25.266  28.538  1.00  0.00     0.131 A 
ATOM     69  C   UNL A   1      41.422  25.974  26.894  1.00  0.00     0.055 A 
ATOM     70  C   UNL A   1      40.026  24.281  27.841  1.00  0.00     0.041 A 
ATOM     71  F   UNL A   1      38.305  24.848  29.317  1.00  0.00    -0.206 F 
ATOM     72  C   UNL A   1      41.082  24.633  27.006  1.00  0.00     0.022 A 
BRANCH  69  73
ATOM     73  S   UNL A   1      42.736  26.471  25.747  1.00  0.00     0.124 S 
ATOM     74  O   UNL A   1      43.052  25.209  25.089  1.00  0.00    -0.237 OA
ATOM     75  O   UNL A   1      42.052  27.465  24.925  1.00  0.00    -0.237 OA
ATOM     76  O   UNL A   1      43.772  27.009  26.626  1.00  0.00    -0.744 OA
ENDBRANCH  69  73
ENDBRANCH  52  66
BRANCH  53  77
ATOM     77  C   UNL A   1      43.596  34.295  29.298  1.00  0.00     0.023 A 
ATOM     78  C   UNL A   1      43.683  34.072  27.912  1.00  0.00     0.031 A 
ATOM     79  C   UNL A   1      44.683  34.930  29.922  1.00  0.00     0.131 A 
ATOM     80  C   UNL A   1      44.838  34.428  27.205  1.00  0.00     0.055 A 
ATOM     81  C   UNL A   1      45.832  35.300  29.210  1.00  0.00     0.041 A 
ATOM     82  F   UNL A   1      44.682  35.135  31.249  1.00  0.00    -0.206 F 
ATOM     83  C   UNL A   1      45.918  35.036  27.847  1.00  0.00     0.022 A 
BRANCH  80  84
ATOM     84  S   UNL A   1      44.990  34.021  25.445  1.00  0.00     0.124 S 
ATOM     85  O   UNL A   1      46.239  34.684  25.081  1.00  0.00    -0.237 OA
ATOM     86  O   UNL A   1      45.038  32.563  25.480  1.00  0.00    -0.237 OA
ATOM     87  O   UNL A   1      43.789  34.604  24.853  1.00  0.00    -0.744 OA
ENDBRANCH  80  84
ENDBRANCH  53  77
BRANCH  65  88
ATOM     88  C   UNL A   1      40.978  30.712  33.897  1.00  0.00     0.023 A 
ATOM     89  C   UNL A   1      40.029  31.749  33.838  1.00  0.00     0.031 A 
ATOM     90  C   UNL A   1      41.764  30.611  35.060  1.00  0.00     0.131 A 
ATOM     91  C   UNL A   1      39.933  32.678  34.879  1.00  0.00     0.055 A 
ATOM     92  C   UNL A   1      41.606  31.494  36.134  1.00  0.00     0.041 A 
ATOM     93  F   UNL A   1      42.767  29.727  35.154  1.00  0.00    -0.206 F 
ATOM     94  C   UNL A   1      40.703  32.547  36.037  1.00  0.00     0.022 A 
BRANCH  91  95
ATOM     95  S   UNL A   1      38.939  34.178  34.673  1.00  0.00     0.124 S 
ATOM     96  O   UNL A   1      39.281  34.592  33.315  1.00  0.00    -0.237 OA
ATOM     97  O   UNL A   1      37.579  33.670  34.850  1.00  0.00    -0.237 OA
ATOM     98  O   UNL A   1      39.410  35.066  35.732  1.00  0.00    -0.744 OA
ENDBRANCH  91  95
ENDBRANCH  65  88
ENDBRANCH  39  40
ENDBRANCH  32  34
ENDBRANCH  31  32
ENDBRANCH  30  31
ENDBRANCH  29  30
ENDBRANCH   1  29
TORSDOF 20
ENDMDL
MODEL 2
REMARK VINA RESULT:     -11.7      3.315      6.725
REMARK SMILES Cc1ccnc(C(=O)c2[nH]c3cc(Cl)c(F)cc3c2CC(=O)OCCOCCOC(=O)c2ccc(-c3c4nc(c(-c5cc(S(=O)(=O)[O-])ccc5F)c5ccc([nH]5)c(-c5cc(S(=O)(=O)[O-])ccc5F)c5nc(c(-c6cc(S(=O)(=O)[O-])ccc6F)c6ccc3[nH]6)C=C5)C=C4)cc2)c1
REMARK SMILES IDX 26 1 25 2 24 3 23 4 21 5 22 6 20 7 19 8 9 9 10 10 11 11
REMARK SMILES IDX 18 13 12 14 17 15 13 16 15 17 14 18 16 19 7 20 8 21 6 22
REMARK SMILES IDX 1 23 2 24 3 25 95 26 4 27 5 28 27 29 28 30 29 31 30 32 31 33
REMARK SMILES IDX 32 34 33 35 94 36 34 37 93 38 35 39 36 40 37 41 87 42 38 43
REMARK SMILES IDX 92 44 86 45 88 46 39 47 91 48 85 49 84 50 40 52 72 53 52 54
REMARK SMILES IDX 71 55 53 56 56 57 70 58 89 59 54 60 55 61 69 63 90 64 57 65
REMARK SMILES IDX 41 66 42 67 50 68 43 69 49 70 51 71 48 72 44 73 45 74 46 75
REMARK SMILES IDX 47 76 73 77 74 78 82 79 75 80 81 81 83 82 80 83 76 84 77 85
REMARK SMILES IDX 78 86 79 87 58 88 59 89 67 90 60 91 66 92 68 93 65 94 61 95
REMARK SMILES IDX 62 96 63 97 64 98
REMARK H PARENT 10 12 88 51 56 62
REMARK Flexibility Score: inf
ROOT
ATOM      1  O   UNL A   1      32.197  29.380  27.387  1.00  0.00    -0.374 OA
ENDROOT
BRANCH   1   2
ATOM      2  C   UNL A   1      31.729  28.605  26.291  1.00  0.00     0.202 C 
BRANCH   2   3
ATOM      3  C   UNL A   1      32.019  27.126  26.573  1.00  0.00     0.261 C 
BRANCH   3   4
ATOM      4  O   UNL A   1      30.790  26.329  26.541  1.00  0.00    -0.463 OA
BRANCH   4   5
ATOM      5  C   UNL A   1      30.884  25.119  25.933  1.00  0.00     0.310 C 
ATOM      6  O   UNL A   1      31.291  24.117  26.516  1.00  0.00    -0.252 OA
BRANCH   5   7
ATOM      7  C   UNL A   1      30.377  25.043  24.487  1.00  0.00     0.161 C 
BRANCH   7   8
ATOM      8  C   UNL A   1      30.682  26.115  23.432  1.00  0.00     0.000 A 
ATOM      9  C   UNL A   1      31.872  26.430  22.704  1.00  0.00     0.093 A 
ATOM     10  N   UNL A   1      31.664  27.715  22.218  1.00  0.00    -0.351 N 
ATOM     11  C   UNL A   1      30.397  28.177  22.461  1.00  0.00     0.048 A 
ATOM     12  H   UNL A   1      32.354  28.238  21.750  1.00  0.00     0.167 HD
ATOM     13  C   UNL A   1      29.730  27.183  23.169  1.00  0.00     0.007 A 
ATOM     14  C   UNL A   1      29.814  29.410  22.132  1.00  0.00     0.050 A 
ATOM     15  C   UNL A   1      28.385  27.424  23.537  1.00  0.00     0.051 A 
ATOM     16  C   UNL A   1      28.486  29.624  22.511  1.00  0.00     0.078 A 
ATOM     17  C   UNL A   1      27.782  28.638  23.192  1.00  0.00     0.142 A 
ATOM     18  Cl  UNL A   1      27.744  31.136  22.138  1.00  0.00    -0.081 Cl
ATOM     19  F   UNL A   1      26.505  28.845  23.554  1.00  0.00    -0.205 F 
BRANCH   9  20
ATOM     20  C   UNL A   1      33.254  25.895  22.581  1.00  0.00     0.227 C 
ATOM     21  O   UNL A   1      33.971  26.360  21.692  1.00  0.00    -0.285 OA
BRANCH  20  22
ATOM     22  C   UNL A   1      33.846  24.699  23.358  1.00  0.00     0.113 A 
ATOM     23  C   UNL A   1      33.240  21.058  24.231  1.00  0.00     0.044 C 
ATOM     24  C   UNL A   1      33.936  22.397  24.126  1.00  0.00    -0.047 A 
ATOM     25  C   UNL A   1      34.657  22.811  25.238  1.00  0.00     0.023 A 
ATOM     26  C   UNL A   1      33.664  23.335  23.087  1.00  0.00     0.036 A 
ATOM     27  C   UNL A   1      34.992  24.144  25.319  1.00  0.00     0.112 A 
ATOM     28  N   UNL A   1      34.573  25.089  24.442  1.00  0.00    -0.253 NA
ENDBRANCH  20  22
ENDBRANCH   9  20
ENDBRANCH   7   8
ENDBRANCH   5   7
ENDBRANCH   4   5
ENDBRANCH   3   4
ENDBRANCH   2   3
ENDBRANCH   1   2
BRANCH   1  29
ATOM     29  C   UNL A   1      33.513  29.867  27.179  1.00  0.00     0.202 C 
BRANCH  29  30
ATOM     30  C   UNL A   1      33.834  31.133  27.981  1.00  0.00     0.261 C 
BRANCH  30  31
ATOM     31  O   UNL A   1      35.231  31.190  28.112  1.00  0.00    -0.460 OA
BRANCH  31  32
ATOM     32  C   UNL A   1      35.875  31.621  29.211  1.00  0.00     0.338 C 
ATOM     33  O   UNL A   1      35.454  31.849  30.327  1.00  0.00    -0.246 OA
BRANCH  32  34
ATOM     34  C   UNL A   1      37.227  31.710  28.623  1.00  0.00     0.060 A 
ATOM     35  C   UNL A   1      37.412  30.690  27.676  1.00  0.00     0.016 A 
ATOM     36  C   UNL A   1      38.218  32.013  29.575  1.00  0.00     0.016 A 
ATOM     37  C   UNL A   1      38.405  29.765  27.929  1.00  0.00     0.010 A 
ATOM     38  C   UNL A   1      39.250  31.104  29.787  1.00  0.00     0.010 A 
ATOM     39  C   UNL A   1      39.296  29.948  29.007  1.00  0.00    -0.014 A 
BRANCH  39  40
ATOM     40  C   UNL A   1      40.462  29.080  28.965  1.00  0.00     0.031 A 
ATOM     41  C   UNL A   1      40.782  28.639  30.345  1.00  0.00     0.074 A 
ATOM     42  C   UNL A   1      41.208  28.647  27.938  1.00  0.00     0.049 A 
ATOM     43  N   UNL A   1      41.702  29.111  31.119  1.00  0.00    -0.248 NA
ATOM     44  C   UNL A   1      39.776  27.798  31.009  1.00  0.00     0.031 C 
ATOM     45  C   UNL A   1      40.942  28.635  26.504  1.00  0.00     0.029 A 
ATOM     46  N   UNL A   1      42.420  28.031  28.038  1.00  0.00    -0.354 N 
ATOM     47  C   UNL A   1      41.469  28.526  32.356  1.00  0.00     0.074 A 
ATOM     48  C   UNL A   1      40.172  27.902  32.274  1.00  0.00     0.031 C 
ATOM     49  C   UNL A   1      41.861  27.840  25.898  1.00  0.00     0.029 A 
ATOM     50  C   UNL A   1      42.856  27.423  26.878  1.00  0.00     0.049 A 
ATOM     51  H   UNL A   1      42.941  28.019  28.873  1.00  0.00     0.167 HD
ATOM     52  C   UNL A   1      42.431  28.438  33.312  1.00  0.00     0.034 A 
ATOM     53  C   UNL A   1      43.902  26.564  26.790  1.00  0.00     0.034 A 
ATOM     54  C   UNL A   1      43.543  29.301  33.033  1.00  0.00     0.049 A 
ATOM     55  C   UNL A   1      44.767  26.750  27.986  1.00  0.00     0.074 A 
ATOM     56  C   UNL A   1      43.719  30.668  32.977  1.00  0.00     0.029 A 
ATOM     57  N   UNL A   1      44.625  28.751  32.388  1.00  0.00    -0.354 N 
ATOM     58  N   UNL A   1      45.505  27.801  28.207  1.00  0.00    -0.248 NA
ATOM     59  C   UNL A   1      44.498  25.922  29.155  1.00  0.00     0.031 C 
ATOM     60  C   UNL A   1      44.657  30.882  31.929  1.00  0.00     0.029 A 
ATOM     61  C   UNL A   1      45.019  29.633  31.415  1.00  0.00     0.049 A 
ATOM     62  H   UNL A   1      45.041  27.882  32.589  1.00  0.00     0.167 HD
ATOM     63  C   UNL A   1      45.430  28.003  29.578  1.00  0.00     0.074 A 
ATOM     64  C   UNL A   1      44.885  26.761  30.117  1.00  0.00     0.031 C 
ATOM     65  C   UNL A   1      45.558  29.247  30.125  1.00  0.00     0.034 A 
BRANCH  52  66
ATOM     66  C   UNL A   1      42.474  27.325  34.321  1.00  0.00     0.023 A 
ATOM     67  C   UNL A   1      43.251  26.167  34.131  1.00  0.00     0.031 A 
ATOM     68  C   UNL A   1      41.906  27.480  35.596  1.00  0.00     0.131 A 
ATOM     69  C   UNL A   1      43.405  25.204  35.128  1.00  0.00     0.055 A 
ATOM     70  C   UNL A   1      42.124  26.556  36.626  1.00  0.00     0.041 A 
ATOM     71  F   UNL A   1      41.169  28.561  35.897  1.00  0.00    -0.206 F 
ATOM     72  C   UNL A   1      42.871  25.405  36.393  1.00  0.00     0.022 A 
BRANCH  69  73
ATOM     73  S   UNL A   1      44.308  23.672  34.770  1.00  0.00     0.124 S 
ATOM     74  O   UNL A   1      45.446  24.169  34.007  1.00  0.00    -0.237 OA
ATOM     75  O   UNL A   1      44.606  23.183  36.114  1.00  0.00    -0.237 OA
ATOM     76  O   UNL A   1      43.341  22.870  34.025  1.00  0.00    -0.744 OA
ENDBRANCH  69  73
ENDBRANCH  52  66
BRANCH  53  77
ATOM     77  C   UNL A   1      43.918  25.292  26.031  1.00  0.00     0.023 A 
ATOM     78  C   UNL A   1      42.978  24.292  26.341  1.00  0.00     0.031 A 
ATOM     79  C   UNL A   1      45.027  24.920  25.251  1.00  0.00     0.131 A 
ATOM     80  C   UNL A   1      43.182  22.970  25.923  1.00  0.00     0.055 A 
ATOM     81  C   UNL A   1      45.220  23.602  24.820  1.00  0.00     0.041 A 
ATOM     82  F   UNL A   1      45.982  25.816  24.956  1.00  0.00    -0.206 F 
ATOM     83  C   UNL A   1      44.301  22.617  25.169  1.00  0.00     0.022 A 
BRANCH  80  84
ATOM     84  S   UNL A   1      42.030  21.667  26.434  1.00  0.00     0.124 S 
ATOM     85  O   UNL A   1      42.324  21.538  27.859  1.00  0.00    -0.237 OA
ATOM     86  O   UNL A   1      40.740  22.266  26.108  1.00  0.00    -0.237 OA
ATOM     87  O   UNL A   1      42.424  20.522  25.619  1.00  0.00    -0.744 OA
ENDBRANCH  80  84
ENDBRANCH  53  77
BRANCH  65  88
ATOM     88  C   UNL A   1      46.044  30.384  29.255  1.00  0.00     0.023 A 
ATOM     89  C   UNL A   1      45.082  31.038  28.465  1.00  0.00     0.031 A 
ATOM     90  C   UNL A   1      47.400  30.655  28.990  1.00  0.00     0.131 A 
ATOM     91  C   UNL A   1      45.478  31.873  27.415  1.00  0.00     0.055 A 
ATOM     92  C   UNL A   1      47.790  31.554  27.992  1.00  0.00     0.041 A 
ATOM     93  F   UNL A   1      48.383  29.991  29.615  1.00  0.00    -0.206 F 
ATOM     94  C   UNL A   1      46.827  32.150  27.183  1.00  0.00     0.022 A 
BRANCH  91  95
ATOM     95  S   UNL A   1      44.260  32.468  26.214  1.00  0.00     0.124 S 
ATOM     96  O   UNL A   1      45.097  32.810  25.068  1.00  0.00    -0.237 OA
ATOM     97  O   UNL A   1      43.405  31.294  26.039  1.00  0.00    -0.237 OA
ATOM     98  O   UNL A   1      43.624  33.600  26.882  1.00  0.00    -0.744 OA
ENDBRANCH  91  95
ENDBRANCH  65  88
ENDBRANCH  39  40
ENDBRANCH  32  34
ENDBRANCH  31  32
ENDBRANCH  30  31
ENDBRANCH  29  30
ENDBRANCH   1  29
TORSDOF 20
ENDMDL
MODEL 3
REMARK VINA RESULT:     -11.5      3.746      7.791
REMARK SMILES Cc1ccnc(C(=O)c2[nH]c3cc(Cl)c(F)cc3c2CC(=O)OCCOCCOC(=O)c2ccc(-c3c4nc(c(-c5cc(S(=O)(=O)[O-])ccc5F)c5ccc([nH]5)c(-c5cc(S(=O)(=O)[O-])ccc5F)c5nc(c(-c6cc(S(=O)(=O)[O-])ccc6F)c6ccc3[nH]6)C=C5)C=C4)cc2)c1
REMARK SMILES IDX 26 1 25 2 24 3 23 4 21 5 22 6 20 7 19 8 9 9 10 10 11 11
REMARK SMILES IDX 18 13 12 14 17 15 13 16 15 17 14 18 16 19 7 20 8 21 6 22
REMARK SMILES IDX 1 23 2 24 3 25 95 26 4 27 5 28 27 29 28 30 29 31 30 32 31 33
REMARK SMILES IDX 32 34 33 35 94 36 34 37 93 38 35 39 36 40 37 41 87 42 38 43
REMARK SMILES IDX 92 44 86 45 88 46 39 47 91 48 85 49 84 50 40 52 72 53 52 54
REMARK SMILES IDX 71 55 53 56 56 57 70 58 89 59 54 60 55 61 69 63 90 64 57 65
REMARK SMILES IDX 41 66 42 67 50 68 43 69 49 70 51 71 48 72 44 73 45 74 46 75
REMARK SMILES IDX 47 76 73 77 74 78 82 79 75 80 81 81 83 82 80 83 76 84 77 85
REMARK SMILES IDX 78 86 79 87 58 88 59 89 67 90 60 91 66 92 68 93 65 94 61 95
REMARK SMILES IDX 62 96 63 97 64 98
REMARK H PARENT 10 12 88 51 56 62
REMARK Flexibility Score: inf
ROOT
ATOM      1  O   UNL A   1      34.134  31.799  27.621  1.00  0.00    -0.374 OA
ENDROOT
BRANCH   1   2
ATOM      2  C   UNL A   1      33.000  31.161  27.048  1.00  0.00     0.202 C 
BRANCH   2   3
ATOM      3  C   UNL A   1      33.453  29.853  26.389  1.00  0.00     0.261 C 
BRANCH   3   4
ATOM      4  O   UNL A   1      32.852  29.690  25.062  1.00  0.00    -0.463 OA
BRANCH   4   5
ATOM      5  C   UNL A   1      33.421  28.752  24.264  1.00  0.00     0.310 C 
ATOM      6  O   UNL A   1      33.931  29.029  23.181  1.00  0.00    -0.252 OA
BRANCH   5   7
ATOM      7  C   UNL A   1      33.469  27.324  24.820  1.00  0.00     0.161 C 
BRANCH   7   8
ATOM      8  C   UNL A   1      33.371  26.074  23.933  1.00  0.00     0.000 A 
ATOM      9  C   UNL A   1      32.550  25.765  22.804  1.00  0.00     0.093 A 
ATOM     10  N   UNL A   1      32.613  24.382  22.684  1.00  0.00    -0.351 N 
ATOM     11  C   UNL A   1      33.509  23.814  23.551  1.00  0.00     0.048 A 
ATOM     12  H   UNL A   1      32.072  23.866  22.045  1.00  0.00     0.167 HD
ATOM     13  C   UNL A   1      34.048  24.844  24.313  1.00  0.00     0.007 A 
ATOM     14  C   UNL A   1      33.850  22.464  23.732  1.00  0.00     0.050 A 
ATOM     15  C   UNL A   1      35.016  24.508  25.289  1.00  0.00     0.051 A 
ATOM     16  C   UNL A   1      34.804  22.159  24.706  1.00  0.00     0.078 A 
ATOM     17  C   UNL A   1      35.386  23.169  25.462  1.00  0.00     0.142 A 
ATOM     18  Cl  UNL A   1      35.233  20.508  24.965  1.00  0.00    -0.081 Cl
ATOM     19  F   UNL A   1      36.304  22.874  26.396  1.00  0.00    -0.205 F 
BRANCH   9  20
ATOM     20  C   UNL A   1      31.522  26.451  21.977  1.00  0.00     0.227 C 
ATOM     21  O   UNL A   1      31.535  26.246  20.760  1.00  0.00    -0.285 OA
BRANCH  20  22
ATOM     22  C   UNL A   1      30.522  27.524  22.461  1.00  0.00     0.113 A 
ATOM     23  C   UNL A   1      26.944  28.026  23.614  1.00  0.00     0.044 C 
ATOM     24  C   UNL A   1      28.393  28.332  23.302  1.00  0.00    -0.047 A 
ATOM     25  C   UNL A   1      28.659  29.574  22.744  1.00  0.00     0.023 A 
ATOM     26  C   UNL A   1      29.413  27.337  23.299  1.00  0.00     0.036 A 
ATOM     27  C   UNL A   1      29.877  29.746  22.125  1.00  0.00     0.112 A 
ATOM     28  N   UNL A   1      30.781  28.754  21.936  1.00  0.00    -0.253 NA
ENDBRANCH  20  22
ENDBRANCH   9  20
ENDBRANCH   7   8
ENDBRANCH   5   7
ENDBRANCH   4   5
ENDBRANCH   3   4
ENDBRANCH   2   3
ENDBRANCH   1   2
BRANCH   1  29
ATOM     29  C   UNL A   1      33.837  33.105  28.090  1.00  0.00     0.202 C 
BRANCH  29  30
ATOM     30  C   UNL A   1      34.601  33.491  29.360  1.00  0.00     0.261 C 
BRANCH  30  31
ATOM     31  O   UNL A   1      35.805  32.767  29.349  1.00  0.00    -0.460 OA
BRANCH  31  32
ATOM     32  C   UNL A   1      37.020  33.308  29.553  1.00  0.00     0.338 C 
ATOM     33  O   UNL A   1      37.483  34.361  29.166  1.00  0.00    -0.246 OA
BRANCH  32  34
ATOM     34  C   UNL A   1      37.578  32.225  30.388  1.00  0.00     0.060 A 
ATOM     35  C   UNL A   1      38.941  32.454  30.632  1.00  0.00     0.016 A 
ATOM     36  C   UNL A   1      37.103  30.953  30.021  1.00  0.00     0.016 A 
ATOM     37  C   UNL A   1      39.836  31.518  30.152  1.00  0.00     0.010 A 
ATOM     38  C   UNL A   1      38.014  29.991  29.593  1.00  0.00     0.010 A 
ATOM     39  C   UNL A   1      39.373  30.307  29.595  1.00  0.00    -0.014 A 
BRANCH  39  40
ATOM     40  C   UNL A   1      40.409  29.300  29.424  1.00  0.00     0.031 A 
ATOM     41  C   UNL A   1      40.808  28.791  30.759  1.00  0.00     0.074 A 
ATOM     42  C   UNL A   1      40.985  28.800  28.322  1.00  0.00     0.049 A 
ATOM     43  N   UNL A   1      41.854  29.126  31.439  1.00  0.00    -0.248 NA
ATOM     44  C   UNL A   1      39.775  28.069  31.516  1.00  0.00     0.031 C 
ATOM     45  C   UNL A   1      40.576  28.854  26.923  1.00  0.00     0.029 A 
ATOM     46  N   UNL A   1      42.112  28.034  28.290  1.00  0.00    -0.354 N 
ATOM     47  C   UNL A   1      41.675  28.547  32.688  1.00  0.00     0.074 A 
ATOM     48  C   UNL A   1      40.307  28.094  32.734  1.00  0.00     0.031 C 
ATOM     49  C   UNL A   1      41.320  27.963  26.217  1.00  0.00     0.029 A 
ATOM     50  C   UNL A   1      42.348  27.402  27.086  1.00  0.00     0.049 A 
ATOM     51  H   UNL A   1      42.710  27.937  29.066  1.00  0.00     0.167 HD
ATOM     52  C   UNL A   1      42.709  28.317  33.538  1.00  0.00     0.034 A 
ATOM     53  C   UNL A   1      43.261  26.420  26.882  1.00  0.00     0.034 A 
ATOM     54  C   UNL A   1      43.889  29.039  33.154  1.00  0.00     0.049 A 
ATOM     55  C   UNL A   1      44.260  26.468  27.984  1.00  0.00     0.074 A 
ATOM     56  C   UNL A   1      44.232  30.374  33.094  1.00  0.00     0.029 A 
ATOM     57  N   UNL A   1      44.820  28.371  32.396  1.00  0.00    -0.354 N 
ATOM     58  N   UNL A   1      45.144  27.413  28.138  1.00  0.00    -0.248 NA
ATOM     59  C   UNL A   1      44.006  25.655  29.166  1.00  0.00     0.031 C 
ATOM     60  C   UNL A   1      45.078  30.491  31.956  1.00  0.00     0.029 A 
ATOM     61  C   UNL A   1      45.223  29.218  31.396  1.00  0.00     0.049 A 
ATOM     62  H   UNL A   1      45.140  27.452  32.544  1.00  0.00     0.167 HD
ATOM     63  C   UNL A   1      45.235  27.592  29.511  1.00  0.00     0.074 A 
ATOM     64  C   UNL A   1      44.593  26.417  30.092  1.00  0.00     0.031 C 
ATOM     65  C   UNL A   1      45.576  28.797  30.053  1.00  0.00     0.034 A 
BRANCH  52  66
ATOM     66  C   UNL A   1      42.712  27.185  34.527  1.00  0.00     0.023 A 
ATOM     67  C   UNL A   1      43.418  25.988  34.299  1.00  0.00     0.031 A 
ATOM     68  C   UNL A   1      42.182  27.348  35.818  1.00  0.00     0.131 A 
ATOM     69  C   UNL A   1      43.538  25.000  35.276  1.00  0.00     0.055 A 
ATOM     70  C   UNL A   1      42.370  26.395  36.827  1.00  0.00     0.041 A 
ATOM     71  F   UNL A   1      41.514  28.463  36.154  1.00  0.00    -0.206 F 
ATOM     72  C   UNL A   1      43.045  25.208  36.556  1.00  0.00     0.022 A 
BRANCH  69  73
ATOM     73  S   UNL A   1      44.345  23.427  34.871  1.00  0.00     0.124 S 
ATOM     74  O   UNL A   1      44.546  22.846  36.193  1.00  0.00    -0.237 OA
ATOM     75  O   UNL A   1      43.335  22.781  34.038  1.00  0.00    -0.237 OA
ATOM     76  O   UNL A   1      45.556  23.836  34.163  1.00  0.00    -0.744 OA
ENDBRANCH  69  73
ENDBRANCH  52  66
BRANCH  53  77
ATOM     77  C   UNL A   1      43.037  25.173  26.114  1.00  0.00     0.023 A 
ATOM     78  C   UNL A   1      42.036  24.277  26.529  1.00  0.00     0.031 A 
ATOM     79  C   UNL A   1      43.990  24.700  25.195  1.00  0.00     0.131 A 
ATOM     80  C   UNL A   1      42.034  22.952  26.074  1.00  0.00     0.055 A 
ATOM     81  C   UNL A   1      43.977  23.380  24.729  1.00  0.00     0.041 A 
ATOM     82  F   UNL A   1      44.997  25.491  24.791  1.00  0.00    -0.206 F 
ATOM     83  C   UNL A   1      43.003  22.495  25.180  1.00  0.00     0.022 A 
BRANCH  80  84
ATOM     84  S   UNL A   1      40.814  21.773  26.714  1.00  0.00     0.124 S 
ATOM     85  O   UNL A   1      41.003  21.887  28.158  1.00  0.00    -0.237 OA
ATOM     86  O   UNL A   1      39.567  22.325  26.195  1.00  0.00    -0.237 OA
ATOM     87  O   UNL A   1      41.235  20.499  26.137  1.00  0.00    -0.744 OA
ENDBRANCH  80  84
ENDBRANCH  53  77
BRANCH  65  88
ATOM     88  C   UNL A   1      46.112  29.882  29.148  1.00  0.00     0.023 A 
ATOM     89  C   UNL A   1      45.166  30.665  28.462  1.00  0.00     0.031 A 
ATOM     90  C   UNL A   1      47.459  29.991  28.755  1.00  0.00     0.131 A 
ATOM     91  C   UNL A   1      45.560  31.465  27.384  1.00  0.00     0.055 A 
ATOM     92  C   UNL A   1      47.859  30.855  27.730  1.00  0.00     0.041 A 
ATOM     93  F   UNL A   1      48.408  29.200  29.276  1.00  0.00    -0.206 F 
ATOM     94  C   UNL A   1      46.905  31.580  27.024  1.00  0.00     0.022 A 
BRANCH  91  95
ATOM     95  S   UNL A   1      44.315  32.228  26.313  1.00  0.00     0.124 S 
ATOM     96  O   UNL A   1      43.857  33.353  27.123  1.00  0.00    -0.237 OA
ATOM     97  O   UNL A   1      45.103  32.584  25.134  1.00  0.00    -0.237 OA
ATOM     98  O   UNL A   1      43.330  31.171  26.102  1.00  0.00    -0.744 OA
ENDBRANCH  91  95
ENDBRANCH  65  88
ENDBRANCH  39  40
ENDBRANCH  32  34
ENDBRANCH  31  32
ENDBRANCH  30  31
ENDBRANCH  29  30
ENDBRANCH   1  29
TORSDOF 20
ENDMDL
