MODEL 1
REMARK VINA RESULT:     -10.2      0.000      0.000
REMARK SMILES C=CCN(CC(=O)OCCOCCOC(=O)c1ccc(-c2c3nc(c(-c4cc(S(=O)(=O)[O-])ccc4F)c4ccc([nH]4)c(-c4cc(S(=O)(=O)[O-])ccc4F)c4nc(c(-c5cc(S(=O)(=O)[O-])ccc5F)c5ccc2[nH]5)C=C4)C=C3)cc1)C(=O)N1CC[C@@H]([NH+]2CCCCC2)C1
REMARK SMILES IDX 10 1 9 2 8 3 6 4 7 5 5 6 4 7 3 8 2 9 1 10 80 11 81 12 82 13
REMARK SMILES IDX 83 14 92 15 84 16 85 17 86 18 87 19 91 20 88 22 90 23 89 24
REMARK SMILES IDX 11 25 12 26 13 27 14 28 15 29 16 30 17 31 18 32 79 33 19 34
REMARK SMILES IDX 78 35 20 36 21 37 22 38 72 39 23 40 77 41 71 42 73 43 24 44
REMARK SMILES IDX 76 45 70 46 69 47 25 49 57 50 37 51 56 52 38 53 41 54 55 55
REMARK SMILES IDX 74 56 39 57 40 58 54 60 75 61 42 62 26 63 27 64 35 65 28 66
REMARK SMILES IDX 34 67 36 68 33 69 29 70 30 71 31 72 32 73 58 74 59 75 67 76
REMARK SMILES IDX 60 77 66 78 68 79 65 80 61 81 62 82 63 83 64 84 43 85 44 86
REMARK SMILES IDX 52 87 45 88 51 89 53 90 50 91 46 92 47 93 48 94 49 95
REMARK H PARENT 86 21 73 48 41 59
REMARK Flexibility Score: inf
ROOT
ATOM      1  C   UNL A   1      34.669  30.176  27.467  1.00  0.00     0.202 C 
ENDROOT
BRANCH   1   2
ATOM      2  C   UNL A   1      33.682  29.488  26.494  1.00  0.00     0.261 C 
BRANCH   2   3
ATOM      3  O   UNL A   1      33.025  28.341  27.102  1.00  0.00    -0.462 OA
BRANCH   3   4
ATOM      4  C   UNL A   1      31.860  27.920  26.531  1.00  0.00     0.325 C 
ATOM      5  O   UNL A   1      31.030  27.215  27.097  1.00  0.00    -0.250 OA
BRANCH   4   6
ATOM      6  C   UNL A   1      31.728  28.311  25.048  1.00  0.00     0.244 C 
BRANCH   6   7
ATOM      7  N   UNL A   1      30.794  27.595  24.160  1.00  0.00    -0.310 N 
BRANCH   7   8
ATOM      8  C   UNL A   1      30.526  28.254  22.871  1.00  0.00     0.149 C 
BRANCH   8   9
ATOM      9  C   UNL A   1      29.453  29.301  23.023  1.00  0.00    -0.013 C 
ATOM     10  C   UNL A   1      28.147  29.058  22.835  1.00  0.00     0.006 C 
ENDBRANCH   8   9
ENDBRANCH   7   8
BRANCH   7  11
ATOM     11  C   UNL A   1      30.228  26.341  24.323  1.00  0.00     0.321 C 
ATOM     12  O   UNL A   1      29.075  26.248  24.766  1.00  0.00    -0.248 OA
BRANCH  11  13
ATOM     13  N   UNL A   1      30.912  25.171  24.091  1.00  0.00    -0.318 N 
ATOM     14  C   UNL A   1      31.668  24.649  22.965  1.00  0.00     0.128 C 
ATOM     15  C   UNL A   1      31.002  24.210  25.209  1.00  0.00     0.186 C 
ATOM     16  C   UNL A   1      31.785  23.156  23.228  1.00  0.00     0.088 C 
ATOM     17  C   UNL A   1      31.898  23.025  24.753  1.00  0.00     0.205 C 
BRANCH  17  18
ATOM     18  N   UNL A   1      33.233  22.807  25.325  1.00  0.00    -0.331 N 
ATOM     19  C   UNL A   1      33.927  23.793  26.133  1.00  0.00     0.262 C 
ATOM     20  C   UNL A   1      34.153  21.912  24.629  1.00  0.00     0.262 C 
ATOM     21  H   UNL A   1      32.757  22.292  26.066  1.00  0.00     0.348 HD
ATOM     22  C   UNL A   1      34.940  24.601  25.321  1.00  0.00     0.062 C 
ATOM     23  C   UNL A   1      35.211  22.646  23.796  1.00  0.00     0.062 C 
ATOM     24  C   UNL A   1      35.939  23.713  24.601  1.00  0.00     0.012 C 
ENDBRANCH  17  18
ENDBRANCH  11  13
ENDBRANCH   7  11
ENDBRANCH   6   7
ENDBRANCH   4   6
ENDBRANCH   3   4
ENDBRANCH   2   3
ENDBRANCH   1   2
BRANCH   1  25
ATOM     25  O   UNL A   1      34.479  31.588  27.674  1.00  0.00    -0.374 OA
BRANCH  25  26
ATOM     26  C   UNL A   1      33.106  31.966  27.566  1.00  0.00     0.202 C 
BRANCH  26  27
ATOM     27  C   UNL A   1      32.821  33.454  27.494  1.00  0.00     0.261 C 
BRANCH  27  28
ATOM     28  O   UNL A   1      32.539  33.935  28.791  1.00  0.00    -0.460 OA
BRANCH  28  29
ATOM     29  C   UNL A   1      33.345  34.968  29.134  1.00  0.00     0.338 C 
ATOM     30  O   UNL A   1      33.081  36.143  29.197  1.00  0.00    -0.246 OA
BRANCH  29  31
ATOM     31  C   UNL A   1      34.524  34.318  29.706  1.00  0.00     0.060 A 
ATOM     32  C   UNL A   1      34.311  33.391  30.728  1.00  0.00     0.016 A 
ATOM     33  C   UNL A   1      35.788  34.546  29.151  1.00  0.00     0.016 A 
ATOM     34  C   UNL A   1      35.397  32.716  31.250  1.00  0.00     0.010 A 
ATOM     35  C   UNL A   1      36.868  33.854  29.656  1.00  0.00     0.010 A 
ATOM     36  C   UNL A   1      36.671  32.973  30.730  1.00  0.00    -0.014 A 
BRANCH  36  37
ATOM     37  C   UNL A   1      37.855  32.449  31.415  1.00  0.00     0.031 A 
ATOM     38  C   UNL A   1      38.559  31.292  30.781  1.00  0.00     0.074 A 
ATOM     39  C   UNL A   1      38.232  32.999  32.578  1.00  0.00     0.049 A 
ATOM     40  N   UNL A   1      39.559  30.590  31.231  1.00  0.00    -0.248 NA
ATOM     41  C   UNL A   1      38.050  30.853  29.468  1.00  0.00     0.031 C 
ATOM     42  C   UNL A   1      37.577  34.141  33.223  1.00  0.00     0.029 A 
ATOM     43  N   UNL A   1      39.243  32.663  33.429  1.00  0.00    -0.354 N 
ATOM     44  C   UNL A   1      39.804  29.631  30.257  1.00  0.00     0.074 A 
ATOM     45  C   UNL A   1      38.816  29.804  29.218  1.00  0.00     0.031 C 
ATOM     46  C   UNL A   1      38.205  34.404  34.380  1.00  0.00     0.029 A 
ATOM     47  C   UNL A   1      39.268  33.424  34.573  1.00  0.00     0.049 A 
ATOM     48  H   UNL A   1      39.892  31.947  33.242  1.00  0.00     0.167 HD
ATOM     49  C   UNL A   1      40.786  28.700  30.241  1.00  0.00     0.034 A 
ATOM     50  C   UNL A   1      40.053  33.302  35.659  1.00  0.00     0.034 A 
ATOM     51  C   UNL A   1      41.729  28.555  31.318  1.00  0.00     0.049 A 
ATOM     52  C   UNL A   1      41.091  32.205  35.647  1.00  0.00     0.074 A 
ATOM     53  C   UNL A   1      42.772  27.658  31.440  1.00  0.00     0.029 A 
ATOM     54  N   UNL A   1      41.728  29.330  32.475  1.00  0.00    -0.354 N 
ATOM     55  N   UNL A   1      41.342  31.315  34.710  1.00  0.00    -0.248 NA
ATOM     56  C   UNL A   1      41.956  32.102  36.825  1.00  0.00     0.031 C 
ATOM     57  C   UNL A   1      43.356  27.845  32.697  1.00  0.00     0.029 A 
ATOM     58  C   UNL A   1      42.732  28.911  33.329  1.00  0.00     0.049 A 
ATOM     59  H   UNL A   1      41.103  30.068  32.658  1.00  0.00     0.167 HD
ATOM     60  C   UNL A   1      42.411  30.560  35.179  1.00  0.00     0.074 A 
ATOM     61  C   UNL A   1      42.772  31.121  36.468  1.00  0.00     0.031 C 
ATOM     62  C   UNL A   1      43.042  29.499  34.611  1.00  0.00     0.034 A 
BRANCH  49  63
ATOM     63  C   UNL A   1      40.840  27.767  29.059  1.00  0.00     0.023 A 
ATOM     64  C   UNL A   1      41.773  27.944  28.020  1.00  0.00     0.031 A 
ATOM     65  C   UNL A   1      39.925  26.705  28.948  1.00  0.00     0.131 A 
ATOM     66  C   UNL A   1      41.732  27.112  26.891  1.00  0.00     0.055 A 
ATOM     67  C   UNL A   1      39.939  25.834  27.857  1.00  0.00     0.041 A 
ATOM     68  F   UNL A   1      38.991  26.508  29.890  1.00  0.00    -0.206 F 
ATOM     69  C   UNL A   1      40.838  26.041  26.815  1.00  0.00     0.022 A 
BRANCH  66  70
ATOM     70  S   UNL A   1      42.781  27.522  25.469  1.00  0.00     0.124 S 
ATOM     71  O   UNL A   1      44.019  27.935  26.126  1.00  0.00    -0.237 OA
ATOM     72  O   UNL A   1      42.835  26.258  24.742  1.00  0.00    -0.237 OA
ATOM     73  O   UNL A   1      42.049  28.595  24.800  1.00  0.00    -0.744 OA
ENDBRANCH  66  70
ENDBRANCH  49  63
BRANCH  50  74
ATOM     74  C   UNL A   1      39.874  34.198  36.834  1.00  0.00     0.023 A 
ATOM     75  C   UNL A   1      39.323  33.717  38.032  1.00  0.00     0.031 A 
ATOM     76  C   UNL A   1      40.205  35.564  36.765  1.00  0.00     0.131 A 
ATOM     77  C   UNL A   1      39.063  34.603  39.088  1.00  0.00     0.055 A 
ATOM     78  C   UNL A   1      40.001  36.429  37.841  1.00  0.00     0.041 A 
ATOM     79  F   UNL A   1      40.741  36.079  35.647  1.00  0.00    -0.206 F 
ATOM     80  C   UNL A   1      39.411  35.954  39.007  1.00  0.00     0.022 A 
BRANCH  77  81
ATOM     81  S   UNL A   1      38.157  33.984  40.531  1.00  0.00     0.124 S 
ATOM     82  O   UNL A   1      37.579  35.210  41.068  1.00  0.00    -0.237 OA
ATOM     83  O   UNL A   1      37.220  33.048  39.918  1.00  0.00    -0.237 OA
ATOM     84  O   UNL A   1      39.200  33.372  41.351  1.00  0.00    -0.744 OA
ENDBRANCH  77  81
ENDBRANCH  50  74
BRANCH  62  85
ATOM     85  C   UNL A   1      44.196  28.913  35.384  1.00  0.00     0.023 A 
ATOM     86  C   UNL A   1      43.996  27.919  36.355  1.00  0.00     0.031 A 
ATOM     87  C   UNL A   1      45.507  29.364  35.149  1.00  0.00     0.131 A 
ATOM     88  C   UNL A   1      45.084  27.453  37.104  1.00  0.00     0.055 A 
ATOM     89  C   UNL A   1      46.595  28.842  35.846  1.00  0.00     0.041 A 
ATOM     90  F   UNL A   1      45.750  30.314  34.231  1.00  0.00    -0.206 F 
ATOM     91  C   UNL A   1      46.384  27.892  36.842  1.00  0.00     0.022 A 
BRANCH  88  92
ATOM     92  S   UNL A   1      44.758  26.343  38.498  1.00  0.00     0.124 S 
ATOM     93  O   UNL A   1      45.154  25.048  37.953  1.00  0.00    -0.237 OA
ATOM     94  O   UNL A   1      45.622  26.886  39.541  1.00  0.00    -0.237 OA
ATOM     95  O   UNL A   1      43.325  26.504  38.736  1.00  0.00    -0.744 OA
ENDBRANCH  88  92
ENDBRANCH  62  85
ENDBRANCH  36  37
ENDBRANCH  29  31
ENDBRANCH  28  29
ENDBRANCH  27  28
ENDBRANCH  26  27
ENDBRANCH  25  26
ENDBRANCH   1  25
TORSDOF 23
ENDMDL
MODEL 2
REMARK VINA RESULT:      -9.9      5.857      9.835
REMARK SMILES C=CCN(CC(=O)OCCOCCOC(=O)c1ccc(-c2c3nc(c(-c4cc(S(=O)(=O)[O-])ccc4F)c4ccc([nH]4)c(-c4cc(S(=O)(=O)[O-])ccc4F)c4nc(c(-c5cc(S(=O)(=O)[O-])ccc5F)c5ccc2[nH]5)C=C4)C=C3)cc1)C(=O)N1CC[C@@H]([NH+]2CCCCC2)C1
REMARK SMILES IDX 10 1 9 2 8 3 6 4 7 5 5 6 4 7 3 8 2 9 1 10 80 11 81 12 82 13
REMARK SMILES IDX 83 14 92 15 84 16 85 17 86 18 87 19 91 20 88 22 90 23 89 24
REMARK SMILES IDX 11 25 12 26 13 27 14 28 15 29 16 30 17 31 18 32 79 33 19 34
REMARK SMILES IDX 78 35 20 36 21 37 22 38 72 39 23 40 77 41 71 42 73 43 24 44
REMARK SMILES IDX 76 45 70 46 69 47 25 49 57 50 37 51 56 52 38 53 41 54 55 55
REMARK SMILES IDX 74 56 39 57 40 58 54 60 75 61 42 62 26 63 27 64 35 65 28 66
REMARK SMILES IDX 34 67 36 68 33 69 29 70 30 71 31 72 32 73 58 74 59 75 67 76
REMARK SMILES IDX 60 77 66 78 68 79 65 80 61 81 62 82 63 83 64 84 43 85 44 86
REMARK SMILES IDX 52 87 45 88 51 89 53 90 50 91 46 92 47 93 48 94 49 95
REMARK H PARENT 86 21 73 48 41 59
REMARK Flexibility Score: inf
ROOT
ATOM      1  C   UNL A   1      38.373  22.984  25.863  1.00  0.00     0.202 C 
ENDROOT
BRANCH   1   2
ATOM      2  C   UNL A   1      36.889  23.334  26.128  1.00  0.00     0.261 C 
BRANCH   2   3
ATOM      3  O   UNL A   1      35.996  22.682  25.184  1.00  0.00    -0.462 OA
BRANCH   3   4
ATOM      4  C   UNL A   1      35.150  21.735  25.682  1.00  0.00     0.325 C 
ATOM      5  O   UNL A   1      34.851  21.632  26.868  1.00  0.00    -0.250 OA
BRANCH   4   6
ATOM      6  C   UNL A   1      34.686  20.713  24.628  1.00  0.00     0.244 C 
BRANCH   6   7
ATOM      7  N   UNL A   1      33.256  20.566  24.300  1.00  0.00    -0.310 N 
BRANCH   7   8
ATOM      8  C   UNL A   1      32.640  19.303  24.739  1.00  0.00     0.149 C 
BRANCH   8   9
ATOM      9  C   UNL A   1      32.815  18.234  23.692  1.00  0.00    -0.013 C 
ATOM     10  C   UNL A   1      33.590  17.151  23.858  1.00  0.00     0.006 C 
ENDBRANCH   8   9
ENDBRANCH   7   8
BRANCH   7  11
ATOM     11  C   UNL A   1      32.392  21.495  23.743  1.00  0.00     0.321 C 
ATOM     12  O   UNL A   1      32.102  21.409  22.542  1.00  0.00    -0.248 OA
BRANCH  11  13
ATOM     13  N   UNL A   1      31.890  22.568  24.440  1.00  0.00    -0.318 N 
ATOM     14  C   UNL A   1      31.464  22.771  25.814  1.00  0.00     0.128 C 
ATOM     15  C   UNL A   1      31.797  23.854  23.720  1.00  0.00     0.186 C 
ATOM     16  C   UNL A   1      30.640  24.049  25.786  1.00  0.00     0.088 C 
ATOM     17  C   UNL A   1      31.306  24.933  24.725  1.00  0.00     0.205 C 
BRANCH  17  18
ATOM     18  N   UNL A   1      32.191  26.011  25.187  1.00  0.00    -0.331 N 
ATOM     19  C   UNL A   1      31.725  27.157  25.946  1.00  0.00     0.262 C 
ATOM     20  C   UNL A   1      33.392  26.308  24.412  1.00  0.00     0.262 C 
ATOM     21  H   UNL A   1      32.433  25.389  25.959  1.00  0.00     0.348 HD
ATOM     22  C   UNL A   1      31.497  28.384  25.062  1.00  0.00     0.062 C 
ATOM     23  C   UNL A   1      33.248  27.535  23.503  1.00  0.00     0.062 C 
ATOM     24  C   UNL A   1      32.730  28.751  24.257  1.00  0.00     0.012 C 
ENDBRANCH  17  18
ENDBRANCH  11  13
ENDBRANCH   7  11
ENDBRANCH   6   7
ENDBRANCH   4   6
ENDBRANCH   3   4
ENDBRANCH   2   3
ENDBRANCH   1   2
BRANCH   1  25
ATOM     25  O   UNL A   1      38.857  21.768  26.462  1.00  0.00    -0.374 OA
BRANCH  25  26
ATOM     26  C   UNL A   1      38.913  20.693  25.524  1.00  0.00     0.202 C 
BRANCH  26  27
ATOM     27  C   UNL A   1      39.680  19.458  25.958  1.00  0.00     0.261 C 
BRANCH  27  28
ATOM     28  O   UNL A   1      40.971  19.491  25.387  1.00  0.00    -0.460 OA
BRANCH  28  29
ATOM     29  C   UNL A   1      41.941  19.548  26.329  1.00  0.00     0.338 C 
ATOM     30  O   UNL A   1      42.674  18.670  26.712  1.00  0.00    -0.246 OA
BRANCH  29  31
ATOM     31  C   UNL A   1      42.113  20.980  26.571  1.00  0.00     0.060 A 
ATOM     32  C   UNL A   1      42.191  21.812  25.452  1.00  0.00     0.016 A 
ATOM     33  C   UNL A   1      42.078  21.480  27.877  1.00  0.00     0.016 A 
ATOM     34  C   UNL A   1      42.294  23.176  25.645  1.00  0.00     0.010 A 
ATOM     35  C   UNL A   1      42.157  22.842  28.068  1.00  0.00     0.010 A 
ATOM     36  C   UNL A   1      42.305  23.679  26.952  1.00  0.00    -0.014 A 
BRANCH  36  37
ATOM     37  C   UNL A   1      42.644  25.085  27.185  1.00  0.00     0.031 A 
ATOM     38  C   UNL A   1      44.022  25.530  26.808  1.00  0.00     0.074 A 
ATOM     39  C   UNL A   1      41.732  25.891  27.746  1.00  0.00     0.049 A 
ATOM     40  N   UNL A   1      44.596  26.682  27.001  1.00  0.00    -0.248 NA
ATOM     41  C   UNL A   1      44.876  24.529  26.141  1.00  0.00     0.031 C 
ATOM     42  C   UNL A   1      40.370  25.496  28.116  1.00  0.00     0.029 A 
ATOM     43  N   UNL A   1      41.818  27.201  28.116  1.00  0.00    -0.354 N 
ATOM     44  C   UNL A   1      45.875  26.550  26.475  1.00  0.00     0.074 A 
ATOM     45  C   UNL A   1      46.013  25.191  26.005  1.00  0.00     0.031 C 
ATOM     46  C   UNL A   1      39.750  26.549  28.672  1.00  0.00     0.029 A 
ATOM     47  C   UNL A   1      40.684  27.667  28.736  1.00  0.00     0.049 A 
ATOM     48  H   UNL A   1      42.614  27.758  27.954  1.00  0.00     0.167 HD
ATOM     49  C   UNL A   1      46.836  27.498  26.388  1.00  0.00     0.034 A 
ATOM     50  C   UNL A   1      40.460  28.861  29.314  1.00  0.00     0.034 A 
ATOM     51  C   UNL A   1      46.652  28.832  26.897  1.00  0.00     0.049 A 
ATOM     52  C   UNL A   1      41.577  29.876  29.269  1.00  0.00     0.074 A 
ATOM     53  C   UNL A   1      47.535  29.894  26.881  1.00  0.00     0.029 A 
ATOM     54  N   UNL A   1      45.497  29.279  27.534  1.00  0.00    -0.354 N 
ATOM     55  N   UNL A   1      42.779  29.759  28.744  1.00  0.00    -0.248 NA
ATOM     56  C   UNL A   1      41.309  31.181  29.879  1.00  0.00     0.031 C 
ATOM     57  C   UNL A   1      46.941  30.958  27.567  1.00  0.00     0.029 A 
ATOM     58  C   UNL A   1      45.657  30.591  27.941  1.00  0.00     0.049 A 
ATOM     59  H   UNL A   1      44.686  28.740  27.673  1.00  0.00     0.167 HD
ATOM     60  C   UNL A   1      43.402  30.986  28.943  1.00  0.00     0.074 A 
ATOM     61  C   UNL A   1      42.430  31.833  29.608  1.00  0.00     0.031 C 
ATOM     62  C   UNL A   1      44.658  31.388  28.615  1.00  0.00     0.034 A 
BRANCH  49  63
ATOM     63  C   UNL A   1      48.151  27.101  25.768  1.00  0.00     0.023 A 
ATOM     64  C   UNL A   1      49.154  26.456  26.514  1.00  0.00     0.031 A 
ATOM     65  C   UNL A   1      48.423  27.402  24.422  1.00  0.00     0.131 A 
ATOM     66  C   UNL A   1      50.400  26.186  25.929  1.00  0.00     0.055 A 
ATOM     67  C   UNL A   1      49.638  27.063  23.824  1.00  0.00     0.041 A 
ATOM     68  F   UNL A   1      47.517  28.048  23.670  1.00  0.00    -0.206 F 
ATOM     69  C   UNL A   1      50.639  26.461  24.580  1.00  0.00     0.022 A 
BRANCH  66  70
ATOM     70  S   UNL A   1      51.746  25.581  26.985  1.00  0.00     0.124 S 
ATOM     71  O   UNL A   1      51.004  24.926  28.059  1.00  0.00    -0.237 OA
ATOM     72  O   UNL A   1      52.480  24.698  26.085  1.00  0.00    -0.237 OA
ATOM     73  O   UNL A   1      52.451  26.801  27.374  1.00  0.00    -0.744 OA
ENDBRANCH  66  70
ENDBRANCH  49  63
BRANCH  50  74
ATOM     74  C   UNL A   1      39.169  29.148  29.997  1.00  0.00     0.023 A 
ATOM     75  C   UNL A   1      38.176  29.916  29.372  1.00  0.00     0.031 A 
ATOM     76  C   UNL A   1      38.924  28.700  31.309  1.00  0.00     0.131 A 
ATOM     77  C   UNL A   1      37.013  30.265  30.075  1.00  0.00     0.055 A 
ATOM     78  C   UNL A   1      37.738  28.997  31.983  1.00  0.00     0.041 A 
ATOM     79  F   UNL A   1      39.835  27.955  31.955  1.00  0.00    -0.206 F 
ATOM     80  C   UNL A   1      36.780  29.800  31.372  1.00  0.00     0.022 A 
BRANCH  77  81
ATOM     81  S   UNL A   1      35.857  31.434  29.309  1.00  0.00     0.124 S 
ATOM     82  O   UNL A   1      36.768  32.411  28.724  1.00  0.00    -0.237 OA
ATOM     83  O   UNL A   1      35.144  30.577  28.368  1.00  0.00    -0.237 OA
ATOM     84  O   UNL A   1      35.063  31.915  30.438  1.00  0.00    -0.744 OA
ENDBRANCH  77  81
ENDBRANCH  50  74
BRANCH  62  85
ATOM     85  C   UNL A   1      45.017  32.811  28.955  1.00  0.00     0.023 A 
ATOM     86  C   UNL A   1      44.889  33.843  28.012  1.00  0.00     0.031 A 
ATOM     87  C   UNL A   1      45.500  33.132  30.236  1.00  0.00     0.131 A 
ATOM     88  C   UNL A   1      45.304  35.140  28.342  1.00  0.00     0.055 A 
ATOM     89  C   UNL A   1      45.841  34.439  30.582  1.00  0.00     0.041 A 
ATOM     90  F   UNL A   1      45.641  32.180  31.173  1.00  0.00    -0.206 F 
ATOM     91  C   UNL A   1      45.759  35.449  29.627  1.00  0.00     0.022 A 
BRANCH  88  92
ATOM     92  S   UNL A   1      45.339  36.393  27.034  1.00  0.00     0.124 S 
ATOM     93  O   UNL A   1      43.918  36.642  26.815  1.00  0.00    -0.237 OA
ATOM     94  O   UNL A   1      46.087  37.478  27.660  1.00  0.00    -0.237 OA
ATOM     95  O   UNL A   1      46.028  35.720  25.935  1.00  0.00    -0.744 OA
ENDBRANCH  88  92
ENDBRANCH  62  85
ENDBRANCH  36  37
ENDBRANCH  29  31
ENDBRANCH  28  29
ENDBRANCH  27  28
ENDBRANCH  26  27
ENDBRANCH  25  26
ENDBRANCH   1  25
TORSDOF 23
ENDMDL
MODEL 3
REMARK VINA RESULT:      -9.8      5.413      8.473
REMARK SMILES C=CCN(CC(=O)OCCOCCOC(=O)c1ccc(-c2c3nc(c(-c4cc(S(=O)(=O)[O-])ccc4F)c4ccc([nH]4)c(-c4cc(S(=O)(=O)[O-])ccc4F)c4nc(c(-c5cc(S(=O)(=O)[O-])ccc5F)c5ccc2[nH]5)C=C4)C=C3)cc1)C(=O)N1CC[C@@H]([NH+]2CCCCC2)C1
REMARK SMILES IDX 10 1 9 2 8 3 6 4 7 5 5 6 4 7 3 8 2 9 1 10 80 11 81 12 82 13
REMARK SMILES IDX 83 14 92 15 84 16 85 17 86 18 87 19 91 20 88 22 90 23 89 24
REMARK SMILES IDX 11 25 12 26 13 27 14 28 15 29 16 30 17 31 18 32 79 33 19 34
REMARK SMILES IDX 78 35 20 36 21 37 22 38 72 39 23 40 77 41 71 42 73 43 24 44
REMARK SMILES IDX 76 45 70 46 69 47 25 49 57 50 37 51 56 52 38 53 41 54 55 55
REMARK SMILES IDX 74 56 39 57 40 58 54 60 75 61 42 62 26 63 27 64 35 65 28 66
REMARK SMILES IDX 34 67 36 68 33 69 29 70 30 71 31 72 32 73 58 74 59 75 67 76
REMARK SMILES IDX 60 77 66 78 68 79 65 80 61 81 62 82 63 83 64 84 43 85 44 86
REMARK SMILES IDX 52 87 45 88 51 89 53 90 50 91 46 92 47 93 48 94 49 95
REMARK H PARENT 86 21 73 48 41 59
REMARK Flexibility Score: inf
ROOT
ATOM      1  C   UNL A   1      36.442  23.451  24.647  1.00  0.00     0.202 C 
ENDROOT
BRANCH   1   2
ATOM      2  C   UNL A   1      35.292  23.063  23.687  1.00  0.00     0.261 C 
BRANCH   2   3
ATOM      3  O   UNL A   1      34.902  24.168  22.826  1.00  0.00    -0.462 OA
BRANCH   3   4
ATOM      4  C   UNL A   1      33.746  24.025  22.117  1.00  0.00     0.325 C 
ATOM      5  O   UNL A   1      33.365  22.967  21.624  1.00  0.00    -0.250 OA
BRANCH   4   6
ATOM      6  C   UNL A   1      33.004  25.353  21.880  1.00  0.00     0.244 C 
BRANCH   6   7
ATOM      7  N   UNL A   1      33.010  26.412  22.906  1.00  0.00    -0.310 N 
BRANCH   7   8
ATOM      8  C   UNL A   1      32.731  27.769  22.407  1.00  0.00     0.149 C 
BRANCH   8   9
ATOM      9  C   UNL A   1      31.454  28.301  23.003  1.00  0.00    -0.013 C 
ATOM     10  C   UNL A   1      30.671  29.206  22.395  1.00  0.00     0.006 C 
ENDBRANCH   8   9
ENDBRANCH   7   8
BRANCH   7  11
ATOM     11  C   UNL A   1      33.125  26.289  24.281  1.00  0.00     0.321 C 
ATOM     12  O   UNL A   1      34.087  26.814  24.858  1.00  0.00    -0.248 OA
BRANCH  11  13
ATOM     13  N   UNL A   1      32.261  25.541  25.045  1.00  0.00    -0.318 N 
ATOM     14  C   UNL A   1      30.872  25.141  24.900  1.00  0.00     0.128 C 
ATOM     15  C   UNL A   1      32.810  24.916  26.266  1.00  0.00     0.186 C 
ATOM     16  C   UNL A   1      30.444  24.693  26.289  1.00  0.00     0.088 C 
ATOM     17  C   UNL A   1      31.691  24.046  26.904  1.00  0.00     0.205 C 
BRANCH  17  18
ATOM     18  N   UNL A   1      31.770  22.579  26.912  1.00  0.00    -0.331 N 
ATOM     19  C   UNL A   1      32.768  21.836  27.659  1.00  0.00     0.262 C 
ATOM     20  C   UNL A   1      31.297  21.849  25.739  1.00  0.00     0.262 C 
ATOM     21  H   UNL A   1      31.029  22.610  27.611  1.00  0.00     0.348 HD
ATOM     22  C   UNL A   1      33.950  21.410  26.786  1.00  0.00     0.062 C 
ATOM     23  C   UNL A   1      32.425  21.377  24.813  1.00  0.00     0.062 C 
ATOM     24  C   UNL A   1      33.509  20.620  25.567  1.00  0.00     0.012 C 
ENDBRANCH  17  18
ENDBRANCH  11  13
ENDBRANCH   7  11
ENDBRANCH   6   7
ENDBRANCH   4   6
ENDBRANCH   3   4
ENDBRANCH   2   3
ENDBRANCH   1   2
BRANCH   1  25
ATOM     25  O   UNL A   1      36.870  22.433  25.571  1.00  0.00    -0.374 OA
BRANCH  25  26
ATOM     26  C   UNL A   1      37.501  21.337  24.908  1.00  0.00     0.202 C 
BRANCH  26  27
ATOM     27  C   UNL A   1      38.518  20.555  25.717  1.00  0.00     0.261 C 
BRANCH  27  28
ATOM     28  O   UNL A   1      39.735  21.272  25.748  1.00  0.00    -0.460 OA
BRANCH  28  29
ATOM     29  C   UNL A   1      40.336  21.198  26.958  1.00  0.00     0.338 C 
ATOM     30  O   UNL A   1      40.757  20.226  27.534  1.00  0.00    -0.246 OA
BRANCH  29  31
ATOM     31  C   UNL A   1      40.638  22.591  27.285  1.00  0.00     0.060 A 
ATOM     32  C   UNL A   1      40.016  23.577  26.519  1.00  0.00     0.016 A 
ATOM     33  C   UNL A   1      41.428  22.894  28.400  1.00  0.00     0.016 A 
ATOM     34  C   UNL A   1      40.233  24.904  26.839  1.00  0.00     0.010 A 
ATOM     35  C   UNL A   1      41.626  24.216  28.733  1.00  0.00     0.010 A 
ATOM     36  C   UNL A   1      41.059  25.214  27.926  1.00  0.00    -0.014 A 
BRANCH  36  37
ATOM     37  C   UNL A   1      41.488  26.598  28.140  1.00  0.00     0.031 A 
ATOM     38  C   UNL A   1      42.885  26.953  27.740  1.00  0.00     0.074 A 
ATOM     39  C   UNL A   1      40.635  27.465  28.703  1.00  0.00     0.049 A 
ATOM     40  N   UNL A   1      43.531  28.070  27.913  1.00  0.00    -0.248 NA
ATOM     41  C   UNL A   1      43.666  25.895  27.073  1.00  0.00     0.031 C 
ATOM     42  C   UNL A   1      39.256  27.158  29.095  1.00  0.00     0.029 A 
ATOM     43  N   UNL A   1      40.806  28.771  29.058  1.00  0.00    -0.354 N 
ATOM     44  C   UNL A   1      44.792  27.854  27.372  1.00  0.00     0.074 A 
ATOM     45  C   UNL A   1      44.840  26.484  26.915  1.00  0.00     0.031 C 
ATOM     46  C   UNL A   1      38.709  28.254  29.647  1.00  0.00     0.029 A 
ATOM     47  C   UNL A   1      39.712  29.312  29.687  1.00  0.00     0.049 A 
ATOM     48  H   UNL A   1      41.633  29.276  28.880  1.00  0.00     0.167 HD
ATOM     49  C   UNL A   1      45.809  28.740  27.262  1.00  0.00     0.034 A 
ATOM     50  C   UNL A   1      39.570  30.524  30.255  1.00  0.00     0.034 A 
ATOM     51  C   UNL A   1      45.715  30.087  27.760  1.00  0.00     0.049 A 
ATOM     52  C   UNL A   1      40.747  31.467  30.185  1.00  0.00     0.074 A 
ATOM     53  C   UNL A   1      46.661  31.092  27.720  1.00  0.00     0.029 A 
ATOM     54  N   UNL A   1      44.599  30.611  28.406  1.00  0.00    -0.354 N 
ATOM     55  N   UNL A   1      41.932  31.271  29.646  1.00  0.00    -0.248 NA
ATOM     56  C   UNL A   1      40.568  32.792  30.784  1.00  0.00     0.031 C 
ATOM     57  C   UNL A   1      46.144  32.198  28.402  1.00  0.00     0.029 A 
ATOM     58  C   UNL A   1      44.844  31.915  28.797  1.00  0.00     0.049 A 
ATOM     59  H   UNL A   1      43.758  30.125  28.561  1.00  0.00     0.167 HD
ATOM     60  C   UNL A   1      42.631  32.459  29.823  1.00  0.00     0.074 A 
ATOM     61  C   UNL A   1      41.723  33.371  30.492  1.00  0.00     0.031 C 
ATOM     62  C   UNL A   1      43.905  32.779  29.475  1.00  0.00     0.034 A 
BRANCH  49  63
ATOM     63  C   UNL A   1      47.088  28.256  26.630  1.00  0.00     0.023 A 
ATOM     64  C   UNL A   1      47.260  28.232  25.234  1.00  0.00     0.031 A 
ATOM     65  C   UNL A   1      48.140  27.778  27.431  1.00  0.00     0.131 A 
ATOM     66  C   UNL A   1      48.428  27.687  24.680  1.00  0.00     0.055 A 
ATOM     67  C   UNL A   1      49.331  27.306  26.875  1.00  0.00     0.041 A 
ATOM     68  F   UNL A   1      48.021  27.744  28.767  1.00  0.00    -0.206 F 
ATOM     69  C   UNL A   1      49.477  27.249  25.492  1.00  0.00     0.022 A 
BRANCH  66  70
ATOM     70  S   UNL A   1      48.509  27.446  22.884  1.00  0.00     0.124 S 
ATOM     71  O   UNL A   1      47.390  28.265  22.426  1.00  0.00    -0.237 OA
ATOM     72  O   UNL A   1      49.841  27.946  22.559  1.00  0.00    -0.237 OA
ATOM     73  O   UNL A   1      48.328  26.005  22.722  1.00  0.00    -0.744 OA
ENDBRANCH  66  70
ENDBRANCH  49  63
BRANCH  50  74
ATOM     74  C   UNL A   1      38.308  30.896  30.952  1.00  0.00     0.023 A 
ATOM     75  C   UNL A   1      37.304  31.619  30.290  1.00  0.00     0.031 A 
ATOM     76  C   UNL A   1      38.104  30.579  32.308  1.00  0.00     0.131 A 
ATOM     77  C   UNL A   1      36.172  32.054  30.997  1.00  0.00     0.055 A 
ATOM     78  C   UNL A   1      36.947  30.960  32.991  1.00  0.00     0.041 A 
ATOM     79  F   UNL A   1      39.027  29.883  32.991  1.00  0.00    -0.206 F 
ATOM     80  C   UNL A   1      35.980  31.718  32.340  1.00  0.00     0.022 A 
BRANCH  77  81
ATOM     81  S   UNL A   1      35.006  33.164  30.163  1.00  0.00     0.124 S 
ATOM     82  O   UNL A   1      35.895  34.206  29.662  1.00  0.00    -0.237 OA
ATOM     83  O   UNL A   1      34.419  32.283  29.159  1.00  0.00    -0.237 OA
ATOM     84  O   UNL A   1      34.103  33.576  31.236  1.00  0.00    -0.744 OA
ENDBRANCH  77  81
ENDBRANCH  50  74
BRANCH  62  85
ATOM     85  C   UNL A   1      44.356  34.180  29.795  1.00  0.00     0.023 A 
ATOM     86  C   UNL A   1      44.186  35.231  28.880  1.00  0.00     0.031 A 
ATOM     87  C   UNL A   1      44.971  34.462  31.028  1.00  0.00     0.131 A 
ATOM     88  C   UNL A   1      44.685  36.504  29.183  1.00  0.00     0.055 A 
ATOM     89  C   UNL A   1      45.399  35.748  31.354  1.00  0.00     0.041 A 
ATOM     90  F   UNL A   1      45.158  33.491  31.938  1.00  0.00    -0.206 F 
ATOM     91  C   UNL A   1      45.271  36.774  30.422  1.00  0.00     0.022 A 
BRANCH  88  92
ATOM     92  S   UNL A   1      44.651  37.774  27.891  1.00  0.00     0.124 S 
ATOM     93  O   UNL A   1      45.011  38.975  28.639  1.00  0.00    -0.237 OA
ATOM     94  O   UNL A   1      45.652  37.288  26.948  1.00  0.00    -0.237 OA
ATOM     95  O   UNL A   1      43.273  37.733  27.408  1.00  0.00    -0.744 OA
ENDBRANCH  88  92
ENDBRANCH  62  85
ENDBRANCH  36  37
ENDBRANCH  29  31
ENDBRANCH  28  29
ENDBRANCH  27  28
ENDBRANCH  26  27
ENDBRANCH  25  26
ENDBRANCH   1  25
TORSDOF 23
ENDMDL
