MODEL 1
REMARK VINA RESULT:     -12.0      0.000      0.000
REMARK SMILES O=C(OCCOCCOC(=O)[C@H]1CC=CC[C@@H]1C(=O)N[C@@H]1CCCN(c2ccccc2F)C1=O)c1ccc(-c2c3nc(c(-c4cc(S(=O)(=O)[O-])ccc4F)c4ccc([nH]4)c(-c4cc(S(=O)(=O)[O-])ccc4F)c4nc(c(-c5cc(S(=O)(=O)[O-])ccc5F)c5ccc2[nH]5)C=C4)C=C3)cc1
REMARK SMILES IDX 6 1 5 2 4 3 3 4 2 5 1 6 35 7 36 8 97 9 37 10 96 11 38 12
REMARK SMILES IDX 39 13 40 14 90 15 41 16 95 17 89 18 91 19 42 20 94 21 88 22
REMARK SMILES IDX 87 23 43 25 75 26 55 27 74 28 56 29 59 30 73 31 92 32 57 33
REMARK SMILES IDX 58 34 72 36 93 37 60 38 44 39 45 40 53 41 46 42 52 43 54 44
REMARK SMILES IDX 51 45 47 46 48 47 49 48 50 49 76 50 77 51 85 52 78 53 84 54
REMARK SMILES IDX 86 55 83 56 79 57 80 58 81 59 82 60 61 61 62 62 70 63 63 64
REMARK SMILES IDX 69 65 71 66 68 67 64 68 65 69 66 70 67 71 7 72 8 73 9 74
REMARK SMILES IDX 10 75 11 76 12 77 13 78 17 79 14 80 16 81 15 82 18 83 19 84
REMARK SMILES IDX 20 85 21 87 22 88 33 89 23 90 25 91 34 92 24 93 26 94 27 95
REMARK SMILES IDX 31 96 28 97 30 98 32 99 29 100
REMARK H PARENT 91 24 59 35 20 86
REMARK Flexibility Score: inf
ROOT
ATOM      1  O   UNL A   1      32.979  29.626  27.255  1.00  0.00    -0.374 OA
ENDROOT
BRANCH   1   2
ATOM      2  C   UNL A   1      32.990  30.959  26.758  1.00  0.00     0.202 C 
BRANCH   2   3
ATOM      3  C   UNL A   1      33.781  31.984  27.568  1.00  0.00     0.261 C 
BRANCH   3   4
ATOM      4  O   UNL A   1      33.015  33.186  27.808  1.00  0.00    -0.460 OA
BRANCH   4   5
ATOM      5  C   UNL A   1      33.387  34.181  28.667  1.00  0.00     0.338 C 
ATOM      6  O   UNL A   1      32.809  35.250  28.711  1.00  0.00    -0.246 OA
BRANCH   5   7
ATOM      7  C   UNL A   1      34.511  33.889  29.578  1.00  0.00     0.060 A 
ATOM      8  C   UNL A   1      35.757  34.419  29.295  1.00  0.00     0.016 A 
ATOM      9  C   UNL A   1      34.366  32.992  30.631  1.00  0.00     0.016 A 
ATOM     10  C   UNL A   1      36.885  33.807  29.782  1.00  0.00     0.010 A 
ATOM     11  C   UNL A   1      35.508  32.586  31.330  1.00  0.00     0.010 A 
ATOM     12  C   UNL A   1      36.789  32.948  30.870  1.00  0.00    -0.014 A 
BRANCH  12  13
ATOM     13  C   UNL A   1      38.043  32.446  31.482  1.00  0.00     0.031 A 
ATOM     14  C   UNL A   1      38.831  31.387  30.773  1.00  0.00     0.074 A 
ATOM     15  C   UNL A   1      38.505  33.004  32.623  1.00  0.00     0.049 A 
ATOM     16  N   UNL A   1      39.785  30.627  31.234  1.00  0.00    -0.248 NA
ATOM     17  C   UNL A   1      38.480  31.125  29.367  1.00  0.00     0.031 C 
ATOM     18  C   UNL A   1      37.880  34.125  33.340  1.00  0.00     0.029 A 
ATOM     19  N   UNL A   1      39.632  32.752  33.359  1.00  0.00    -0.354 N 
ATOM     20  C   UNL A   1      40.079  29.732  30.213  1.00  0.00     0.074 A 
ATOM     21  C   UNL A   1      39.219  30.058  29.098  1.00  0.00     0.031 C 
ATOM     22  C   UNL A   1      38.691  34.542  34.318  1.00  0.00     0.029 A 
ATOM     23  C   UNL A   1      39.787  33.597  34.435  1.00  0.00     0.049 A 
ATOM     24  H   UNL A   1      40.270  32.035  33.141  1.00  0.00     0.167 HD
ATOM     25  C   UNL A   1      40.976  28.717  30.239  1.00  0.00     0.034 A 
ATOM     26  C   UNL A   1      40.659  33.565  35.460  1.00  0.00     0.034 A 
ATOM     27  C   UNL A   1      41.840  28.482  31.367  1.00  0.00     0.049 A 
ATOM     28  C   UNL A   1      41.598  32.399  35.508  1.00  0.00     0.074 A 
ATOM     29  C   UNL A   1      42.747  27.461  31.570  1.00  0.00     0.029 A 
ATOM     30  N   UNL A   1      41.909  29.309  32.485  1.00  0.00    -0.354 N 
ATOM     31  N   UNL A   1      41.749  31.436  34.627  1.00  0.00    -0.248 NA
ATOM     32  C   UNL A   1      42.438  32.271  36.702  1.00  0.00     0.031 C 
ATOM     33  C   UNL A   1      43.329  27.645  32.830  1.00  0.00     0.029 A 
ATOM     34  C   UNL A   1      42.833  28.817  33.386  1.00  0.00     0.049 A 
ATOM     35  H   UNL A   1      41.376  30.127  32.615  1.00  0.00     0.167 HD
ATOM     36  C   UNL A   1      42.699  30.580  35.159  1.00  0.00     0.074 A 
ATOM     37  C   UNL A   1      43.097  31.149  36.435  1.00  0.00     0.031 C 
ATOM     38  C   UNL A   1      43.195  29.427  34.645  1.00  0.00     0.034 A 
BRANCH  25  39
ATOM     39  C   UNL A   1      40.966  27.758  29.076  1.00  0.00     0.023 A 
ATOM     40  C   UNL A   1      41.899  27.834  28.029  1.00  0.00     0.031 A 
ATOM     41  C   UNL A   1      39.938  26.801  28.974  1.00  0.00     0.131 A 
ATOM     42  C   UNL A   1      41.739  27.028  26.890  1.00  0.00     0.055 A 
ATOM     43  C   UNL A   1      39.831  25.947  27.874  1.00  0.00     0.041 A 
ATOM     44  F   UNL A   1      39.000  26.701  29.928  1.00  0.00    -0.206 F 
ATOM     45  C   UNL A   1      40.725  26.070  26.815  1.00  0.00     0.022 A 
BRANCH  42  46
ATOM     46  S   UNL A   1      42.786  27.348  25.444  1.00  0.00     0.124 S 
ATOM     47  O   UNL A   1      42.746  26.054  24.764  1.00  0.00    -0.237 OA
ATOM     48  O   UNL A   1      42.084  28.439  24.778  1.00  0.00    -0.237 OA
ATOM     49  O   UNL A   1      44.079  27.701  26.026  1.00  0.00    -0.744 OA
ENDBRANCH  42  46
ENDBRANCH  25  39
BRANCH  26  50
ATOM     50  C   UNL A   1      40.577  34.586  36.544  1.00  0.00     0.023 A 
ATOM     51  C   UNL A   1      39.931  34.308  37.757  1.00  0.00     0.031 A 
ATOM     52  C   UNL A   1      41.216  35.836  36.412  1.00  0.00     0.131 A 
ATOM     53  C   UNL A   1      39.948  35.259  38.793  1.00  0.00     0.055 A 
ATOM     54  C   UNL A   1      41.268  36.759  37.457  1.00  0.00     0.041 A 
ATOM     55  F   UNL A   1      41.859  36.152  35.276  1.00  0.00    -0.206 F 
ATOM     56  C   UNL A   1      40.629  36.472  38.657  1.00  0.00     0.022 A 
BRANCH  53  57
ATOM     57  S   UNL A   1      39.067  34.892  40.336  1.00  0.00     0.124 S 
ATOM     58  O   UNL A   1      40.131  34.327  41.158  1.00  0.00    -0.237 OA
ATOM     59  O   UNL A   1      38.578  36.209  40.732  1.00  0.00    -0.237 OA
ATOM     60  O   UNL A   1      38.031  33.948  39.921  1.00  0.00    -0.744 OA
ENDBRANCH  53  57
ENDBRANCH  26  50
BRANCH  38  61
ATOM     61  C   UNL A   1      44.254  28.734  35.447  1.00  0.00     0.023 A 
ATOM     62  C   UNL A   1      43.930  27.717  36.357  1.00  0.00     0.031 A 
ATOM     63  C   UNL A   1      45.607  29.044  35.229  1.00  0.00     0.131 A 
ATOM     64  C   UNL A   1      44.957  27.045  37.031  1.00  0.00     0.055 A 
ATOM     65  C   UNL A   1      46.624  28.343  35.870  1.00  0.00     0.041 A 
ATOM     66  F   UNL A   1      45.953  30.009  34.362  1.00  0.00    -0.206 F 
ATOM     67  C   UNL A   1      46.302  27.337  36.777  1.00  0.00     0.022 A 
BRANCH  64  68
ATOM     68  S   UNL A   1      44.516  25.779  38.249  1.00  0.00     0.124 S 
ATOM     69  O   UNL A   1      45.660  24.876  38.170  1.00  0.00    -0.237 OA
ATOM     70  O   UNL A   1      44.397  26.550  39.483  1.00  0.00    -0.237 OA
ATOM     71  O   UNL A   1      43.259  25.236  37.737  1.00  0.00    -0.744 OA
ENDBRANCH  64  68
ENDBRANCH  38  61
ENDBRANCH  12  13
ENDBRANCH   5   7
ENDBRANCH   4   5
ENDBRANCH   3   4
ENDBRANCH   2   3
ENDBRANCH   1   2
BRANCH   1  72
ATOM     72  C   UNL A   1      31.712  28.958  27.206  1.00  0.00     0.202 C 
BRANCH  72  73
ATOM     73  C   UNL A   1      31.934  27.455  27.296  1.00  0.00     0.261 C 
BRANCH  73  74
ATOM     74  O   UNL A   1      30.870  26.828  26.556  1.00  0.00    -0.463 OA
BRANCH  74  75
ATOM     75  C   UNL A   1      31.289  25.767  25.826  1.00  0.00     0.310 C 
ATOM     76  O   UNL A   1      31.411  24.627  26.266  1.00  0.00    -0.252 OA
BRANCH  75  77
ATOM     77  C   UNL A   1      31.661  26.102  24.394  1.00  0.00     0.115 C 
ATOM     78  C   UNL A   1      30.575  26.945  23.711  1.00  0.00     0.043 C 
ATOM     79  C   UNL A   1      33.125  26.348  24.003  1.00  0.00     0.097 C 
ATOM     80  C   UNL A   1      31.065  28.158  23.000  1.00  0.00    -0.030 C 
ATOM     81  C   UNL A   1      33.419  27.850  23.770  1.00  0.00     0.041 C 
ATOM     82  C   UNL A   1      32.332  28.578  23.041  1.00  0.00    -0.030 C 
BRANCH  79  83
ATOM     83  C   UNL A   1      33.754  25.545  22.817  1.00  0.00     0.224 C 
ATOM     84  O   UNL A   1      33.807  26.092  21.704  1.00  0.00    -0.275 OA
ATOM     85  N   UNL A   1      34.333  24.313  22.871  1.00  0.00    -0.344 N 
ATOM     86  H   UNL A   1      34.654  23.990  21.998  1.00  0.00     0.164 HD
BRANCH  85  87
ATOM     87  C   UNL A   1      34.574  23.378  23.965  1.00  0.00     0.172 C 
ATOM     88  C   UNL A   1      36.077  23.112  24.125  1.00  0.00     0.037 C 
ATOM     89  C   UNL A   1      33.905  21.988  23.941  1.00  0.00     0.249 C 
ATOM     90  C   UNL A   1      36.262  22.705  25.576  1.00  0.00     0.025 C 
ATOM     91  N   UNL A   1      34.379  21.123  24.951  1.00  0.00    -0.308 N 
ATOM     92  O   UNL A   1      32.977  21.741  23.173  1.00  0.00    -0.272 OA
ATOM     93  C   UNL A   1      35.568  21.386  25.803  1.00  0.00     0.126 C 
BRANCH  91  94
ATOM     94  C   UNL A   1      34.045  19.739  24.954  1.00  0.00     0.080 A 
ATOM     95  C   UNL A   1      35.020  18.815  24.545  1.00  0.00     0.029 A 
ATOM     96  C   UNL A   1      32.702  19.351  24.972  1.00  0.00     0.146 A 
ATOM     97  C   UNL A   1      34.647  17.553  24.088  1.00  0.00     0.002 A 
ATOM     98  C   UNL A   1      32.329  18.091  24.512  1.00  0.00     0.041 A 
ATOM     99  F   UNL A   1      31.732  20.239  25.241  1.00  0.00    -0.205 F 
ATOM    100  C   UNL A   1      33.299  17.201  24.049  1.00  0.00     0.003 A 
ENDBRANCH  91  94
ENDBRANCH  85  87
ENDBRANCH  79  83
ENDBRANCH  75  77
ENDBRANCH  74  75
ENDBRANCH  73  74
ENDBRANCH  72  73
ENDBRANCH   1  72
TORSDOF 20
ENDMDL
MODEL 2
REMARK VINA RESULT:     -11.9      5.515      9.217
REMARK SMILES O=C(OCCOCCOC(=O)[C@H]1CC=CC[C@@H]1C(=O)N[C@@H]1CCCN(c2ccccc2F)C1=O)c1ccc(-c2c3nc(c(-c4cc(S(=O)(=O)[O-])ccc4F)c4ccc([nH]4)c(-c4cc(S(=O)(=O)[O-])ccc4F)c4nc(c(-c5cc(S(=O)(=O)[O-])ccc5F)c5ccc2[nH]5)C=C4)C=C3)cc1
REMARK SMILES IDX 6 1 5 2 4 3 3 4 2 5 1 6 35 7 36 8 97 9 37 10 96 11 38 12
REMARK SMILES IDX 39 13 40 14 90 15 41 16 95 17 89 18 91 19 42 20 94 21 88 22
REMARK SMILES IDX 87 23 43 25 75 26 55 27 74 28 56 29 59 30 73 31 92 32 57 33
REMARK SMILES IDX 58 34 72 36 93 37 60 38 44 39 45 40 53 41 46 42 52 43 54 44
REMARK SMILES IDX 51 45 47 46 48 47 49 48 50 49 76 50 77 51 85 52 78 53 84 54
REMARK SMILES IDX 86 55 83 56 79 57 80 58 81 59 82 60 61 61 62 62 70 63 63 64
REMARK SMILES IDX 69 65 71 66 68 67 64 68 65 69 66 70 67 71 7 72 8 73 9 74
REMARK SMILES IDX 10 75 11 76 12 77 13 78 17 79 14 80 16 81 15 82 18 83 19 84
REMARK SMILES IDX 20 85 21 87 22 88 33 89 23 90 25 91 34 92 24 93 26 94 27 95
REMARK SMILES IDX 31 96 28 97 30 98 32 99 29 100
REMARK H PARENT 91 24 59 35 20 86
REMARK Flexibility Score: inf
ROOT
ATOM      1  O   UNL A   1      36.139  19.550  25.107  1.00  0.00    -0.374 OA
ENDROOT
BRANCH   1   2
ATOM      2  C   UNL A   1      37.240  20.213  24.498  1.00  0.00     0.202 C 
BRANCH   2   3
ATOM      3  C   UNL A   1      38.032  21.175  25.380  1.00  0.00     0.261 C 
BRANCH   3   4
ATOM      4  O   UNL A   1      38.842  20.471  26.349  1.00  0.00    -0.460 OA
BRANCH   4   5
ATOM      5  C   UNL A   1      40.157  20.744  26.602  1.00  0.00     0.338 C 
ATOM      6  O   UNL A   1      41.041  19.939  26.381  1.00  0.00    -0.246 OA
BRANCH   5   7
ATOM      7  C   UNL A   1      40.468  22.087  27.128  1.00  0.00     0.060 A 
ATOM      8  C   UNL A   1      39.740  23.171  26.670  1.00  0.00     0.016 A 
ATOM      9  C   UNL A   1      41.558  22.293  27.967  1.00  0.00     0.016 A 
ATOM     10  C   UNL A   1      40.284  24.430  26.725  1.00  0.00     0.010 A 
ATOM     11  C   UNL A   1      41.938  23.607  28.265  1.00  0.00     0.010 A 
ATOM     12  C   UNL A   1      41.337  24.689  27.595  1.00  0.00    -0.014 A 
BRANCH  12  13
ATOM     13  C   UNL A   1      41.780  26.095  27.762  1.00  0.00     0.031 A 
ATOM     14  C   UNL A   1      43.053  26.543  27.112  1.00  0.00     0.074 A 
ATOM     15  C   UNL A   1      40.994  26.975  28.423  1.00  0.00     0.049 A 
ATOM     16  N   UNL A   1      43.755  27.618  27.338  1.00  0.00    -0.248 NA
ATOM     17  C   UNL A   1      43.632  25.649  26.094  1.00  0.00     0.031 C 
ATOM     18  C   UNL A   1      39.674  26.677  28.997  1.00  0.00     0.029 A 
ATOM     19  N   UNL A   1      41.154  28.310  28.681  1.00  0.00    -0.354 N 
ATOM     20  C   UNL A   1      44.905  27.484  26.568  1.00  0.00     0.074 A 
ATOM     21  C   UNL A   1      44.796  26.234  25.851  1.00  0.00     0.031 C 
ATOM     22  C   UNL A   1      39.098  27.810  29.413  1.00  0.00     0.029 A 
ATOM     23  C   UNL A   1      40.079  28.876  29.331  1.00  0.00     0.049 A 
ATOM     24  H   UNL A   1      41.958  28.816  28.428  1.00  0.00     0.167 HD
ATOM     25  C   UNL A   1      45.958  28.333  26.505  1.00  0.00     0.034 A 
ATOM     26  C   UNL A   1      39.930  30.093  29.885  1.00  0.00     0.034 A 
ATOM     27  C   UNL A   1      45.977  29.590  27.208  1.00  0.00     0.049 A 
ATOM     28  C   UNL A   1      41.128  30.994  29.865  1.00  0.00     0.074 A 
ATOM     29  C   UNL A   1      46.992  30.522  27.298  1.00  0.00     0.029 A 
ATOM     30  N   UNL A   1      44.902  30.096  27.934  1.00  0.00    -0.354 N 
ATOM     31  N   UNL A   1      42.293  30.788  29.295  1.00  0.00    -0.248 NA
ATOM     32  C   UNL A   1      41.024  32.254  30.607  1.00  0.00     0.031 C 
ATOM     33  C   UNL A   1      46.548  31.567  28.116  1.00  0.00     0.029 A 
ATOM     34  C   UNL A   1      45.232  31.320  28.484  1.00  0.00     0.049 A 
ATOM     35  H   UNL A   1      44.032  29.647  28.040  1.00  0.00     0.167 HD
ATOM     36  C   UNL A   1      43.070  31.891  29.610  1.00  0.00     0.074 A 
ATOM     37  C   UNL A   1      42.233  32.768  30.412  1.00  0.00     0.031 C 
ATOM     38  C   UNL A   1      44.357  32.156  29.274  1.00  0.00     0.034 A 
BRANCH  25  39
ATOM     39  C   UNL A   1      47.178  27.865  25.752  1.00  0.00     0.023 A 
ATOM     40  C   UNL A   1      47.364  28.126  24.385  1.00  0.00     0.031 A 
ATOM     41  C   UNL A   1      48.131  27.061  26.405  1.00  0.00     0.131 A 
ATOM     42  C   UNL A   1      48.429  27.522  23.697  1.00  0.00     0.055 A 
ATOM     43  C   UNL A   1      49.232  26.527  25.733  1.00  0.00     0.041 A 
ATOM     44  F   UNL A   1      47.990  26.752  27.704  1.00  0.00    -0.206 F 
ATOM     45  C   UNL A   1      49.377  26.743  24.366  1.00  0.00     0.022 A 
BRANCH  42  46
ATOM     46  S   UNL A   1      48.480  27.648  21.888  1.00  0.00     0.124 S 
ATOM     47  O   UNL A   1      49.619  28.542  21.691  1.00  0.00    -0.237 OA
ATOM     48  O   UNL A   1      48.680  26.262  21.479  1.00  0.00    -0.237 OA
ATOM     49  O   UNL A   1      47.179  28.218  21.546  1.00  0.00    -0.744 OA
ENDBRANCH  42  46
ENDBRANCH  25  39
BRANCH  26  50
ATOM     50  C   UNL A   1      38.663  30.444  30.589  1.00  0.00     0.023 A 
ATOM     51  C   UNL A   1      37.651  31.170  29.944  1.00  0.00     0.031 A 
ATOM     52  C   UNL A   1      38.410  29.988  31.899  1.00  0.00     0.131 A 
ATOM     53  C   UNL A   1      36.432  31.408  30.603  1.00  0.00     0.055 A 
ATOM     54  C   UNL A   1      37.184  30.188  32.533  1.00  0.00     0.041 A 
ATOM     55  F   UNL A   1      39.340  29.278  32.560  1.00  0.00    -0.206 F 
ATOM     56  C   UNL A   1      36.186  30.905  31.884  1.00  0.00     0.022 A 
BRANCH  53  57
ATOM     57  S   UNL A   1      35.156  32.388  29.763  1.00  0.00     0.124 S 
ATOM     58  O   UNL A   1      35.957  33.409  29.098  1.00  0.00    -0.237 OA
ATOM     59  O   UNL A   1      34.528  31.397  28.895  1.00  0.00    -0.237 OA
ATOM     60  O   UNL A   1      34.317  32.868  30.860  1.00  0.00    -0.744 OA
ENDBRANCH  53  57
ENDBRANCH  26  50
BRANCH  38  61
ATOM     61  C   UNL A   1      44.917  33.466  29.738  1.00  0.00     0.023 A 
ATOM     62  C   UNL A   1      44.744  34.638  28.988  1.00  0.00     0.031 A 
ATOM     63  C   UNL A   1      45.557  33.546  30.986  1.00  0.00     0.131 A 
ATOM     64  C   UNL A   1      45.220  35.854  29.494  1.00  0.00     0.055 A 
ATOM     65  C   UNL A   1      45.990  34.764  31.502  1.00  0.00     0.041 A 
ATOM     66  F   UNL A   1      45.737  32.444  31.732  1.00  0.00    -0.206 F 
ATOM     67  C   UNL A   1      45.822  35.927  30.755  1.00  0.00     0.022 A 
BRANCH  64  68
ATOM     68  S   UNL A   1      45.044  37.347  28.483  1.00  0.00     0.124 S 
ATOM     69  O   UNL A   1      46.355  37.433  27.847  1.00  0.00    -0.237 OA
ATOM     70  O   UNL A   1      43.931  37.006  27.602  1.00  0.00    -0.237 OA
ATOM     71  O   UNL A   1      44.758  38.392  29.463  1.00  0.00    -0.744 OA
ENDBRANCH  64  68
ENDBRANCH  38  61
ENDBRANCH  12  13
ENDBRANCH   5   7
ENDBRANCH   4   5
ENDBRANCH   3   4
ENDBRANCH   2   3
ENDBRANCH   1   2
BRANCH   1  72
ATOM     72  C   UNL A   1      34.844  19.927  24.622  1.00  0.00     0.202 C 
BRANCH  72  73
ATOM     73  C   UNL A   1      34.361  21.153  25.384  1.00  0.00     0.261 C 
BRANCH  73  74
ATOM     74  O   UNL A   1      34.501  22.279  24.498  1.00  0.00    -0.463 OA
BRANCH  74  75
ATOM     75  C   UNL A   1      34.532  23.465  25.153  1.00  0.00     0.310 C 
ATOM     76  O   UNL A   1      35.479  23.859  25.829  1.00  0.00    -0.252 OA
BRANCH  75  77
ATOM     77  C   UNL A   1      33.257  24.277  25.035  1.00  0.00     0.115 C 
ATOM     78  C   UNL A   1      33.324  25.267  23.864  1.00  0.00     0.043 C 
ATOM     79  C   UNL A   1      31.897  23.654  25.382  1.00  0.00     0.097 C 
ATOM     80  C   UNL A   1      32.144  25.261  22.956  1.00  0.00    -0.030 C 
ATOM     81  C   UNL A   1      31.067  23.331  24.116  1.00  0.00     0.041 C 
ATOM     82  C   UNL A   1      31.142  24.383  23.052  1.00  0.00    -0.030 C 
BRANCH  79  83
ATOM     83  C   UNL A   1      30.956  24.372  26.405  1.00  0.00     0.224 C 
ATOM     84  O   UNL A   1      30.357  23.672  27.238  1.00  0.00    -0.275 OA
ATOM     85  N   UNL A   1      30.762  25.713  26.547  1.00  0.00    -0.344 N 
ATOM     86  H   UNL A   1      30.112  25.944  27.250  1.00  0.00     0.164 HD
BRANCH  85  87
ATOM     87  C   UNL A   1      31.326  26.873  25.866  1.00  0.00     0.172 C 
ATOM     88  C   UNL A   1      31.774  27.930  26.885  1.00  0.00     0.037 C 
ATOM     89  C   UNL A   1      30.479  27.632  24.825  1.00  0.00     0.249 C 
ATOM     90  C   UNL A   1      32.863  28.725  26.187  1.00  0.00     0.025 C 
ATOM     91  N   UNL A   1      31.071  28.839  24.395  1.00  0.00    -0.308 N 
ATOM     92  O   UNL A   1      29.450  27.141  24.360  1.00  0.00    -0.272 OA
ATOM     93  C   UNL A   1      32.252  29.477  25.033  1.00  0.00     0.126 C 
BRANCH  91  94
ATOM     94  C   UNL A   1      30.346  29.779  23.609  1.00  0.00     0.080 A 
ATOM     95  C   UNL A   1      29.622  30.786  24.268  1.00  0.00     0.029 A 
ATOM     96  C   UNL A   1      30.037  29.477  22.278  1.00  0.00     0.146 A 
ATOM     97  C   UNL A   1      28.560  31.422  23.631  1.00  0.00     0.002 A 
ATOM     98  C   UNL A   1      28.973  30.111  21.643  1.00  0.00     0.041 A 
ATOM     99  F   UNL A   1      30.622  28.443  21.654  1.00  0.00    -0.205 F 
ATOM    100  C   UNL A   1      28.220  31.067  22.327  1.00  0.00     0.003 A 
ENDBRANCH  91  94
ENDBRANCH  85  87
ENDBRANCH  79  83
ENDBRANCH  75  77
ENDBRANCH  74  75
ENDBRANCH  73  74
ENDBRANCH  72  73
ENDBRANCH   1  72
TORSDOF 20
ENDMDL
MODEL 3
REMARK VINA RESULT:     -11.9      2.854      5.228
REMARK SMILES O=C(OCCOCCOC(=O)[C@H]1CC=CC[C@@H]1C(=O)N[C@@H]1CCCN(c2ccccc2F)C1=O)c1ccc(-c2c3nc(c(-c4cc(S(=O)(=O)[O-])ccc4F)c4ccc([nH]4)c(-c4cc(S(=O)(=O)[O-])ccc4F)c4nc(c(-c5cc(S(=O)(=O)[O-])ccc5F)c5ccc2[nH]5)C=C4)C=C3)cc1
REMARK SMILES IDX 6 1 5 2 4 3 3 4 2 5 1 6 35 7 36 8 97 9 37 10 96 11 38 12
REMARK SMILES IDX 39 13 40 14 90 15 41 16 95 17 89 18 91 19 42 20 94 21 88 22
REMARK SMILES IDX 87 23 43 25 75 26 55 27 74 28 56 29 59 30 73 31 92 32 57 33
REMARK SMILES IDX 58 34 72 36 93 37 60 38 44 39 45 40 53 41 46 42 52 43 54 44
REMARK SMILES IDX 51 45 47 46 48 47 49 48 50 49 76 50 77 51 85 52 78 53 84 54
REMARK SMILES IDX 86 55 83 56 79 57 80 58 81 59 82 60 61 61 62 62 70 63 63 64
REMARK SMILES IDX 69 65 71 66 68 67 64 68 65 69 66 70 67 71 7 72 8 73 9 74
REMARK SMILES IDX 10 75 11 76 12 77 13 78 17 79 14 80 16 81 15 82 18 83 19 84
REMARK SMILES IDX 20 85 21 87 22 88 33 89 23 90 25 91 34 92 24 93 26 94 27 95
REMARK SMILES IDX 31 96 28 97 30 98 32 99 29 100
REMARK H PARENT 91 24 59 35 20 86
REMARK Flexibility Score: inf
ROOT
ATOM      1  O   UNL A   1      32.044  28.358  27.481  1.00  0.00    -0.374 OA
ENDROOT
BRANCH   1   2
ATOM      2  C   UNL A   1      32.906  28.657  26.390  1.00  0.00     0.202 C 
BRANCH   2   3
ATOM      3  C   UNL A   1      33.151  30.136  26.098  1.00  0.00     0.261 C 
BRANCH   3   4
ATOM      4  O   UNL A   1      32.938  30.956  27.268  1.00  0.00    -0.460 OA
BRANCH   4   5
ATOM      5  C   UNL A   1      33.765  31.970  27.663  1.00  0.00     0.338 C 
ATOM      6  O   UNL A   1      33.406  33.132  27.677  1.00  0.00    -0.246 OA
BRANCH   5   7
ATOM      7  C   UNL A   1      35.118  31.588  28.113  1.00  0.00     0.060 A 
ATOM      8  C   UNL A   1      35.328  30.307  28.590  1.00  0.00     0.016 A 
ATOM      9  C   UNL A   1      36.140  32.528  28.186  1.00  0.00     0.016 A 
ATOM     10  C   UNL A   1      36.370  30.061  29.448  1.00  0.00     0.010 A 
ATOM     11  C   UNL A   1      37.337  32.171  28.817  1.00  0.00     0.010 A 
ATOM     12  C   UNL A   1      37.438  30.949  29.508  1.00  0.00    -0.014 A 
BRANCH  12  13
ATOM     13  C   UNL A   1      38.627  30.564  30.309  1.00  0.00     0.031 A 
ATOM     14  C   UNL A   1      39.671  29.685  29.692  1.00  0.00     0.074 A 
ATOM     15  C   UNL A   1      38.797  31.076  31.548  1.00  0.00     0.049 A 
ATOM     16  N   UNL A   1      40.630  29.019  30.273  1.00  0.00    -0.248 NA
ATOM     17  C   UNL A   1      39.612  29.503  28.232  1.00  0.00     0.031 C 
ATOM     18  C   UNL A   1      37.901  32.038  32.207  1.00  0.00     0.029 A 
ATOM     19  N   UNL A   1      39.804  30.911  32.462  1.00  0.00    -0.354 N 
ATOM     20  C   UNL A   1      41.224  28.264  29.270  1.00  0.00     0.074 A 
ATOM     21  C   UNL A   1      40.532  28.570  28.038  1.00  0.00     0.031 C 
ATOM     22  C   UNL A   1      38.460  32.471  33.341  1.00  0.00     0.029 A 
ATOM     23  C   UNL A   1      39.644  31.672  33.599  1.00  0.00     0.049 A 
ATOM     24  H   UNL A   1      40.567  30.306  32.321  1.00  0.00     0.167 HD
ATOM     25  C   UNL A   1      42.241  27.378  29.397  1.00  0.00     0.034 A 
ATOM     26  C   UNL A   1      40.320  31.665  34.763  1.00  0.00     0.034 A 
ATOM     27  C   UNL A   1      42.920  27.160  30.648  1.00  0.00     0.049 A 
ATOM     28  C   UNL A   1      41.396  30.632  34.911  1.00  0.00     0.074 A 
ATOM     29  C   UNL A   1      43.917  26.253  30.951  1.00  0.00     0.029 A 
ATOM     30  N   UNL A   1      42.673  27.887  31.809  1.00  0.00    -0.354 N 
ATOM     31  N   UNL A   1      41.836  29.779  34.013  1.00  0.00    -0.248 NA
ATOM     32  C   UNL A   1      42.025  30.512  36.228  1.00  0.00     0.031 C 
ATOM     33  C   UNL A   1      44.237  26.401  32.305  1.00  0.00     0.029 A 
ATOM     34  C   UNL A   1      43.488  27.444  32.833  1.00  0.00     0.049 A 
ATOM     35  H   UNL A   1      42.013  28.614  31.890  1.00  0.00     0.167 HD
ATOM     36  C   UNL A   1      42.793  29.011  34.657  1.00  0.00     0.074 A 
ATOM     37  C   UNL A   1      42.876  29.514  36.018  1.00  0.00     0.031 C 
ATOM     38  C   UNL A   1      43.533  27.983  34.173  1.00  0.00     0.034 A 
BRANCH  25  39
ATOM     39  C   UNL A   1      42.572  26.531  28.194  1.00  0.00     0.023 A 
ATOM     40  C   UNL A   1      41.982  25.276  27.971  1.00  0.00     0.031 A 
ATOM     41  C   UNL A   1      43.571  26.957  27.298  1.00  0.00     0.131 A 
ATOM     42  C   UNL A   1      42.451  24.457  26.931  1.00  0.00     0.055 A 
ATOM     43  C   UNL A   1      43.979  26.171  26.218  1.00  0.00     0.041 A 
ATOM     44  F   UNL A   1      44.192  28.133  27.477  1.00  0.00    -0.206 F 
ATOM     45  C   UNL A   1      43.430  24.905  26.040  1.00  0.00     0.022 A 
BRANCH  42  46
ATOM     46  S   UNL A   1      41.870  22.741  26.845  1.00  0.00     0.124 S 
ATOM     47  O   UNL A   1      42.757  22.086  27.805  1.00  0.00    -0.237 OA
ATOM     48  O   UNL A   1      40.473  22.858  27.246  1.00  0.00    -0.237 OA
ATOM     49  O   UNL A   1      42.091  22.373  25.448  1.00  0.00    -0.744 OA
ENDBRANCH  42  46
ENDBRANCH  25  39
BRANCH  26  50
ATOM     50  C   UNL A   1      39.904  32.567  35.875  1.00  0.00     0.023 A 
ATOM     51  C   UNL A   1      38.923  32.177  36.798  1.00  0.00     0.031 A 
ATOM     52  C   UNL A   1      40.541  33.809  36.078  1.00  0.00     0.131 A 
ATOM     53  C   UNL A   1      38.616  33.013  37.887  1.00  0.00     0.055 A 
ATOM     54  C   UNL A   1      40.265  34.614  37.183  1.00  0.00     0.041 A 
ATOM     55  F   UNL A   1      41.496  34.227  35.231  1.00  0.00    -0.206 F 
ATOM     56  C   UNL A   1      39.294  34.218  38.095  1.00  0.00     0.022 A 
BRANCH  53  57
ATOM     57  S   UNL A   1      37.311  32.506  39.042  1.00  0.00     0.124 S 
ATOM     58  O   UNL A   1      36.111  32.704  38.239  1.00  0.00    -0.237 OA
ATOM     59  O   UNL A   1      37.674  31.121  39.326  1.00  0.00    -0.237 OA
ATOM     60  O   UNL A   1      37.472  33.429  40.165  1.00  0.00    -0.744 OA
ENDBRANCH  53  57
ENDBRANCH  26  50
BRANCH  38  61
ATOM     61  C   UNL A   1      44.526  27.368  35.111  1.00  0.00     0.023 A 
ATOM     62  C   UNL A   1      45.822  27.886  35.242  1.00  0.00     0.031 A 
ATOM     63  C   UNL A   1      44.131  26.305  35.941  1.00  0.00     0.131 A 
ATOM     64  C   UNL A   1      46.693  27.326  36.185  1.00  0.00     0.055 A 
ATOM     65  C   UNL A   1      44.988  25.781  36.905  1.00  0.00     0.041 A 
ATOM     66  F   UNL A   1      42.896  25.787  35.845  1.00  0.00    -0.206 F 
ATOM     67  C   UNL A   1      46.278  26.293  37.031  1.00  0.00     0.022 A 
BRANCH  64  68
ATOM     68  S   UNL A   1      48.385  27.966  36.294  1.00  0.00     0.124 S 
ATOM     69  O   UNL A   1      49.162  26.736  36.418  1.00  0.00    -0.237 OA
ATOM     70  O   UNL A   1      48.534  28.689  35.036  1.00  0.00    -0.237 OA
ATOM     71  O   UNL A   1      48.355  28.806  37.490  1.00  0.00    -0.744 OA
ENDBRANCH  64  68
ENDBRANCH  38  61
ENDBRANCH  12  13
ENDBRANCH   5   7
ENDBRANCH   4   5
ENDBRANCH   3   4
ENDBRANCH   2   3
ENDBRANCH   1   2
BRANCH   1  72
ATOM     72  C   UNL A   1      31.078  27.326  27.242  1.00  0.00     0.202 C 
BRANCH  72  73
ATOM     73  C   UNL A   1      31.705  26.244  26.375  1.00  0.00     0.261 C 
BRANCH  73  74
ATOM     74  O   UNL A   1      30.964  25.033  26.612  1.00  0.00    -0.463 OA
BRANCH  74  75
ATOM     75  C   UNL A   1      31.587  23.930  26.134  1.00  0.00     0.310 C 
ATOM     76  O   UNL A   1      31.260  22.777  26.402  1.00  0.00    -0.252 OA
BRANCH  75  77
ATOM     77  C   UNL A   1      32.790  24.223  25.258  1.00  0.00     0.115 C 
ATOM     78  C   UNL A   1      34.090  23.710  25.894  1.00  0.00     0.043 C 
ATOM     79  C   UNL A   1      32.670  24.192  23.728  1.00  0.00     0.097 C 
ATOM     80  C   UNL A   1      34.966  22.909  24.996  1.00  0.00    -0.030 C 
ATOM     81  C   UNL A   1      33.321  22.927  23.119  1.00  0.00     0.041 C 
ATOM     82  C   UNL A   1      34.617  22.538  23.761  1.00  0.00    -0.030 C 
BRANCH  79  83
ATOM     83  C   UNL A   1      33.143  25.427  22.891  1.00  0.00     0.224 C 
ATOM     84  O   UNL A   1      34.189  25.319  22.231  1.00  0.00    -0.275 OA
ATOM     85  N   UNL A   1      32.493  26.614  22.733  1.00  0.00    -0.344 N 
ATOM     86  H   UNL A   1      32.981  27.258  22.170  1.00  0.00     0.164 HD
BRANCH  85  87
ATOM     87  C   UNL A   1      31.218  27.120  23.231  1.00  0.00     0.172 C 
ATOM     88  C   UNL A   1      30.067  26.207  22.787  1.00  0.00     0.037 C 
ATOM     89  C   UNL A   1      30.775  28.553  22.874  1.00  0.00     0.249 C 
ATOM     90  C   UNL A   1      28.972  26.410  23.818  1.00  0.00     0.025 C 
ATOM     91  N   UNL A   1      29.445  28.837  23.253  1.00  0.00    -0.308 N 
ATOM     92  O   UNL A   1      31.570  29.368  22.408  1.00  0.00    -0.272 OA
ATOM     93  C   UNL A   1      28.461  27.824  23.713  1.00  0.00     0.126 C 
BRANCH  91  94
ATOM     94  C   UNL A   1      28.790  30.023  22.814  1.00  0.00     0.080 A 
ATOM     95  C   UNL A   1      28.219  30.037  21.531  1.00  0.00     0.029 A 
ATOM     96  C   UNL A   1      29.051  31.237  23.458  1.00  0.00     0.146 A 
ATOM     97  C   UNL A   1      27.988  31.243  20.876  1.00  0.00     0.002 A 
ATOM     98  C   UNL A   1      28.824  32.443  22.802  1.00  0.00     0.041 A 
ATOM     99  F   UNL A   1      29.705  31.267  24.630  1.00  0.00    -0.205 F 
ATOM    100  C   UNL A   1      28.314  32.446  21.502  1.00  0.00     0.003 A 
ENDBRANCH  91  94
ENDBRANCH  85  87
ENDBRANCH  79  83
ENDBRANCH  75  77
ENDBRANCH  74  75
ENDBRANCH  73  74
ENDBRANCH  72  73
ENDBRANCH   1  72
TORSDOF 20
ENDMDL
