MODEL 1
REMARK VINA RESULT:     -10.7      0.000      0.000
REMARK SMILES CC[C@@H](C(=O)OCCOCCOC(=O)c1ccc(-c2c3nc(c(-c4cc(S(=O)(=O)[O-])ccc4F)c4ccc([nH]4)c(-c4cc(S(=O)(=O)[O-])ccc4F)c4nc(c(-c5cc(S(=O)(=O)[O-])ccc5F)c5ccc2[nH]5)C=C4)C=C3)cc1)N1C(=O)/C(=C/C(C)=C/c2ccccc2)SC1=S
REMARK SMILES IDX 9 1 8 2 7 3 6 4 4 5 5 6 3 7 2 8 1 9 78 10 79 11 93 12 80 13
REMARK SMILES IDX 81 14 92 15 94 16 82 17 83 18 84 19 85 20 86 21 87 22 91 23
REMARK SMILES IDX 88 24 90 25 89 26 10 27 11 28 12 29 13 30 14 31 15 32 16 33
REMARK SMILES IDX 77 34 17 35 76 36 18 37 19 38 20 39 70 40 21 41 75 42 69 43
REMARK SMILES IDX 71 44 22 45 74 46 68 47 67 48 23 50 55 51 35 52 54 53 36 54
REMARK SMILES IDX 39 55 53 56 72 57 37 58 38 59 52 61 73 62 40 63 24 64 25 65
REMARK SMILES IDX 33 66 26 67 32 68 34 69 31 70 27 71 28 72 29 73 30 74 56 75
REMARK SMILES IDX 57 76 65 77 58 78 64 79 66 80 63 81 59 82 60 83 61 84 62 85
REMARK SMILES IDX 41 86 42 87 50 88 43 89 49 90 51 91 48 92 44 93 45 94 46 95
REMARK SMILES IDX 47 96
REMARK H PARENT 71 49 39 60
REMARK Flexibility Score: inf
ROOT
ATOM      1  O   UNL A   1      33.001  27.446  25.188  1.00  0.00    -0.374 OA
ENDROOT
BRANCH   1   2
ATOM      2  C   UNL A   1      33.676  26.590  26.113  1.00  0.00     0.202 C 
BRANCH   2   3
ATOM      3  C   UNL A   1      34.799  25.727  25.527  1.00  0.00     0.261 C 
BRANCH   3   4
ATOM      4  O   UNL A   1      34.429  24.329  25.563  1.00  0.00    -0.462 OA
BRANCH   4   5
ATOM      5  C   UNL A   1      34.545  23.628  24.408  1.00  0.00     0.329 C 
ATOM      6  O   UNL A   1      35.591  23.513  23.777  1.00  0.00    -0.250 OA
BRANCH   5   7
ATOM      7  C   UNL A   1      33.204  23.001  23.952  1.00  0.00     0.201 C 
BRANCH   7   8
ATOM      8  C   UNL A   1      33.168  22.085  22.719  1.00  0.00     0.034 C 
ATOM      9  C   UNL A   1      31.921  21.222  22.569  1.00  0.00     0.007 C 
ENDBRANCH   7   8
BRANCH   7  10
ATOM     10  N   UNL A   1      32.254  24.143  23.845  1.00  0.00    -0.278 N 
ATOM     11  C   UNL A   1      32.395  25.076  22.831  1.00  0.00     0.266 C 
ATOM     12  C   UNL A   1      31.133  24.358  24.614  1.00  0.00     0.149 C 
ATOM     13  O   UNL A   1      33.370  25.231  22.113  1.00  0.00    -0.268 OA
ATOM     14  C   UNL A   1      31.187  25.962  22.814  1.00  0.00     0.080 C 
ATOM     15  S   UNL A   1      29.922  25.109  23.597  1.00  0.00    -0.054 SA
ATOM     16  S   UNL A   1      30.917  24.249  26.257  1.00  0.00    -0.052 S 
ATOM     17  C   UNL A   1      31.229  27.252  22.453  1.00  0.00     0.024 C 
BRANCH  17  18
ATOM     18  C   UNL A   1      30.177  28.278  22.495  1.00  0.00    -0.049 C 
ATOM     19  C   UNL A   1      28.896  27.797  23.131  1.00  0.00     0.044 C 
ATOM     20  C   UNL A   1      30.292  29.505  21.941  1.00  0.00     0.011 C 
BRANCH  20  21
ATOM     21  C   UNL A   1      29.405  30.676  22.056  1.00  0.00    -0.025 A 
ATOM     22  C   UNL A   1      28.624  31.044  20.950  1.00  0.00     0.008 A 
ATOM     23  C   UNL A   1      29.449  31.538  23.158  1.00  0.00     0.008 A 
ATOM     24  C   UNL A   1      27.873  32.222  20.965  1.00  0.00     0.001 A 
ATOM     25  C   UNL A   1      28.688  32.709  23.181  1.00  0.00     0.001 A 
ATOM     26  C   UNL A   1      27.899  33.049  22.085  1.00  0.00     0.000 A 
ENDBRANCH  20  21
ENDBRANCH  17  18
ENDBRANCH   7  10
ENDBRANCH   5   7
ENDBRANCH   4   5
ENDBRANCH   3   4
ENDBRANCH   2   3
ENDBRANCH   1   2
BRANCH   1  27
ATOM     27  C   UNL A   1      33.566  28.736  24.989  1.00  0.00     0.202 C 
BRANCH  27  28
ATOM     28  C   UNL A   1      32.750  29.947  25.446  1.00  0.00     0.261 C 
BRANCH  28  29
ATOM     29  O   UNL A   1      32.777  30.067  26.871  1.00  0.00    -0.460 OA
BRANCH  29  30
ATOM     30  C   UNL A   1      33.321  31.233  27.289  1.00  0.00     0.338 C 
ATOM     31  O   UNL A   1      32.743  32.295  27.458  1.00  0.00    -0.246 OA
BRANCH  30  32
ATOM     32  C   UNL A   1      34.702  30.990  27.731  1.00  0.00     0.060 A 
ATOM     33  C   UNL A   1      35.060  29.657  27.960  1.00  0.00     0.016 A 
ATOM     34  C   UNL A   1      35.616  32.027  27.939  1.00  0.00     0.016 A 
ATOM     35  C   UNL A   1      36.310  29.357  28.479  1.00  0.00     0.010 A 
ATOM     36  C   UNL A   1      36.871  31.724  28.465  1.00  0.00     0.010 A 
ATOM     37  C   UNL A   1      37.199  30.394  28.785  1.00  0.00    -0.014 A 
BRANCH  37  38
ATOM     38  C   UNL A   1      38.366  30.100  29.644  1.00  0.00     0.031 A 
ATOM     39  C   UNL A   1      39.402  29.141  29.123  1.00  0.00     0.074 A 
ATOM     40  C   UNL A   1      38.527  30.717  30.826  1.00  0.00     0.049 A 
ATOM     41  N   UNL A   1      40.476  28.680  29.706  1.00  0.00    -0.248 NA
ATOM     42  C   UNL A   1      39.190  28.631  27.757  1.00  0.00     0.031 C 
ATOM     43  C   UNL A   1      37.620  31.719  31.385  1.00  0.00     0.029 A 
ATOM     44  N   UNL A   1      39.512  30.589  31.770  1.00  0.00    -0.354 N 
ATOM     45  C   UNL A   1      41.061  27.817  28.786  1.00  0.00     0.074 A 
ATOM     46  C   UNL A   1      40.202  27.789  27.623  1.00  0.00     0.031 C 
ATOM     47  C   UNL A   1      38.089  32.108  32.582  1.00  0.00     0.029 A 
ATOM     48  C   UNL A   1      39.299  31.348  32.894  1.00  0.00     0.049 A 
ATOM     49  H   UNL A   1      40.299  30.007  31.654  1.00  0.00     0.167 HD
ATOM     50  C   UNL A   1      42.218  27.121  28.901  1.00  0.00     0.034 A 
ATOM     51  C   UNL A   1      39.985  31.395  34.054  1.00  0.00     0.034 A 
ATOM     52  C   UNL A   1      43.053  27.162  30.076  1.00  0.00     0.049 A 
ATOM     53  C   UNL A   1      41.215  30.529  34.202  1.00  0.00     0.074 A 
ATOM     54  C   UNL A   1      44.243  26.499  30.312  1.00  0.00     0.029 A 
ATOM     55  N   UNL A   1      42.777  27.903  31.220  1.00  0.00    -0.354 N 
ATOM     56  N   UNL A   1      41.753  29.701  33.336  1.00  0.00    -0.248 NA
ATOM     57  C   UNL A   1      41.934  30.610  35.481  1.00  0.00     0.031 C 
ATOM     58  C   UNL A   1      44.642  26.772  31.623  1.00  0.00     0.029 A 
ATOM     59  C   UNL A   1      43.757  27.685  32.174  1.00  0.00     0.049 A 
ATOM     60  H   UNL A   1      41.999  28.495  31.335  1.00  0.00     0.167 HD
ATOM     61  C   UNL A   1      42.899  29.200  33.949  1.00  0.00     0.074 A 
ATOM     62  C   UNL A   1      42.973  29.820  35.257  1.00  0.00     0.031 C 
ATOM     63  C   UNL A   1      43.815  28.318  33.472  1.00  0.00     0.034 A 
BRANCH  50  64
ATOM     64  C   UNL A   1      42.603  26.213  27.758  1.00  0.00     0.023 A 
ATOM     65  C   UNL A   1      42.043  24.933  27.603  1.00  0.00     0.031 A 
ATOM     66  C   UNL A   1      43.571  26.624  26.826  1.00  0.00     0.131 A 
ATOM     67  C   UNL A   1      42.508  24.085  26.586  1.00  0.00     0.055 A 
ATOM     68  C   UNL A   1      43.967  25.808  25.764  1.00  0.00     0.041 A 
ATOM     69  F   UNL A   1      44.164  27.823  26.939  1.00  0.00    -0.206 F 
ATOM     70  C   UNL A   1      43.444  24.524  25.648  1.00  0.00     0.022 A 
BRANCH  67  71
ATOM     71  S   UNL A   1      41.985  22.348  26.600  1.00  0.00     0.124 S 
ATOM     72  O   UNL A   1      42.754  21.817  27.723  1.00  0.00    -0.237 OA
ATOM     73  O   UNL A   1      40.545  22.453  26.805  1.00  0.00    -0.237 OA
ATOM     74  O   UNL A   1      42.395  21.856  25.286  1.00  0.00    -0.744 OA
ENDBRANCH  67  71
ENDBRANCH  50  64
BRANCH  51  75
ATOM     75  C   UNL A   1      39.511  32.251  35.179  1.00  0.00     0.023 A 
ATOM     76  C   UNL A   1      38.839  31.699  36.280  1.00  0.00     0.031 A 
ATOM     77  C   UNL A   1      39.674  33.649  35.141  1.00  0.00     0.131 A 
ATOM     78  C   UNL A   1      38.309  32.540  37.270  1.00  0.00     0.055 A 
ATOM     79  C   UNL A   1      39.199  34.476  36.161  1.00  0.00     0.041 A 
ATOM     80  F   UNL A   1      40.306  34.232  34.110  1.00  0.00    -0.206 F 
ATOM     81  C   UNL A   1      38.498  33.923  37.227  1.00  0.00     0.022 A 
BRANCH  78  82
ATOM     82  S   UNL A   1      37.273  31.807  38.566  1.00  0.00     0.124 S 
ATOM     83  O   UNL A   1      38.113  31.977  39.746  1.00  0.00    -0.237 OA
ATOM     84  O   UNL A   1      36.077  32.640  38.503  1.00  0.00    -0.237 OA
ATOM     85  O   UNL A   1      37.095  30.428  38.119  1.00  0.00    -0.744 OA
ENDBRANCH  78  82
ENDBRANCH  51  75
BRANCH  63  86
ATOM     86  C   UNL A   1      45.019  28.030  34.337  1.00  0.00     0.023 A 
ATOM     87  C   UNL A   1      45.049  26.961  35.250  1.00  0.00     0.031 A 
ATOM     88  C   UNL A   1      46.168  28.836  34.225  1.00  0.00     0.131 A 
ATOM     89  C   UNL A   1      46.185  26.759  36.048  1.00  0.00     0.055 A 
ATOM     90  C   UNL A   1      47.318  28.588  34.972  1.00  0.00     0.041 A 
ATOM     91  F   UNL A   1      46.193  29.872  33.371  1.00  0.00    -0.206 F 
ATOM     92  C   UNL A   1      47.326  27.551  35.900  1.00  0.00     0.022 A 
BRANCH  89  93
ATOM     93  S   UNL A   1      46.123  25.496  37.349  1.00  0.00     0.124 S 
ATOM     94  O   UNL A   1      46.592  26.238  38.515  1.00  0.00    -0.237 OA
ATOM     95  O   UNL A   1      44.713  25.123  37.356  1.00  0.00    -0.237 OA
ATOM     96  O   UNL A   1      47.034  24.460  36.866  1.00  0.00    -0.744 OA
ENDBRANCH  89  93
ENDBRANCH  63  86
ENDBRANCH  37  38
ENDBRANCH  30  32
ENDBRANCH  29  30
ENDBRANCH  28  29
ENDBRANCH  27  28
ENDBRANCH   1  27
TORSDOF 21
ENDMDL
MODEL 2
REMARK VINA RESULT:     -10.0      4.504     12.816
REMARK SMILES CC[C@@H](C(=O)OCCOCCOC(=O)c1ccc(-c2c3nc(c(-c4cc(S(=O)(=O)[O-])ccc4F)c4ccc([nH]4)c(-c4cc(S(=O)(=O)[O-])ccc4F)c4nc(c(-c5cc(S(=O)(=O)[O-])ccc5F)c5ccc2[nH]5)C=C4)C=C3)cc1)N1C(=O)/C(=C/C(C)=C/c2ccccc2)SC1=S
REMARK SMILES IDX 9 1 8 2 7 3 6 4 4 5 5 6 3 7 2 8 1 9 78 10 79 11 93 12 80 13
REMARK SMILES IDX 81 14 92 15 94 16 82 17 83 18 84 19 85 20 86 21 87 22 91 23
REMARK SMILES IDX 88 24 90 25 89 26 10 27 11 28 12 29 13 30 14 31 15 32 16 33
REMARK SMILES IDX 77 34 17 35 76 36 18 37 19 38 20 39 70 40 21 41 75 42 69 43
REMARK SMILES IDX 71 44 22 45 74 46 68 47 67 48 23 50 55 51 35 52 54 53 36 54
REMARK SMILES IDX 39 55 53 56 72 57 37 58 38 59 52 61 73 62 40 63 24 64 25 65
REMARK SMILES IDX 33 66 26 67 32 68 34 69 31 70 27 71 28 72 29 73 30 74 56 75
REMARK SMILES IDX 57 76 65 77 58 78 64 79 66 80 63 81 59 82 60 83 61 84 62 85
REMARK SMILES IDX 41 86 42 87 50 88 43 89 49 90 51 91 48 92 44 93 45 94 46 95
REMARK SMILES IDX 47 96
REMARK H PARENT 71 49 39 60
REMARK Flexibility Score: inf
ROOT
ATOM      1  O   UNL A   1      40.788  31.790  41.948  1.00  0.00    -0.374 OA
ENDROOT
BRANCH   1   2
ATOM      2  C   UNL A   1      41.790  31.427  42.901  1.00  0.00     0.202 C 
BRANCH   2   3
ATOM      3  C   UNL A   1      43.145  31.009  42.319  1.00  0.00     0.261 C 
BRANCH   3   4
ATOM      4  O   UNL A   1      43.715  32.091  41.547  1.00  0.00    -0.462 OA
BRANCH   4   5
ATOM      5  C   UNL A   1      44.380  31.759  40.412  1.00  0.00     0.329 C 
ATOM      6  O   UNL A   1      44.493  30.610  39.996  1.00  0.00    -0.250 OA
BRANCH   5   7
ATOM      7  C   UNL A   1      45.004  32.986  39.703  1.00  0.00     0.201 C 
BRANCH   7   8
ATOM      8  C   UNL A   1      45.460  34.197  40.531  1.00  0.00     0.034 C 
ATOM      9  C   UNL A   1      46.953  34.500  40.497  1.00  0.00     0.007 C 
ENDBRANCH   7   8
BRANCH   7  10
ATOM     10  N   UNL A   1      44.035  33.354  38.634  1.00  0.00    -0.278 N 
ATOM     11  C   UNL A   1      44.187  32.855  37.352  1.00  0.00     0.266 C 
ATOM     12  C   UNL A   1      42.887  34.099  38.782  1.00  0.00     0.149 C 
ATOM     13  O   UNL A   1      45.180  32.311  36.894  1.00  0.00    -0.268 OA
ATOM     14  C   UNL A   1      42.963  33.182  36.553  1.00  0.00     0.080 C 
ATOM     15  S   UNL A   1      41.692  33.469  37.668  1.00  0.00    -0.054 SA
ATOM     16  S   UNL A   1      42.624  35.521  39.598  1.00  0.00    -0.052 S 
ATOM     17  C   UNL A   1      42.990  33.422  35.235  1.00  0.00     0.024 C 
BRANCH  17  18
ATOM     18  C   UNL A   1      41.916  33.869  34.335  1.00  0.00    -0.049 C 
ATOM     19  C   UNL A   1      41.430  35.267  34.632  1.00  0.00     0.044 C 
ATOM     20  C   UNL A   1      41.344  33.090  33.392  1.00  0.00     0.011 C 
BRANCH  20  21
ATOM     21  C   UNL A   1      40.399  33.452  32.320  1.00  0.00    -0.025 A 
ATOM     22  C   UNL A   1      40.748  33.174  30.989  1.00  0.00     0.008 A 
ATOM     23  C   UNL A   1      39.257  34.222  32.563  1.00  0.00     0.008 A 
ATOM     24  C   UNL A   1      39.949  33.620  29.933  1.00  0.00     0.001 A 
ATOM     25  C   UNL A   1      38.449  34.657  31.510  1.00  0.00     0.001 A 
ATOM     26  C   UNL A   1      38.795  34.354  30.195  1.00  0.00     0.000 A 
ENDBRANCH  20  21
ENDBRANCH  17  18
ENDBRANCH   7  10
ENDBRANCH   5   7
ENDBRANCH   4   5
ENDBRANCH   3   4
ENDBRANCH   2   3
ENDBRANCH   1   2
BRANCH   1  27
ATOM     27  C   UNL A   1      40.465  33.172  41.863  1.00  0.00     0.202 C 
BRANCH  27  28
ATOM     28  C   UNL A   1      39.019  33.545  41.530  1.00  0.00     0.261 C 
BRANCH  28  29
ATOM     29  O   UNL A   1      38.831  33.630  40.115  1.00  0.00    -0.460 OA
BRANCH  29  30
ATOM     30  C   UNL A   1      37.626  33.160  39.717  1.00  0.00     0.338 C 
ATOM     31  O   UNL A   1      36.566  33.252  40.316  1.00  0.00    -0.246 OA
BRANCH  30  32
ATOM     32  C   UNL A   1      37.725  32.695  38.326  1.00  0.00     0.060 A 
ATOM     33  C   UNL A   1      37.552  31.322  38.112  1.00  0.00     0.016 A 
ATOM     34  C   UNL A   1      38.000  33.560  37.263  1.00  0.00     0.016 A 
ATOM     35  C   UNL A   1      37.736  30.792  36.844  1.00  0.00     0.010 A 
ATOM     36  C   UNL A   1      38.189  33.025  35.990  1.00  0.00     0.010 A 
ATOM     37  C   UNL A   1      38.109  31.634  35.790  1.00  0.00    -0.014 A 
BRANCH  37  38
ATOM     38  C   UNL A   1      38.633  31.029  34.547  1.00  0.00     0.031 A 
ATOM     39  C   UNL A   1      39.967  30.336  34.608  1.00  0.00     0.074 A 
ATOM     40  C   UNL A   1      37.913  31.046  33.413  1.00  0.00     0.049 A 
ATOM     41  N   UNL A   1      40.661  29.785  33.648  1.00  0.00    -0.248 NA
ATOM     42  C   UNL A   1      40.603  30.261  35.934  1.00  0.00     0.031 C 
ATOM     43  C   UNL A   1      36.578  31.625  33.271  1.00  0.00     0.029 A 
ATOM     44  N   UNL A   1      38.207  30.563  32.165  1.00  0.00    -0.354 N 
ATOM     45  C   UNL A   1      41.821  29.308  34.251  1.00  0.00     0.074 A 
ATOM     46  C   UNL A   1      41.753  29.671  35.649  1.00  0.00     0.031 C 
ATOM     47  C   UNL A   1      36.172  31.470  32.000  1.00  0.00     0.029 A 
ATOM     48  C   UNL A   1      37.236  30.827  31.231  1.00  0.00     0.049 A 
ATOM     49  H   UNL A   1      39.036  30.072  31.958  1.00  0.00     0.167 HD
ATOM     50  C   UNL A   1      42.843  28.621  33.686  1.00  0.00     0.034 A 
ATOM     51  C   UNL A   1      37.227  30.605  29.901  1.00  0.00     0.034 A 
ATOM     52  C   UNL A   1      42.888  28.278  32.286  1.00  0.00     0.049 A 
ATOM     53  C   UNL A   1      38.424  29.931  29.272  1.00  0.00     0.074 A 
ATOM     54  C   UNL A   1      43.870  27.589  31.599  1.00  0.00     0.029 A 
ATOM     55  N   UNL A   1      41.909  28.610  31.356  1.00  0.00    -0.354 N 
ATOM     56  N   UNL A   1      39.526  29.499  29.844  1.00  0.00    -0.248 NA
ATOM     57  C   UNL A   1      38.374  29.706  27.821  1.00  0.00     0.031 C 
ATOM     58  C   UNL A   1      43.526  27.577  30.244  1.00  0.00     0.029 A 
ATOM     59  C   UNL A   1      42.282  28.168  30.097  1.00  0.00     0.049 A 
ATOM     60  H   UNL A   1      41.073  29.088  31.562  1.00  0.00     0.167 HD
ATOM     61  C   UNL A   1      40.277  28.911  28.829  1.00  0.00     0.074 A 
ATOM     62  C   UNL A   1      39.502  29.043  27.611  1.00  0.00     0.031 C 
ATOM     63  C   UNL A   1      41.491  28.305  28.896  1.00  0.00     0.034 A 
BRANCH  50  64
ATOM     64  C   UNL A   1      44.013  28.260  34.569  1.00  0.00     0.023 A 
ATOM     65  C   UNL A   1      43.940  27.222  35.515  1.00  0.00     0.031 A 
ATOM     66  C   UNL A   1      45.211  28.990  34.486  1.00  0.00     0.131 A 
ATOM     67  C   UNL A   1      45.016  26.992  36.385  1.00  0.00     0.055 A 
ATOM     68  C   UNL A   1      46.310  28.699  35.296  1.00  0.00     0.041 A 
ATOM     69  F   UNL A   1      45.331  30.012  33.624  1.00  0.00    -0.206 F 
ATOM     70  C   UNL A   1      46.212  27.703  36.263  1.00  0.00     0.022 A 
BRANCH  67  71
ATOM     71  S   UNL A   1      44.777  25.855  37.778  1.00  0.00     0.124 S 
ATOM     72  O   UNL A   1      46.089  25.896  38.421  1.00  0.00    -0.237 OA
ATOM     73  O   UNL A   1      43.686  26.484  38.514  1.00  0.00    -0.237 OA
ATOM     74  O   UNL A   1      44.446  24.587  37.133  1.00  0.00    -0.744 OA
ENDBRANCH  67  71
ENDBRANCH  50  64
BRANCH  51  75
ATOM     75  C   UNL A   1      36.077  31.056  29.067  1.00  0.00     0.023 A 
ATOM     76  C   UNL A   1      35.603  32.374  29.133  1.00  0.00     0.031 A 
ATOM     77  C   UNL A   1      35.395  30.154  28.228  1.00  0.00     0.131 A 
ATOM     78  C   UNL A   1      34.452  32.742  28.419  1.00  0.00     0.055 A 
ATOM     79  C   UNL A   1      34.288  30.541  27.471  1.00  0.00     0.041 A 
ATOM     80  F   UNL A   1      35.802  28.878  28.128  1.00  0.00    -0.206 F 
ATOM     81  C   UNL A   1      33.800  31.839  27.576  1.00  0.00     0.022 A 
BRANCH  78  82
ATOM     82  S   UNL A   1      33.753  34.393  28.691  1.00  0.00     0.124 S 
ATOM     83  O   UNL A   1      33.827  34.509  30.143  1.00  0.00    -0.237 OA
ATOM     84  O   UNL A   1      34.669  35.237  27.931  1.00  0.00    -0.237 OA
ATOM     85  O   UNL A   1      32.404  34.286  28.140  1.00  0.00    -0.744 OA
ENDBRANCH  78  82
ENDBRANCH  51  75
BRANCH  63  86
ATOM     86  C   UNL A   1      42.022  27.669  27.633  1.00  0.00     0.023 A 
ATOM     87  C   UNL A   1      42.028  26.276  27.440  1.00  0.00     0.031 A 
ATOM     88  C   UNL A   1      42.514  28.483  26.596  1.00  0.00     0.131 A 
ATOM     89  C   UNL A   1      42.560  25.740  26.257  1.00  0.00     0.055 A 
ATOM     90  C   UNL A   1      42.979  27.947  25.396  1.00  0.00     0.041 A 
ATOM     91  F   UNL A   1      42.535  29.819  26.728  1.00  0.00    -0.206 F 
ATOM     92  C   UNL A   1      43.015  26.566  25.227  1.00  0.00     0.022 A 
BRANCH  89  93
ATOM     93  S   UNL A   1      42.731  23.940  26.116  1.00  0.00     0.124 S 
ATOM     94  O   UNL A   1      41.339  23.502  26.117  1.00  0.00    -0.237 OA
ATOM     95  O   UNL A   1      43.445  23.791  24.852  1.00  0.00    -0.237 OA
ATOM     96  O   UNL A   1      43.498  23.574  27.306  1.00  0.00    -0.744 OA
ENDBRANCH  89  93
ENDBRANCH  63  86
ENDBRANCH  37  38
ENDBRANCH  30  32
ENDBRANCH  29  30
ENDBRANCH  28  29
ENDBRANCH  27  28
ENDBRANCH   1  27
TORSDOF 21
ENDMDL
MODEL 3
REMARK VINA RESULT:      -9.9      5.640     11.309
REMARK SMILES CC[C@@H](C(=O)OCCOCCOC(=O)c1ccc(-c2c3nc(c(-c4cc(S(=O)(=O)[O-])ccc4F)c4ccc([nH]4)c(-c4cc(S(=O)(=O)[O-])ccc4F)c4nc(c(-c5cc(S(=O)(=O)[O-])ccc5F)c5ccc2[nH]5)C=C4)C=C3)cc1)N1C(=O)/C(=C/C(C)=C/c2ccccc2)SC1=S
REMARK SMILES IDX 9 1 8 2 7 3 6 4 4 5 5 6 3 7 2 8 1 9 78 10 79 11 93 12 80 13
REMARK SMILES IDX 81 14 92 15 94 16 82 17 83 18 84 19 85 20 86 21 87 22 91 23
REMARK SMILES IDX 88 24 90 25 89 26 10 27 11 28 12 29 13 30 14 31 15 32 16 33
REMARK SMILES IDX 77 34 17 35 76 36 18 37 19 38 20 39 70 40 21 41 75 42 69 43
REMARK SMILES IDX 71 44 22 45 74 46 68 47 67 48 23 50 55 51 35 52 54 53 36 54
REMARK SMILES IDX 39 55 53 56 72 57 37 58 38 59 52 61 73 62 40 63 24 64 25 65
REMARK SMILES IDX 33 66 26 67 32 68 34 69 31 70 27 71 28 72 29 73 30 74 56 75
REMARK SMILES IDX 57 76 65 77 58 78 64 79 66 80 63 81 59 82 60 83 61 84 62 85
REMARK SMILES IDX 41 86 42 87 50 88 43 89 49 90 51 91 48 92 44 93 45 94 46 95
REMARK SMILES IDX 47 96
REMARK H PARENT 71 49 39 60
REMARK Flexibility Score: inf
ROOT
ATOM      1  O   UNL A   1      36.732  32.821  36.031  1.00  0.00    -0.374 OA
ENDROOT
BRANCH   1   2
ATOM      2  C   UNL A   1      36.615  33.776  34.974  1.00  0.00     0.202 C 
BRANCH   2   3
ATOM      3  C   UNL A   1      35.212  33.939  34.375  1.00  0.00     0.261 C 
BRANCH   3   4
ATOM      4  O   UNL A   1      35.300  34.418  33.014  1.00  0.00    -0.462 OA
BRANCH   4   5
ATOM      5  C   UNL A   1      34.737  33.648  32.049  1.00  0.00     0.329 C 
ATOM      6  O   UNL A   1      33.976  32.713  32.277  1.00  0.00    -0.250 OA
BRANCH   5   7
ATOM      7  C   UNL A   1      35.174  34.061  30.623  1.00  0.00     0.201 C 
BRANCH   7   8
ATOM      8  C   UNL A   1      34.118  34.243  29.522  1.00  0.00     0.034 C 
ATOM      9  C   UNL A   1      34.603  34.909  28.240  1.00  0.00     0.007 C 
ENDBRANCH   7   8
BRANCH   7  10
ATOM     10  N   UNL A   1      36.237  33.090  30.242  1.00  0.00    -0.278 N 
ATOM     11  C   UNL A   1      35.906  31.912  29.594  1.00  0.00     0.266 C 
ATOM     12  C   UNL A   1      37.596  33.260  30.378  1.00  0.00     0.149 C 
ATOM     13  O   UNL A   1      34.791  31.425  29.488  1.00  0.00    -0.268 OA
ATOM     14  C   UNL A   1      37.163  31.247  29.122  1.00  0.00     0.080 C 
ATOM     15  S   UNL A   1      38.373  32.459  29.028  1.00  0.00    -0.054 SA
ATOM     16  S   UNL A   1      38.487  33.831  31.656  1.00  0.00    -0.052 S 
ATOM     17  C   UNL A   1      37.302  29.917  29.038  1.00  0.00     0.024 C 
BRANCH  17  18
ATOM     18  C   UNL A   1      38.489  29.111  28.716  1.00  0.00    -0.049 C 
ATOM     19  C   UNL A   1      38.903  28.181  29.830  1.00  0.00     0.044 C 
ATOM     20  C   UNL A   1      39.207  29.241  27.579  1.00  0.00     0.011 C 
BRANCH  20  21
ATOM     21  C   UNL A   1      40.294  28.397  27.051  1.00  0.00    -0.025 A 
ATOM     22  C   UNL A   1      41.285  28.990  26.255  1.00  0.00     0.008 A 
ATOM     23  C   UNL A   1      40.272  27.002  27.160  1.00  0.00     0.008 A 
ATOM     24  C   UNL A   1      42.255  28.209  25.622  1.00  0.00     0.001 A 
ATOM     25  C   UNL A   1      41.250  26.220  26.539  1.00  0.00     0.001 A 
ATOM     26  C   UNL A   1      42.242  26.825  25.771  1.00  0.00     0.000 A 
ENDBRANCH  20  21
ENDBRANCH  17  18
ENDBRANCH   7  10
ENDBRANCH   5   7
ENDBRANCH   4   5
ENDBRANCH   3   4
ENDBRANCH   2   3
ENDBRANCH   1   2
BRANCH   1  27
ATOM     27  C   UNL A   1      38.053  32.437  36.395  1.00  0.00     0.202 C 
BRANCH  27  28
ATOM     28  C   UNL A   1      38.764  31.408  35.513  1.00  0.00     0.261 C 
BRANCH  28  29
ATOM     29  O   UNL A   1      37.833  30.449  35.005  1.00  0.00    -0.460 OA
BRANCH  29  30
ATOM     30  C   UNL A   1      37.824  30.393  33.653  1.00  0.00     0.338 C 
ATOM     31  O   UNL A   1      36.999  30.889  32.902  1.00  0.00    -0.246 OA
BRANCH  30  32
ATOM     32  C   UNL A   1      39.092  29.817  33.185  1.00  0.00     0.060 A 
ATOM     33  C   UNL A   1      39.227  28.429  33.295  1.00  0.00     0.016 A 
ATOM     34  C   UNL A   1      40.130  30.603  32.676  1.00  0.00     0.016 A 
ATOM     35  C   UNL A   1      40.433  27.823  32.973  1.00  0.00     0.010 A 
ATOM     36  C   UNL A   1      41.343  29.994  32.357  1.00  0.00     0.010 A 
ATOM     37  C   UNL A   1      41.512  28.612  32.556  1.00  0.00    -0.014 A 
BRANCH  37  38
ATOM     38  C   UNL A   1      42.866  28.018  32.551  1.00  0.00     0.031 A 
ATOM     39  C   UNL A   1      43.522  27.745  33.877  1.00  0.00     0.074 A 
ATOM     40  C   UNL A   1      43.468  27.679  31.399  1.00  0.00     0.049 A 
ATOM     41  N   UNL A   1      44.719  27.289  34.134  1.00  0.00    -0.248 NA
ATOM     42  C   UNL A   1      42.715  28.032  35.075  1.00  0.00     0.031 C 
ATOM     43  C   UNL A   1      42.884  27.832  30.067  1.00  0.00     0.029 A 
ATOM     44  N   UNL A   1      44.704  27.135  31.167  1.00  0.00    -0.354 N 
ATOM     45  C   UNL A   1      44.814  27.246  35.521  1.00  0.00     0.074 A 
ATOM     46  C   UNL A   1      43.568  27.759  36.049  1.00  0.00     0.031 C 
ATOM     47  C   UNL A   1      43.770  27.398  29.154  1.00  0.00     0.029 A 
ATOM     48  C   UNL A   1      44.997  26.986  29.833  1.00  0.00     0.049 A 
ATOM     49  H   UNL A   1      45.323  26.876  31.888  1.00  0.00     0.167 HD
ATOM     50  C   UNL A   1      45.845  26.806  36.282  1.00  0.00     0.034 A 
ATOM     51  C   UNL A   1      46.139  26.593  29.234  1.00  0.00     0.034 A 
ATOM     52  C   UNL A   1      47.079  26.306  35.729  1.00  0.00     0.049 A 
ATOM     53  C   UNL A   1      47.315  26.208  30.101  1.00  0.00     0.074 A 
ATOM     54  C   UNL A   1      48.195  25.836  36.397  1.00  0.00     0.029 A 
ATOM     55  N   UNL A   1      47.363  26.218  34.371  1.00  0.00    -0.354 N 
ATOM     56  N   UNL A   1      47.406  26.186  31.412  1.00  0.00    -0.248 NA
ATOM     57  C   UNL A   1      48.541  25.786  29.409  1.00  0.00     0.031 C 
ATOM     58  C   UNL A   1      49.180  25.546  35.449  1.00  0.00     0.029 A 
ATOM     59  C   UNL A   1      48.647  25.736  34.184  1.00  0.00     0.049 A 
ATOM     60  H   UNL A   1      46.741  26.464  33.648  1.00  0.00     0.167 HD
ATOM     61  C   UNL A   1      48.681  25.704  31.699  1.00  0.00     0.074 A 
ATOM     62  C   UNL A   1      49.322  25.447  30.425  1.00  0.00     0.031 C 
ATOM     63  C   UNL A   1      49.266  25.481  32.904  1.00  0.00     0.034 A 
BRANCH  50  64
ATOM     64  C   UNL A   1      45.701  26.913  37.781  1.00  0.00     0.023 A 
ATOM     65  C   UNL A   1      46.153  28.038  38.494  1.00  0.00     0.031 A 
ATOM     66  C   UNL A   1      45.132  25.856  38.513  1.00  0.00     0.131 A 
ATOM     67  C   UNL A   1      46.094  28.047  39.896  1.00  0.00     0.055 A 
ATOM     68  C   UNL A   1      44.997  25.909  39.901  1.00  0.00     0.041 A 
ATOM     69  F   UNL A   1      44.711  24.743  37.892  1.00  0.00    -0.206 F 
ATOM     70  C   UNL A   1      45.492  27.004  40.603  1.00  0.00     0.022 A 
BRANCH  67  71
ATOM     71  S   UNL A   1      46.951  29.372  40.791  1.00  0.00     0.124 S 
ATOM     72  O   UNL A   1      48.135  29.572  39.957  1.00  0.00    -0.237 OA
ATOM     73  O   UNL A   1      45.970  30.450  40.776  1.00  0.00    -0.237 OA
ATOM     74  O   UNL A   1      47.215  28.785  42.103  1.00  0.00    -0.744 OA
ENDBRANCH  67  71
ENDBRANCH  50  64
BRANCH  51  75
ATOM     75  C   UNL A   1      46.249  26.585  27.747  1.00  0.00     0.023 A 
ATOM     76  C   UNL A   1      46.007  25.418  27.007  1.00  0.00     0.031 A 
ATOM     77  C   UNL A   1      46.655  27.736  27.046  1.00  0.00     0.131 A 
ATOM     78  C   UNL A   1      46.223  25.411  25.620  1.00  0.00     0.055 A 
ATOM     79  C   UNL A   1      46.809  27.741  25.659  1.00  0.00     0.041 A 
ATOM     80  F   UNL A   1      46.904  28.879  27.704  1.00  0.00    -0.206 F 
ATOM     81  C   UNL A   1      46.607  26.568  24.939  1.00  0.00     0.022 A 
BRANCH  78  82
ATOM     82  S   UNL A   1      46.099  23.836  24.732  1.00  0.00     0.124 S 
ATOM     83  O   UNL A   1      44.701  23.842  24.314  1.00  0.00    -0.237 OA
ATOM     84  O   UNL A   1      47.087  24.008  23.672  1.00  0.00    -0.237 OA
ATOM     85  O   UNL A   1      46.443  22.844  25.748  1.00  0.00    -0.744 OA
ENDBRANCH  78  82
ENDBRANCH  51  75
BRANCH  63  86
ATOM     86  C   UNL A   1      50.642  24.858  32.904  1.00  0.00     0.023 A 
ATOM     87  C   UNL A   1      51.810  25.618  32.722  1.00  0.00     0.031 A 
ATOM     88  C   UNL A   1      50.779  23.472  33.111  1.00  0.00     0.131 A 
ATOM     89  C   UNL A   1      53.060  24.979  32.703  1.00  0.00     0.055 A 
ATOM     90  C   UNL A   1      52.028  22.855  33.158  1.00  0.00     0.041 A 
ATOM     91  F   UNL A   1      49.696  22.697  33.286  1.00  0.00    -0.206 F 
ATOM     92  C   UNL A   1      53.178  23.608  32.941  1.00  0.00     0.022 A 
BRANCH  89  93
ATOM     93  S   UNL A   1      54.530  25.953  32.276  1.00  0.00     0.124 S 
ATOM     94  O   UNL A   1      55.276  25.942  33.531  1.00  0.00    -0.237 OA
ATOM     95  O   UNL A   1      55.111  25.180  31.183  1.00  0.00    -0.237 OA
ATOM     96  O   UNL A   1      53.981  27.252  31.892  1.00  0.00    -0.744 OA
ENDBRANCH  89  93
ENDBRANCH  63  86
ENDBRANCH  37  38
ENDBRANCH  30  32
ENDBRANCH  29  30
ENDBRANCH  28  29
ENDBRANCH  27  28
ENDBRANCH   1  27
TORSDOF 21
ENDMDL
