MODEL 1
REMARK VINA RESULT:     -10.7      0.000      0.000
REMARK SMILES C[C@@H]1[C@@H](C(=O)OCCOCCOC(=O)c2ccc(-c3c4nc(c(-c5cc(S(=O)(=O)[O-])ccc5F)c5ccc([nH]5)c(-c5cc(S(=O)(=O)[O-])ccc5F)c5nc(c(-c6cc(S(=O)(=O)[O-])ccc6F)c6ccc3[nH]6)C=C5)C=C4)cc2)CCN1C(=O)CCCC1CCCCC1
REMARK SMILES IDX 8 1 7 2 6 3 4 4 5 5 3 6 1 7 2 8 80 9 78 10 79 11 81 12 82 13
REMARK SMILES IDX 83 14 84 15 85 16 86 17 87 18 91 19 88 20 90 21 89 22 9 23
REMARK SMILES IDX 10 24 11 25 12 26 13 27 14 28 15 29 16 30 77 31 17 32 76 33
REMARK SMILES IDX 18 34 19 35 20 36 70 37 21 38 75 39 69 40 71 41 22 42 74 43
REMARK SMILES IDX 68 44 67 45 23 47 55 48 35 49 54 50 36 51 39 52 53 53 72 54
REMARK SMILES IDX 37 55 38 56 52 58 73 59 40 60 24 61 25 62 33 63 26 64 32 65
REMARK SMILES IDX 34 66 31 67 27 68 28 69 29 70 30 71 56 72 57 73 65 74 58 75
REMARK SMILES IDX 64 76 66 77 63 78 59 79 60 80 61 81 62 82 41 83 42 84 50 85
REMARK SMILES IDX 43 86 49 87 51 88 48 89 44 90 45 91 46 92 47 93
REMARK H PARENT 71 46 39 57
REMARK Flexibility Score: inf
ROOT
ATOM      1  C   UNL A   1      33.632  28.417  24.541  1.00  0.00     0.202 C 
ENDROOT
BRANCH   1   2
ATOM      2  C   UNL A   1      33.518  26.892  24.471  1.00  0.00     0.261 C 
BRANCH   2   3
ATOM      3  O   UNL A   1      33.153  26.298  25.728  1.00  0.00    -0.463 OA
BRANCH   3   4
ATOM      4  C   UNL A   1      31.929  25.704  25.718  1.00  0.00     0.311 C 
ATOM      5  O   UNL A   1      30.995  26.069  25.017  1.00  0.00    -0.252 OA
BRANCH   4   6
ATOM      6  C   UNL A   1      31.897  24.500  26.650  1.00  0.00     0.123 C 
ATOM      7  C   UNL A   1      33.391  22.622  27.535  1.00  0.00     0.032 C 
ATOM      8  C   UNL A   1      33.138  23.629  26.411  1.00  0.00     0.096 C 
ATOM      9  N   UNL A   1      32.813  22.981  25.153  1.00  0.00    -0.339 N 
ATOM     10  C   UNL A   1      30.770  23.556  26.243  1.00  0.00     0.039 C 
ATOM     11  C   UNL A   1      31.366  22.788  25.056  1.00  0.00     0.121 C 
BRANCH   9  12
ATOM     12  C   UNL A   1      33.579  23.040  23.996  1.00  0.00     0.222 C 
ATOM     13  O   UNL A   1      33.065  22.882  22.884  1.00  0.00    -0.275 OA
BRANCH  12  14
ATOM     14  C   UNL A   1      35.103  23.156  24.103  1.00  0.00     0.100 C 
BRANCH  14  15
ATOM     15  C   UNL A   1      36.002  21.908  24.201  1.00  0.00     0.010 C 
BRANCH  15  16
ATOM     16  C   UNL A   1      35.669  20.683  25.087  1.00  0.00     0.004 C 
BRANCH  16  17
ATOM     17  C   UNL A   1      34.652  19.585  24.651  1.00  0.00    -0.011 C 
ATOM     18  C   UNL A   1      35.364  18.211  24.588  1.00  0.00     0.003 C 
ATOM     19  C   UNL A   1      33.365  19.505  25.470  1.00  0.00     0.003 C 
ATOM     20  C   UNL A   1      34.440  17.025  24.316  1.00  0.00     0.000 C 
ATOM     21  C   UNL A   1      32.457  18.352  25.067  1.00  0.00     0.000 C 
ATOM     22  C   UNL A   1      33.200  17.030  25.199  1.00  0.00     0.000 C 
ENDBRANCH  16  17
ENDBRANCH  15  16
ENDBRANCH  14  15
ENDBRANCH  12  14
ENDBRANCH   9  12
ENDBRANCH   4   6
ENDBRANCH   3   4
ENDBRANCH   2   3
ENDBRANCH   1   2
BRANCH   1  23
ATOM     23  O   UNL A   1      32.514  29.182  24.096  1.00  0.00    -0.374 OA
BRANCH  23  24
ATOM     24  C   UNL A   1      31.468  29.456  25.027  1.00  0.00     0.202 C 
BRANCH  24  25
ATOM     25  C   UNL A   1      31.550  30.760  25.831  1.00  0.00     0.261 C 
BRANCH  25  26
ATOM     26  O   UNL A   1      32.420  30.640  26.972  1.00  0.00    -0.460 OA
BRANCH  26  27
ATOM     27  C   UNL A   1      33.144  31.750  27.253  1.00  0.00     0.338 C 
ATOM     28  O   UNL A   1      32.739  32.909  27.253  1.00  0.00    -0.246 OA
BRANCH  27  29
ATOM     29  C   UNL A   1      34.468  31.374  27.775  1.00  0.00     0.060 A 
ATOM     30  C   UNL A   1      34.680  30.030  28.110  1.00  0.00     0.016 A 
ATOM     31  C   UNL A   1      35.462  32.328  28.003  1.00  0.00     0.016 A 
ATOM     32  C   UNL A   1      35.872  29.640  28.714  1.00  0.00     0.010 A 
ATOM     33  C   UNL A   1      36.654  31.936  28.623  1.00  0.00     0.010 A 
ATOM     34  C   UNL A   1      36.850  30.598  29.011  1.00  0.00    -0.014 A 
BRANCH  34  35
ATOM     35  C   UNL A   1      38.005  30.222  29.865  1.00  0.00     0.031 A 
ATOM     36  C   UNL A   1      39.010  29.237  29.332  1.00  0.00     0.074 A 
ATOM     37  C   UNL A   1      38.172  30.773  31.080  1.00  0.00     0.049 A 
ATOM     38  N   UNL A   1      40.069  28.733  29.911  1.00  0.00    -0.248 NA
ATOM     39  C   UNL A   1      38.785  28.755  27.961  1.00  0.00     0.031 C 
ATOM     40  C   UNL A   1      37.292  31.776  31.679  1.00  0.00     0.029 A 
ATOM     41  N   UNL A   1      39.140  30.566  32.029  1.00  0.00    -0.354 N 
ATOM     42  C   UNL A   1      40.637  27.873  28.978  1.00  0.00     0.074 A 
ATOM     43  C   UNL A   1      39.781  27.895  27.810  1.00  0.00     0.031 C 
ATOM     44  C   UNL A   1      37.756  32.089  32.900  1.00  0.00     0.029 A 
ATOM     45  C   UNL A   1      38.942  31.283  33.186  1.00  0.00     0.049 A 
ATOM     46  H   UNL A   1      39.905  29.960  31.896  1.00  0.00     0.167 HD
ATOM     47  C   UNL A   1      41.773  27.139  29.082  1.00  0.00     0.034 A 
ATOM     48  C   UNL A   1      39.624  31.268  34.349  1.00  0.00     0.034 A 
ATOM     49  C   UNL A   1      42.609  27.120  30.258  1.00  0.00     0.049 A 
ATOM     50  C   UNL A   1      40.834  30.374  34.477  1.00  0.00     0.074 A 
ATOM     51  C   UNL A   1      43.785  26.421  30.469  1.00  0.00     0.029 A 
ATOM     52  N   UNL A   1      42.350  27.821  31.430  1.00  0.00    -0.354 N 
ATOM     53  N   UNL A   1      41.365  29.567  33.586  1.00  0.00    -0.248 NA
ATOM     54  C   UNL A   1      41.541  30.394  35.764  1.00  0.00     0.031 C 
ATOM     55  C   UNL A   1      44.196  26.642  31.789  1.00  0.00     0.029 A 
ATOM     56  C   UNL A   1      43.323  27.544  32.378  1.00  0.00     0.049 A 
ATOM     57  H   UNL A   1      41.585  28.426  31.567  1.00  0.00     0.167 HD
ATOM     58  C   UNL A   1      42.487  29.012  34.196  1.00  0.00     0.074 A 
ATOM     59  C   UNL A   1      42.562  29.586  35.524  1.00  0.00     0.031 C 
ATOM     60  C   UNL A   1      43.379  28.114  33.703  1.00  0.00     0.034 A 
BRANCH  47  61
ATOM     61  C   UNL A   1      42.140  26.259  27.911  1.00  0.00     0.023 A 
ATOM     62  C   UNL A   1      41.660  24.943  27.791  1.00  0.00     0.031 A 
ATOM     63  C   UNL A   1      43.010  26.735  26.914  1.00  0.00     0.131 A 
ATOM     64  C   UNL A   1      42.107  24.128  26.740  1.00  0.00     0.055 A 
ATOM     65  C   UNL A   1      43.388  25.944  25.826  1.00  0.00     0.041 A 
ATOM     66  F   UNL A   1      43.521  27.975  26.986  1.00  0.00    -0.206 F 
ATOM     67  C   UNL A   1      42.949  24.627  25.743  1.00  0.00     0.022 A 
BRANCH  64  68
ATOM     68  S   UNL A   1      41.691  22.362  26.775  1.00  0.00     0.124 S 
ATOM     69  O   UNL A   1      40.322  22.392  27.286  1.00  0.00    -0.237 OA
ATOM     70  O   UNL A   1      41.844  21.975  25.378  1.00  0.00    -0.237 OA
ATOM     71  O   UNL A   1      42.678  21.795  27.692  1.00  0.00    -0.744 OA
ENDBRANCH  64  68
ENDBRANCH  47  61
BRANCH  48  72
ATOM     72  C   UNL A   1      39.164  32.091  35.506  1.00  0.00     0.023 A 
ATOM     73  C   UNL A   1      38.513  31.505  36.602  1.00  0.00     0.031 A 
ATOM     74  C   UNL A   1      39.318  33.489  35.501  1.00  0.00     0.131 A 
ATOM     75  C   UNL A   1      37.996  32.316  37.625  1.00  0.00     0.055 A 
ATOM     76  C   UNL A   1      38.851  34.287  36.548  1.00  0.00     0.041 A 
ATOM     77  F   UNL A   1      39.931  34.103  34.476  1.00  0.00    -0.206 F 
ATOM     78  C   UNL A   1      38.173  33.702  37.611  1.00  0.00     0.022 A 
BRANCH  75  79
ATOM     79  S   UNL A   1      37.005  31.541  38.932  1.00  0.00     0.124 S 
ATOM     80  O   UNL A   1      35.756  32.288  38.838  1.00  0.00    -0.237 OA
ATOM     81  O   UNL A   1      36.958  30.151  38.490  1.00  0.00    -0.237 OA
ATOM     82  O   UNL A   1      37.789  31.783  40.141  1.00  0.00    -0.744 OA
ENDBRANCH  75  79
ENDBRANCH  48  72
BRANCH  60  83
ATOM     83  C   UNL A   1      44.541  27.739  34.592  1.00  0.00     0.023 A 
ATOM     84  C   UNL A   1      44.550  26.550  35.342  1.00  0.00     0.031 A 
ATOM     85  C   UNL A   1      45.655  28.592  34.696  1.00  0.00     0.131 A 
ATOM     86  C   UNL A   1      45.622  26.274  36.205  1.00  0.00     0.055 A 
ATOM     87  C   UNL A   1      46.747  28.284  35.509  1.00  0.00     0.041 A 
ATOM     88  F   UNL A   1      45.700  29.743  34.005  1.00  0.00    -0.206 F 
ATOM     89  C   UNL A   1      46.728  27.125  36.280  1.00  0.00     0.022 A 
BRANCH  86  90
ATOM     90  S   UNL A   1      45.512  24.834  37.302  1.00  0.00     0.124 S 
ATOM     91  O   UNL A   1      46.534  25.132  38.299  1.00  0.00    -0.237 OA
ATOM     92  O   UNL A   1      44.129  24.900  37.765  1.00  0.00    -0.237 OA
ATOM     93  O   UNL A   1      45.814  23.707  36.421  1.00  0.00    -0.744 OA
ENDBRANCH  86  90
ENDBRANCH  60  83
ENDBRANCH  34  35
ENDBRANCH  27  29
ENDBRANCH  26  27
ENDBRANCH  25  26
ENDBRANCH  24  25
ENDBRANCH  23  24
ENDBRANCH   1  23
TORSDOF 22
ENDMDL
MODEL 2
REMARK VINA RESULT:     -10.5      2.117      4.025
REMARK SMILES C[C@@H]1[C@@H](C(=O)OCCOCCOC(=O)c2ccc(-c3c4nc(c(-c5cc(S(=O)(=O)[O-])ccc5F)c5ccc([nH]5)c(-c5cc(S(=O)(=O)[O-])ccc5F)c5nc(c(-c6cc(S(=O)(=O)[O-])ccc6F)c6ccc3[nH]6)C=C5)C=C4)cc2)CCN1C(=O)CCCC1CCCCC1
REMARK SMILES IDX 8 1 7 2 6 3 4 4 5 5 3 6 1 7 2 8 80 9 78 10 79 11 81 12 82 13
REMARK SMILES IDX 83 14 84 15 85 16 86 17 87 18 91 19 88 20 90 21 89 22 9 23
REMARK SMILES IDX 10 24 11 25 12 26 13 27 14 28 15 29 16 30 77 31 17 32 76 33
REMARK SMILES IDX 18 34 19 35 20 36 70 37 21 38 75 39 69 40 71 41 22 42 74 43
REMARK SMILES IDX 68 44 67 45 23 47 55 48 35 49 54 50 36 51 39 52 53 53 72 54
REMARK SMILES IDX 37 55 38 56 52 58 73 59 40 60 24 61 25 62 33 63 26 64 32 65
REMARK SMILES IDX 34 66 31 67 27 68 28 69 29 70 30 71 56 72 57 73 65 74 58 75
REMARK SMILES IDX 64 76 66 77 63 78 59 79 60 80 61 81 62 82 41 83 42 84 50 85
REMARK SMILES IDX 43 86 49 87 51 88 48 89 44 90 45 91 46 92 47 93
REMARK H PARENT 71 46 39 57
REMARK Flexibility Score: inf
ROOT
ATOM      1  C   UNL A   1      31.661  28.357  27.091  1.00  0.00     0.202 C 
ENDROOT
BRANCH   1   2
ATOM      2  C   UNL A   1      31.485  27.171  26.139  1.00  0.00     0.261 C 
BRANCH   2   3
ATOM      3  O   UNL A   1      32.544  26.205  26.243  1.00  0.00    -0.463 OA
BRANCH   3   4
ATOM      4  C   UNL A   1      32.108  24.939  26.483  1.00  0.00     0.311 C 
ATOM      5  O   UNL A   1      30.935  24.638  26.657  1.00  0.00    -0.252 OA
BRANCH   4   6
ATOM      6  C   UNL A   1      33.263  23.946  26.448  1.00  0.00     0.123 C 
ATOM      7  C   UNL A   1      35.592  23.630  25.440  1.00  0.00     0.032 C 
ATOM      8  C   UNL A   1      34.232  24.320  25.319  1.00  0.00     0.096 C 
ATOM      9  N   UNL A   1      33.499  23.893  24.140  1.00  0.00    -0.339 N 
ATOM     10  C   UNL A   1      32.763  22.579  25.991  1.00  0.00     0.039 C 
ATOM     11  C   UNL A   1      32.673  22.731  24.467  1.00  0.00     0.121 C 
BRANCH   9  12
ATOM     12  C   UNL A   1      33.150  24.707  23.070  1.00  0.00     0.222 C 
ATOM     13  O   UNL A   1      34.000  25.090  22.260  1.00  0.00    -0.275 OA
BRANCH  12  14
ATOM     14  C   UNL A   1      31.725  25.259  22.973  1.00  0.00     0.100 C 
BRANCH  14  15
ATOM     15  C   UNL A   1      31.385  26.462  22.071  1.00  0.00     0.010 C 
BRANCH  15  16
ATOM     16  C   UNL A   1      31.110  27.886  22.614  1.00  0.00     0.004 C 
BRANCH  16  17
ATOM     17  C   UNL A   1      29.785  28.652  22.323  1.00  0.00    -0.011 C 
ATOM     18  C   UNL A   1      28.644  28.066  23.191  1.00  0.00     0.003 C 
ATOM     19  C   UNL A   1      29.852  30.172  22.448  1.00  0.00     0.003 C 
ATOM     20  C   UNL A   1      27.322  28.830  23.108  1.00  0.00     0.000 C 
ATOM     21  C   UNL A   1      28.508  30.860  22.254  1.00  0.00     0.000 C 
ATOM     22  C   UNL A   1      27.500  30.333  23.266  1.00  0.00     0.000 C 
ENDBRANCH  16  17
ENDBRANCH  15  16
ENDBRANCH  14  15
ENDBRANCH  12  14
ENDBRANCH   9  12
ENDBRANCH   4   6
ENDBRANCH   3   4
ENDBRANCH   2   3
ENDBRANCH   1   2
BRANCH   1  23
ATOM     23  O   UNL A   1      32.375  29.491  26.606  1.00  0.00    -0.374 OA
BRANCH  23  24
ATOM     24  C   UNL A   1      31.693  30.405  25.748  1.00  0.00     0.202 C 
BRANCH  24  25
ATOM     25  C   UNL A   1      31.391  31.807  26.292  1.00  0.00     0.261 C 
BRANCH  25  26
ATOM     26  O   UNL A   1      32.014  32.039  27.569  1.00  0.00    -0.460 OA
BRANCH  26  27
ATOM     27  C   UNL A   1      32.920  33.046  27.585  1.00  0.00     0.338 C 
ATOM     28  O   UNL A   1      32.692  34.241  27.422  1.00  0.00    -0.246 OA
BRANCH  27  29
ATOM     29  C   UNL A   1      34.228  32.543  28.035  1.00  0.00     0.060 A 
ATOM     30  C   UNL A   1      34.312  31.201  28.429  1.00  0.00     0.016 A 
ATOM     31  C   UNL A   1      35.338  33.385  28.142  1.00  0.00     0.016 A 
ATOM     32  C   UNL A   1      35.494  30.705  28.971  1.00  0.00     0.010 A 
ATOM     33  C   UNL A   1      36.520  32.887  28.700  1.00  0.00     0.010 A 
ATOM     34  C   UNL A   1      36.593  31.555  29.148  1.00  0.00    -0.014 A 
BRANCH  34  35
ATOM     35  C   UNL A   1      37.758  31.089  29.941  1.00  0.00     0.031 A 
ATOM     36  C   UNL A   1      38.705  30.096  29.322  1.00  0.00     0.074 A 
ATOM     37  C   UNL A   1      37.986  31.566  31.177  1.00  0.00     0.049 A 
ATOM     38  N   UNL A   1      39.760  29.521  29.837  1.00  0.00    -0.248 NA
ATOM     39  C   UNL A   1      38.417  29.699  27.935  1.00  0.00     0.031 C 
ATOM     40  C   UNL A   1      37.166  32.568  31.858  1.00  0.00     0.029 A 
ATOM     41  N   UNL A   1      38.974  31.270  32.080  1.00  0.00    -0.354 N 
ATOM     42  C   UNL A   1      40.263  28.691  28.841  1.00  0.00     0.074 A 
ATOM     43  C   UNL A   1      39.372  28.810  27.706  1.00  0.00     0.031 C 
ATOM     44  C   UNL A   1      37.682  32.796  33.078  1.00  0.00     0.029 A 
ATOM     45  C   UNL A   1      38.842  31.930  33.280  1.00  0.00     0.049 A 
ATOM     46  H   UNL A   1      39.709  30.643  31.889  1.00  0.00     0.167 HD
ATOM     47  C   UNL A   1      41.371  27.910  28.868  1.00  0.00     0.034 A 
ATOM     48  C   UNL A   1      39.560  31.825  34.417  1.00  0.00     0.034 A 
ATOM     49  C   UNL A   1      42.242  27.794  30.012  1.00  0.00     0.049 A 
ATOM     50  C   UNL A   1      40.736  30.879  34.456  1.00  0.00     0.074 A 
ATOM     51  C   UNL A   1      43.395  27.040  30.145  1.00  0.00     0.029 A 
ATOM     52  N   UNL A   1      42.049  28.439  31.227  1.00  0.00    -0.354 N 
ATOM     53  N   UNL A   1      41.205  30.101  33.505  1.00  0.00    -0.248 NA
ATOM     54  C   UNL A   1      41.483  30.802  35.718  1.00  0.00     0.031 C 
ATOM     55  C   UNL A   1      43.856  27.172  31.460  1.00  0.00     0.029 A 
ATOM     56  C   UNL A   1      43.040  28.073  32.125  1.00  0.00     0.049 A 
ATOM     57  H   UNL A   1      41.315  29.065  31.422  1.00  0.00     0.167 HD
ATOM     58  C   UNL A   1      42.322  29.471  34.047  1.00  0.00     0.074 A 
ATOM     59  C   UNL A   1      42.463  29.968  35.400  1.00  0.00     0.031 C 
ATOM     60  C   UNL A   1      43.162  28.568  33.477  1.00  0.00     0.034 A 
BRANCH  47  61
ATOM     61  C   UNL A   1      41.665  27.081  27.639  1.00  0.00     0.023 A 
ATOM     62  C   UNL A   1      41.387  25.704  27.588  1.00  0.00     0.031 A 
ATOM     63  C   UNL A   1      42.262  27.674  26.513  1.00  0.00     0.131 A 
ATOM     64  C   UNL A   1      41.769  24.954  26.465  1.00  0.00     0.055 A 
ATOM     65  C   UNL A   1      42.567  26.937  25.366  1.00  0.00     0.041 A 
ATOM     66  F   UNL A   1      42.574  28.979  26.511  1.00  0.00    -0.206 F 
ATOM     67  C   UNL A   1      42.334  25.565  25.344  1.00  0.00     0.022 A 
BRANCH  64  68
ATOM     68  S   UNL A   1      41.650  23.145  26.549  1.00  0.00     0.124 S 
ATOM     69  O   UNL A   1      42.301  22.866  27.827  1.00  0.00    -0.237 OA
ATOM     70  O   UNL A   1      40.210  22.922  26.502  1.00  0.00    -0.237 OA
ATOM     71  O   UNL A   1      42.390  22.698  25.371  1.00  0.00    -0.744 OA
ENDBRANCH  64  68
ENDBRANCH  47  61
BRANCH  48  72
ATOM     72  C   UNL A   1      39.171  32.601  35.630  1.00  0.00     0.023 A 
ATOM     73  C   UNL A   1      39.616  33.917  35.828  1.00  0.00     0.031 A 
ATOM     74  C   UNL A   1      38.393  32.010  36.644  1.00  0.00     0.131 A 
ATOM     75  C   UNL A   1      39.323  34.582  37.028  1.00  0.00     0.055 A 
ATOM     76  C   UNL A   1      38.058  32.696  37.813  1.00  0.00     0.041 A 
ATOM     77  F   UNL A   1      37.943  30.752  36.509  1.00  0.00    -0.206 F 
ATOM     78  C   UNL A   1      38.535  33.985  38.016  1.00  0.00     0.022 A 
BRANCH  75  79
ATOM     79  S   UNL A   1      40.065  36.212  37.322  1.00  0.00     0.124 S 
ATOM     80  O   UNL A   1      41.410  35.850  37.754  1.00  0.00    -0.237 OA
ATOM     81  O   UNL A   1      39.957  36.833  36.006  1.00  0.00    -0.237 OA
ATOM     82  O   UNL A   1      39.211  36.793  38.356  1.00  0.00    -0.744 OA
ENDBRANCH  75  79
ENDBRANCH  48  72
BRANCH  60  83
ATOM     83  C   UNL A   1      44.335  28.100  34.304  1.00  0.00     0.023 A 
ATOM     84  C   UNL A   1      44.259  26.960  35.124  1.00  0.00     0.031 A 
ATOM     85  C   UNL A   1      45.546  28.814  34.279  1.00  0.00     0.131 A 
ATOM     86  C   UNL A   1      45.354  26.600  35.925  1.00  0.00     0.055 A 
ATOM     87  C   UNL A   1      46.653  28.417  35.031  1.00  0.00     0.041 A 
ATOM     88  F   UNL A   1      45.676  29.912  33.517  1.00  0.00    -0.206 F 
ATOM     89  C   UNL A   1      46.555  27.311  35.871  1.00  0.00     0.022 A 
BRANCH  86  90
ATOM     90  S   UNL A   1      45.156  25.243  37.113  1.00  0.00     0.124 S 
ATOM     91  O   UNL A   1      45.392  24.071  36.277  1.00  0.00    -0.237 OA
ATOM     92  O   UNL A   1      46.190  25.540  38.100  1.00  0.00    -0.237 OA
ATOM     93  O   UNL A   1      43.784  25.401  37.590  1.00  0.00    -0.744 OA
ENDBRANCH  86  90
ENDBRANCH  60  83
ENDBRANCH  34  35
ENDBRANCH  27  29
ENDBRANCH  26  27
ENDBRANCH  25  26
ENDBRANCH  24  25
ENDBRANCH  23  24
ENDBRANCH   1  23
TORSDOF 22
ENDMDL
MODEL 3
REMARK VINA RESULT:     -10.1      1.962      7.744
REMARK SMILES C[C@@H]1[C@@H](C(=O)OCCOCCOC(=O)c2ccc(-c3c4nc(c(-c5cc(S(=O)(=O)[O-])ccc5F)c5ccc([nH]5)c(-c5cc(S(=O)(=O)[O-])ccc5F)c5nc(c(-c6cc(S(=O)(=O)[O-])ccc6F)c6ccc3[nH]6)C=C5)C=C4)cc2)CCN1C(=O)CCCC1CCCCC1
REMARK SMILES IDX 8 1 7 2 6 3 4 4 5 5 3 6 1 7 2 8 80 9 78 10 79 11 81 12 82 13
REMARK SMILES IDX 83 14 84 15 85 16 86 17 87 18 91 19 88 20 90 21 89 22 9 23
REMARK SMILES IDX 10 24 11 25 12 26 13 27 14 28 15 29 16 30 77 31 17 32 76 33
REMARK SMILES IDX 18 34 19 35 20 36 70 37 21 38 75 39 69 40 71 41 22 42 74 43
REMARK SMILES IDX 68 44 67 45 23 47 55 48 35 49 54 50 36 51 39 52 53 53 72 54
REMARK SMILES IDX 37 55 38 56 52 58 73 59 40 60 24 61 25 62 33 63 26 64 32 65
REMARK SMILES IDX 34 66 31 67 27 68 28 69 29 70 30 71 56 72 57 73 65 74 58 75
REMARK SMILES IDX 64 76 66 77 63 78 59 79 60 80 61 81 62 82 41 83 42 84 50 85
REMARK SMILES IDX 43 86 49 87 51 88 48 89 44 90 45 91 46 92 47 93
REMARK H PARENT 71 46 39 57
REMARK Flexibility Score: inf
ROOT
ATOM      1  C   UNL A   1      32.534  29.717  26.289  1.00  0.00     0.202 C 
ENDROOT
BRANCH   1   2
ATOM      2  C   UNL A   1      31.769  28.422  26.571  1.00  0.00     0.261 C 
BRANCH   2   3
ATOM      3  O   UNL A   1      31.333  27.754  25.375  1.00  0.00    -0.463 OA
BRANCH   3   4
ATOM      4  C   UNL A   1      30.900  26.482  25.585  1.00  0.00     0.311 C 
ATOM      5  O   UNL A   1      30.741  25.985  26.691  1.00  0.00    -0.252 OA
BRANCH   4   6
ATOM      6  C   UNL A   1      30.590  25.784  24.267  1.00  0.00     0.123 C 
ATOM      7  C   UNL A   1      30.709  23.488  23.149  1.00  0.00     0.032 C 
ATOM      8  C   UNL A   1      31.261  24.404  24.242  1.00  0.00     0.096 C 
ATOM      9  N   UNL A   1      32.654  24.751  24.021  1.00  0.00    -0.339 N 
ATOM     10  C   UNL A   1      31.300  26.497  23.120  1.00  0.00     0.039 C 
ATOM     11  C   UNL A   1      32.737  25.968  23.214  1.00  0.00     0.121 C 
BRANCH   9  12
ATOM     12  C   UNL A   1      33.712  24.399  24.849  1.00  0.00     0.222 C 
ATOM     13  O   UNL A   1      34.856  24.809  24.627  1.00  0.00    -0.275 OA
BRANCH  12  14
ATOM     14  C   UNL A   1      33.490  23.373  25.964  1.00  0.00     0.100 C 
BRANCH  14  15
ATOM     15  C   UNL A   1      34.438  22.173  26.157  1.00  0.00     0.010 C 
BRANCH  15  16
ATOM     16  C   UNL A   1      33.996  20.699  25.982  1.00  0.00     0.004 C 
BRANCH  16  17
ATOM     17  C   UNL A   1      33.787  20.048  24.582  1.00  0.00    -0.011 C 
ATOM     18  C   UNL A   1      34.020  18.520  24.679  1.00  0.00     0.003 C 
ATOM     19  C   UNL A   1      32.463  20.364  23.890  1.00  0.00     0.003 C 
ATOM     20  C   UNL A   1      33.699  17.743  23.402  1.00  0.00     0.000 C 
ATOM     21  C   UNL A   1      32.269  19.622  22.576  1.00  0.00     0.000 C 
ATOM     22  C   UNL A   1      32.349  18.119  22.807  1.00  0.00     0.000 C 
ENDBRANCH  16  17
ENDBRANCH  15  16
ENDBRANCH  14  15
ENDBRANCH  12  14
ENDBRANCH   9  12
ENDBRANCH   4   6
ENDBRANCH   3   4
ENDBRANCH   2   3
ENDBRANCH   1   2
BRANCH   1  23
ATOM     23  O   UNL A   1      31.778  30.854  25.881  1.00  0.00    -0.374 OA
BRANCH  23  24
ATOM     24  C   UNL A   1      31.457  31.840  26.861  1.00  0.00     0.202 C 
BRANCH  24  25
ATOM     25  C   UNL A   1      32.179  33.191  26.780  1.00  0.00     0.261 C 
BRANCH  25  26
ATOM     26  O   UNL A   1      32.186  33.880  28.044  1.00  0.00    -0.460 OA
BRANCH  26  27
ATOM     27  C   UNL A   1      33.310  34.593  28.296  1.00  0.00     0.338 C 
ATOM     28  O   UNL A   1      33.396  35.813  28.408  1.00  0.00    -0.246 OA
BRANCH  27  29
ATOM     29  C   UNL A   1      34.420  33.687  28.634  1.00  0.00     0.060 A 
ATOM     30  C   UNL A   1      34.165  32.652  29.543  1.00  0.00     0.016 A 
ATOM     31  C   UNL A   1      35.707  33.888  28.130  1.00  0.00     0.016 A 
ATOM     32  C   UNL A   1      35.204  31.838  29.986  1.00  0.00     0.010 A 
ATOM     33  C   UNL A   1      36.752  33.077  28.587  1.00  0.00     0.010 A 
ATOM     34  C   UNL A   1      36.511  32.071  29.541  1.00  0.00    -0.014 A 
BRANCH  34  35
ATOM     35  C   UNL A   1      37.642  31.365  30.193  1.00  0.00     0.031 A 
ATOM     36  C   UNL A   1      37.991  31.714  31.615  1.00  0.00     0.074 A 
ATOM     37  C   UNL A   1      38.323  30.405  29.543  1.00  0.00     0.049 A 
ATOM     38  N   UNL A   1      38.957  31.260  32.370  1.00  0.00    -0.248 NA
ATOM     39  C   UNL A   1      37.134  32.715  32.268  1.00  0.00     0.031 C 
ATOM     40  C   UNL A   1      38.041  29.946  28.183  1.00  0.00     0.029 A 
ATOM     41  N   UNL A   1      39.393  29.644  29.939  1.00  0.00    -0.354 N 
ATOM     42  C   UNL A   1      38.828  31.919  33.587  1.00  0.00     0.074 A 
ATOM     43  C   UNL A   1      37.714  32.834  33.453  1.00  0.00     0.031 C 
ATOM     44  C   UNL A   1      38.925  28.988  27.854  1.00  0.00     0.029 A 
ATOM     45  C   UNL A   1      39.858  28.794  28.963  1.00  0.00     0.049 A 
ATOM     46  H   UNL A   1      39.793  29.702  30.837  1.00  0.00     0.167 HD
ATOM     47  C   UNL A   1      39.566  31.769  34.715  1.00  0.00     0.034 A 
ATOM     48  C   UNL A   1      40.929  27.974  28.957  1.00  0.00     0.034 A 
ATOM     49  C   UNL A   1      40.682  30.861  34.828  1.00  0.00     0.049 A 
ATOM     50  C   UNL A   1      41.793  27.891  30.193  1.00  0.00     0.074 A 
ATOM     51  C   UNL A   1      41.492  30.622  35.924  1.00  0.00     0.029 A 
ATOM     52  N   UNL A   1      41.155  30.051  33.802  1.00  0.00    -0.354 N 
ATOM     53  N   UNL A   1      41.659  28.517  31.341  1.00  0.00    -0.248 NA
ATOM     54  C   UNL A   1      42.947  26.984  30.135  1.00  0.00     0.031 C 
ATOM     55  C   UNL A   1      42.496  29.725  35.541  1.00  0.00     0.029 A 
ATOM     56  C   UNL A   1      42.266  29.339  34.230  1.00  0.00     0.049 A 
ATOM     57  H   UNL A   1      40.759  29.992  32.903  1.00  0.00     0.167 HD
ATOM     58  C   UNL A   1      42.693  28.052  32.150  1.00  0.00     0.074 A 
ATOM     59  C   UNL A   1      43.431  27.085  31.364  1.00  0.00     0.031 C 
ATOM     60  C   UNL A   1      43.000  28.387  33.430  1.00  0.00     0.034 A 
BRANCH  47  61
ATOM     61  C   UNL A   1      39.218  32.648  35.893  1.00  0.00     0.023 A 
ATOM     62  C   UNL A   1      39.662  33.979  35.984  1.00  0.00     0.031 A 
ATOM     63  C   UNL A   1      38.457  32.135  36.958  1.00  0.00     0.131 A 
ATOM     64  C   UNL A   1      39.401  34.727  37.142  1.00  0.00     0.055 A 
ATOM     65  C   UNL A   1      38.131  32.911  38.073  1.00  0.00     0.041 A 
ATOM     66  F   UNL A   1      38.025  30.864  36.940  1.00  0.00    -0.206 F 
ATOM     67  C   UNL A   1      38.618  34.210  38.177  1.00  0.00     0.022 A 
BRANCH  64  68
ATOM     68  S   UNL A   1      40.222  36.332  37.341  1.00  0.00     0.124 S 
ATOM     69  O   UNL A   1      41.566  35.928  37.750  1.00  0.00    -0.237 OA
ATOM     70  O   UNL A   1      40.106  36.913  36.009  1.00  0.00    -0.237 OA
ATOM     71  O   UNL A   1      39.436  36.993  38.381  1.00  0.00    -0.744 OA
ENDBRANCH  64  68
ENDBRANCH  47  61
BRANCH  48  72
ATOM     72  C   UNL A   1      41.279  27.196  27.734  1.00  0.00     0.023 A 
ATOM     73  C   UNL A   1      41.102  25.805  27.681  1.00  0.00     0.031 A 
ATOM     74  C   UNL A   1      41.855  27.830  26.618  1.00  0.00     0.131 A 
ATOM     75  C   UNL A   1      41.541  25.086  26.558  1.00  0.00     0.055 A 
ATOM     76  C   UNL A   1      42.239  27.117  25.480  1.00  0.00     0.041 A 
ATOM     77  F   UNL A   1      42.051  29.158  26.616  1.00  0.00    -0.206 F 
ATOM     78  C   UNL A   1      42.095  25.735  25.451  1.00  0.00     0.022 A 
BRANCH  75  79
ATOM     79  S   UNL A   1      41.460  23.274  26.600  1.00  0.00     0.124 S 
ATOM     80  O   UNL A   1      40.102  23.028  26.130  1.00  0.00    -0.237 OA
ATOM     81  O   UNL A   1      42.534  22.903  25.685  1.00  0.00    -0.237 OA
ATOM     82  O   UNL A   1      41.703  22.955  28.006  1.00  0.00    -0.744 OA
ENDBRANCH  75  79
ENDBRANCH  48  72
BRANCH  60  83
ATOM     83  C   UNL A   1      44.160  27.662  34.072  1.00  0.00     0.023 A 
ATOM     84  C   UNL A   1      44.038  26.349  34.559  1.00  0.00     0.031 A 
ATOM     85  C   UNL A   1      45.404  28.303  34.208  1.00  0.00     0.131 A 
ATOM     86  C   UNL A   1      45.124  25.739  35.206  1.00  0.00     0.055 A 
ATOM     87  C   UNL A   1      46.499  27.669  34.798  1.00  0.00     0.041 A 
ATOM     88  F   UNL A   1      45.578  29.558  33.764  1.00  0.00    -0.206 F 
ATOM     89  C   UNL A   1      46.358  26.384  35.314  1.00  0.00     0.022 A 
BRANCH  86  90
ATOM     90  S   UNL A   1      44.875  24.123  35.993  1.00  0.00     0.124 S 
ATOM     91  O   UNL A   1      43.437  24.125  36.242  1.00  0.00    -0.237 OA
ATOM     92  O   UNL A   1      45.343  23.200  34.964  1.00  0.00    -0.237 OA
ATOM     93  O   UNL A   1      45.711  24.191  37.190  1.00  0.00    -0.744 OA
ENDBRANCH  86  90
ENDBRANCH  60  83
ENDBRANCH  34  35
ENDBRANCH  27  29
ENDBRANCH  26  27
ENDBRANCH  25  26
ENDBRANCH  24  25
ENDBRANCH  23  24
ENDBRANCH   1  23
TORSDOF 22
ENDMDL
