MODEL 1
REMARK VINA RESULT:     -10.7      0.000      0.000
REMARK SMILES C[C@@H](Nc1cccc(C(=O)OCCOCCOC(=O)c2ccc(-c3c4nc(c(-c5cc(S(=O)(=O)[O-])ccc5F)c5ccc([nH]5)c(-c5cc(S(=O)(=O)[O-])ccc5F)c5nc(c(-c6cc(S(=O)(=O)[O-])ccc6F)c6ccc3[nH]6)C=C5)C=C4)cc2)c1)C1CC[NH+](C)CC1
REMARK SMILES IDX 14 1 13 2 12 3 11 4 9 5 10 6 8 7 4 8 5 9 83 10 6 11 7 12
REMARK SMILES IDX 3 13 2 15 1 16 84 17 85 18 90 19 86 20 89 21 87 22 88 23
REMARK SMILES IDX 15 25 16 26 17 27 18 28 19 29 20 30 21 31 82 32 22 33 81 34
REMARK SMILES IDX 23 35 24 36 25 37 75 38 26 39 80 40 74 41 76 42 27 43 79 44
REMARK SMILES IDX 73 45 72 46 28 48 60 49 40 50 59 51 41 52 44 53 58 54 77 55
REMARK SMILES IDX 42 56 43 57 57 59 78 60 45 61 29 62 30 63 38 64 31 65 37 66
REMARK SMILES IDX 39 67 36 68 32 69 33 70 34 71 35 72 61 73 62 74 70 75 63 76
REMARK SMILES IDX 69 77 71 78 68 79 64 80 65 81 66 82 67 83 46 84 47 85 55 86
REMARK SMILES IDX 48 87 54 88 56 89 53 90 49 91 50 92 51 93 52 94
REMARK H PARENT 3 14 87 24 76 47 44 58
REMARK Flexibility Score: inf
ROOT
ATOM      1  O   UNL A   1      30.187  30.416  24.403  1.00  0.00    -0.374 OA
ENDROOT
BRANCH   1   2
ATOM      2  C   UNL A   1      29.977  29.949  23.068  1.00  0.00     0.202 C 
BRANCH   2   3
ATOM      3  C   UNL A   1      29.250  28.608  22.925  1.00  0.00     0.261 C 
BRANCH   3   4
ATOM      4  O   UNL A   1      30.178  27.556  22.622  1.00  0.00    -0.460 OA
BRANCH   4   5
ATOM      5  C   UNL A   1      30.411  26.681  23.628  1.00  0.00     0.338 C 
ATOM      6  O   UNL A   1      29.761  26.558  24.657  1.00  0.00    -0.246 OA
BRANCH   5   7
ATOM      7  C   UNL A   1      31.521  25.763  23.272  1.00  0.00     0.062 A 
ATOM      8  C   UNL A   1      33.059  23.978  23.853  1.00  0.00     0.035 A 
ATOM      9  C   UNL A   1      33.410  23.891  22.497  1.00  0.00     0.026 A 
ATOM     10  C   UNL A   1      32.200  25.007  24.236  1.00  0.00     0.041 A 
ATOM     11  C   UNL A   1      32.831  24.722  21.538  1.00  0.00     0.003 A 
ATOM     12  C   UNL A   1      31.851  25.628  21.922  1.00  0.00     0.016 A 
BRANCH   8  13
ATOM     13  N   UNL A   1      33.453  22.952  24.682  1.00  0.00    -0.382 N 
ATOM     14  H   UNL A   1      32.780  22.245  24.807  1.00  0.00     0.160 HD
BRANCH  13  15
ATOM     15  C   UNL A   1      34.715  22.734  25.414  1.00  0.00     0.079 C 
ATOM     16  C   UNL A   1      34.431  23.153  26.864  1.00  0.00     0.031 C 
BRANCH  15  17
ATOM     17  C   UNL A   1      35.986  23.410  24.794  1.00  0.00     0.022 C 
ATOM     18  C   UNL A   1      36.719  22.435  23.856  1.00  0.00     0.067 C 
ATOM     19  C   UNL A   1      37.003  24.087  25.725  1.00  0.00     0.067 C 
ATOM     20  C   UNL A   1      37.611  21.470  24.626  1.00  0.00     0.262 C 
ATOM     21  C   UNL A   1      38.019  23.142  26.363  1.00  0.00     0.262 C 
ATOM     22  N   UNL A   1      38.611  22.208  25.402  1.00  0.00    -0.337 N 
ATOM     23  C   UNL A   1      39.511  21.276  26.081  1.00  0.00     0.332 C 
ATOM     24  H   UNL A   1      39.142  22.774  24.738  1.00  0.00     0.347 HD
ENDBRANCH  15  17
ENDBRANCH  13  15
ENDBRANCH   8  13
ENDBRANCH   5   7
ENDBRANCH   4   5
ENDBRANCH   3   4
ENDBRANCH   2   3
ENDBRANCH   1   2
BRANCH   1  25
ATOM     25  C   UNL A   1      31.380  29.994  25.063  1.00  0.00     0.202 C 
BRANCH  25  26
ATOM     26  C   UNL A   1      31.748  30.701  26.372  1.00  0.00     0.261 C 
BRANCH  26  27
ATOM     27  O   UNL A   1      33.109  30.458  26.767  1.00  0.00    -0.460 OA
BRANCH  27  28
ATOM     28  C   UNL A   1      33.695  31.495  27.410  1.00  0.00     0.338 C 
ATOM     29  O   UNL A   1      33.179  32.571  27.689  1.00  0.00    -0.246 OA
BRANCH  28  30
ATOM     30  C   UNL A   1      35.025  31.101  27.906  1.00  0.00     0.060 A 
ATOM     31  C   UNL A   1      35.219  29.750  28.221  1.00  0.00     0.016 A 
ATOM     32  C   UNL A   1      36.041  32.035  28.129  1.00  0.00     0.016 A 
ATOM     33  C   UNL A   1      36.409  29.335  28.811  1.00  0.00     0.010 A 
ATOM     34  C   UNL A   1      37.234  31.615  28.728  1.00  0.00     0.010 A 
ATOM     35  C   UNL A   1      37.408  30.271  29.106  1.00  0.00    -0.014 A 
BRANCH  35  36
ATOM     36  C   UNL A   1      38.564  29.862  29.941  1.00  0.00     0.031 A 
ATOM     37  C   UNL A   1      38.696  30.427  31.329  1.00  0.00     0.074 A 
ATOM     38  C   UNL A   1      39.465  28.976  29.479  1.00  0.00     0.049 A 
ATOM     39  N   UNL A   1      39.631  30.230  32.222  1.00  0.00    -0.248 NA
ATOM     40  C   UNL A   1      37.630  31.343  31.763  1.00  0.00     0.031 C 
ATOM     41  C   UNL A   1      39.419  28.337  28.165  1.00  0.00     0.029 A 
ATOM     42  N   UNL A   1      40.596  28.466  30.063  1.00  0.00    -0.354 N 
ATOM     43  C   UNL A   1      39.272  31.003  33.322  1.00  0.00     0.074 A 
ATOM     44  C   UNL A   1      38.055  31.700  32.965  1.00  0.00     0.031 C 
ATOM     45  C   UNL A   1      40.487  27.531  28.036  1.00  0.00     0.029 A 
ATOM     46  C   UNL A   1      41.306  27.623  29.243  1.00  0.00     0.049 A 
ATOM     47  H   UNL A   1      40.874  28.684  30.982  1.00  0.00     0.167 HD
ATOM     48  C   UNL A   1      39.899  31.114  34.521  1.00  0.00     0.034 A 
ATOM     49  C   UNL A   1      42.496  27.016  29.433  1.00  0.00     0.034 A 
ATOM     50  C   UNL A   1      41.118  30.416  34.855  1.00  0.00     0.049 A 
ATOM     51  C   UNL A   1      43.212  27.206  30.749  1.00  0.00     0.074 A 
ATOM     52  C   UNL A   1      41.818  30.426  36.048  1.00  0.00     0.029 A 
ATOM     53  N   UNL A   1      41.830  29.597  33.987  1.00  0.00    -0.354 N 
ATOM     54  N   UNL A   1      42.850  27.917  31.793  1.00  0.00    -0.248 NA
ATOM     55  C   UNL A   1      44.490  26.502  30.914  1.00  0.00     0.031 C 
ATOM     56  C   UNL A   1      42.990  29.679  35.877  1.00  0.00     0.029 A 
ATOM     57  C   UNL A   1      42.982  29.132  34.603  1.00  0.00     0.049 A 
ATOM     58  H   UNL A   1      41.556  29.378  33.067  1.00  0.00     0.167 HD
ATOM     59  C   UNL A   1      43.846  27.725  32.748  1.00  0.00     0.074 A 
ATOM     60  C   UNL A   1      44.811  26.819  32.160  1.00  0.00     0.031 C 
ATOM     61  C   UNL A   1      43.950  28.246  33.998  1.00  0.00     0.034 A 
BRANCH  48  62
ATOM     62  C   UNL A   1      39.302  32.068  35.528  1.00  0.00     0.023 A 
ATOM     63  C   UNL A   1      39.733  33.402  35.637  1.00  0.00     0.031 A 
ATOM     64  C   UNL A   1      38.312  31.623  36.422  1.00  0.00     0.131 A 
ATOM     65  C   UNL A   1      39.233  34.219  36.663  1.00  0.00     0.055 A 
ATOM     66  C   UNL A   1      37.759  32.465  37.389  1.00  0.00     0.041 A 
ATOM     67  F   UNL A   1      37.876  30.355  36.384  1.00  0.00    -0.206 F 
ATOM     68  C   UNL A   1      38.232  33.767  37.525  1.00  0.00     0.022 A 
BRANCH  65  69
ATOM     69  S   UNL A   1      40.021  35.828  36.954  1.00  0.00     0.124 S 
ATOM     70  O   UNL A   1      41.427  35.452  37.071  1.00  0.00    -0.237 OA
ATOM     71  O   UNL A   1      39.656  36.577  35.758  1.00  0.00    -0.237 OA
ATOM     72  O   UNL A   1      39.402  36.293  38.194  1.00  0.00    -0.744 OA
ENDBRANCH  65  69
ENDBRANCH  48  62
BRANCH  49  73
ATOM     73  C   UNL A   1      43.113  26.215  28.338  1.00  0.00     0.023 A 
ATOM     74  C   UNL A   1      44.141  26.737  27.539  1.00  0.00     0.031 A 
ATOM     75  C   UNL A   1      42.647  24.918  28.051  1.00  0.00     0.131 A 
ATOM     76  C   UNL A   1      44.643  25.982  26.466  1.00  0.00     0.055 A 
ATOM     77  C   UNL A   1      43.183  24.153  27.015  1.00  0.00     0.041 A 
ATOM     78  F   UNL A   1      41.663  24.372  28.785  1.00  0.00    -0.206 F 
ATOM     79  C   UNL A   1      44.181  24.689  26.208  1.00  0.00     0.022 A 
BRANCH  76  80
ATOM     80  S   UNL A   1      45.860  26.746  25.360  1.00  0.00     0.124 S 
ATOM     81  O   UNL A   1      46.345  25.594  24.608  1.00  0.00    -0.237 OA
ATOM     82  O   UNL A   1      45.040  27.698  24.618  1.00  0.00    -0.237 OA
ATOM     83  O   UNL A   1      46.828  27.343  26.278  1.00  0.00    -0.744 OA
ENDBRANCH  76  80
ENDBRANCH  49  73
BRANCH  61  84
ATOM     84  C   UNL A   1      45.141  27.816  34.823  1.00  0.00     0.023 A 
ATOM     85  C   UNL A   1      45.123  26.641  35.594  1.00  0.00     0.031 A 
ATOM     86  C   UNL A   1      46.306  28.604  34.847  1.00  0.00     0.131 A 
ATOM     87  C   UNL A   1      46.225  26.316  36.400  1.00  0.00     0.055 A 
ATOM     88  C   UNL A   1      47.422  28.243  35.604  1.00  0.00     0.041 A 
ATOM     89  F   UNL A   1      46.379  29.739  34.134  1.00  0.00    -0.206 F 
ATOM     90  C   UNL A   1      47.380  27.101  36.397  1.00  0.00     0.022 A 
BRANCH  87  91
ATOM     91  S   UNL A   1      46.090  24.904  37.533  1.00  0.00     0.124 S 
ATOM     92  O   UNL A   1      45.811  25.562  38.805  1.00  0.00    -0.237 OA
ATOM     93  O   UNL A   1      44.989  24.142  36.953  1.00  0.00    -0.237 OA
ATOM     94  O   UNL A   1      47.401  24.265  37.440  1.00  0.00    -0.744 OA
ENDBRANCH  87  91
ENDBRANCH  61  84
ENDBRANCH  35  36
ENDBRANCH  28  30
ENDBRANCH  27  28
ENDBRANCH  26  27
ENDBRANCH  25  26
ENDBRANCH   1  25
TORSDOF 20
ENDMDL
MODEL 2
REMARK VINA RESULT:     -10.6      2.267      7.828
REMARK SMILES C[C@@H](Nc1cccc(C(=O)OCCOCCOC(=O)c2ccc(-c3c4nc(c(-c5cc(S(=O)(=O)[O-])ccc5F)c5ccc([nH]5)c(-c5cc(S(=O)(=O)[O-])ccc5F)c5nc(c(-c6cc(S(=O)(=O)[O-])ccc6F)c6ccc3[nH]6)C=C5)C=C4)cc2)c1)C1CC[NH+](C)CC1
REMARK SMILES IDX 14 1 13 2 12 3 11 4 9 5 10 6 8 7 4 8 5 9 83 10 6 11 7 12
REMARK SMILES IDX 3 13 2 15 1 16 84 17 85 18 90 19 86 20 89 21 87 22 88 23
REMARK SMILES IDX 15 25 16 26 17 27 18 28 19 29 20 30 21 31 82 32 22 33 81 34
REMARK SMILES IDX 23 35 24 36 25 37 75 38 26 39 80 40 74 41 76 42 27 43 79 44
REMARK SMILES IDX 73 45 72 46 28 48 60 49 40 50 59 51 41 52 44 53 58 54 77 55
REMARK SMILES IDX 42 56 43 57 57 59 78 60 45 61 29 62 30 63 38 64 31 65 37 66
REMARK SMILES IDX 39 67 36 68 32 69 33 70 34 71 35 72 61 73 62 74 70 75 63 76
REMARK SMILES IDX 69 77 71 78 68 79 64 80 65 81 66 82 67 83 46 84 47 85 55 86
REMARK SMILES IDX 48 87 54 88 56 89 53 90 49 91 50 92 51 93 52 94
REMARK H PARENT 3 14 87 24 76 47 44 58
REMARK Flexibility Score: inf
ROOT
ATOM      1  O   UNL A   1      30.330  29.957  24.243  1.00  0.00    -0.374 OA
ENDROOT
BRANCH   1   2
ATOM      2  C   UNL A   1      30.425  29.080  23.119  1.00  0.00     0.202 C 
BRANCH   2   3
ATOM      3  C   UNL A   1      29.786  27.698  23.280  1.00  0.00     0.261 C 
BRANCH   3   4
ATOM      4  O   UNL A   1      30.568  26.875  24.159  1.00  0.00    -0.460 OA
BRANCH   4   5
ATOM      5  C   UNL A   1      30.945  25.678  23.653  1.00  0.00     0.338 C 
ATOM      6  O   UNL A   1      31.491  25.479  22.576  1.00  0.00    -0.246 OA
BRANCH   5   7
ATOM      7  C   UNL A   1      30.722  24.598  24.645  1.00  0.00     0.062 A 
ATOM      8  C   UNL A   1      31.225  22.391  25.518  1.00  0.00     0.035 A 
ATOM      9  C   UNL A   1      30.475  22.714  26.659  1.00  0.00     0.026 A 
ATOM     10  C   UNL A   1      31.232  23.307  24.467  1.00  0.00     0.041 A 
ATOM     11  C   UNL A   1      29.856  23.956  26.799  1.00  0.00     0.003 A 
ATOM     12  C   UNL A   1      30.020  24.916  25.810  1.00  0.00     0.016 A 
BRANCH   8  13
ATOM     13  N   UNL A   1      32.028  21.274  25.576  1.00  0.00    -0.382 N 
ATOM     14  H   UNL A   1      31.566  20.427  25.381  1.00  0.00     0.160 HD
BRANCH  13  15
ATOM     15  C   UNL A   1      33.465  21.133  25.882  1.00  0.00     0.079 C 
ATOM     16  C   UNL A   1      33.757  22.161  26.985  1.00  0.00     0.031 C 
BRANCH  15  17
ATOM     17  C   UNL A   1      34.433  21.227  24.652  1.00  0.00     0.022 C 
ATOM     18  C   UNL A   1      35.811  20.636  24.998  1.00  0.00     0.067 C 
ATOM     19  C   UNL A   1      34.617  22.579  23.947  1.00  0.00     0.067 C 
ATOM     20  C   UNL A   1      36.681  21.630  25.756  1.00  0.00     0.262 C 
ATOM     21  C   UNL A   1      35.629  23.515  24.605  1.00  0.00     0.262 C 
ATOM     22  N   UNL A   1      36.882  22.843  24.958  1.00  0.00    -0.337 N 
ATOM     23  C   UNL A   1      37.777  23.765  25.659  1.00  0.00     0.332 C 
ATOM     24  H   UNL A   1      37.311  22.551  24.079  1.00  0.00     0.347 HD
ENDBRANCH  15  17
ENDBRANCH  13  15
ENDBRANCH   8  13
ENDBRANCH   5   7
ENDBRANCH   4   5
ENDBRANCH   3   4
ENDBRANCH   2   3
ENDBRANCH   1   2
BRANCH   1  25
ATOM     25  C   UNL A   1      31.481  30.077  25.079  1.00  0.00     0.202 C 
BRANCH  25  26
ATOM     26  C   UNL A   1      31.474  31.190  26.132  1.00  0.00     0.261 C 
BRANCH  26  27
ATOM     27  O   UNL A   1      32.437  30.969  27.176  1.00  0.00    -0.460 OA
BRANCH  27  28
ATOM     28  C   UNL A   1      33.196  32.051  27.471  1.00  0.00     0.338 C 
ATOM     29  O   UNL A   1      32.829  33.220  27.492  1.00  0.00    -0.246 OA
BRANCH  28  30
ATOM     30  C   UNL A   1      34.524  31.628  27.947  1.00  0.00     0.060 A 
ATOM     31  C   UNL A   1      34.687  30.276  28.277  1.00  0.00     0.016 A 
ATOM     32  C   UNL A   1      35.569  32.536  28.139  1.00  0.00     0.016 A 
ATOM     33  C   UNL A   1      35.876  29.837  28.851  1.00  0.00     0.010 A 
ATOM     34  C   UNL A   1      36.761  32.093  28.722  1.00  0.00     0.010 A 
ATOM     35  C   UNL A   1      36.905  30.749  29.115  1.00  0.00    -0.014 A 
BRANCH  35  36
ATOM     36  C   UNL A   1      38.066  30.320  29.934  1.00  0.00     0.031 A 
ATOM     37  C   UNL A   1      39.029  29.316  29.362  1.00  0.00     0.074 A 
ATOM     38  C   UNL A   1      38.274  30.842  31.156  1.00  0.00     0.049 A 
ATOM     39  N   UNL A   1      40.092  28.782  29.903  1.00  0.00    -0.248 NA
ATOM     40  C   UNL A   1      38.746  28.848  27.996  1.00  0.00     0.031 C 
ATOM     41  C   UNL A   1      37.428  31.847  31.797  1.00  0.00     0.029 A 
ATOM     42  N   UNL A   1      39.260  30.594  32.076  1.00  0.00    -0.354 N 
ATOM     43  C   UNL A   1      40.604  27.908  28.948  1.00  0.00     0.074 A 
ATOM     44  C   UNL A   1      39.709  27.958  27.812  1.00  0.00     0.031 C 
ATOM     45  C   UNL A   1      37.923  32.117  33.017  1.00  0.00     0.029 A 
ATOM     46  C   UNL A   1      39.098  31.282  33.255  1.00  0.00     0.049 A 
ATOM     47  H   UNL A   1      40.011  29.979  31.910  1.00  0.00     0.167 HD
ATOM     48  C   UNL A   1      41.722  27.142  29.013  1.00  0.00     0.034 A 
ATOM     49  C   UNL A   1      39.803  31.225  34.404  1.00  0.00     0.034 A 
ATOM     50  C   UNL A   1      42.599  27.100  30.160  1.00  0.00     0.049 A 
ATOM     51  C   UNL A   1      41.005  30.315  34.480  1.00  0.00     0.074 A 
ATOM     52  C   UNL A   1      43.774  26.388  30.320  1.00  0.00     0.029 A 
ATOM     53  N   UNL A   1      42.386  27.783  31.350  1.00  0.00    -0.354 N 
ATOM     54  N   UNL A   1      41.496  29.514  33.562  1.00  0.00    -0.248 NA
ATOM     55  C   UNL A   1      41.752  30.310  35.745  1.00  0.00     0.031 C 
ATOM     56  C   UNL A   1      44.228  26.579  31.631  1.00  0.00     0.029 A 
ATOM     57  C   UNL A   1      43.383  27.478  32.264  1.00  0.00     0.049 A 
ATOM     58  H   UNL A   1      41.634  28.397  31.521  1.00  0.00     0.167 HD
ATOM     59  C   UNL A   1      42.624  28.928  34.132  1.00  0.00     0.074 A 
ATOM     60  C   UNL A   1      42.748  29.483  35.464  1.00  0.00     0.031 C 
ATOM     61  C   UNL A   1      43.483  28.020  33.600  1.00  0.00     0.034 A 
BRANCH  48  62
ATOM     62  C   UNL A   1      42.018  26.247  27.833  1.00  0.00     0.023 A 
ATOM     63  C   UNL A   1      41.611  24.902  27.795  1.00  0.00     0.031 A 
ATOM     64  C   UNL A   1      42.757  26.740  26.741  1.00  0.00     0.131 A 
ATOM     65  C   UNL A   1      42.008  24.079  26.731  1.00  0.00     0.055 A 
ATOM     66  C   UNL A   1      43.079  25.936  25.646  1.00  0.00     0.041 A 
ATOM     67  F   UNL A   1      43.194  28.008  26.729  1.00  0.00    -0.206 F 
ATOM     68  C   UNL A   1      42.719  24.592  25.644  1.00  0.00     0.022 A 
BRANCH  65  69
ATOM     69  S   UNL A   1      41.716  22.292  26.860  1.00  0.00     0.124 S 
ATOM     70  O   UNL A   1      42.033  21.843  25.507  1.00  0.00    -0.237 OA
ATOM     71  O   UNL A   1      42.653  21.894  27.903  1.00  0.00    -0.237 OA
ATOM     72  O   UNL A   1      40.303  22.201  27.223  1.00  0.00    -0.744 OA
ENDBRANCH  65  69
ENDBRANCH  48  62
BRANCH  49  73
ATOM     73  C   UNL A   1      39.365  32.013  35.592  1.00  0.00     0.023 A 
ATOM     74  C   UNL A   1      38.609  31.428  36.619  1.00  0.00     0.031 A 
ATOM     75  C   UNL A   1      39.668  33.383  35.693  1.00  0.00     0.131 A 
ATOM     76  C   UNL A   1      38.147  32.220  37.683  1.00  0.00     0.055 A 
ATOM     77  C   UNL A   1      39.250  34.154  36.777  1.00  0.00     0.041 A 
ATOM     78  F   UNL A   1      40.388  33.991  34.736  1.00  0.00    -0.206 F 
ATOM     79  C   UNL A   1      38.475  33.574  37.777  1.00  0.00     0.022 A 
BRANCH  76  80
ATOM     80  S   UNL A   1      37.044  31.468  38.911  1.00  0.00     0.124 S 
ATOM     81  O   UNL A   1      36.860  30.128  38.365  1.00  0.00    -0.237 OA
ATOM     82  O   UNL A   1      37.841  31.560  40.130  1.00  0.00    -0.237 OA
ATOM     83  O   UNL A   1      35.861  32.324  38.876  1.00  0.00    -0.744 OA
ENDBRANCH  76  80
ENDBRANCH  49  73
BRANCH  61  84
ATOM     84  C   UNL A   1      44.652  27.597  34.459  1.00  0.00     0.023 A 
ATOM     85  C   UNL A   1      44.615  26.429  35.240  1.00  0.00     0.031 A 
ATOM     86  C   UNL A   1      45.817  28.385  34.505  1.00  0.00     0.131 A 
ATOM     87  C   UNL A   1      45.695  26.111  36.077  1.00  0.00     0.055 A 
ATOM     88  C   UNL A   1      46.913  28.031  35.293  1.00  0.00     0.041 A 
ATOM     89  F   UNL A   1      45.908  29.513  33.783  1.00  0.00    -0.206 F 
ATOM     90  C   UNL A   1      46.850  26.896  36.096  1.00  0.00     0.022 A 
BRANCH  87  91
ATOM     91  S   UNL A   1      45.531  24.711  37.219  1.00  0.00     0.124 S 
ATOM     92  O   UNL A   1      46.189  25.219  38.418  1.00  0.00    -0.237 OA
ATOM     93  O   UNL A   1      44.083  24.547  37.306  1.00  0.00    -0.237 OA
ATOM     94  O   UNL A   1      46.236  23.628  36.536  1.00  0.00    -0.744 OA
ENDBRANCH  87  91
ENDBRANCH  61  84
ENDBRANCH  35  36
ENDBRANCH  28  30
ENDBRANCH  27  28
ENDBRANCH  26  27
ENDBRANCH  25  26
ENDBRANCH   1  25
TORSDOF 20
ENDMDL
MODEL 3
REMARK VINA RESULT:     -10.6      2.064      2.925
REMARK SMILES C[C@@H](Nc1cccc(C(=O)OCCOCCOC(=O)c2ccc(-c3c4nc(c(-c5cc(S(=O)(=O)[O-])ccc5F)c5ccc([nH]5)c(-c5cc(S(=O)(=O)[O-])ccc5F)c5nc(c(-c6cc(S(=O)(=O)[O-])ccc6F)c6ccc3[nH]6)C=C5)C=C4)cc2)c1)C1CC[NH+](C)CC1
REMARK SMILES IDX 14 1 13 2 12 3 11 4 9 5 10 6 8 7 4 8 5 9 83 10 6 11 7 12
REMARK SMILES IDX 3 13 2 15 1 16 84 17 85 18 90 19 86 20 89 21 87 22 88 23
REMARK SMILES IDX 15 25 16 26 17 27 18 28 19 29 20 30 21 31 82 32 22 33 81 34
REMARK SMILES IDX 23 35 24 36 25 37 75 38 26 39 80 40 74 41 76 42 27 43 79 44
REMARK SMILES IDX 73 45 72 46 28 48 60 49 40 50 59 51 41 52 44 53 58 54 77 55
REMARK SMILES IDX 42 56 43 57 57 59 78 60 45 61 29 62 30 63 38 64 31 65 37 66
REMARK SMILES IDX 39 67 36 68 32 69 33 70 34 71 35 72 61 73 62 74 70 75 63 76
REMARK SMILES IDX 69 77 71 78 68 79 64 80 65 81 66 82 67 83 46 84 47 85 55 86
REMARK SMILES IDX 48 87 54 88 56 89 53 90 49 91 50 92 51 93 52 94
REMARK H PARENT 3 14 87 24 76 47 44 58
REMARK Flexibility Score: inf
ROOT
ATOM      1  O   UNL A   1      31.185  27.925  25.899  1.00  0.00    -0.374 OA
ENDROOT
BRANCH   1   2
ATOM      2  C   UNL A   1      31.628  26.603  25.580  1.00  0.00     0.202 C 
BRANCH   2   3
ATOM      3  C   UNL A   1      30.727  25.793  24.643  1.00  0.00     0.261 C 
BRANCH   3   4
ATOM      4  O   UNL A   1      30.958  24.386  24.806  1.00  0.00    -0.460 OA
BRANCH   4   5
ATOM      5  C   UNL A   1      30.802  23.913  26.064  1.00  0.00     0.338 C 
ATOM      6  O   UNL A   1      29.849  24.109  26.806  1.00  0.00    -0.246 OA
BRANCH   5   7
ATOM      7  C   UNL A   1      31.909  22.990  26.416  1.00  0.00     0.062 A 
ATOM      8  C   UNL A   1      33.512  21.276  25.797  1.00  0.00     0.035 A 
ATOM      9  C   UNL A   1      34.142  21.474  27.035  1.00  0.00     0.026 A 
ATOM     10  C   UNL A   1      32.321  21.961  25.560  1.00  0.00     0.041 A 
ATOM     11  C   UNL A   1      33.671  22.411  27.953  1.00  0.00     0.003 A 
ATOM     12  C   UNL A   1      32.580  23.203  27.622  1.00  0.00     0.016 A 
BRANCH   8  13
ATOM     13  N   UNL A   1      34.189  20.551  24.843  1.00  0.00    -0.382 N 
ATOM     14  H   UNL A   1      34.347  21.031  23.999  1.00  0.00     0.160 HD
BRANCH  13  15
ATOM     15  C   UNL A   1      34.718  19.174  24.874  1.00  0.00     0.079 C 
ATOM     16  C   UNL A   1      36.238  19.310  24.702  1.00  0.00     0.031 C 
BRANCH  15  17
ATOM     17  C   UNL A   1      34.052  18.168  23.872  1.00  0.00     0.022 C 
ATOM     18  C   UNL A   1      32.526  18.132  24.070  1.00  0.00     0.067 C 
ATOM     19  C   UNL A   1      34.592  16.733  23.784  1.00  0.00     0.067 C 
ATOM     20  C   UNL A   1      32.126  17.234  25.233  1.00  0.00     0.262 C 
ATOM     21  C   UNL A   1      34.052  15.777  24.845  1.00  0.00     0.262 C 
ATOM     22  N   UNL A   1      32.598  15.865  25.007  1.00  0.00    -0.337 N 
ATOM     23  C   UNL A   1      32.149  14.992  26.091  1.00  0.00     0.332 C 
ATOM     24  H   UNL A   1      32.190  15.554  24.124  1.00  0.00     0.347 HD
ENDBRANCH  15  17
ENDBRANCH  13  15
ENDBRANCH   8  13
ENDBRANCH   5   7
ENDBRANCH   4   5
ENDBRANCH   3   4
ENDBRANCH   2   3
ENDBRANCH   1   2
BRANCH   1  25
ATOM     25  C   UNL A   1      31.808  28.574  27.007  1.00  0.00     0.202 C 
BRANCH  25  26
ATOM     26  C   UNL A   1      32.032  30.086  26.902  1.00  0.00     0.261 C 
BRANCH  26  27
ATOM     27  O   UNL A   1      33.401  30.423  26.620  1.00  0.00    -0.460 OA
BRANCH  27  28
ATOM     28  C   UNL A   1      33.893  31.430  27.380  1.00  0.00     0.338 C 
ATOM     29  O   UNL A   1      33.302  32.447  27.722  1.00  0.00    -0.246 OA
BRANCH  28  30
ATOM     30  C   UNL A   1      35.219  31.067  27.909  1.00  0.00     0.060 A 
ATOM     31  C   UNL A   1      35.460  29.711  28.164  1.00  0.00     0.016 A 
ATOM     32  C   UNL A   1      36.184  32.030  28.218  1.00  0.00     0.016 A 
ATOM     33  C   UNL A   1      36.644  29.317  28.780  1.00  0.00     0.010 A 
ATOM     34  C   UNL A   1      37.371  31.631  28.844  1.00  0.00     0.010 A 
ATOM     35  C   UNL A   1      37.589  30.278  29.162  1.00  0.00    -0.014 A 
BRANCH  35  36
ATOM     36  C   UNL A   1      38.729  29.875  30.021  1.00  0.00     0.031 A 
ATOM     37  C   UNL A   1      38.839  30.456  31.404  1.00  0.00     0.074 A 
ATOM     38  C   UNL A   1      39.634  28.980  29.586  1.00  0.00     0.049 A 
ATOM     39  N   UNL A   1      39.757  30.268  32.316  1.00  0.00    -0.248 NA
ATOM     40  C   UNL A   1      37.769  31.381  31.808  1.00  0.00     0.031 C 
ATOM     41  C   UNL A   1      39.610  28.326  28.279  1.00  0.00     0.029 A 
ATOM     42  N   UNL A   1      40.754  28.474  30.195  1.00  0.00    -0.354 N 
ATOM     43  C   UNL A   1      39.382  31.055  33.400  1.00  0.00     0.074 A 
ATOM     44  C   UNL A   1      38.174  31.751  33.014  1.00  0.00     0.031 C 
ATOM     45  C   UNL A   1      40.677  27.516  28.178  1.00  0.00     0.029 A 
ATOM     46  C   UNL A   1      41.476  27.619  29.398  1.00  0.00     0.049 A 
ATOM     47  H   UNL A   1      41.017  28.703  31.117  1.00  0.00     0.167 HD
ATOM     48  C   UNL A   1      39.988  31.178  34.608  1.00  0.00     0.034 A 
ATOM     49  C   UNL A   1      42.660  27.011  29.616  1.00  0.00     0.034 A 
ATOM     50  C   UNL A   1      41.199  30.480  34.971  1.00  0.00     0.049 A 
ATOM     51  C   UNL A   1      43.353  27.214  30.942  1.00  0.00     0.074 A 
ATOM     52  C   UNL A   1      41.878  30.503  36.177  1.00  0.00     0.029 A 
ATOM     53  N   UNL A   1      41.923  29.649  34.126  1.00  0.00    -0.354 N 
ATOM     54  N   UNL A   1      42.976  27.939  31.970  1.00  0.00    -0.248 NA
ATOM     55  C   UNL A   1      44.626  26.509  31.138  1.00  0.00     0.031 C 
ATOM     56  C   UNL A   1      43.050  29.750  36.035  1.00  0.00     0.029 A 
ATOM     57  C   UNL A   1      43.063  29.188  34.768  1.00  0.00     0.049 A 
ATOM     58  H   UNL A   1      41.664  29.420  33.204  1.00  0.00     0.167 HD
ATOM     59  C   UNL A   1      43.954  27.756  32.945  1.00  0.00     0.074 A 
ATOM     60  C   UNL A   1      44.927  26.840  32.385  1.00  0.00     0.031 C 
ATOM     61  C   UNL A   1      44.038  28.292  34.190  1.00  0.00     0.034 A 
BRANCH  48  62
ATOM     62  C   UNL A   1      39.378  32.146  35.594  1.00  0.00     0.023 A 
ATOM     63  C   UNL A   1      39.785  33.490  35.668  1.00  0.00     0.031 A 
ATOM     64  C   UNL A   1      38.398  31.706  36.502  1.00  0.00     0.131 A 
ATOM     65  C   UNL A   1      39.273  34.322  36.675  1.00  0.00     0.055 A 
ATOM     66  C   UNL A   1      37.832  32.561  37.449  1.00  0.00     0.041 A 
ATOM     67  F   UNL A   1      37.984  30.429  36.496  1.00  0.00    -0.206 F 
ATOM     68  C   UNL A   1      38.282  33.875  37.551  1.00  0.00     0.022 A 
BRANCH  65  69
ATOM     69  S   UNL A   1      40.032  35.952  36.923  1.00  0.00     0.124 S 
ATOM     70  O   UNL A   1      39.229  36.488  38.018  1.00  0.00    -0.237 OA
ATOM     71  O   UNL A   1      41.412  35.610  37.249  1.00  0.00    -0.237 OA
ATOM     72  O   UNL A   1      39.842  36.618  35.636  1.00  0.00    -0.744 OA
ENDBRANCH  65  69
ENDBRANCH  48  62
BRANCH  49  73
ATOM     73  C   UNL A   1      43.293  26.195  28.541  1.00  0.00     0.023 A 
ATOM     74  C   UNL A   1      44.266  26.736  27.688  1.00  0.00     0.031 A 
ATOM     75  C   UNL A   1      42.898  24.861  28.330  1.00  0.00     0.131 A 
ATOM     76  C   UNL A   1      44.782  25.961  26.637  1.00  0.00     0.055 A 
ATOM     77  C   UNL A   1      43.450  24.079  27.316  1.00  0.00     0.041 A 
ATOM     78  F   UNL A   1      41.969  24.295  29.118  1.00  0.00    -0.206 F 
ATOM     79  C   UNL A   1      44.392  24.632  26.454  1.00  0.00     0.022 A 
BRANCH  76  80
ATOM     80  S   UNL A   1      45.920  26.740  25.459  1.00  0.00     0.124 S 
ATOM     81  O   UNL A   1      47.032  27.118  26.325  1.00  0.00    -0.237 OA
ATOM     82  O   UNL A   1      46.178  25.652  24.522  1.00  0.00    -0.237 OA
ATOM     83  O   UNL A   1      45.144  27.854  24.920  1.00  0.00    -0.744 OA
ENDBRANCH  76  80
ENDBRANCH  49  73
BRANCH  61  84
ATOM     84  C   UNL A   1      45.214  27.868  35.041  1.00  0.00     0.023 A 
ATOM     85  C   UNL A   1      45.109  26.836  35.989  1.00  0.00     0.031 A 
ATOM     86  C   UNL A   1      46.454  28.518  34.908  1.00  0.00     0.131 A 
ATOM     87  C   UNL A   1      46.204  26.523  36.808  1.00  0.00     0.055 A 
ATOM     88  C   UNL A   1      47.559  28.160  35.682  1.00  0.00     0.041 A 
ATOM     89  F   UNL A   1      46.612  29.513  34.021  1.00  0.00    -0.206 F 
ATOM     90  C   UNL A   1      47.434  27.167  36.648  1.00  0.00     0.022 A 
BRANCH  87  91
ATOM     91  S   UNL A   1      45.975  25.328  38.154  1.00  0.00     0.124 S 
ATOM     92  O   UNL A   1      45.141  24.312  37.519  1.00  0.00    -0.237 OA
ATOM     93  O   UNL A   1      47.346  24.931  38.456  1.00  0.00    -0.237 OA
ATOM     94  O   UNL A   1      45.314  26.110  39.197  1.00  0.00    -0.744 OA
ENDBRANCH  87  91
ENDBRANCH  61  84
ENDBRANCH  35  36
ENDBRANCH  28  30
ENDBRANCH  27  28
ENDBRANCH  26  27
ENDBRANCH  25  26
ENDBRANCH   1  25
TORSDOF 20
ENDMDL
