MODEL 1
REMARK VINA RESULT:     -11.5      0.000      0.000
REMARK SMILES Cc1cc(F)cc(N[C@H](C(=O)OCCOCCOC(=O)c2ccc(-c3c4nc(c(-c5cc(S(=O)(=O)[O-])ccc5F)c5ccc([nH]5)c(-c5cc(S(=O)(=O)[O-])ccc5F)c5nc(c(-c6cc(S(=O)(=O)[O-])ccc6F)c6ccc3[nH]6)C=C5)C=C4)cc2)c2cc(C)cc(C)c2)c1
REMARK SMILES IDX 16 1 15 2 14 3 13 4 12 5 10 6 11 7 9 8 8 9 7 11 1 12 2 13
REMARK SMILES IDX 3 14 92 15 4 16 5 17 6 18 84 19 85 20 91 21 86 22 89 23
REMARK SMILES IDX 87 24 88 25 90 26 17 27 18 28 19 29 20 30 21 31 22 32 83 33
REMARK SMILES IDX 23 34 82 35 24 36 25 37 26 38 76 39 27 40 81 41 75 42 77 43
REMARK SMILES IDX 28 44 80 45 74 46 73 47 29 49 61 50 41 51 60 52 42 53 45 54
REMARK SMILES IDX 59 55 78 56 43 57 44 58 58 60 79 61 46 62 30 63 31 64 39 65
REMARK SMILES IDX 32 66 38 67 40 68 37 69 33 70 34 71 35 72 36 73 62 74 63 75
REMARK SMILES IDX 71 76 64 77 70 78 72 79 69 80 65 81 66 82 67 83 68 84 47 85
REMARK SMILES IDX 48 86 56 87 49 88 55 89 57 90 54 91 50 92 51 93 52 94 53 95
REMARK H PARENT 8 10 77 48 45 59
REMARK Flexibility Score: inf
ROOT
ATOM      1  C   UNL A   1      31.387  31.767  26.790  1.00  0.00     0.202 C 
ENDROOT
BRANCH   1   2
ATOM      2  O   UNL A   1      32.261  30.636  26.771  1.00  0.00    -0.374 OA
BRANCH   2   3
ATOM      3  C   UNL A   1      31.959  29.578  25.868  1.00  0.00     0.202 C 
BRANCH   3   4
ATOM      4  C   UNL A   1      32.982  29.243  24.778  1.00  0.00     0.261 C 
BRANCH   4   5
ATOM      5  O   UNL A   1      33.519  27.921  24.876  1.00  0.00    -0.461 OA
BRANCH   5   6
ATOM      6  C   UNL A   1      32.911  27.028  24.040  1.00  0.00     0.333 C 
ATOM      7  O   UNL A   1      33.409  26.639  22.986  1.00  0.00    -0.249 OA
BRANCH   6   8
ATOM      8  C   UNL A   1      31.588  26.480  24.615  1.00  0.00     0.221 C 
BRANCH   8   9
ATOM      9  N   UNL A   1      30.467  26.395  23.645  1.00  0.00    -0.369 N 
ATOM     10  H   UNL A   1      30.416  25.551  23.143  1.00  0.00     0.161 HD
BRANCH   9  11
ATOM     11  C   UNL A   1      29.482  27.316  23.334  1.00  0.00     0.038 A 
ATOM     12  C   UNL A   1      29.259  30.726  21.566  1.00  0.00     0.044 C 
ATOM     13  C   UNL A   1      28.887  29.502  22.349  1.00  0.00    -0.046 A 
ATOM     14  C   UNL A   1      27.579  29.369  22.813  1.00  0.00     0.042 A 
ATOM     15  C   UNL A   1      29.830  28.493  22.643  1.00  0.00     0.029 A 
ATOM     16  C   UNL A   1      27.224  28.217  23.486  1.00  0.00     0.125 A 
ATOM     17  F   UNL A   1      25.968  28.067  23.932  1.00  0.00    -0.207 F 
ATOM     18  C   UNL A   1      28.147  27.201  23.708  1.00  0.00     0.065 A 
ENDBRANCH   9  11
ENDBRANCH   8   9
BRANCH   8  19
ATOM     19  C   UNL A   1      31.786  25.199  25.421  1.00  0.00    -0.014 A 
ATOM     20  C   UNL A   1      30.680  24.413  25.781  1.00  0.00     0.010 A 
ATOM     21  C   UNL A   1      33.053  24.760  25.824  1.00  0.00     0.010 A 
ATOM     22  C   UNL A   1      30.779  23.344  26.664  1.00  0.00    -0.051 A 
ATOM     23  C   UNL A   1      33.191  23.592  26.593  1.00  0.00    -0.051 A 
ATOM     24  C   UNL A   1      29.518  22.781  27.243  1.00  0.00     0.044 C 
ATOM     25  C   UNL A   1      32.045  22.929  27.063  1.00  0.00     0.006 A 
ATOM     26  C   UNL A   1      34.544  23.054  26.951  1.00  0.00     0.044 C 
ENDBRANCH   8  19
ENDBRANCH   6   8
ENDBRANCH   5   6
ENDBRANCH   4   5
ENDBRANCH   3   4
ENDBRANCH   2   3
ENDBRANCH   1   2
BRANCH   1  27
ATOM     27  C   UNL A   1      32.036  33.155  26.754  1.00  0.00     0.261 C 
BRANCH  27  28
ATOM     28  O   UNL A   1      32.498  33.558  28.057  1.00  0.00    -0.460 OA
BRANCH  28  29
ATOM     29  C   UNL A   1      33.637  34.287  28.060  1.00  0.00     0.338 C 
ATOM     30  O   UNL A   1      33.731  35.507  27.960  1.00  0.00    -0.246 OA
BRANCH  29  31
ATOM     31  C   UNL A   1      34.773  33.429  28.435  1.00  0.00     0.060 A 
ATOM     32  C   UNL A   1      34.494  32.218  29.083  1.00  0.00     0.016 A 
ATOM     33  C   UNL A   1      36.092  33.827  28.207  1.00  0.00     0.016 A 
ATOM     34  C   UNL A   1      35.534  31.417  29.546  1.00  0.00     0.010 A 
ATOM     35  C   UNL A   1      37.135  33.030  28.689  1.00  0.00     0.010 A 
ATOM     36  C   UNL A   1      36.858  31.841  29.388  1.00  0.00    -0.014 A 
BRANCH  36  37
ATOM     37  C   UNL A   1      37.943  31.134  30.109  1.00  0.00     0.031 A 
ATOM     38  C   UNL A   1      38.212  31.506  31.542  1.00  0.00     0.074 A 
ATOM     39  C   UNL A   1      38.657  30.167  29.507  1.00  0.00     0.049 A 
ATOM     40  N   UNL A   1      39.152  31.087  32.347  1.00  0.00    -0.248 NA
ATOM     41  C   UNL A   1      37.296  32.488  32.141  1.00  0.00     0.031 C 
ATOM     42  C   UNL A   1      38.440  29.685  28.143  1.00  0.00     0.029 A 
ATOM     43  N   UNL A   1      39.715  29.424  29.964  1.00  0.00    -0.354 N 
ATOM     44  C   UNL A   1      38.947  31.758  33.548  1.00  0.00     0.074 A 
ATOM     45  C   UNL A   1      37.815  32.637  33.351  1.00  0.00     0.031 C 
ATOM     46  C   UNL A   1      39.351  28.736  27.869  1.00  0.00     0.029 A 
ATOM     47  C   UNL A   1      40.240  28.576  29.019  1.00  0.00     0.049 A 
ATOM     48  H   UNL A   1      40.065  29.492  30.882  1.00  0.00     0.167 HD
ATOM     49  C   UNL A   1      39.639  31.646  34.709  1.00  0.00     0.034 A 
ATOM     50  C   UNL A   1      41.335  27.790  29.066  1.00  0.00     0.034 A 
ATOM     51  C   UNL A   1      40.774  30.773  34.878  1.00  0.00     0.049 A 
ATOM     52  C   UNL A   1      42.153  27.758  30.336  1.00  0.00     0.074 A 
ATOM     53  C   UNL A   1      41.545  30.569  36.011  1.00  0.00     0.029 A 
ATOM     54  N   UNL A   1      41.314  29.968  33.883  1.00  0.00    -0.354 N 
ATOM     55  N   UNL A   1      41.953  28.398  31.467  1.00  0.00    -0.248 NA
ATOM     56  C   UNL A   1      43.343  26.898  30.336  1.00  0.00     0.031 C 
ATOM     57  C   UNL A   1      42.592  29.702  35.678  1.00  0.00     0.029 A 
ATOM     58  C   UNL A   1      42.429  29.298  34.361  1.00  0.00     0.049 A 
ATOM     59  H   UNL A   1      40.956  29.885  32.969  1.00  0.00     0.167 HD
ATOM     60  C   UNL A   1      42.977  27.993  32.320  1.00  0.00     0.074 A 
ATOM     61  C   UNL A   1      43.782  27.044  31.578  1.00  0.00     0.031 C 
ATOM     62  C   UNL A   1      43.230  28.367  33.601  1.00  0.00     0.034 A 
BRANCH  49  63
ATOM     63  C   UNL A   1      39.219  32.534  35.855  1.00  0.00     0.023 A 
ATOM     64  C   UNL A   1      39.638  33.872  35.950  1.00  0.00     0.031 A 
ATOM     65  C   UNL A   1      38.413  32.021  36.888  1.00  0.00     0.131 A 
ATOM     66  C   UNL A   1      39.309  34.630  37.085  1.00  0.00     0.055 A 
ATOM     67  C   UNL A   1      38.023  32.805  37.975  1.00  0.00     0.041 A 
ATOM     68  F   UNL A   1      38.004  30.743  36.866  1.00  0.00    -0.206 F 
ATOM     69  C   UNL A   1      38.483  34.114  38.086  1.00  0.00     0.022 A 
BRANCH  66  70
ATOM     70  S   UNL A   1      40.092  36.251  37.303  1.00  0.00     0.124 S 
ATOM     71  O   UNL A   1      41.430  35.874  37.751  1.00  0.00    -0.237 OA
ATOM     72  O   UNL A   1      40.005  36.827  35.966  1.00  0.00    -0.237 OA
ATOM     73  O   UNL A   1      39.263  36.899  38.318  1.00  0.00    -0.744 OA
ENDBRANCH  66  70
ENDBRANCH  49  63
BRANCH  50  74
ATOM     74  C   UNL A   1      41.759  27.009  27.869  1.00  0.00     0.023 A 
ATOM     75  C   UNL A   1      41.628  25.612  27.829  1.00  0.00     0.031 A 
ATOM     76  C   UNL A   1      42.359  27.647  26.768  1.00  0.00     0.131 A 
ATOM     77  C   UNL A   1      42.130  24.894  26.732  1.00  0.00     0.055 A 
ATOM     78  C   UNL A   1      42.807  26.934  25.654  1.00  0.00     0.041 A 
ATOM     79  F   UNL A   1      42.515  28.980  26.756  1.00  0.00    -0.206 F 
ATOM     80  C   UNL A   1      42.706  25.546  25.639  1.00  0.00     0.022 A 
BRANCH  77  81
ATOM     81  S   UNL A   1      42.104  23.081  26.794  1.00  0.00     0.124 S 
ATOM     82  O   UNL A   1      40.861  22.829  27.514  1.00  0.00    -0.237 OA
ATOM     83  O   UNL A   1      42.109  22.730  25.377  1.00  0.00    -0.237 OA
ATOM     84  O   UNL A   1      43.327  22.748  27.522  1.00  0.00    -0.744 OA
ENDBRANCH  77  81
ENDBRANCH  50  74
BRANCH  62  85
ATOM     85  C   UNL A   1      44.406  27.713  34.287  1.00  0.00     0.023 A 
ATOM     86  C   UNL A   1      44.255  26.556  35.071  1.00  0.00     0.031 A 
ATOM     87  C   UNL A   1      45.695  28.259  34.156  1.00  0.00     0.131 A 
ATOM     88  C   UNL A   1      45.364  26.016  35.740  1.00  0.00     0.055 A 
ATOM     89  C   UNL A   1      46.805  27.681  34.773  1.00  0.00     0.041 A 
ATOM     90  F   UNL A   1      45.898  29.364  33.420  1.00  0.00    -0.206 F 
ATOM     91  C   UNL A   1      46.640  26.560  35.582  1.00  0.00     0.022 A 
BRANCH  88  92
ATOM     92  S   UNL A   1      45.099  24.643  36.896  1.00  0.00     0.124 S 
ATOM     93  O   UNL A   1      46.195  24.828  37.841  1.00  0.00    -0.237 OA
ATOM     94  O   UNL A   1      43.762  24.919  37.409  1.00  0.00    -0.237 OA
ATOM     95  O   UNL A   1      45.204  23.456  36.049  1.00  0.00    -0.744 OA
ENDBRANCH  88  92
ENDBRANCH  62  85
ENDBRANCH  36  37
ENDBRANCH  29  31
ENDBRANCH  28  29
ENDBRANCH  27  28
ENDBRANCH   1  27
TORSDOF 20
ENDMDL
MODEL 2
REMARK VINA RESULT:     -11.5      2.006      8.475
REMARK SMILES Cc1cc(F)cc(N[C@H](C(=O)OCCOCCOC(=O)c2ccc(-c3c4nc(c(-c5cc(S(=O)(=O)[O-])ccc5F)c5ccc([nH]5)c(-c5cc(S(=O)(=O)[O-])ccc5F)c5nc(c(-c6cc(S(=O)(=O)[O-])ccc6F)c6ccc3[nH]6)C=C5)C=C4)cc2)c2cc(C)cc(C)c2)c1
REMARK SMILES IDX 16 1 15 2 14 3 13 4 12 5 10 6 11 7 9 8 8 9 7 11 1 12 2 13
REMARK SMILES IDX 3 14 92 15 4 16 5 17 6 18 84 19 85 20 91 21 86 22 89 23
REMARK SMILES IDX 87 24 88 25 90 26 17 27 18 28 19 29 20 30 21 31 22 32 83 33
REMARK SMILES IDX 23 34 82 35 24 36 25 37 26 38 76 39 27 40 81 41 75 42 77 43
REMARK SMILES IDX 28 44 80 45 74 46 73 47 29 49 61 50 41 51 60 52 42 53 45 54
REMARK SMILES IDX 59 55 78 56 43 57 44 58 58 60 79 61 46 62 30 63 31 64 39 65
REMARK SMILES IDX 32 66 38 67 40 68 37 69 33 70 34 71 35 72 36 73 62 74 63 75
REMARK SMILES IDX 71 76 64 77 70 78 72 79 69 80 65 81 66 82 67 83 68 84 47 85
REMARK SMILES IDX 48 86 56 87 49 88 55 89 57 90 54 91 50 92 51 93 52 94 53 95
REMARK H PARENT 8 10 77 48 45 59
REMARK Flexibility Score: inf
ROOT
ATOM      1  C   UNL A   1      31.793  29.473  24.554  1.00  0.00     0.202 C 
ENDROOT
BRANCH   1   2
ATOM      2  O   UNL A   1      33.034  28.787  24.374  1.00  0.00    -0.374 OA
BRANCH   2   3
ATOM      3  C   UNL A   1      33.753  29.018  23.167  1.00  0.00     0.202 C 
BRANCH   3   4
ATOM      4  C   UNL A   1      33.569  28.024  22.015  1.00  0.00     0.261 C 
BRANCH   4   5
ATOM      5  O   UNL A   1      34.208  26.764  22.232  1.00  0.00    -0.461 OA
BRANCH   5   6
ATOM      6  C   UNL A   1      33.462  25.700  21.809  1.00  0.00     0.333 C 
ATOM      7  O   UNL A   1      33.099  25.547  20.645  1.00  0.00    -0.249 OA
BRANCH   6   8
ATOM      8  C   UNL A   1      33.221  24.661  22.924  1.00  0.00     0.221 C 
BRANCH   8   9
ATOM      9  N   UNL A   1      34.387  24.401  23.806  1.00  0.00    -0.369 N 
ATOM     10  H   UNL A   1      34.756  25.198  24.251  1.00  0.00     0.161 HD
BRANCH   9  11
ATOM     11  C   UNL A   1      35.038  23.217  24.102  1.00  0.00     0.038 A 
ATOM     12  C   UNL A   1      34.068  19.564  24.823  1.00  0.00     0.044 C 
ATOM     13  C   UNL A   1      34.877  20.817  24.665  1.00  0.00    -0.046 A 
ATOM     14  C   UNL A   1      36.249  20.769  24.905  1.00  0.00     0.042 A 
ATOM     15  C   UNL A   1      34.283  22.044  24.300  1.00  0.00     0.029 A 
ATOM     16  C   UNL A   1      37.002  21.909  24.707  1.00  0.00     0.125 A 
ATOM     17  F   UNL A   1      38.325  21.879  24.924  1.00  0.00    -0.207 F 
ATOM     18  C   UNL A   1      36.412  23.094  24.281  1.00  0.00     0.065 A 
ENDBRANCH   9  11
ENDBRANCH   8   9
BRANCH   8  19
ATOM     19  C   UNL A   1      31.928  24.916  23.693  1.00  0.00    -0.014 A 
ATOM     20  C   UNL A   1      30.970  25.808  23.189  1.00  0.00     0.010 A 
ATOM     21  C   UNL A   1      31.647  24.280  24.910  1.00  0.00     0.010 A 
ATOM     22  C   UNL A   1      29.867  26.217  23.929  1.00  0.00    -0.051 A 
ATOM     23  C   UNL A   1      30.460  24.566  25.605  1.00  0.00    -0.051 A 
ATOM     24  C   UNL A   1      29.090  27.405  23.451  1.00  0.00     0.044 C 
ATOM     25  C   UNL A   1      29.610  25.583  25.140  1.00  0.00     0.006 A 
ATOM     26  C   UNL A   1      30.096  23.826  26.857  1.00  0.00     0.044 C 
ENDBRANCH   8  19
ENDBRANCH   6   8
ENDBRANCH   5   6
ENDBRANCH   4   5
ENDBRANCH   3   4
ENDBRANCH   2   3
ENDBRANCH   1   2
BRANCH   1  27
ATOM     27  C   UNL A   1      31.681  30.412  25.760  1.00  0.00     0.261 C 
BRANCH  27  28
ATOM     28  O   UNL A   1      32.767  30.219  26.685  1.00  0.00    -0.460 OA
BRANCH  28  29
ATOM     29  C   UNL A   1      33.304  31.357  27.182  1.00  0.00     0.338 C 
ATOM     30  O   UNL A   1      32.728  32.425  27.361  1.00  0.00    -0.246 OA
BRANCH  29  31
ATOM     31  C   UNL A   1      34.652  31.081  27.706  1.00  0.00     0.060 A 
ATOM     32  C   UNL A   1      34.979  29.750  28.005  1.00  0.00     0.016 A 
ATOM     33  C   UNL A   1      35.561  32.110  27.955  1.00  0.00     0.016 A 
ATOM     34  C   UNL A   1      36.203  29.448  28.595  1.00  0.00     0.010 A 
ATOM     35  C   UNL A   1      36.782  31.806  28.564  1.00  0.00     0.010 A 
ATOM     36  C   UNL A   1      37.092  30.480  28.916  1.00  0.00    -0.014 A 
BRANCH  36  37
ATOM     37  C   UNL A   1      38.263  30.195  29.778  1.00  0.00     0.031 A 
ATOM     38  C   UNL A   1      39.291  29.211  29.290  1.00  0.00     0.074 A 
ATOM     39  C   UNL A   1      38.417  30.815  30.961  1.00  0.00     0.049 A 
ATOM     40  N   UNL A   1      40.350  28.745  29.896  1.00  0.00    -0.248 NA
ATOM     41  C   UNL A   1      39.089  28.683  27.932  1.00  0.00     0.031 C 
ATOM     42  C   UNL A   1      37.515  31.831  31.504  1.00  0.00     0.029 A 
ATOM     43  N   UNL A   1      39.385  30.675  31.922  1.00  0.00    -0.354 N 
ATOM     44  C   UNL A   1      40.939  27.860  28.999  1.00  0.00     0.074 A 
ATOM     45  C   UNL A   1      40.099  27.832  27.821  1.00  0.00     0.031 C 
ATOM     46  C   UNL A   1      37.965  32.209  32.712  1.00  0.00     0.029 A 
ATOM     47  C   UNL A   1      39.158  31.433  33.046  1.00  0.00     0.049 A 
ATOM     48  H   UNL A   1      40.168  30.086  31.817  1.00  0.00     0.167 HD
ATOM     49  C   UNL A   1      42.081  27.143  29.145  1.00  0.00     0.034 A 
ATOM     50  C   UNL A   1      39.819  31.468  34.221  1.00  0.00     0.034 A 
ATOM     51  C   UNL A   1      42.896  27.176  30.334  1.00  0.00     0.049 A 
ATOM     52  C   UNL A   1      41.030  30.582  34.400  1.00  0.00     0.074 A 
ATOM     53  C   UNL A   1      44.078  26.501  30.589  1.00  0.00     0.029 A 
ATOM     54  N   UNL A   1      42.608  27.914  31.475  1.00  0.00    -0.354 N 
ATOM     55  N   UNL A   1      41.580  29.747  33.547  1.00  0.00    -0.248 NA
ATOM     56  C   UNL A   1      41.709  30.644  35.701  1.00  0.00     0.031 C 
ATOM     57  C   UNL A   1      44.460  26.771  31.908  1.00  0.00     0.029 A 
ATOM     58  C   UNL A   1      43.565  27.680  32.450  1.00  0.00     0.049 A 
ATOM     59  H   UNL A   1      41.836  28.516  31.577  1.00  0.00     0.167 HD
ATOM     60  C   UNL A   1      42.686  29.208  34.201  1.00  0.00     0.074 A 
ATOM     61  C   UNL A   1      42.732  29.824  35.511  1.00  0.00     0.031 C 
ATOM     62  C   UNL A   1      43.585  28.290  33.760  1.00  0.00     0.034 A 
BRANCH  49  63
ATOM     63  C   UNL A   1      42.471  26.222  28.014  1.00  0.00     0.023 A 
ATOM     64  C   UNL A   1      41.903  24.944  27.868  1.00  0.00     0.031 A 
ATOM     65  C   UNL A   1      43.453  26.617  27.087  1.00  0.00     0.131 A 
ATOM     66  C   UNL A   1      42.370  24.082  26.863  1.00  0.00     0.055 A 
ATOM     67  C   UNL A   1      43.855  25.783  26.041  1.00  0.00     0.041 A 
ATOM     68  F   UNL A   1      44.049  27.814  27.191  1.00  0.00    -0.206 F 
ATOM     69  C   UNL A   1      43.323  24.502  25.933  1.00  0.00     0.022 A 
BRANCH  66  70
ATOM     70  S   UNL A   1      41.817  22.355  26.876  1.00  0.00     0.124 S 
ATOM     71  O   UNL A   1      42.024  21.968  25.483  1.00  0.00    -0.237 OA
ATOM     72  O   UNL A   1      42.714  21.743  27.849  1.00  0.00    -0.237 OA
ATOM     73  O   UNL A   1      40.417  22.446  27.287  1.00  0.00    -0.744 OA
ENDBRANCH  66  70
ENDBRANCH  49  63
BRANCH  50  74
ATOM     74  C   UNL A   1      39.331  32.324  35.339  1.00  0.00     0.023 A 
ATOM     75  C   UNL A   1      39.787  33.643  35.497  1.00  0.00     0.031 A 
ATOM     76  C   UNL A   1      38.443  31.814  36.303  1.00  0.00     0.131 A 
ATOM     77  C   UNL A   1      39.389  34.390  36.618  1.00  0.00     0.055 A 
ATOM     78  C   UNL A   1      38.007  32.580  37.386  1.00  0.00     0.041 A 
ATOM     79  F   UNL A   1      37.979  30.558  36.204  1.00  0.00    -0.206 F 
ATOM     80  C   UNL A   1      38.492  33.873  37.554  1.00  0.00     0.022 A 
BRANCH  77  81
ATOM     81  S   UNL A   1      40.137  36.022  36.882  1.00  0.00     0.124 S 
ATOM     82  O   UNL A   1      41.534  35.674  37.109  1.00  0.00    -0.237 OA
ATOM     83  O   UNL A   1      39.839  36.698  35.624  1.00  0.00    -0.237 OA
ATOM     84  O   UNL A   1      39.423  36.537  38.049  1.00  0.00    -0.744 OA
ENDBRANCH  77  81
ENDBRANCH  50  74
BRANCH  62  85
ATOM     85  C   UNL A   1      44.715  27.933  34.695  1.00  0.00     0.023 A 
ATOM     86  C   UNL A   1      44.605  26.879  35.620  1.00  0.00     0.031 A 
ATOM     87  C   UNL A   1      45.918  28.660  34.663  1.00  0.00     0.131 A 
ATOM     88  C   UNL A   1      45.656  26.620  36.512  1.00  0.00     0.055 A 
ATOM     89  C   UNL A   1      46.984  28.358  35.511  1.00  0.00     0.041 A 
ATOM     90  F   UNL A   1      46.078  29.677  33.801  1.00  0.00    -0.206 F 
ATOM     91  C   UNL A   1      46.851  27.340  36.452  1.00  0.00     0.022 A 
BRANCH  88  92
ATOM     92  S   UNL A   1      45.405  25.385  37.818  1.00  0.00     0.124 S 
ATOM     93  O   UNL A   1      46.480  24.437  37.549  1.00  0.00    -0.237 OA
ATOM     94  O   UNL A   1      45.545  26.181  39.032  1.00  0.00    -0.237 OA
ATOM     95  O   UNL A   1      44.056  24.882  37.560  1.00  0.00    -0.744 OA
ENDBRANCH  88  92
ENDBRANCH  62  85
ENDBRANCH  36  37
ENDBRANCH  29  31
ENDBRANCH  28  29
ENDBRANCH  27  28
ENDBRANCH   1  27
TORSDOF 20
ENDMDL
MODEL 3
REMARK VINA RESULT:     -11.4      2.627      8.402
REMARK SMILES Cc1cc(F)cc(N[C@H](C(=O)OCCOCCOC(=O)c2ccc(-c3c4nc(c(-c5cc(S(=O)(=O)[O-])ccc5F)c5ccc([nH]5)c(-c5cc(S(=O)(=O)[O-])ccc5F)c5nc(c(-c6cc(S(=O)(=O)[O-])ccc6F)c6ccc3[nH]6)C=C5)C=C4)cc2)c2cc(C)cc(C)c2)c1
REMARK SMILES IDX 16 1 15 2 14 3 13 4 12 5 10 6 11 7 9 8 8 9 7 11 1 12 2 13
REMARK SMILES IDX 3 14 92 15 4 16 5 17 6 18 84 19 85 20 91 21 86 22 89 23
REMARK SMILES IDX 87 24 88 25 90 26 17 27 18 28 19 29 20 30 21 31 22 32 83 33
REMARK SMILES IDX 23 34 82 35 24 36 25 37 26 38 76 39 27 40 81 41 75 42 77 43
REMARK SMILES IDX 28 44 80 45 74 46 73 47 29 49 61 50 41 51 60 52 42 53 45 54
REMARK SMILES IDX 59 55 78 56 43 57 44 58 58 60 79 61 46 62 30 63 31 64 39 65
REMARK SMILES IDX 32 66 38 67 40 68 37 69 33 70 34 71 35 72 36 73 62 74 63 75
REMARK SMILES IDX 71 76 64 77 70 78 72 79 69 80 65 81 66 82 67 83 68 84 47 85
REMARK SMILES IDX 48 86 56 87 49 88 55 89 57 90 54 91 50 92 51 93 52 94 53 95
REMARK H PARENT 8 10 77 48 45 59
REMARK Flexibility Score: inf
ROOT
ATOM      1  C   UNL A   1      31.591  29.400  24.636  1.00  0.00     0.202 C 
ENDROOT
BRANCH   1   2
ATOM      2  O   UNL A   1      32.456  28.263  24.657  1.00  0.00    -0.374 OA
BRANCH   2   3
ATOM      3  C   UNL A   1      33.217  27.983  23.486  1.00  0.00     0.202 C 
BRANCH   3   4
ATOM      4  C   UNL A   1      32.987  26.645  22.776  1.00  0.00     0.261 C 
BRANCH   4   5
ATOM      5  O   UNL A   1      34.066  25.720  22.925  1.00  0.00    -0.461 OA
BRANCH   5   6
ATOM      6  C   UNL A   1      33.669  24.414  22.877  1.00  0.00     0.333 C 
ATOM      7  O   UNL A   1      33.458  23.807  21.829  1.00  0.00    -0.249 OA
BRANCH   6   8
ATOM      8  C   UNL A   1      33.621  23.754  24.271  1.00  0.00     0.221 C 
BRANCH   8   9
ATOM      9  N   UNL A   1      32.519  22.778  24.469  1.00  0.00    -0.369 N 
ATOM     10  H   UNL A   1      31.731  23.132  24.940  1.00  0.00     0.161 HD
BRANCH   9  11
ATOM     11  C   UNL A   1      32.425  21.449  24.096  1.00  0.00     0.038 A 
ATOM     12  C   UNL A   1      32.695  18.011  25.800  1.00  0.00     0.044 C 
ATOM     13  C   UNL A   1      32.569  19.070  24.747  1.00  0.00    -0.046 A 
ATOM     14  C   UNL A   1      32.445  18.685  23.413  1.00  0.00     0.042 A 
ATOM     15  C   UNL A   1      32.591  20.445  25.069  1.00  0.00     0.029 A 
ATOM     16  C   UNL A   1      32.274  19.660  22.450  1.00  0.00     0.125 A 
ATOM     17  F   UNL A   1      32.144  19.307  21.163  1.00  0.00    -0.207 F 
ATOM     18  C   UNL A   1      32.230  21.007  22.791  1.00  0.00     0.065 A 
ENDBRANCH   9  11
ENDBRANCH   8   9
BRANCH   8  19
ATOM     19  C   UNL A   1      34.982  23.225  24.716  1.00  0.00    -0.014 A 
ATOM     20  C   UNL A   1      35.374  21.918  24.388  1.00  0.00     0.010 A 
ATOM     21  C   UNL A   1      35.881  24.007  25.454  1.00  0.00     0.010 A 
ATOM     22  C   UNL A   1      36.512  21.324  24.919  1.00  0.00    -0.051 A 
ATOM     23  C   UNL A   1      37.111  23.473  25.873  1.00  0.00    -0.051 A 
ATOM     24  C   UNL A   1      36.671  19.841  24.781  1.00  0.00     0.044 C 
ATOM     25  C   UNL A   1      37.388  22.112  25.658  1.00  0.00     0.006 A 
ATOM     26  C   UNL A   1      38.125  24.322  26.578  1.00  0.00     0.044 C 
ENDBRANCH   8  19
ENDBRANCH   6   8
ENDBRANCH   5   6
ENDBRANCH   4   5
ENDBRANCH   3   4
ENDBRANCH   2   3
ENDBRANCH   1   2
BRANCH   1  27
ATOM     27  C   UNL A   1      31.693  30.380  25.810  1.00  0.00     0.261 C 
BRANCH  27  28
ATOM     28  O   UNL A   1      32.891  30.163  26.578  1.00  0.00    -0.460 OA
BRANCH  28  29
ATOM     29  C   UNL A   1      33.392  31.266  27.180  1.00  0.00     0.338 C 
ATOM     30  O   UNL A   1      32.776  32.283  27.483  1.00  0.00    -0.246 OA
BRANCH  29  31
ATOM     31  C   UNL A   1      34.764  30.998  27.641  1.00  0.00     0.060 A 
ATOM     32  C   UNL A   1      35.146  29.661  27.822  1.00  0.00     0.016 A 
ATOM     33  C   UNL A   1      35.646  32.037  27.945  1.00  0.00     0.016 A 
ATOM     34  C   UNL A   1      36.398  29.357  28.350  1.00  0.00     0.010 A 
ATOM     35  C   UNL A   1      36.895  31.730  28.493  1.00  0.00     0.010 A 
ATOM     36  C   UNL A   1      37.261  30.392  28.727  1.00  0.00    -0.014 A 
BRANCH  36  37
ATOM     37  C   UNL A   1      38.467  30.082  29.530  1.00  0.00     0.031 A 
ATOM     38  C   UNL A   1      39.450  29.080  28.990  1.00  0.00     0.074 A 
ATOM     39  C   UNL A   1      38.692  30.697  30.705  1.00  0.00     0.049 A 
ATOM     40  N   UNL A   1      40.528  28.591  29.542  1.00  0.00    -0.248 NA
ATOM     41  C   UNL A   1      39.170  28.558  27.643  1.00  0.00     0.031 C 
ATOM     42  C   UNL A   1      37.838  31.728  31.293  1.00  0.00     0.029 A 
ATOM     43  N   UNL A   1      39.704  30.535  31.616  1.00  0.00    -0.354 N 
ATOM     44  C   UNL A   1      41.055  27.696  28.616  1.00  0.00     0.074 A 
ATOM     45  C   UNL A   1      40.156  27.688  27.481  1.00  0.00     0.031 C 
ATOM     46  C   UNL A   1      38.356  32.095  32.478  1.00  0.00     0.029 A 
ATOM     47  C   UNL A   1      39.548  31.295  32.751  1.00  0.00     0.049 A 
ATOM     48  H   UNL A   1      40.468  29.931  31.472  1.00  0.00     0.167 HD
ATOM     49  C   UNL A   1      42.188  26.957  28.704  1.00  0.00     0.034 A 
ATOM     50  C   UNL A   1      40.268  31.314  33.891  1.00  0.00     0.034 A 
ATOM     51  C   UNL A   1      43.061  26.971  29.851  1.00  0.00     0.049 A 
ATOM     52  C   UNL A   1      41.468  30.404  34.010  1.00  0.00     0.074 A 
ATOM     53  C   UNL A   1      44.241  26.272  30.046  1.00  0.00     0.029 A 
ATOM     54  N   UNL A   1      42.845  27.712  31.006  1.00  0.00    -0.354 N 
ATOM     55  N   UNL A   1      41.958  29.560  33.129  1.00  0.00    -0.248 NA
ATOM     56  C   UNL A   1      42.212  30.450  35.275  1.00  0.00     0.031 C 
ATOM     57  C   UNL A   1      44.693  26.532  31.345  1.00  0.00     0.029 A 
ATOM     58  C   UNL A   1      43.844  27.457  31.932  1.00  0.00     0.049 A 
ATOM     59  H   UNL A   1      42.091  28.329  31.147  1.00  0.00     0.167 HD
ATOM     60  C   UNL A   1      43.084  28.998  33.726  1.00  0.00     0.074 A 
ATOM     61  C   UNL A   1      43.207  29.610  35.033  1.00  0.00     0.031 C 
ATOM     62  C   UNL A   1      43.942  28.064  33.239  1.00  0.00     0.034 A 
BRANCH  49  63
ATOM     63  C   UNL A   1      42.502  26.031  27.554  1.00  0.00     0.023 A 
ATOM     64  C   UNL A   1      42.054  24.699  27.529  1.00  0.00     0.031 A 
ATOM     65  C   UNL A   1      43.294  26.479  26.481  1.00  0.00     0.131 A 
ATOM     66  C   UNL A   1      42.456  23.844  26.490  1.00  0.00     0.055 A 
ATOM     67  C   UNL A   1      43.624  25.645  25.411  1.00  0.00     0.041 A 
ATOM     68  F   UNL A   1      43.773  27.732  26.462  1.00  0.00    -0.206 F 
ATOM     69  C   UNL A   1      43.217  24.315  25.418  1.00  0.00     0.022 A 
BRANCH  66  70
ATOM     70  S   UNL A   1      42.090  22.073  26.633  1.00  0.00     0.124 S 
ATOM     71  O   UNL A   1      40.639  22.083  26.798  1.00  0.00    -0.237 OA
ATOM     72  O   UNL A   1      42.586  21.545  25.367  1.00  0.00    -0.237 OA
ATOM     73  O   UNL A   1      42.842  21.662  27.817  1.00  0.00    -0.744 OA
ENDBRANCH  66  70
ENDBRANCH  49  63
BRANCH  50  74
ATOM     74  C   UNL A   1      39.853  32.178  35.033  1.00  0.00     0.023 A 
ATOM     75  C   UNL A   1      39.066  31.670  36.080  1.00  0.00     0.031 A 
ATOM     76  C   UNL A   1      40.188  33.544  35.064  1.00  0.00     0.131 A 
ATOM     77  C   UNL A   1      38.604  32.531  37.088  1.00  0.00     0.055 A 
ATOM     78  C   UNL A   1      39.773  34.384  36.098  1.00  0.00     0.041 A 
ATOM     79  F   UNL A   1      40.933  34.083  34.086  1.00  0.00    -0.206 F 
ATOM     80  C   UNL A   1      38.964  33.881  37.112  1.00  0.00     0.022 A 
BRANCH  77  81
ATOM     81  S   UNL A   1      37.447  31.879  38.324  1.00  0.00     0.124 S 
ATOM     82  O   UNL A   1      36.306  32.773  38.160  1.00  0.00    -0.237 OA
ATOM     83  O   UNL A   1      37.259  30.506  37.867  1.00  0.00    -0.237 OA
ATOM     84  O   UNL A   1      38.178  32.022  39.582  1.00  0.00    -0.744 OA
ENDBRANCH  77  81
ENDBRANCH  50  74
BRANCH  62  85
ATOM     85  C   UNL A   1      45.109  27.681  34.117  1.00  0.00     0.023 A 
ATOM     86  C   UNL A   1      45.024  26.629  35.046  1.00  0.00     0.031 A 
ATOM     87  C   UNL A   1      46.324  28.384  34.025  1.00  0.00     0.131 A 
ATOM     88  C   UNL A   1      46.113  26.347  35.885  1.00  0.00     0.055 A 
ATOM     89  C   UNL A   1      47.424  28.059  34.819  1.00  0.00     0.041 A 
ATOM     90  F   UNL A   1      46.462  29.399  33.157  1.00  0.00    -0.206 F 
ATOM     91  C   UNL A   1      47.318  27.043  35.764  1.00  0.00     0.022 A 
BRANCH  88  92
ATOM     92  S   UNL A   1      45.902  25.116  37.200  1.00  0.00     0.124 S 
ATOM     93  O   UNL A   1      44.450  25.016  37.292  1.00  0.00    -0.237 OA
ATOM     94  O   UNL A   1      46.588  23.952  36.652  1.00  0.00    -0.237 OA
ATOM     95  O   UNL A   1      46.555  25.733  38.355  1.00  0.00    -0.744 OA
ENDBRANCH  88  92
ENDBRANCH  62  85
ENDBRANCH  36  37
ENDBRANCH  29  31
ENDBRANCH  28  29
ENDBRANCH  27  28
ENDBRANCH   1  27
TORSDOF 20
ENDMDL
