MODEL 1
REMARK VINA RESULT:     -10.9      0.000      0.000
REMARK SMILES Cc1cc(NCc2ccco2)cc(C(=O)OCCOCCOC(=O)c2ccc(-c3c4nc(c(-c5cc(S(=O)(=O)[O-])ccc5F)c5ccc([nH]5)c(-c5cc(S(=O)(=O)[O-])ccc5F)c5nc(c(-c6cc(S(=O)(=O)[O-])ccc6F)c6ccc3[nH]6)C=C5)C=C4)cc2)c1N
REMARK SMILES IDX 19 1 18 2 17 3 16 4 14 5 15 6 13 7 1 8 2 9 3 10 88 11 4 12
REMARK SMILES IDX 12 13 89 14 5 17 6 19 7 20 8 21 11 22 9 23 10 24 20 25 21 26
REMARK SMILES IDX 22 27 23 28 24 29 25 30 26 31 87 32 27 33 86 34 28 35 29 36
REMARK SMILES IDX 30 37 80 38 31 39 85 40 79 41 81 42 32 43 84 44 78 45 77 46
REMARK SMILES IDX 33 48 65 49 45 50 64 51 46 52 49 53 63 54 82 55 47 56 48 57
REMARK SMILES IDX 62 59 83 60 50 61 34 62 35 63 43 64 36 65 42 66 44 67 41 68
REMARK SMILES IDX 37 69 38 70 39 71 40 72 66 73 67 74 75 75 68 76 74 77 76 78
REMARK SMILES IDX 73 79 69 80 70 81 71 82 72 83 51 84 52 85 60 86 53 87 59 88
REMARK SMILES IDX 61 89 58 90 54 91 55 92 56 93 57 94
REMARK H PARENT 89 15 89 16 5 18 81 47 49 58
REMARK Flexibility Score: inf
ROOT
ATOM      1  O   UNL A   1      31.114  28.725  25.330  1.00  0.00    -0.374 OA
ENDROOT
BRANCH   1   2
ATOM      2  C   UNL A   1      31.513  27.469  24.779  1.00  0.00     0.202 C 
BRANCH   2   3
ATOM      3  C   UNL A   1      30.542  26.307  25.009  1.00  0.00     0.261 C 
BRANCH   3   4
ATOM      4  O   UNL A   1      31.195  25.042  24.806  1.00  0.00    -0.460 OA
BRANCH   4   5
ATOM      5  C   UNL A   1      31.718  24.482  25.924  1.00  0.00     0.340 C 
ATOM      6  O   UNL A   1      31.385  24.725  27.076  1.00  0.00    -0.246 OA
BRANCH   5   7
ATOM      7  C   UNL A   1      32.660  23.385  25.571  1.00  0.00     0.085 A 
ATOM      8  C   UNL A   1      35.799  22.868  23.463  1.00  0.00     0.047 C 
ATOM      9  C   UNL A   1      34.614  22.638  24.360  1.00  0.00    -0.025 A 
ATOM     10  C   UNL A   1      34.395  21.348  24.879  1.00  0.00     0.031 A 
ATOM     11  C   UNL A   1      33.741  23.680  24.708  1.00  0.00     0.049 A 
ATOM     12  C   UNL A   1      33.333  21.048  25.746  1.00  0.00     0.036 A 
ATOM     13  C   UNL A   1      32.471  22.090  26.090  1.00  0.00     0.043 A 
BRANCH  11  14
ATOM     14  N   UNL A   1      34.057  25.000  24.367  1.00  0.00    -0.398 N 
ATOM     15  H   UNL A   1      34.908  25.201  23.914  1.00  0.00     0.156 HD
ATOM     16  H   UNL A   1      33.428  25.727  24.580  1.00  0.00     0.156 HD
ENDBRANCH  11  14
BRANCH  12  17
ATOM     17  N   UNL A   1      33.276  19.777  26.277  1.00  0.00    -0.378 N 
ATOM     18  H   UNL A   1      33.815  19.611  27.084  1.00  0.00     0.161 HD
BRANCH  17  19
ATOM     19  C   UNL A   1      32.500  18.657  25.770  1.00  0.00     0.188 C 
BRANCH  19  20
ATOM     20  C   UNL A   1      33.228  17.773  24.819  1.00  0.00     0.122 A 
ATOM     21  C   UNL A   1      33.412  17.801  23.452  1.00  0.00     0.047 A 
ATOM     22  O   UNL A   1      33.831  16.666  25.347  1.00  0.00    -0.467 OA
ATOM     23  C   UNL A   1      34.172  16.650  23.127  1.00  0.00     0.042 A 
ATOM     24  C   UNL A   1      34.403  15.996  24.314  1.00  0.00     0.195 A 
ENDBRANCH  19  20
ENDBRANCH  17  19
ENDBRANCH  12  17
ENDBRANCH   5   7
ENDBRANCH   4   5
ENDBRANCH   3   4
ENDBRANCH   2   3
ENDBRANCH   1   2
BRANCH   1  25
ATOM     25  C   UNL A   1      32.064  29.791  25.243  1.00  0.00     0.202 C 
BRANCH  25  26
ATOM     26  C   UNL A   1      31.767  31.028  26.100  1.00  0.00     0.261 C 
BRANCH  26  27
ATOM     27  O   UNL A   1      32.512  31.017  27.332  1.00  0.00    -0.460 OA
BRANCH  27  28
ATOM     28  C   UNL A   1      33.362  32.059  27.494  1.00  0.00     0.338 C 
ATOM     29  O   UNL A   1      33.085  33.249  27.427  1.00  0.00    -0.246 OA
BRANCH  28  30
ATOM     30  C   UNL A   1      34.675  31.572  27.964  1.00  0.00     0.060 A 
ATOM     31  C   UNL A   1      34.803  30.198  28.206  1.00  0.00     0.016 A 
ATOM     32  C   UNL A   1      35.743  32.436  28.212  1.00  0.00     0.016 A 
ATOM     33  C   UNL A   1      35.984  29.690  28.744  1.00  0.00     0.010 A 
ATOM     34  C   UNL A   1      36.926  31.925  28.760  1.00  0.00     0.010 A 
ATOM     35  C   UNL A   1      37.040  30.555  29.060  1.00  0.00    -0.014 A 
BRANCH  35  36
ATOM     36  C   UNL A   1      38.195  30.046  29.841  1.00  0.00     0.031 A 
ATOM     37  C   UNL A   1      38.407  30.559  31.241  1.00  0.00     0.074 A 
ATOM     38  C   UNL A   1      39.020  29.116  29.326  1.00  0.00     0.049 A 
ATOM     39  N   UNL A   1      39.365  30.287  32.089  1.00  0.00    -0.248 NA
ATOM     40  C   UNL A   1      37.404  31.509  31.745  1.00  0.00     0.031 C 
ATOM     41  C   UNL A   1      38.887  28.510  28.003  1.00  0.00     0.029 A 
ATOM     42  N   UNL A   1      40.139  28.523  29.858  1.00  0.00    -0.354 N 
ATOM     43  C   UNL A   1      39.080  31.030  33.230  1.00  0.00     0.074 A 
ATOM     44  C   UNL A   1      37.885  31.795  32.946  1.00  0.00     0.031 C 
ATOM     45  C   UNL A   1      39.894  27.639  27.819  1.00  0.00     0.029 A 
ATOM     46  C   UNL A   1      40.763  27.652  28.995  1.00  0.00     0.049 A 
ATOM     47  H   UNL A   1      40.463  28.703  30.768  1.00  0.00     0.167 HD
ATOM     48  C   UNL A   1      39.749  31.063  34.409  1.00  0.00     0.034 A 
ATOM     49  C   UNL A   1      41.916  26.966  29.130  1.00  0.00     0.034 A 
ATOM     50  C   UNL A   1      40.949  30.306  34.673  1.00  0.00     0.049 A 
ATOM     51  C   UNL A   1      42.694  27.086  30.419  1.00  0.00     0.074 A 
ATOM     52  C   UNL A   1      41.705  30.263  35.832  1.00  0.00     0.029 A 
ATOM     53  N   UNL A   1      41.576  29.467  33.761  1.00  0.00    -0.354 N 
ATOM     54  N   UNL A   1      42.414  27.791  31.491  1.00  0.00    -0.248 NA
ATOM     55  C   UNL A   1      43.938  26.311  30.519  1.00  0.00     0.031 C 
ATOM     56  C   UNL A   1      42.823  29.454  35.598  1.00  0.00     0.029 A 
ATOM     57  C   UNL A   1      42.726  28.929  34.319  1.00  0.00     0.049 A 
ATOM     58  H   UNL A   1      41.253  29.283  32.850  1.00  0.00     0.167 HD
ATOM     59  C   UNL A   1      43.431  27.518  32.403  1.00  0.00     0.074 A 
ATOM     60  C   UNL A   1      44.322  26.575  31.759  1.00  0.00     0.031 C 
ATOM     61  C   UNL A   1      43.612  27.998  33.661  1.00  0.00     0.034 A 
BRANCH  48  62
ATOM     62  C   UNL A   1      39.220  31.988  35.479  1.00  0.00     0.023 A 
ATOM     63  C   UNL A   1      39.651  33.322  35.583  1.00  0.00     0.031 A 
ATOM     64  C   UNL A   1      38.292  31.520  36.427  1.00  0.00     0.131 A 
ATOM     65  C   UNL A   1      39.208  34.120  36.649  1.00  0.00     0.055 A 
ATOM     66  C   UNL A   1      37.797  32.342  37.441  1.00  0.00     0.041 A 
ATOM     67  F   UNL A   1      37.863  30.249  36.393  1.00  0.00    -0.206 F 
ATOM     68  C   UNL A   1      38.265  33.646  37.565  1.00  0.00     0.022 A 
BRANCH  65  69
ATOM     69  S   UNL A   1      39.986  35.739  36.903  1.00  0.00     0.124 S 
ATOM     70  O   UNL A   1      41.389  35.370  37.069  1.00  0.00    -0.237 OA
ATOM     71  O   UNL A   1      39.650  36.446  35.672  1.00  0.00    -0.237 OA
ATOM     72  O   UNL A   1      39.335  36.245  38.111  1.00  0.00    -0.744 OA
ENDBRANCH  65  69
ENDBRANCH  48  62
BRANCH  49  73
ATOM     73  C   UNL A   1      42.441  26.140  28.003  1.00  0.00     0.023 A 
ATOM     74  C   UNL A   1      41.985  24.832  27.782  1.00  0.00     0.031 A 
ATOM     75  C   UNL A   1      43.458  26.634  27.165  1.00  0.00     0.131 A 
ATOM     76  C   UNL A   1      42.576  24.046  26.781  1.00  0.00     0.055 A 
ATOM     77  C   UNL A   1      44.005  25.866  26.136  1.00  0.00     0.041 A 
ATOM     78  F   UNL A   1      43.932  27.879  27.332  1.00  0.00    -0.206 F 
ATOM     79  C   UNL A   1      43.573  24.558  25.948  1.00  0.00     0.022 A 
BRANCH  76  80
ATOM     80  S   UNL A   1      42.083  22.305  26.637  1.00  0.00     0.124 S 
ATOM     81  O   UNL A   1      42.629  21.740  27.866  1.00  0.00    -0.237 OA
ATOM     82  O   UNL A   1      40.629  22.408  26.569  1.00  0.00    -0.237 OA
ATOM     83  O   UNL A   1      42.733  21.867  25.404  1.00  0.00    -0.744 OA
ENDBRANCH  76  80
ENDBRANCH  49  73
BRANCH  61  84
ATOM     84  C   UNL A   1      44.795  27.470  34.436  1.00  0.00     0.023 A 
ATOM     85  C   UNL A   1      44.710  26.303  35.217  1.00  0.00     0.031 A 
ATOM     86  C   UNL A   1      46.025  28.151  34.398  1.00  0.00     0.131 A 
ATOM     87  C   UNL A   1      45.816  25.884  35.971  1.00  0.00     0.055 A 
ATOM     88  C   UNL A   1      47.140  27.695  35.102  1.00  0.00     0.041 A 
ATOM     89  F   UNL A   1      46.163  29.270  33.669  1.00  0.00    -0.206 F 
ATOM     90  C   UNL A   1      47.036  26.563  35.905  1.00  0.00     0.022 A 
BRANCH  87  91
ATOM     91  S   UNL A   1      45.618  24.487  37.110  1.00  0.00     0.124 S 
ATOM     92  O   UNL A   1      44.533  24.949  37.971  1.00  0.00    -0.237 OA
ATOM     93  O   UNL A   1      45.289  23.391  36.205  1.00  0.00    -0.237 OA
ATOM     94  O   UNL A   1      46.923  24.384  37.759  1.00  0.00    -0.744 OA
ENDBRANCH  87  91
ENDBRANCH  61  84
ENDBRANCH  35  36
ENDBRANCH  28  30
ENDBRANCH  27  28
ENDBRANCH  26  27
ENDBRANCH  25  26
ENDBRANCH   1  25
TORSDOF 21
ENDMDL
MODEL 2
REMARK VINA RESULT:     -10.8      1.708      7.737
REMARK SMILES Cc1cc(NCc2ccco2)cc(C(=O)OCCOCCOC(=O)c2ccc(-c3c4nc(c(-c5cc(S(=O)(=O)[O-])ccc5F)c5ccc([nH]5)c(-c5cc(S(=O)(=O)[O-])ccc5F)c5nc(c(-c6cc(S(=O)(=O)[O-])ccc6F)c6ccc3[nH]6)C=C5)C=C4)cc2)c1N
REMARK SMILES IDX 19 1 18 2 17 3 16 4 14 5 15 6 13 7 1 8 2 9 3 10 88 11 4 12
REMARK SMILES IDX 12 13 89 14 5 17 6 19 7 20 8 21 11 22 9 23 10 24 20 25 21 26
REMARK SMILES IDX 22 27 23 28 24 29 25 30 26 31 87 32 27 33 86 34 28 35 29 36
REMARK SMILES IDX 30 37 80 38 31 39 85 40 79 41 81 42 32 43 84 44 78 45 77 46
REMARK SMILES IDX 33 48 65 49 45 50 64 51 46 52 49 53 63 54 82 55 47 56 48 57
REMARK SMILES IDX 62 59 83 60 50 61 34 62 35 63 43 64 36 65 42 66 44 67 41 68
REMARK SMILES IDX 37 69 38 70 39 71 40 72 66 73 67 74 75 75 68 76 74 77 76 78
REMARK SMILES IDX 73 79 69 80 70 81 71 82 72 83 51 84 52 85 60 86 53 87 59 88
REMARK SMILES IDX 61 89 58 90 54 91 55 92 56 93 57 94
REMARK H PARENT 89 15 89 16 5 18 81 47 49 58
REMARK Flexibility Score: inf
ROOT
ATOM      1  O   UNL A   1      30.666  28.733  24.241  1.00  0.00    -0.374 OA
ENDROOT
BRANCH   1   2
ATOM      2  C   UNL A   1      30.645  27.358  23.855  1.00  0.00     0.202 C 
BRANCH   2   3
ATOM      3  C   UNL A   1      31.192  27.054  22.457  1.00  0.00     0.261 C 
BRANCH   3   4
ATOM      4  O   UNL A   1      31.319  25.636  22.251  1.00  0.00    -0.460 OA
BRANCH   4   5
ATOM      5  C   UNL A   1      32.565  25.216  21.918  1.00  0.00     0.340 C 
ATOM      6  O   UNL A   1      33.278  25.690  21.045  1.00  0.00    -0.246 OA
BRANCH   5   7
ATOM      7  C   UNL A   1      33.043  24.184  22.878  1.00  0.00     0.085 A 
ATOM      8  C   UNL A   1      35.443  23.906  25.833  1.00  0.00     0.047 C 
ATOM      9  C   UNL A   1      34.452  23.583  24.748  1.00  0.00    -0.025 A 
ATOM     10  C   UNL A   1      33.965  22.267  24.643  1.00  0.00     0.031 A 
ATOM     11  C   UNL A   1      33.987  24.565  23.860  1.00  0.00     0.049 A 
ATOM     12  C   UNL A   1      33.018  21.882  23.682  1.00  0.00     0.036 A 
ATOM     13  C   UNL A   1      32.558  22.864  22.804  1.00  0.00     0.043 A 
BRANCH  11  14
ATOM     14  N   UNL A   1      34.305  25.911  24.076  1.00  0.00    -0.398 N 
ATOM     15  H   UNL A   1      33.913  26.392  24.840  1.00  0.00     0.156 HD
ATOM     16  H   UNL A   1      34.921  26.375  23.464  1.00  0.00     0.156 HD
ENDBRANCH  11  14
BRANCH  12  17
ATOM     17  N   UNL A   1      32.532  20.593  23.738  1.00  0.00    -0.378 N 
ATOM     18  H   UNL A   1      32.171  20.220  22.902  1.00  0.00     0.161 HD
BRANCH  17  19
ATOM     19  C   UNL A   1      32.501  19.727  24.906  1.00  0.00     0.188 C 
BRANCH  19  20
ATOM     20  C   UNL A   1      32.881  18.312  24.644  1.00  0.00     0.122 A 
ATOM     21  C   UNL A   1      32.484  17.108  25.190  1.00  0.00     0.047 A 
ATOM     22  O   UNL A   1      33.846  18.098  23.699  1.00  0.00    -0.467 OA
ATOM     23  C   UNL A   1      33.245  16.105  24.542  1.00  0.00     0.042 A 
ATOM     24  C   UNL A   1      34.055  16.758  23.642  1.00  0.00     0.195 A 
ENDBRANCH  19  20
ENDBRANCH  17  19
ENDBRANCH  12  17
ENDBRANCH   5   7
ENDBRANCH   4   5
ENDBRANCH   3   4
ENDBRANCH   2   3
ENDBRANCH   1   2
BRANCH   1  25
ATOM     25  C   UNL A   1      31.897  29.228  24.775  1.00  0.00     0.202 C 
BRANCH  25  26
ATOM     26  C   UNL A   1      31.782  30.397  25.761  1.00  0.00     0.261 C 
BRANCH  26  27
ATOM     27  O   UNL A   1      32.704  30.265  26.859  1.00  0.00    -0.460 OA
BRANCH  27  28
ATOM     28  C   UNL A   1      33.290  31.420  27.254  1.00  0.00     0.338 C 
ATOM     29  O   UNL A   1      32.751  32.513  27.373  1.00  0.00    -0.246 OA
BRANCH  28  30
ATOM     30  C   UNL A   1      34.666  31.154  27.720  1.00  0.00     0.060 A 
ATOM     31  C   UNL A   1      35.023  29.819  27.947  1.00  0.00     0.016 A 
ATOM     32  C   UNL A   1      35.574  32.183  27.980  1.00  0.00     0.016 A 
ATOM     33  C   UNL A   1      36.273  29.510  28.481  1.00  0.00     0.010 A 
ATOM     34  C   UNL A   1      36.825  31.872  28.525  1.00  0.00     0.010 A 
ATOM     35  C   UNL A   1      37.168  30.537  28.809  1.00  0.00    -0.014 A 
BRANCH  35  36
ATOM     36  C   UNL A   1      38.392  30.219  29.587  1.00  0.00     0.031 A 
ATOM     37  C   UNL A   1      39.389  29.252  29.008  1.00  0.00     0.074 A 
ATOM     38  C   UNL A   1      38.629  30.810  30.772  1.00  0.00     0.049 A 
ATOM     39  N   UNL A   1      40.503  28.798  29.522  1.00  0.00    -0.248 NA
ATOM     40  C   UNL A   1      39.084  28.724  27.669  1.00  0.00     0.031 C 
ATOM     41  C   UNL A   1      37.761  31.798  31.411  1.00  0.00     0.029 A 
ATOM     42  N   UNL A   1      39.672  30.658  31.653  1.00  0.00    -0.354 N 
ATOM     43  C   UNL A   1      41.034  27.933  28.571  1.00  0.00     0.074 A 
ATOM     44  C   UNL A   1      40.096  27.895  27.469  1.00  0.00     0.031 C 
ATOM     45  C   UNL A   1      38.300  32.155  32.589  1.00  0.00     0.029 A 
ATOM     46  C   UNL A   1      39.531  31.396  32.805  1.00  0.00     0.049 A 
ATOM     47  H   UNL A   1      40.445  30.077  31.477  1.00  0.00     0.167 HD
ATOM     48  C   UNL A   1      42.200  27.242  28.610  1.00  0.00     0.034 A 
ATOM     49  C   UNL A   1      40.295  31.433  33.917  1.00  0.00     0.034 A 
ATOM     50  C   UNL A   1      43.118  27.278  29.723  1.00  0.00     0.049 A 
ATOM     51  C   UNL A   1      41.545  30.587  33.976  1.00  0.00     0.074 A 
ATOM     52  C   UNL A   1      44.327  26.620  29.866  1.00  0.00     0.029 A 
ATOM     53  N   UNL A   1      42.922  28.003  30.891  1.00  0.00    -0.354 N 
ATOM     54  N   UNL A   1      42.037  29.774  33.069  1.00  0.00    -0.248 NA
ATOM     55  C   UNL A   1      42.346  30.671  35.204  1.00  0.00     0.031 C 
ATOM     56  C   UNL A   1      44.828  26.893  31.144  1.00  0.00     0.029 A 
ATOM     57  C   UNL A   1      43.971  27.783  31.771  1.00  0.00     0.049 A 
ATOM     58  H   UNL A   1      42.150  28.587  31.070  1.00  0.00     0.167 HD
ATOM     59  C   UNL A   1      43.221  29.275  33.607  1.00  0.00     0.074 A 
ATOM     60  C   UNL A   1      43.374  29.890  34.910  1.00  0.00     0.031 C 
ATOM     61  C   UNL A   1      44.106  28.394  33.073  1.00  0.00     0.034 A 
BRANCH  48  62
ATOM     62  C   UNL A   1      42.517  26.352  27.432  1.00  0.00     0.023 A 
ATOM     63  C   UNL A   1      42.066  25.022  27.368  1.00  0.00     0.031 A 
ATOM     64  C   UNL A   1      43.304  26.832  26.370  1.00  0.00     0.131 A 
ATOM     65  C   UNL A   1      42.463  24.199  26.302  1.00  0.00     0.055 A 
ATOM     66  C   UNL A   1      43.632  26.031  25.275  1.00  0.00     0.041 A 
ATOM     67  F   UNL A   1      43.783  28.086  26.387  1.00  0.00    -0.206 F 
ATOM     68  C   UNL A   1      43.222  24.702  25.243  1.00  0.00     0.022 A 
BRANCH  65  69
ATOM     69  S   UNL A   1      42.088  22.427  26.389  1.00  0.00     0.124 S 
ATOM     70  O   UNL A   1      40.628  22.436  26.438  1.00  0.00    -0.237 OA
ATOM     71  O   UNL A   1      42.684  21.918  25.159  1.00  0.00    -0.237 OA
ATOM     72  O   UNL A   1      42.743  21.998  27.624  1.00  0.00    -0.744 OA
ENDBRANCH  65  69
ENDBRANCH  48  62
BRANCH  49  73
ATOM     73  C   UNL A   1      39.884  32.259  35.089  1.00  0.00     0.023 A 
ATOM     74  C   UNL A   1      39.077  31.730  36.109  1.00  0.00     0.031 A 
ATOM     75  C   UNL A   1      40.246  33.616  35.173  1.00  0.00     0.131 A 
ATOM     76  C   UNL A   1      38.620  32.564  37.141  1.00  0.00     0.055 A 
ATOM     77  C   UNL A   1      39.833  34.427  36.231  1.00  0.00     0.041 A 
ATOM     78  F   UNL A   1      41.016  34.174  34.225  1.00  0.00    -0.206 F 
ATOM     79  C   UNL A   1      39.003  33.904  37.216  1.00  0.00     0.022 A 
BRANCH  76  80
ATOM     80  S   UNL A   1      37.440  31.891  38.344  1.00  0.00     0.124 S 
ATOM     81  O   UNL A   1      36.275  32.742  38.125  1.00  0.00    -0.237 OA
ATOM     82  O   UNL A   1      37.315  30.506  37.902  1.00  0.00    -0.237 OA
ATOM     83  O   UNL A   1      38.117  32.075  39.626  1.00  0.00    -0.744 OA
ENDBRANCH  76  80
ENDBRANCH  49  73
BRANCH  61  84
ATOM     84  C   UNL A   1      45.341  28.082  33.882  1.00  0.00     0.023 A 
ATOM     85  C   UNL A   1      45.387  27.002  34.781  1.00  0.00     0.031 A 
ATOM     86  C   UNL A   1      46.489  28.886  33.757  1.00  0.00     0.131 A 
ATOM     87  C   UNL A   1      46.535  26.788  35.559  1.00  0.00     0.055 A 
ATOM     88  C   UNL A   1      47.649  28.631  34.489  1.00  0.00     0.041 A 
ATOM     89  F   UNL A   1      46.501  29.932  32.915  1.00  0.00    -0.206 F 
ATOM     90  C   UNL A   1      47.672  27.585  35.406  1.00  0.00     0.022 A 
BRANCH  87  91
ATOM     91  S   UNL A   1      46.494  25.504  36.840  1.00  0.00     0.124 S 
ATOM     92  O   UNL A   1      45.186  24.894  36.617  1.00  0.00    -0.237 OA
ATOM     93  O   UNL A   1      47.648  24.681  36.493  1.00  0.00    -0.237 OA
ATOM     94  O   UNL A   1      46.622  26.257  38.086  1.00  0.00    -0.744 OA
ENDBRANCH  87  91
ENDBRANCH  61  84
ENDBRANCH  35  36
ENDBRANCH  28  30
ENDBRANCH  27  28
ENDBRANCH  26  27
ENDBRANCH  25  26
ENDBRANCH   1  25
TORSDOF 21
ENDMDL
MODEL 3
REMARK VINA RESULT:     -10.7      4.657     10.355
REMARK SMILES Cc1cc(NCc2ccco2)cc(C(=O)OCCOCCOC(=O)c2ccc(-c3c4nc(c(-c5cc(S(=O)(=O)[O-])ccc5F)c5ccc([nH]5)c(-c5cc(S(=O)(=O)[O-])ccc5F)c5nc(c(-c6cc(S(=O)(=O)[O-])ccc6F)c6ccc3[nH]6)C=C5)C=C4)cc2)c1N
REMARK SMILES IDX 19 1 18 2 17 3 16 4 14 5 15 6 13 7 1 8 2 9 3 10 88 11 4 12
REMARK SMILES IDX 12 13 89 14 5 17 6 19 7 20 8 21 11 22 9 23 10 24 20 25 21 26
REMARK SMILES IDX 22 27 23 28 24 29 25 30 26 31 87 32 27 33 86 34 28 35 29 36
REMARK SMILES IDX 30 37 80 38 31 39 85 40 79 41 81 42 32 43 84 44 78 45 77 46
REMARK SMILES IDX 33 48 65 49 45 50 64 51 46 52 49 53 63 54 82 55 47 56 48 57
REMARK SMILES IDX 62 59 83 60 50 61 34 62 35 63 43 64 36 65 42 66 44 67 41 68
REMARK SMILES IDX 37 69 38 70 39 71 40 72 66 73 67 74 75 75 68 76 74 77 76 78
REMARK SMILES IDX 73 79 69 80 70 81 71 82 72 83 51 84 52 85 60 86 53 87 59 88
REMARK SMILES IDX 61 89 58 90 54 91 55 92 56 93 57 94
REMARK H PARENT 89 15 89 16 5 18 81 47 49 58
REMARK Flexibility Score: inf
ROOT
ATOM      1  O   UNL A   1      37.335  21.549  24.131  1.00  0.00    -0.374 OA
ENDROOT
BRANCH   1   2
ATOM      2  C   UNL A   1      36.699  22.658  24.769  1.00  0.00     0.202 C 
BRANCH   2   3
ATOM      3  C   UNL A   1      36.300  22.439  26.231  1.00  0.00     0.261 C 
BRANCH   3   4
ATOM      4  O   UNL A   1      35.003  23.001  26.500  1.00  0.00    -0.460 OA
BRANCH   4   5
ATOM      5  C   UNL A   1      34.013  22.092  26.682  1.00  0.00     0.340 C 
ATOM      6  O   UNL A   1      33.639  21.638  27.755  1.00  0.00    -0.246 OA
BRANCH   5   7
ATOM      7  C   UNL A   1      33.304  21.826  25.401  1.00  0.00     0.085 A 
ATOM      8  C   UNL A   1      32.416  18.854  23.177  1.00  0.00     0.047 C 
ATOM      9  C   UNL A   1      32.568  20.246  23.726  1.00  0.00    -0.025 A 
ATOM     10  C   UNL A   1      32.020  21.324  23.005  1.00  0.00     0.031 A 
ATOM     11  C   UNL A   1      33.218  20.490  24.945  1.00  0.00     0.049 A 
ATOM     12  C   UNL A   1      32.087  22.651  23.456  1.00  0.00     0.036 A 
ATOM     13  C   UNL A   1      32.733  22.886  24.670  1.00  0.00     0.043 A 
BRANCH  11  14
ATOM     14  N   UNL A   1      33.588  19.419  25.767  1.00  0.00    -0.398 N 
ATOM     15  H   UNL A   1      32.907  18.952  26.303  1.00  0.00     0.156 HD
ATOM     16  H   UNL A   1      34.529  19.132  25.808  1.00  0.00     0.156 HD
ENDBRANCH  11  14
BRANCH  12  17
ATOM     17  N   UNL A   1      31.424  23.612  22.723  1.00  0.00    -0.378 N 
ATOM     18  H   UNL A   1      31.687  23.709  21.780  1.00  0.00     0.161 HD
BRANCH  17  19
ATOM     19  C   UNL A   1      30.375  24.499  23.201  1.00  0.00     0.188 C 
BRANCH  19  20
ATOM     20  C   UNL A   1      30.796  25.910  23.409  1.00  0.00     0.122 A 
ATOM     21  C   UNL A   1      30.880  26.719  24.524  1.00  0.00     0.047 A 
ATOM     22  O   UNL A   1      31.153  26.617  22.294  1.00  0.00    -0.467 OA
ATOM     23  C   UNL A   1      31.315  27.987  24.067  1.00  0.00     0.042 A 
ATOM     24  C   UNL A   1      31.470  27.872  22.705  1.00  0.00     0.195 A 
ENDBRANCH  19  20
ENDBRANCH  17  19
ENDBRANCH  12  17
ENDBRANCH   5   7
ENDBRANCH   4   5
ENDBRANCH   3   4
ENDBRANCH   2   3
ENDBRANCH   1   2
BRANCH   1  25
ATOM     25  C   UNL A   1      37.119  20.263  24.718  1.00  0.00     0.202 C 
BRANCH  25  26
ATOM     26  C   UNL A   1      38.348  19.594  25.346  1.00  0.00     0.261 C 
BRANCH  26  27
ATOM     27  O   UNL A   1      39.483  20.480  25.375  1.00  0.00    -0.460 OA
BRANCH  27  28
ATOM     28  C   UNL A   1      40.245  20.394  26.491  1.00  0.00     0.338 C 
ATOM     29  O   UNL A   1      40.762  19.385  26.951  1.00  0.00    -0.246 OA
BRANCH  28  30
ATOM     30  C   UNL A   1      40.542  21.747  27.004  1.00  0.00     0.060 A 
ATOM     31  C   UNL A   1      39.929  22.830  26.361  1.00  0.00     0.016 A 
ATOM     32  C   UNL A   1      41.436  21.963  28.055  1.00  0.00     0.016 A 
ATOM     33  C   UNL A   1      40.244  24.135  26.734  1.00  0.00     0.010 A 
ATOM     34  C   UNL A   1      41.759  23.276  28.422  1.00  0.00     0.010 A 
ATOM     35  C   UNL A   1      41.190  24.368  27.741  1.00  0.00    -0.014 A 
BRANCH  35  36
ATOM     36  C   UNL A   1      41.691  25.746  27.970  1.00  0.00     0.031 A 
ATOM     37  C   UNL A   1      43.079  26.100  27.508  1.00  0.00     0.074 A 
ATOM     38  C   UNL A   1      40.910  26.677  28.549  1.00  0.00     0.049 A 
ATOM     39  N   UNL A   1      43.737  27.224  27.637  1.00  0.00    -0.248 NA
ATOM     40  C   UNL A   1      43.824  25.041  26.811  1.00  0.00     0.031 C 
ATOM     41  C   UNL A   1      39.533  26.465  28.993  1.00  0.00     0.029 A 
ATOM     42  N   UNL A   1      41.168  27.988  28.865  1.00  0.00    -0.354 N 
ATOM     43  C   UNL A   1      44.973  27.008  27.036  1.00  0.00     0.074 A 
ATOM     44  C   UNL A   1      44.985  25.634  26.582  1.00  0.00     0.031 C 
ATOM     45  C   UNL A   1      39.071  27.603  29.538  1.00  0.00     0.029 A 
ATOM     46  C   UNL A   1      40.129  28.613  29.514  1.00  0.00     0.049 A 
ATOM     47  H   UNL A   1      42.015  28.437  28.648  1.00  0.00     0.167 HD
ATOM     48  C   UNL A   1      45.998  27.880  26.868  1.00  0.00     0.034 A 
ATOM     49  C   UNL A   1      40.051  29.848  30.050  1.00  0.00     0.034 A 
ATOM     50  C   UNL A   1      45.977  29.244  27.340  1.00  0.00     0.049 A 
ATOM     51  C   UNL A   1      41.238  30.775  29.931  1.00  0.00     0.074 A 
ATOM     52  C   UNL A   1      46.959  30.213  27.223  1.00  0.00     0.029 A 
ATOM     53  N   UNL A   1      44.923  29.830  28.031  1.00  0.00    -0.354 N 
ATOM     54  N   UNL A   1      42.401  30.560  29.359  1.00  0.00    -0.248 NA
ATOM     55  C   UNL A   1      41.098  32.113  30.523  1.00  0.00     0.031 C 
ATOM     56  C   UNL A   1      46.528  31.360  27.900  1.00  0.00     0.029 A 
ATOM     57  C   UNL A   1      45.245  31.135  28.374  1.00  0.00     0.049 A 
ATOM     58  H   UNL A   1      44.074  29.383  28.247  1.00  0.00     0.167 HD
ATOM     59  C   UNL A   1      43.117  31.747  29.495  1.00  0.00     0.074 A 
ATOM     60  C   UNL A   1      42.250  32.676  30.191  1.00  0.00     0.031 C 
ATOM     61  C   UNL A   1      44.375  32.047  29.079  1.00  0.00     0.034 A 
BRANCH  48  62
ATOM     62  C   UNL A   1      47.243  27.362  26.191  1.00  0.00     0.023 A 
ATOM     63  C   UNL A   1      48.179  26.564  26.872  1.00  0.00     0.031 A 
ATOM     64  C   UNL A   1      47.514  27.694  24.851  1.00  0.00     0.131 A 
ATOM     65  C   UNL A   1      49.370  26.183  26.235  1.00  0.00     0.055 A 
ATOM     66  C   UNL A   1      48.665  27.248  24.199  1.00  0.00     0.041 A 
ATOM     67  F   UNL A   1      46.669  28.474  24.157  1.00  0.00    -0.206 F 
ATOM     68  C   UNL A   1      49.608  26.499  24.896  1.00  0.00     0.022 A 
BRANCH  65  69
ATOM     69  S   UNL A   1      50.666  25.387  27.223  1.00  0.00     0.124 S 
ATOM     70  O   UNL A   1      49.918  24.324  27.890  1.00  0.00    -0.237 OA
ATOM     71  O   UNL A   1      51.620  24.958  26.206  1.00  0.00    -0.237 OA
ATOM     72  O   UNL A   1      51.132  26.457  28.104  1.00  0.00    -0.744 OA
ENDBRANCH  65  69
ENDBRANCH  48  62
BRANCH  49  73
ATOM     73  C   UNL A   1      38.829  30.275  30.792  1.00  0.00     0.023 A 
ATOM     74  C   UNL A   1      37.762  30.910  30.138  1.00  0.00     0.031 A 
ATOM     75  C   UNL A   1      38.741  30.105  32.186  1.00  0.00     0.131 A 
ATOM     76  C   UNL A   1      36.675  31.395  30.883  1.00  0.00     0.055 A 
ATOM     77  C   UNL A   1      37.633  30.541  32.914  1.00  0.00     0.041 A 
ATOM     78  F   UNL A   1      39.733  29.504  32.862  1.00  0.00    -0.206 F 
ATOM     79  C   UNL A   1      36.597  31.202  32.264  1.00  0.00     0.022 A 
BRANCH  76  80
ATOM     80  S   UNL A   1      35.399  32.362  30.030  1.00  0.00     0.124 S 
ATOM     81  O   UNL A   1      35.037  31.473  28.932  1.00  0.00    -0.237 OA
ATOM     82  O   UNL A   1      34.397  32.529  31.078  1.00  0.00    -0.237 OA
ATOM     83  O   UNL A   1      36.100  33.583  29.641  1.00  0.00    -0.744 OA
ENDBRANCH  76  80
ENDBRANCH  49  73
BRANCH  61  84
ATOM     84  C   UNL A   1      44.866  33.452  29.326  1.00  0.00     0.023 A 
ATOM     85  C   UNL A   1      44.669  34.483  28.389  1.00  0.00     0.031 A 
ATOM     86  C   UNL A   1      45.549  33.763  30.516  1.00  0.00     0.131 A 
ATOM     87  C   UNL A   1      45.198  35.760  28.633  1.00  0.00     0.055 A 
ATOM     88  C   UNL A   1      46.019  35.050  30.779  1.00  0.00     0.041 A 
ATOM     89  F   UNL A   1      45.766  32.818  31.444  1.00  0.00    -0.206 F 
ATOM     90  C   UNL A   1      45.856  36.054  29.830  1.00  0.00     0.022 A 
BRANCH  87  91
ATOM     91  S   UNL A   1      45.089  37.013  27.326  1.00  0.00     0.124 S 
ATOM     92  O   UNL A   1      45.516  38.220  28.027  1.00  0.00    -0.237 OA
ATOM     93  O   UNL A   1      46.015  36.498  26.323  1.00  0.00    -0.237 OA
ATOM     94  O   UNL A   1      43.680  36.986  26.940  1.00  0.00    -0.744 OA
ENDBRANCH  87  91
ENDBRANCH  61  84
ENDBRANCH  35  36
ENDBRANCH  28  30
ENDBRANCH  27  28
ENDBRANCH  26  27
ENDBRANCH  25  26
ENDBRANCH   1  25
TORSDOF 21
ENDMDL
