MODEL 1
REMARK VINA RESULT:     -10.4      0.000      0.000
REMARK SMILES Cc1cs/c(=N\S(=O)(=O)c2ccc(/C=C/C(=O)OCCOCCOC(=O)c3ccc(-c4c5nc(c(-c6cc(S(=O)(=O)[O-])ccc6F)c6ccc([nH]6)c(-c6cc(S(=O)(=O)[O-])ccc6F)c6nc(c(-c7cc(S(=O)(=O)[O-])ccc7F)c7ccc4[nH]7)C=C6)C=C5)cc3)cc2)[nH]1
REMARK SMILES IDX 21 1 20 2 19 3 18 4 16 5 17 6 15 7 14 8 13 9 10 10 11 11
REMARK SMILES IDX 91 12 12 13 90 14 7 15 8 16 9 17 6 18 1 19 2 20 3 21 92 22
REMARK SMILES IDX 4 23 5 24 22 26 23 27 24 28 25 29 26 30 27 31 28 32 89 33
REMARK SMILES IDX 29 34 88 35 30 36 31 37 32 38 82 39 33 40 87 41 81 42 83 43
REMARK SMILES IDX 34 44 86 45 80 46 79 47 35 49 67 50 47 51 66 52 48 53 51 54
REMARK SMILES IDX 65 55 84 56 49 57 50 58 64 60 85 61 52 62 36 63 37 64 45 65
REMARK SMILES IDX 38 66 44 67 46 68 43 69 39 70 40 71 41 72 42 73 68 74 69 75
REMARK SMILES IDX 77 76 70 77 76 78 78 79 75 80 71 81 72 82 73 83 74 84 53 85
REMARK SMILES IDX 54 86 62 87 55 88 61 89 63 90 60 91 56 92 57 93 58 94 59 95
REMARK H PARENT 92 25 83 48 51 59
REMARK Flexibility Score: inf
ROOT
ATOM      1  O   UNL A   1      31.808  29.001  25.569  1.00  0.00    -0.374 OA
ENDROOT
BRANCH   1   2
ATOM      2  C   UNL A   1      31.063  29.627  24.524  1.00  0.00     0.202 C 
BRANCH   2   3
ATOM      3  C   UNL A   1      31.258  29.044  23.123  1.00  0.00     0.261 C 
BRANCH   3   4
ATOM      4  O   UNL A   1      30.000  28.825  22.460  1.00  0.00    -0.460 OA
BRANCH   4   5
ATOM      5  C   UNL A   1      29.160  27.979  23.098  1.00  0.00     0.330 C 
ATOM      6  O   UNL A   1      28.001  28.202  23.420  1.00  0.00    -0.247 OA
BRANCH   5   7
ATOM      7  C   UNL A   1      29.761  26.653  23.338  1.00  0.00     0.094 C 
ATOM      8  C   UNL A   1      29.947  26.037  24.518  1.00  0.00     0.015 C 
BRANCH   8   9
ATOM      9  C   UNL A   1      30.567  24.701  24.592  1.00  0.00    -0.025 A 
ATOM     10  C   UNL A   1      31.920  22.246  24.709  1.00  0.00     0.089 A 
ATOM     11  C   UNL A   1      31.499  22.864  25.889  1.00  0.00     0.023 A 
ATOM     12  C   UNL A   1      31.614  22.806  23.468  1.00  0.00     0.023 A 
ATOM     13  C   UNL A   1      30.816  24.078  25.826  1.00  0.00     0.009 A 
ATOM     14  C   UNL A   1      30.932  24.030  23.415  1.00  0.00     0.009 A 
BRANCH  10  15
ATOM     15  S   UNL A   1      32.885  20.752  24.867  1.00  0.00     0.285 S 
ATOM     16  O   UNL A   1      33.407  20.492  23.543  1.00  0.00    -0.199 OA
ATOM     17  O   UNL A   1      31.995  19.809  25.525  1.00  0.00    -0.199 OA
BRANCH  15  18
ATOM     18  N   UNL A   1      34.104  21.120  25.858  1.00  0.00    -0.130 NA
ATOM     19  C   UNL A   1      38.275  23.540  26.375  1.00  0.00     0.065 C 
ATOM     20  C   UNL A   1      37.081  23.068  25.619  1.00  0.00     0.024 A 
ATOM     21  C   UNL A   1      36.787  23.373  24.345  1.00  0.00     0.089 A 
ATOM     22  N   UNL A   1      36.143  22.247  26.213  1.00  0.00    -0.334 N 
ATOM     23  S   UNL A   1      35.289  22.624  23.838  1.00  0.00    -0.104 S 
ATOM     24  C   UNL A   1      35.065  21.871  25.446  1.00  0.00     0.199 A 
ATOM     25  H   UNL A   1      36.241  21.943  27.144  1.00  0.00     0.169 HD
ENDBRANCH  15  18
ENDBRANCH  10  15
ENDBRANCH   8   9
ENDBRANCH   5   7
ENDBRANCH   4   5
ENDBRANCH   3   4
ENDBRANCH   2   3
ENDBRANCH   1   2
BRANCH   1  26
ATOM     26  C   UNL A   1      33.164  28.661  25.279  1.00  0.00     0.202 C 
BRANCH  26  27
ATOM     27  C   UNL A   1      34.133  28.643  26.470  1.00  0.00     0.261 C 
BRANCH  27  28
ATOM     28  O   UNL A   1      33.684  29.484  27.549  1.00  0.00    -0.460 OA
BRANCH  28  29
ATOM     29  C   UNL A   1      34.407  30.618  27.726  1.00  0.00     0.338 C 
ATOM     30  O   UNL A   1      34.024  31.765  27.549  1.00  0.00    -0.246 OA
BRANCH  29  31
ATOM     31  C   UNL A   1      35.699  30.297  28.363  1.00  0.00     0.060 A 
ATOM     32  C   UNL A   1      36.866  30.620  27.658  1.00  0.00     0.016 A 
ATOM     33  C   UNL A   1      35.774  29.646  29.597  1.00  0.00     0.016 A 
ATOM     34  C   UNL A   1      38.113  30.257  28.166  1.00  0.00     0.010 A 
ATOM     35  C   UNL A   1      37.027  29.277  30.101  1.00  0.00     0.010 A 
ATOM     36  C   UNL A   1      38.200  29.555  29.375  1.00  0.00    -0.014 A 
BRANCH  36  37
ATOM     37  C   UNL A   1      39.506  28.997  29.807  1.00  0.00     0.031 A 
ATOM     38  C   UNL A   1      40.255  29.670  30.926  1.00  0.00     0.074 A 
ATOM     39  C   UNL A   1      40.007  27.893  29.227  1.00  0.00     0.049 A 
ATOM     40  N   UNL A   1      41.424  29.381  31.436  1.00  0.00    -0.248 NA
ATOM     41  C   UNL A   1      39.593  30.828  31.545  1.00  0.00     0.031 C 
ATOM     42  C   UNL A   1      39.356  27.132  28.161  1.00  0.00     0.029 A 
ATOM     43  N   UNL A   1      41.185  27.223  29.447  1.00  0.00    -0.354 N 
ATOM     44  C   UNL A   1      41.642  30.321  32.439  1.00  0.00     0.074 A 
ATOM     45  C   UNL A   1      40.501  31.213  32.428  1.00  0.00     0.031 C 
ATOM     46  C   UNL A   1      40.150  26.105  27.812  1.00  0.00     0.029 A 
ATOM     47  C   UNL A   1      41.380  26.157  28.600  1.00  0.00     0.049 A 
ATOM     48  H   UNL A   1      41.829  27.481  30.145  1.00  0.00     0.167 HD
ATOM     49  C   UNL A   1      42.688  30.421  33.296  1.00  0.00     0.034 A 
ATOM     50  C   UNL A   1      42.439  25.336  28.458  1.00  0.00     0.034 A 
ATOM     51  C   UNL A   1      43.827  29.533  33.279  1.00  0.00     0.049 A 
ATOM     52  C   UNL A   1      43.637  25.521  29.359  1.00  0.00     0.074 A 
ATOM     53  C   UNL A   1      44.935  29.535  34.108  1.00  0.00     0.029 A 
ATOM     54  N   UNL A   1      44.012  28.494  32.375  1.00  0.00    -0.354 N 
ATOM     55  N   UNL A   1      43.826  26.406  30.311  1.00  0.00    -0.248 NA
ATOM     56  C   UNL A   1      44.758  24.591  29.170  1.00  0.00     0.031 C 
ATOM     57  C   UNL A   1      45.822  28.549  33.660  1.00  0.00     0.029 A 
ATOM     58  C   UNL A   1      45.233  27.874  32.602  1.00  0.00     0.049 A 
ATOM     59  H   UNL A   1      43.370  28.235  31.676  1.00  0.00     0.167 HD
ATOM     60  C   UNL A   1      45.079  26.120  30.851  1.00  0.00     0.074 A 
ATOM     61  C   UNL A   1      45.589  24.974  30.127  1.00  0.00     0.031 C 
ATOM     62  C   UNL A   1      45.743  26.746  31.858  1.00  0.00     0.034 A 
BRANCH  49  63
ATOM     63  C   UNL A   1      42.665  31.567  34.281  1.00  0.00     0.023 A 
ATOM     64  C   UNL A   1      41.867  31.530  35.440  1.00  0.00     0.031 A 
ATOM     65  C   UNL A   1      43.413  32.731  34.037  1.00  0.00     0.131 A 
ATOM     66  C   UNL A   1      41.772  32.665  36.261  1.00  0.00     0.055 A 
ATOM     67  C   UNL A   1      43.381  33.826  34.904  1.00  0.00     0.041 A 
ATOM     68  F   UNL A   1      44.176  32.835  32.936  1.00  0.00    -0.206 F 
ATOM     69  C   UNL A   1      42.542  33.803  36.015  1.00  0.00     0.022 A 
BRANCH  66  70
ATOM     70  S   UNL A   1      40.505  32.690  37.559  1.00  0.00     0.124 S 
ATOM     71  O   UNL A   1      41.302  32.419  38.753  1.00  0.00    -0.237 OA
ATOM     72  O   UNL A   1      39.963  34.039  37.445  1.00  0.00    -0.237 OA
ATOM     73  O   UNL A   1      39.595  31.614  37.170  1.00  0.00    -0.744 OA
ENDBRANCH  66  70
ENDBRANCH  49  63
BRANCH  50  74
ATOM     74  C   UNL A   1      42.442  24.294  27.393  1.00  0.00     0.023 A 
ATOM     75  C   UNL A   1      41.804  23.058  27.578  1.00  0.00     0.031 A 
ATOM     76  C   UNL A   1      43.121  24.511  26.180  1.00  0.00     0.131 A 
ATOM     77  C   UNL A   1      41.889  22.072  26.582  1.00  0.00     0.055 A 
ATOM     78  C   UNL A   1      43.160  23.546  25.172  1.00  0.00     0.041 A 
ATOM     79  F   UNL A   1      43.748  25.675  25.951  1.00  0.00    -0.206 F 
ATOM     80  C   UNL A   1      42.549  22.313  25.376  1.00  0.00     0.022 A 
BRANCH  77  81
ATOM     81  S   UNL A   1      41.177  20.437  26.913  1.00  0.00     0.124 S 
ATOM     82  O   UNL A   1      40.047  20.413  25.991  1.00  0.00    -0.237 OA
ATOM     83  O   UNL A   1      42.290  19.550  26.588  1.00  0.00    -0.237 OA
ATOM     84  O   UNL A   1      40.826  20.499  28.330  1.00  0.00    -0.744 OA
ENDBRANCH  77  81
ENDBRANCH  50  74
BRANCH  62  85
ATOM     85  C   UNL A   1      47.083  26.172  32.256  1.00  0.00     0.023 A 
ATOM     86  C   UNL A   1      48.266  26.510  31.576  1.00  0.00     0.031 A 
ATOM     87  C   UNL A   1      47.174  25.264  33.327  1.00  0.00     0.131 A 
ATOM     88  C   UNL A   1      49.479  25.903  31.937  1.00  0.00     0.055 A 
ATOM     89  C   UNL A   1      48.393  24.711  33.722  1.00  0.00     0.041 A 
ATOM     90  F   UNL A   1      46.077  24.903  34.012  1.00  0.00    -0.206 F 
ATOM     91  C   UNL A   1      49.553  25.019  33.017  1.00  0.00     0.022 A 
BRANCH  88  92
ATOM     92  S   UNL A   1      50.948  26.213  30.917  1.00  0.00     0.124 S 
ATOM     93  O   UNL A   1      50.457  25.905  29.579  1.00  0.00    -0.237 OA
ATOM     94  O   UNL A   1      51.224  27.620  31.188  1.00  0.00    -0.237 OA
ATOM     95  O   UNL A   1      51.937  25.275  31.446  1.00  0.00    -0.744 OA
ENDBRANCH  88  92
ENDBRANCH  62  85
ENDBRANCH  36  37
ENDBRANCH  29  31
ENDBRANCH  28  29
ENDBRANCH  27  28
ENDBRANCH  26  27
ENDBRANCH   1  26
TORSDOF 20
ENDMDL
MODEL 2
REMARK VINA RESULT:     -10.1      1.807      2.050
REMARK SMILES Cc1cs/c(=N\S(=O)(=O)c2ccc(/C=C/C(=O)OCCOCCOC(=O)c3ccc(-c4c5nc(c(-c6cc(S(=O)(=O)[O-])ccc6F)c6ccc([nH]6)c(-c6cc(S(=O)(=O)[O-])ccc6F)c6nc(c(-c7cc(S(=O)(=O)[O-])ccc7F)c7ccc4[nH]7)C=C6)C=C5)cc3)cc2)[nH]1
REMARK SMILES IDX 21 1 20 2 19 3 18 4 16 5 17 6 15 7 14 8 13 9 10 10 11 11
REMARK SMILES IDX 91 12 12 13 90 14 7 15 8 16 9 17 6 18 1 19 2 20 3 21 92 22
REMARK SMILES IDX 4 23 5 24 22 26 23 27 24 28 25 29 26 30 27 31 28 32 89 33
REMARK SMILES IDX 29 34 88 35 30 36 31 37 32 38 82 39 33 40 87 41 81 42 83 43
REMARK SMILES IDX 34 44 86 45 80 46 79 47 35 49 67 50 47 51 66 52 48 53 51 54
REMARK SMILES IDX 65 55 84 56 49 57 50 58 64 60 85 61 52 62 36 63 37 64 45 65
REMARK SMILES IDX 38 66 44 67 46 68 43 69 39 70 40 71 41 72 42 73 68 74 69 75
REMARK SMILES IDX 77 76 70 77 76 78 78 79 75 80 71 81 72 82 73 83 74 84 53 85
REMARK SMILES IDX 54 86 62 87 55 88 61 89 63 90 60 91 56 92 57 93 58 94 59 95
REMARK H PARENT 92 25 83 48 51 59
REMARK Flexibility Score: inf
ROOT
ATOM      1  O   UNL A   1      31.917  28.901  25.540  1.00  0.00    -0.374 OA
ENDROOT
BRANCH   1   2
ATOM      2  C   UNL A   1      31.149  29.614  24.571  1.00  0.00     0.202 C 
BRANCH   2   3
ATOM      3  C   UNL A   1      30.988  28.932  23.210  1.00  0.00     0.261 C 
BRANCH   3   4
ATOM      4  O   UNL A   1      29.636  29.023  22.728  1.00  0.00    -0.460 OA
BRANCH   4   5
ATOM      5  C   UNL A   1      28.791  28.090  23.221  1.00  0.00     0.330 C 
ATOM      6  O   UNL A   1      27.598  28.230  23.451  1.00  0.00    -0.247 OA
BRANCH   5   7
ATOM      7  C   UNL A   1      29.441  26.779  23.415  1.00  0.00     0.094 C 
ATOM      8  C   UNL A   1      29.751  26.180  24.577  1.00  0.00     0.015 C 
BRANCH   8   9
ATOM      9  C   UNL A   1      30.405  24.858  24.605  1.00  0.00    -0.025 A 
ATOM     10  C   UNL A   1      31.821  22.437  24.673  1.00  0.00     0.089 A 
ATOM     11  C   UNL A   1      31.174  22.896  25.823  1.00  0.00     0.023 A 
ATOM     12  C   UNL A   1      31.712  23.138  23.471  1.00  0.00     0.023 A 
ATOM     13  C   UNL A   1      30.461  24.094  25.781  1.00  0.00     0.009 A 
ATOM     14  C   UNL A   1      30.998  24.345  23.441  1.00  0.00     0.009 A 
BRANCH  10  15
ATOM     15  S   UNL A   1      32.806  20.956  24.825  1.00  0.00     0.285 S 
ATOM     16  O   UNL A   1      33.336  20.711  23.501  1.00  0.00    -0.199 OA
ATOM     17  O   UNL A   1      31.928  19.996  25.475  1.00  0.00    -0.199 OA
BRANCH  15  18
ATOM     18  N   UNL A   1      34.017  21.335  25.823  1.00  0.00    -0.130 NA
ATOM     19  C   UNL A   1      38.179  23.767  26.349  1.00  0.00     0.065 C 
ATOM     20  C   UNL A   1      36.992  23.286  25.589  1.00  0.00     0.024 A 
ATOM     21  C   UNL A   1      36.708  23.579  24.309  1.00  0.00     0.089 A 
ATOM     22  N   UNL A   1      36.051  22.469  26.182  1.00  0.00    -0.334 N 
ATOM     23  S   UNL A   1      35.215  22.823  23.798  1.00  0.00    -0.104 S 
ATOM     24  C   UNL A   1      34.980  22.084  25.411  1.00  0.00     0.199 A 
ATOM     25  H   UNL A   1      36.143  22.174  27.117  1.00  0.00     0.169 HD
ENDBRANCH  15  18
ENDBRANCH  10  15
ENDBRANCH   8   9
ENDBRANCH   5   7
ENDBRANCH   4   5
ENDBRANCH   3   4
ENDBRANCH   2   3
ENDBRANCH   1   2
BRANCH   1  26
ATOM     26  C   UNL A   1      33.317  28.773  25.284  1.00  0.00     0.202 C 
BRANCH  26  27
ATOM     27  C   UNL A   1      34.242  28.822  26.508  1.00  0.00     0.261 C 
BRANCH  27  28
ATOM     28  O   UNL A   1      33.728  29.680  27.543  1.00  0.00    -0.460 OA
BRANCH  28  29
ATOM     29  C   UNL A   1      34.462  30.797  27.776  1.00  0.00     0.338 C 
ATOM     30  O   UNL A   1      34.103  31.955  27.619  1.00  0.00    -0.246 OA
BRANCH  29  31
ATOM     31  C   UNL A   1      35.727  30.437  28.443  1.00  0.00     0.060 A 
ATOM     32  C   UNL A   1      36.922  30.794  27.804  1.00  0.00     0.016 A 
ATOM     33  C   UNL A   1      35.754  29.719  29.642  1.00  0.00     0.016 A 
ATOM     34  C   UNL A   1      38.147  30.400  28.340  1.00  0.00     0.010 A 
ATOM     35  C   UNL A   1      36.985  29.319  30.173  1.00  0.00     0.010 A 
ATOM     36  C   UNL A   1      38.186  29.632  29.510  1.00  0.00    -0.014 A 
BRANCH  36  37
ATOM     37  C   UNL A   1      39.474  29.047  29.962  1.00  0.00     0.031 A 
ATOM     38  C   UNL A   1      40.152  29.622  31.175  1.00  0.00     0.074 A 
ATOM     39  C   UNL A   1      40.018  28.003  29.314  1.00  0.00     0.049 A 
ATOM     40  N   UNL A   1      41.296  29.297  31.721  1.00  0.00    -0.248 NA
ATOM     41  C   UNL A   1      39.445  30.715  31.858  1.00  0.00     0.031 C 
ATOM     42  C   UNL A   1      39.434  27.336  28.151  1.00  0.00     0.029 A 
ATOM     43  N   UNL A   1      41.190  27.324  29.538  1.00  0.00    -0.354 N 
ATOM     44  C   UNL A   1      41.448  30.144  32.814  1.00  0.00     0.074 A 
ATOM     45  C   UNL A   1      40.299  31.026  32.821  1.00  0.00     0.031 C 
ATOM     46  C   UNL A   1      40.258  26.350  27.755  1.00  0.00     0.029 A 
ATOM     47  C   UNL A   1      41.443  26.340  28.611  1.00  0.00     0.049 A 
ATOM     48  H   UNL A   1      41.793  27.523  30.290  1.00  0.00     0.167 HD
ATOM     49  C   UNL A   1      42.446  30.175  33.733  1.00  0.00     0.034 A 
ATOM     50  C   UNL A   1      42.518  25.542  28.455  1.00  0.00     0.034 A 
ATOM     51  C   UNL A   1      43.594  29.300  33.699  1.00  0.00     0.049 A 
ATOM     52  C   UNL A   1      43.663  25.653  29.433  1.00  0.00     0.074 A 
ATOM     53  C   UNL A   1      44.656  29.235  34.585  1.00  0.00     0.029 A 
ATOM     54  N   UNL A   1      43.840  28.347  32.718  1.00  0.00    -0.354 N 
ATOM     55  N   UNL A   1      43.791  26.451  30.469  1.00  0.00    -0.248 NA
ATOM     56  C   UNL A   1      44.804  24.752  29.223  1.00  0.00     0.031 C 
ATOM     57  C   UNL A   1      45.578  28.299  34.099  1.00  0.00     0.029 A 
ATOM     58  C   UNL A   1      45.054  27.718  32.955  1.00  0.00     0.049 A 
ATOM     59  H   UNL A   1      43.240  28.148  31.964  1.00  0.00     0.167 HD
ATOM     60  C   UNL A   1      45.015  26.127  31.049  1.00  0.00     0.074 A 
ATOM     61  C   UNL A   1      45.578  25.054  30.255  1.00  0.00     0.031 C 
ATOM     62  C   UNL A   1      45.617  26.664  32.143  1.00  0.00     0.034 A 
BRANCH  49  63
ATOM     63  C   UNL A   1      42.356  31.228  34.813  1.00  0.00     0.023 A 
ATOM     64  C   UNL A   1      42.878  32.521  34.631  1.00  0.00     0.031 A 
ATOM     65  C   UNL A   1      41.782  30.921  36.059  1.00  0.00     0.131 A 
ATOM     66  C   UNL A   1      42.893  33.428  35.702  1.00  0.00     0.055 A 
ATOM     67  C   UNL A   1      41.722  31.858  37.095  1.00  0.00     0.041 A 
ATOM     68  F   UNL A   1      41.287  29.697  36.302  1.00  0.00    -0.206 F 
ATOM     69  C   UNL A   1      42.296  33.114  36.925  1.00  0.00     0.022 A 
BRANCH  66  70
ATOM     70  S   UNL A   1      43.846  34.961  35.525  1.00  0.00     0.124 S 
ATOM     71  O   UNL A   1      45.103  34.464  34.970  1.00  0.00    -0.237 OA
ATOM     72  O   UNL A   1      43.015  35.748  34.621  1.00  0.00    -0.237 OA
ATOM     73  O   UNL A   1      43.937  35.469  36.893  1.00  0.00    -0.744 OA
ENDBRANCH  66  70
ENDBRANCH  49  63
BRANCH  50  74
ATOM     74  C   UNL A   1      42.591  24.599  27.303  1.00  0.00     0.023 A 
ATOM     75  C   UNL A   1      42.028  23.315  27.372  1.00  0.00     0.031 A 
ATOM     76  C   UNL A   1      43.261  24.962  26.121  1.00  0.00     0.131 A 
ATOM     77  C   UNL A   1      42.179  22.427  26.296  1.00  0.00     0.055 A 
ATOM     78  C   UNL A   1      43.365  24.094  25.033  1.00  0.00     0.041 A 
ATOM     79  F   UNL A   1      43.818  26.178  26.002  1.00  0.00    -0.206 F 
ATOM     80  C   UNL A   1      42.830  22.813  25.122  1.00  0.00     0.022 A 
BRANCH  77  81
ATOM     81  S   UNL A   1      41.567  20.729  26.475  1.00  0.00     0.124 S 
ATOM     82  O   UNL A   1      40.153  20.889  26.153  1.00  0.00    -0.237 OA
ATOM     83  O   UNL A   1      42.372  20.012  25.492  1.00  0.00    -0.237 OA
ATOM     84  O   UNL A   1      41.858  20.408  27.870  1.00  0.00    -0.744 OA
ENDBRANCH  77  81
ENDBRANCH  50  74
BRANCH  62  85
ATOM     85  C   UNL A   1      46.940  26.066  32.560  1.00  0.00     0.023 A 
ATOM     86  C   UNL A   1      47.019  25.021  33.497  1.00  0.00     0.031 A 
ATOM     87  C   UNL A   1      48.142  26.560  32.018  1.00  0.00     0.131 A 
ATOM     88  C   UNL A   1      48.274  24.540  33.905  1.00  0.00     0.055 A 
ATOM     89  C   UNL A   1      49.383  26.035  32.382  1.00  0.00     0.041 A 
ATOM     90  F   UNL A   1      48.128  27.559  31.121  1.00  0.00    -0.206 F 
ATOM     91  C   UNL A   1      49.455  25.029  33.340  1.00  0.00     0.022 A 
BRANCH  88  92
ATOM     92  S   UNL A   1      48.348  23.330  35.254  1.00  0.00     0.124 S 
ATOM     93  O   UNL A   1      49.740  23.432  35.677  1.00  0.00    -0.237 OA
ATOM     94  O   UNL A   1      47.356  23.848  36.192  1.00  0.00    -0.237 OA
ATOM     95  O   UNL A   1      47.987  22.070  34.606  1.00  0.00    -0.744 OA
ENDBRANCH  88  92
ENDBRANCH  62  85
ENDBRANCH  36  37
ENDBRANCH  29  31
ENDBRANCH  28  29
ENDBRANCH  27  28
ENDBRANCH  26  27
ENDBRANCH   1  26
TORSDOF 20
ENDMDL
MODEL 3
REMARK VINA RESULT:     -10.0      5.386     11.833
REMARK SMILES Cc1cs/c(=N\S(=O)(=O)c2ccc(/C=C/C(=O)OCCOCCOC(=O)c3ccc(-c4c5nc(c(-c6cc(S(=O)(=O)[O-])ccc6F)c6ccc([nH]6)c(-c6cc(S(=O)(=O)[O-])ccc6F)c6nc(c(-c7cc(S(=O)(=O)[O-])ccc7F)c7ccc4[nH]7)C=C6)C=C5)cc3)cc2)[nH]1
REMARK SMILES IDX 21 1 20 2 19 3 18 4 16 5 17 6 15 7 14 8 13 9 10 10 11 11
REMARK SMILES IDX 91 12 12 13 90 14 7 15 8 16 9 17 6 18 1 19 2 20 3 21 92 22
REMARK SMILES IDX 4 23 5 24 22 26 23 27 24 28 25 29 26 30 27 31 28 32 89 33
REMARK SMILES IDX 29 34 88 35 30 36 31 37 32 38 82 39 33 40 87 41 81 42 83 43
REMARK SMILES IDX 34 44 86 45 80 46 79 47 35 49 67 50 47 51 66 52 48 53 51 54
REMARK SMILES IDX 65 55 84 56 49 57 50 58 64 60 85 61 52 62 36 63 37 64 45 65
REMARK SMILES IDX 38 66 44 67 46 68 43 69 39 70 40 71 41 72 42 73 68 74 69 75
REMARK SMILES IDX 77 76 70 77 76 78 78 79 75 80 71 81 72 82 73 83 74 84 53 85
REMARK SMILES IDX 54 86 62 87 55 88 61 89 63 90 60 91 56 92 57 93 58 94 59 95
REMARK H PARENT 92 25 83 48 51 59
REMARK Flexibility Score: inf
ROOT
ATOM      1  O   UNL A   1      43.154  20.292  25.330  1.00  0.00    -0.374 OA
ENDROOT
BRANCH   1   2
ATOM      2  C   UNL A   1      43.432  21.683  25.491  1.00  0.00     0.202 C 
BRANCH   2   3
ATOM      3  C   UNL A   1      44.342  22.052  26.665  1.00  0.00     0.261 C 
BRANCH   3   4
ATOM      4  O   UNL A   1      45.699  22.265  26.238  1.00  0.00    -0.460 OA
BRANCH   4   5
ATOM      5  C   UNL A   1      46.203  23.485  26.533  1.00  0.00     0.330 C 
ATOM      6  O   UNL A   1      46.725  24.269  25.753  1.00  0.00    -0.247 OA
BRANCH   5   7
ATOM      7  C   UNL A   1      46.008  23.855  27.948  1.00  0.00     0.094 C 
ATOM      8  C   UNL A   1      44.878  23.773  28.670  1.00  0.00     0.015 C 
BRANCH   8   9
ATOM      9  C   UNL A   1      44.844  24.186  30.086  1.00  0.00    -0.025 A 
ATOM     10  C   UNL A   1      44.626  25.084  32.735  1.00  0.00     0.089 A 
ATOM     11  C   UNL A   1      44.119  23.831  32.382  1.00  0.00     0.023 A 
ATOM     12  C   UNL A   1      45.300  25.866  31.795  1.00  0.00     0.023 A 
ATOM     13  C   UNL A   1      44.240  23.383  31.067  1.00  0.00     0.009 A 
ATOM     14  C   UNL A   1      45.411  25.409  30.473  1.00  0.00     0.009 A 
BRANCH  10  15
ATOM     15  S   UNL A   1      44.339  25.643  34.405  1.00  0.00     0.285 S 
ATOM     16  O   UNL A   1      45.340  24.976  35.210  1.00  0.00    -0.199 OA
ATOM     17  O   UNL A   1      42.920  25.417  34.629  1.00  0.00    -0.199 OA
BRANCH  15  18
ATOM     18  N   UNL A   1      44.633  27.230  34.395  1.00  0.00    -0.130 NA
ATOM     19  C   UNL A   1      42.829  31.646  33.521  1.00  0.00     0.065 C 
ATOM     20  C   UNL A   1      42.770  30.159  33.579  1.00  0.00     0.024 A 
ATOM     21  C   UNL A   1      41.705  29.402  33.266  1.00  0.00     0.089 A 
ATOM     22  N   UNL A   1      43.862  29.419  33.989  1.00  0.00    -0.334 N 
ATOM     23  S   UNL A   1      42.046  27.700  33.481  1.00  0.00    -0.104 S 
ATOM     24  C   UNL A   1      43.714  28.052  34.026  1.00  0.00     0.199 A 
ATOM     25  H   UNL A   1      44.709  29.851  34.242  1.00  0.00     0.169 HD
ENDBRANCH  15  18
ENDBRANCH  10  15
ENDBRANCH   8   9
ENDBRANCH   5   7
ENDBRANCH   4   5
ENDBRANCH   3   4
ENDBRANCH   2   3
ENDBRANCH   1   2
BRANCH   1  26
ATOM     26  C   UNL A   1      42.327  19.682  26.322  1.00  0.00     0.202 C 
BRANCH  26  27
ATOM     27  C   UNL A   1      40.811  19.779  26.100  1.00  0.00     0.261 C 
BRANCH  27  28
ATOM     28  O   UNL A   1      40.194  20.739  26.977  1.00  0.00    -0.460 OA
BRANCH  28  29
ATOM     29  C   UNL A   1      39.490  21.715  26.350  1.00  0.00     0.338 C 
ATOM     30  O   UNL A   1      38.589  21.563  25.539  1.00  0.00    -0.246 OA
BRANCH  29  31
ATOM     31  C   UNL A   1      39.831  23.030  26.927  1.00  0.00     0.060 A 
ATOM     32  C   UNL A   1      39.228  24.161  26.363  1.00  0.00     0.016 A 
ATOM     33  C   UNL A   1      40.760  23.165  27.963  1.00  0.00     0.016 A 
ATOM     34  C   UNL A   1      39.580  25.436  26.805  1.00  0.00     0.010 A 
ATOM     35  C   UNL A   1      41.117  24.446  28.399  1.00  0.00     0.010 A 
ATOM     36  C   UNL A   1      40.551  25.589  27.803  1.00  0.00    -0.014 A 
BRANCH  36  37
ATOM     37  C   UNL A   1      41.066  26.943  28.124  1.00  0.00     0.031 A 
ATOM     38  C   UNL A   1      42.501  27.273  27.812  1.00  0.00     0.074 A 
ATOM     39  C   UNL A   1      40.261  27.873  28.666  1.00  0.00     0.049 A 
ATOM     40  N   UNL A   1      43.171  28.373  28.043  1.00  0.00    -0.248 NA
ATOM     41  C   UNL A   1      43.282  26.214  27.157  1.00  0.00     0.031 C 
ATOM     42  C   UNL A   1      38.845  27.684  28.976  1.00  0.00     0.029 A 
ATOM     43  N   UNL A   1      40.521  29.163  29.057  1.00  0.00    -0.354 N 
ATOM     44  C   UNL A   1      44.455  28.141  27.561  1.00  0.00     0.074 A 
ATOM     45  C   UNL A   1      44.476  26.779  27.068  1.00  0.00     0.031 C 
ATOM     46  C   UNL A   1      38.364  28.814  29.523  1.00  0.00     0.029 A 
ATOM     47  C   UNL A   1      39.444  29.792  29.635  1.00  0.00     0.049 A 
ATOM     48  H   UNL A   1      41.397  29.597  28.935  1.00  0.00     0.167 HD
ATOM     49  C   UNL A   1      45.513  28.990  27.521  1.00  0.00     0.034 A 
ATOM     50  C   UNL A   1      39.347  31.006  30.213  1.00  0.00     0.034 A 
ATOM     51  C   UNL A   1      45.479  30.339  28.034  1.00  0.00     0.049 A 
ATOM     52  C   UNL A   1      40.562  31.903  30.243  1.00  0.00     0.074 A 
ATOM     53  C   UNL A   1      46.486  31.288  28.034  1.00  0.00     0.029 A 
ATOM     54  N   UNL A   1      44.384  30.926  28.656  1.00  0.00    -0.354 N 
ATOM     55  N   UNL A   1      41.768  31.678  29.774  1.00  0.00    -0.248 NA
ATOM     56  C   UNL A   1      40.398  33.220  30.874  1.00  0.00     0.031 C 
ATOM     57  C   UNL A   1      46.026  32.418  28.721  1.00  0.00     0.029 A 
ATOM     58  C   UNL A   1      44.703  32.209  29.078  1.00  0.00     0.049 A 
ATOM     59  H   UNL A   1      43.508  30.494  28.781  1.00  0.00     0.167 HD
ATOM     60  C   UNL A   1      42.498  32.836  30.031  1.00  0.00     0.074 A 
ATOM     61  C   UNL A   1      41.592  33.760  30.682  1.00  0.00     0.031 C 
ATOM     62  C   UNL A   1      43.798  33.113  29.748  1.00  0.00     0.034 A 
BRANCH  49  63
ATOM     63  C   UNL A   1      46.805  28.453  26.950  1.00  0.00     0.023 A 
ATOM     64  C   UNL A   1      47.039  28.409  25.563  1.00  0.00     0.031 A 
ATOM     65  C   UNL A   1      47.798  27.937  27.800  1.00  0.00     0.131 A 
ATOM     66  C   UNL A   1      48.195  27.784  25.068  1.00  0.00     0.055 A 
ATOM     67  C   UNL A   1      48.986  27.393  27.303  1.00  0.00     0.041 A 
ATOM     68  F   UNL A   1      47.624  27.930  29.131  1.00  0.00    -0.206 F 
ATOM     69  C   UNL A   1      49.181  27.299  25.928  1.00  0.00     0.022 A 
BRANCH  66  70
ATOM     70  S   UNL A   1      48.311  27.469  23.285  1.00  0.00     0.124 S 
ATOM     71  O   UNL A   1      47.128  28.165  22.785  1.00  0.00    -0.237 OA
ATOM     72  O   UNL A   1      49.596  28.067  22.942  1.00  0.00    -0.237 OA
ATOM     73  O   UNL A   1      48.253  26.012  23.189  1.00  0.00    -0.744 OA
ENDBRANCH  66  70
ENDBRANCH  49  63
BRANCH  50  74
ATOM     74  C   UNL A   1      38.071  31.432  30.855  1.00  0.00     0.023 A 
ATOM     75  C   UNL A   1      37.048  32.040  30.112  1.00  0.00     0.031 A 
ATOM     76  C   UNL A   1      37.874  31.265  32.237  1.00  0.00     0.131 A 
ATOM     77  C   UNL A   1      35.889  32.494  30.762  1.00  0.00     0.055 A 
ATOM     78  C   UNL A   1      36.699  31.673  32.871  1.00  0.00     0.041 A 
ATOM     79  F   UNL A   1      38.822  30.689  32.994  1.00  0.00    -0.206 F 
ATOM     80  C   UNL A   1      35.702  32.302  32.132  1.00  0.00     0.022 A 
BRANCH  77  81
ATOM     81  S   UNL A   1      34.651  33.405  29.799  1.00  0.00     0.124 S 
ATOM     82  O   UNL A   1      35.489  34.309  29.018  1.00  0.00    -0.237 OA
ATOM     83  O   UNL A   1      33.996  32.333  29.056  1.00  0.00    -0.237 OA
ATOM     84  O   UNL A   1      33.827  34.045  30.821  1.00  0.00    -0.744 OA
ENDBRANCH  77  81
ENDBRANCH  50  74
BRANCH  62  85
ATOM     85  C   UNL A   1      44.301  34.491  30.114  1.00  0.00     0.023 A 
ATOM     86  C   UNL A   1      44.133  35.593  29.258  1.00  0.00     0.031 A 
ATOM     87  C   UNL A   1      44.968  34.699  31.336  1.00  0.00     0.131 A 
ATOM     88  C   UNL A   1      44.674  36.840  29.609  1.00  0.00     0.055 A 
ATOM     89  C   UNL A   1      45.449  35.955  31.707  1.00  0.00     0.041 A 
ATOM     90  F   UNL A   1      45.158  33.682  32.192  1.00  0.00    -0.206 F 
ATOM     91  C   UNL A   1      45.315  37.032  30.835  1.00  0.00     0.022 A 
BRANCH  88  92
ATOM     92  S   UNL A   1      44.611  38.190  28.398  1.00  0.00     0.124 S 
ATOM     93  O   UNL A   1      44.791  37.476  27.139  1.00  0.00    -0.237 OA
ATOM     94  O   UNL A   1      43.285  38.753  28.628  1.00  0.00    -0.237 OA
ATOM     95  O   UNL A   1      45.726  39.053  28.787  1.00  0.00    -0.744 OA
ENDBRANCH  88  92
ENDBRANCH  62  85
ENDBRANCH  36  37
ENDBRANCH  29  31
ENDBRANCH  28  29
ENDBRANCH  27  28
ENDBRANCH  26  27
ENDBRANCH   1  26
TORSDOF 20
ENDMDL
