MODEL 1
REMARK VINA RESULT:     -10.7      0.000      0.000
REMARK SMILES CC[C@H](C)[NH+]1CCN(C(=O)CC(=O)OCCOCCOC(=O)c2ccc(-c3c4nc(c(-c5cc(S(=O)(=O)[O-])ccc5F)c5ccc([nH]5)c(-c5cc(S(=O)(=O)[O-])ccc5F)c5nc(c(-c6cc(S(=O)(=O)[O-])ccc6F)c6ccc3[nH]6)C=C5)C=C4)cc2)CC1
REMARK SMILES IDX 17 1 16 2 15 3 14 4 12 5 13 6 11 7 9 8 5 9 6 10 87 11 7 13
REMARK SMILES IDX 86 14 8 15 10 16 3 17 4 18 2 19 1 20 18 21 19 22 20 23 21 24
REMARK SMILES IDX 22 25 23 26 24 27 85 28 25 29 84 30 26 31 27 32 28 33 78 34
REMARK SMILES IDX 29 35 83 36 77 37 79 38 30 39 82 40 76 41 75 42 31 44 63 45
REMARK SMILES IDX 43 46 62 47 44 48 47 49 61 50 80 51 45 52 46 53 60 55 81 56
REMARK SMILES IDX 48 57 32 58 33 59 41 60 34 61 40 62 42 63 39 64 35 65 36 66
REMARK SMILES IDX 37 67 38 68 64 69 65 70 73 71 66 72 72 73 74 74 71 75 67 76
REMARK SMILES IDX 68 77 69 78 70 79 49 80 50 81 58 82 51 83 57 84 59 85 56 86
REMARK SMILES IDX 52 87 53 88 54 89 55 90
REMARK H PARENT 5 12 79 43 47 54
REMARK Flexibility Score: inf
ROOT
ATOM      1  O   UNL A   1      35.649  21.157  24.654  1.00  0.00    -0.374 OA
ENDROOT
BRANCH   1   2
ATOM      2  C   UNL A   1      34.578  21.540  25.517  1.00  0.00     0.202 C 
BRANCH   2   3
ATOM      3  C   UNL A   1      33.174  21.657  24.908  1.00  0.00     0.261 C 
BRANCH   3   4
ATOM      4  O   UNL A   1      32.354  22.666  25.536  1.00  0.00    -0.463 OA
BRANCH   4   5
ATOM      5  C   UNL A   1      32.299  23.857  24.889  1.00  0.00     0.315 C 
ATOM      6  O   UNL A   1      33.180  24.283  24.144  1.00  0.00    -0.252 OA
BRANCH   5   7
ATOM      7  C   UNL A   1      31.015  24.615  25.043  1.00  0.00     0.222 C 
BRANCH   7   8
ATOM      8  C   UNL A   1      31.046  25.995  25.647  1.00  0.00     0.234 C 
ATOM      9  N   UNL A   1      30.435  29.618  23.359  1.00  0.00    -0.330 N 
ATOM     10  C   UNL A   1      31.353  29.628  24.501  1.00  0.00     0.284 C 
ATOM     11  C   UNL A   1      30.630  28.384  22.603  1.00  0.00     0.284 C 
ATOM     12  H   UNL A   1      30.686  30.363  22.709  1.00  0.00     0.348 HD
ATOM     13  C   UNL A   1      31.223  28.416  25.442  1.00  0.00     0.181 C 
ATOM     14  C   UNL A   1      30.605  27.063  23.396  1.00  0.00     0.181 C 
ATOM     15  N   UNL A   1      31.044  27.107  24.795  1.00  0.00    -0.331 N 
ATOM     16  O   UNL A   1      31.171  26.123  26.868  1.00  0.00    -0.274 OA
BRANCH   9  17
ATOM     17  C   UNL A   1      29.086  30.200  23.549  1.00  0.00     0.180 C 
ATOM     18  C   UNL A   1      29.080  31.731  23.684  1.00  0.00     0.075 C 
BRANCH  17  19
ATOM     19  C   UNL A   1      27.978  29.692  22.589  1.00  0.00     0.061 C 
ATOM     20  C   UNL A   1      27.001  28.683  23.182  1.00  0.00     0.010 C 
ENDBRANCH  17  19
ENDBRANCH   9  17
ENDBRANCH   7   8
ENDBRANCH   5   7
ENDBRANCH   4   5
ENDBRANCH   3   4
ENDBRANCH   2   3
ENDBRANCH   1   2
BRANCH   1  21
ATOM     21  C   UNL A   1      36.346  19.961  24.960  1.00  0.00     0.202 C 
BRANCH  21  22
ATOM     22  C   UNL A   1      37.876  19.996  25.027  1.00  0.00     0.261 C 
BRANCH  22  23
ATOM     23  O   UNL A   1      38.456  21.210  25.500  1.00  0.00    -0.460 OA
BRANCH  23  24
ATOM     24  C   UNL A   1      39.609  21.038  26.188  1.00  0.00     0.338 C 
ATOM     25  O   UNL A   1      40.307  20.033  26.227  1.00  0.00    -0.246 OA
BRANCH  24  26
ATOM     26  C   UNL A   1      40.005  22.309  26.804  1.00  0.00     0.060 A 
ATOM     27  C   UNL A   1      39.453  23.481  26.277  1.00  0.00     0.016 A 
ATOM     28  C   UNL A   1      40.949  22.355  27.834  1.00  0.00     0.016 A 
ATOM     29  C   UNL A   1      39.874  24.714  26.758  1.00  0.00     0.010 A 
ATOM     30  C   UNL A   1      41.373  23.596  28.313  1.00  0.00     0.010 A 
ATOM     31  C   UNL A   1      40.858  24.779  27.755  1.00  0.00    -0.014 A 
BRANCH  31  32
ATOM     32  C   UNL A   1      41.418  26.103  28.112  1.00  0.00     0.031 A 
ATOM     33  C   UNL A   1      42.804  26.454  27.653  1.00  0.00     0.074 A 
ATOM     34  C   UNL A   1      40.657  26.992  28.774  1.00  0.00     0.049 A 
ATOM     35  N   UNL A   1      43.456  27.581  27.771  1.00  0.00    -0.248 NA
ATOM     36  C   UNL A   1      43.556  25.391  26.970  1.00  0.00     0.031 C 
ATOM     37  C   UNL A   1      39.294  26.744  29.245  1.00  0.00     0.029 A 
ATOM     38  N   UNL A   1      40.914  28.284  29.152  1.00  0.00    -0.354 N 
ATOM     39  C   UNL A   1      44.691  27.367  27.165  1.00  0.00     0.074 A 
ATOM     40  C   UNL A   1      44.713  25.988  26.729  1.00  0.00     0.031 C 
ATOM     41  C   UNL A   1      38.830  27.856  29.840  1.00  0.00     0.029 A 
ATOM     42  C   UNL A   1      39.869  28.882  29.815  1.00  0.00     0.049 A 
ATOM     43  H   UNL A   1      41.767  28.740  28.966  1.00  0.00     0.167 HD
ATOM     44  C   UNL A   1      45.703  28.251  26.980  1.00  0.00     0.034 A 
ATOM     45  C   UNL A   1      39.768  30.118  30.341  1.00  0.00     0.034 A 
ATOM     46  C   UNL A   1      45.662  29.614  27.449  1.00  0.00     0.049 A 
ATOM     47  C   UNL A   1      40.932  31.064  30.175  1.00  0.00     0.074 A 
ATOM     48  C   UNL A   1      46.617  30.606  27.316  1.00  0.00     0.029 A 
ATOM     49  N   UNL A   1      44.606  30.175  28.161  1.00  0.00    -0.354 N 
ATOM     50  N   UNL A   1      42.081  30.863  29.570  1.00  0.00    -0.248 NA
ATOM     51  C   UNL A   1      40.779  32.405  30.750  1.00  0.00     0.031 C 
ATOM     52  C   UNL A   1      46.170  31.740  28.005  1.00  0.00     0.029 A 
ATOM     53  C   UNL A   1      44.902  31.485  28.505  1.00  0.00     0.049 A 
ATOM     54  H   UNL A   1      43.769  29.709  28.388  1.00  0.00     0.167 HD
ATOM     55  C   UNL A   1      42.781  32.060  29.674  1.00  0.00     0.074 A 
ATOM     56  C   UNL A   1      41.911  32.984  30.378  1.00  0.00     0.031 C 
ATOM     57  C   UNL A   1      44.026  32.376  29.232  1.00  0.00     0.034 A 
BRANCH  44  58
ATOM     58  C   UNL A   1      46.947  27.741  26.291  1.00  0.00     0.023 A 
ATOM     59  C   UNL A   1      47.197  27.994  24.929  1.00  0.00     0.031 A 
ATOM     60  C   UNL A   1      47.873  26.947  26.991  1.00  0.00     0.131 A 
ATOM     61  C   UNL A   1      48.301  27.400  24.295  1.00  0.00     0.055 A 
ATOM     62  C   UNL A   1      49.011  26.422  26.374  1.00  0.00     0.041 A 
ATOM     63  F   UNL A   1      47.677  26.649  28.285  1.00  0.00    -0.206 F 
ATOM     64  C   UNL A   1      49.222  26.635  25.015  1.00  0.00     0.022 A 
BRANCH  61  65
ATOM     65  S   UNL A   1      48.436  27.520  22.490  1.00  0.00     0.124 S 
ATOM     66  O   UNL A   1      47.216  28.247  22.150  1.00  0.00    -0.237 OA
ATOM     67  O   UNL A   1      49.686  28.250  22.314  1.00  0.00    -0.237 OA
ATOM     68  O   UNL A   1      48.463  26.125  22.055  1.00  0.00    -0.744 OA
ENDBRANCH  61  65
ENDBRANCH  44  58
BRANCH  45  69
ATOM     69  C   UNL A   1      38.543  30.525  31.088  1.00  0.00     0.023 A 
ATOM     70  C   UNL A   1      37.504  31.231  30.461  1.00  0.00     0.031 A 
ATOM     71  C   UNL A   1      38.411  30.237  32.459  1.00  0.00     0.131 A 
ATOM     72  C   UNL A   1      36.398  31.661  31.213  1.00  0.00     0.055 A 
ATOM     73  C   UNL A   1      37.287  30.624  33.190  1.00  0.00     0.041 A 
ATOM     74  F   UNL A   1      39.375  29.563  33.106  1.00  0.00    -0.206 F 
ATOM     75  C   UNL A   1      36.278  31.351  32.570  1.00  0.00     0.022 A 
BRANCH  72  76
ATOM     76  S   UNL A   1      35.148  32.700  30.406  1.00  0.00     0.124 S 
ATOM     77  O   UNL A   1      34.158  32.854  31.466  1.00  0.00    -0.237 OA
ATOM     78  O   UNL A   1      35.919  33.892  30.069  1.00  0.00    -0.237 OA
ATOM     79  O   UNL A   1      34.721  31.893  29.265  1.00  0.00    -0.744 OA
ENDBRANCH  72  76
ENDBRANCH  45  69
BRANCH  57  80
ATOM     80  C   UNL A   1      44.497  33.786  29.488  1.00  0.00     0.023 A 
ATOM     81  C   UNL A   1      44.235  34.826  28.580  1.00  0.00     0.031 A 
ATOM     82  C   UNL A   1      45.242  34.087  30.642  1.00  0.00     0.131 A 
ATOM     83  C   UNL A   1      44.769  36.102  28.806  1.00  0.00     0.055 A 
ATOM     84  C   UNL A   1      45.715  35.374  30.895  1.00  0.00     0.041 A 
ATOM     85  F   UNL A   1      45.524  33.131  31.543  1.00  0.00    -0.206 F 
ATOM     86  C   UNL A   1      45.494  36.388  29.966  1.00  0.00     0.022 A 
BRANCH  83  87
ATOM     87  S   UNL A   1      44.595  37.359  27.510  1.00  0.00     0.124 S 
ATOM     88  O   UNL A   1      44.206  38.537  28.279  1.00  0.00    -0.237 OA
ATOM     89  O   UNL A   1      45.933  37.392  26.927  1.00  0.00    -0.237 OA
ATOM     90  O   UNL A   1      43.554  36.814  26.641  1.00  0.00    -0.744 OA
ENDBRANCH  83  87
ENDBRANCH  57  80
ENDBRANCH  31  32
ENDBRANCH  24  26
ENDBRANCH  23  24
ENDBRANCH  22  23
ENDBRANCH  21  22
ENDBRANCH   1  21
TORSDOF 20
ENDMDL
MODEL 2
REMARK VINA RESULT:     -10.3      4.614      7.730
REMARK SMILES CC[C@H](C)[NH+]1CCN(C(=O)CC(=O)OCCOCCOC(=O)c2ccc(-c3c4nc(c(-c5cc(S(=O)(=O)[O-])ccc5F)c5ccc([nH]5)c(-c5cc(S(=O)(=O)[O-])ccc5F)c5nc(c(-c6cc(S(=O)(=O)[O-])ccc6F)c6ccc3[nH]6)C=C5)C=C4)cc2)CC1
REMARK SMILES IDX 17 1 16 2 15 3 14 4 12 5 13 6 11 7 9 8 5 9 6 10 87 11 7 13
REMARK SMILES IDX 86 14 8 15 10 16 3 17 4 18 2 19 1 20 18 21 19 22 20 23 21 24
REMARK SMILES IDX 22 25 23 26 24 27 85 28 25 29 84 30 26 31 27 32 28 33 78 34
REMARK SMILES IDX 29 35 83 36 77 37 79 38 30 39 82 40 76 41 75 42 31 44 63 45
REMARK SMILES IDX 43 46 62 47 44 48 47 49 61 50 80 51 45 52 46 53 60 55 81 56
REMARK SMILES IDX 48 57 32 58 33 59 41 60 34 61 40 62 42 63 39 64 35 65 36 66
REMARK SMILES IDX 37 67 38 68 64 69 65 70 73 71 66 72 72 73 74 74 71 75 67 76
REMARK SMILES IDX 68 77 69 78 70 79 49 80 50 81 58 82 51 83 57 84 59 85 56 86
REMARK SMILES IDX 52 87 53 88 54 89 55 90
REMARK H PARENT 5 12 79 43 47 54
REMARK Flexibility Score: inf
ROOT
ATOM      1  O   UNL A   1      41.014  19.675  27.692  1.00  0.00    -0.374 OA
ENDROOT
BRANCH   1   2
ATOM      2  C   UNL A   1      42.368  19.226  27.665  1.00  0.00     0.202 C 
BRANCH   2   3
ATOM      3  C   UNL A   1      42.709  18.032  26.762  1.00  0.00     0.261 C 
BRANCH   3   4
ATOM      4  O   UNL A   1      43.017  18.406  25.402  1.00  0.00    -0.463 OA
BRANCH   4   5
ATOM      5  C   UNL A   1      44.321  18.694  25.159  1.00  0.00     0.315 C 
ATOM      6  O   UNL A   1      45.263  17.976  25.492  1.00  0.00    -0.252 OA
BRANCH   5   7
ATOM      7  C   UNL A   1      44.568  19.922  24.337  1.00  0.00     0.222 C 
BRANCH   7   8
ATOM      8  C   UNL A   1      45.662  20.872  24.748  1.00  0.00     0.234 C 
ATOM      9  N   UNL A   1      45.016  24.285  27.331  1.00  0.00    -0.330 N 
ATOM     10  C   UNL A   1      46.019  24.361  26.265  1.00  0.00     0.284 C 
ATOM     11  C   UNL A   1      43.827  23.609  26.818  1.00  0.00     0.284 C 
ATOM     12  H   UNL A   1      44.698  25.223  27.573  1.00  0.00     0.348 HD
ATOM     13  C   UNL A   1      46.414  23.005  25.654  1.00  0.00     0.181 C 
ATOM     14  C   UNL A   1      44.038  22.261  26.104  1.00  0.00     0.181 C 
ATOM     15  N   UNL A   1      45.316  22.055  25.413  1.00  0.00    -0.331 N 
ATOM     16  O   UNL A   1      46.826  20.644  24.410  1.00  0.00    -0.274 OA
BRANCH   9  17
ATOM     17  C   UNL A   1      45.492  24.059  28.715  1.00  0.00     0.180 C 
ATOM     18  C   UNL A   1      46.449  25.146  29.233  1.00  0.00     0.075 C 
BRANCH  17  19
ATOM     19  C   UNL A   1      44.410  23.686  29.762  1.00  0.00     0.061 C 
ATOM     20  C   UNL A   1      44.242  24.664  30.918  1.00  0.00     0.010 C 
ENDBRANCH  17  19
ENDBRANCH   9  17
ENDBRANCH   7   8
ENDBRANCH   5   7
ENDBRANCH   4   5
ENDBRANCH   3   4
ENDBRANCH   2   3
ENDBRANCH   1   2
BRANCH   1  21
ATOM     21  C   UNL A   1      40.738  20.968  27.180  1.00  0.00     0.202 C 
BRANCH  21  22
ATOM     22  C   UNL A   1      39.547  21.146  26.232  1.00  0.00     0.261 C 
BRANCH  22  23
ATOM     23  O   UNL A   1      39.461  22.403  25.563  1.00  0.00    -0.460 OA
BRANCH  23  24
ATOM     24  C   UNL A   1      38.552  23.251  26.100  1.00  0.00     0.338 C 
ATOM     25  O   UNL A   1      37.341  23.088  26.180  1.00  0.00    -0.246 OA
BRANCH  24  26
ATOM     26  C   UNL A   1      39.247  24.383  26.720  1.00  0.00     0.060 A 
ATOM     27  C   UNL A   1      39.102  24.552  28.100  1.00  0.00     0.016 A 
ATOM     28  C   UNL A   1      39.972  25.300  25.952  1.00  0.00     0.016 A 
ATOM     29  C   UNL A   1      39.656  25.667  28.717  1.00  0.00     0.010 A 
ATOM     30  C   UNL A   1      40.525  26.421  26.575  1.00  0.00     0.010 A 
ATOM     31  C   UNL A   1      40.342  26.622  27.954  1.00  0.00    -0.014 A 
BRANCH  31  32
ATOM     32  C   UNL A   1      40.756  27.885  28.606  1.00  0.00     0.031 A 
ATOM     33  C   UNL A   1      42.221  28.183  28.751  1.00  0.00     0.074 A 
ATOM     34  C   UNL A   1      39.823  28.774  28.991  1.00  0.00     0.049 A 
ATOM     35  N   UNL A   1      42.808  29.260  29.203  1.00  0.00    -0.248 NA
ATOM     36  C   UNL A   1      43.149  27.123  28.329  1.00  0.00     0.031 C 
ATOM     37  C   UNL A   1      38.378  28.577  28.875  1.00  0.00     0.029 A 
ATOM     38  N   UNL A   1      39.950  30.023  29.543  1.00  0.00    -0.354 N 
ATOM     39  C   UNL A   1      44.174  29.014  29.108  1.00  0.00     0.074 A 
ATOM     40  C   UNL A   1      44.325  27.666  28.605  1.00  0.00     0.031 C 
ATOM     41  C   UNL A   1      37.751  29.674  29.332  1.00  0.00     0.029 A 
ATOM     42  C   UNL A   1      38.746  30.638  29.794  1.00  0.00     0.049 A 
ATOM     43  H   UNL A   1      40.820  30.439  29.740  1.00  0.00     0.167 HD
ATOM     44  C   UNL A   1      45.204  29.846  29.402  1.00  0.00     0.034 A 
ATOM     45  C   UNL A   1      38.484  31.842  30.339  1.00  0.00     0.034 A 
ATOM     46  C   UNL A   1      45.022  31.177  29.928  1.00  0.00     0.049 A 
ATOM     47  C   UNL A   1      39.647  32.726  30.715  1.00  0.00     0.074 A 
ATOM     48  C   UNL A   1      45.982  32.118  30.257  1.00  0.00     0.029 A 
ATOM     49  N   UNL A   1      43.789  31.752  30.218  1.00  0.00    -0.354 N 
ATOM     50  N   UNL A   1      40.935  32.497  30.588  1.00  0.00    -0.248 NA
ATOM     51  C   UNL A   1      39.321  34.034  31.292  1.00  0.00     0.031 C 
ATOM     52  C   UNL A   1      45.334  33.230  30.808  1.00  0.00     0.029 A 
ATOM     53  C   UNL A   1      43.965  33.019  30.755  1.00  0.00     0.049 A 
ATOM     54  H   UNL A   1      42.916  31.323  30.064  1.00  0.00     0.167 HD
ATOM     55  C   UNL A   1      41.573  33.642  31.052  1.00  0.00     0.074 A 
ATOM     56  C   UNL A   1      40.525  34.569  31.437  1.00  0.00     0.031 C 
ATOM     57  C   UNL A   1      42.901  33.912  31.155  1.00  0.00     0.034 A 
BRANCH  44  58
ATOM     58  C   UNL A   1      46.603  29.309  29.211  1.00  0.00     0.023 A 
ATOM     59  C   UNL A   1      47.206  29.247  27.941  1.00  0.00     0.031 A 
ATOM     60  C   UNL A   1      47.326  28.803  30.306  1.00  0.00     0.131 A 
ATOM     61  C   UNL A   1      48.458  28.629  27.787  1.00  0.00     0.055 A 
ATOM     62  C   UNL A   1      48.604  28.259  30.158  1.00  0.00     0.041 A 
ATOM     63  F   UNL A   1      46.795  28.811  31.538  1.00  0.00    -0.206 F 
ATOM     64  C   UNL A   1      49.170  28.155  28.890  1.00  0.00     0.022 A 
BRANCH  61  65
ATOM     65  S   UNL A   1      49.075  28.320  26.109  1.00  0.00     0.124 S 
ATOM     66  O   UNL A   1      50.086  29.364  25.968  1.00  0.00    -0.237 OA
ATOM     67  O   UNL A   1      49.575  26.954  26.202  1.00  0.00    -0.237 OA
ATOM     68  O   UNL A   1      47.889  28.495  25.271  1.00  0.00    -0.744 OA
ENDBRANCH  61  65
ENDBRANCH  44  58
BRANCH  45  69
ATOM     69  C   UNL A   1      37.077  32.271  30.582  1.00  0.00     0.023 A 
ATOM     70  C   UNL A   1      36.297  32.838  29.562  1.00  0.00     0.031 A 
ATOM     71  C   UNL A   1      36.502  32.149  31.861  1.00  0.00     0.131 A 
ATOM     72  C   UNL A   1      35.001  33.298  29.846  1.00  0.00     0.055 A 
ATOM     73  C   UNL A   1      35.195  32.563  32.125  1.00  0.00     0.041 A 
ATOM     74  F   UNL A   1      37.203  31.613  32.872  1.00  0.00    -0.206 F 
ATOM     75  C   UNL A   1      34.441  33.152  31.117  1.00  0.00     0.022 A 
BRANCH  72  76
ATOM     76  S   UNL A   1      34.078  34.160  28.543  1.00  0.00     0.124 S 
ATOM     77  O   UNL A   1      34.005  33.140  27.503  1.00  0.00    -0.237 OA
ATOM     78  O   UNL A   1      32.826  34.478  29.220  1.00  0.00    -0.237 OA
ATOM     79  O   UNL A   1      34.925  35.309  28.231  1.00  0.00    -0.744 OA
ENDBRANCH  72  76
ENDBRANCH  45  69
BRANCH  57  80
ATOM     80  C   UNL A   1      43.275  35.272  31.687  1.00  0.00     0.023 A 
ATOM     81  C   UNL A   1      43.326  35.533  33.068  1.00  0.00     0.031 A 
ATOM     82  C   UNL A   1      43.557  36.328  30.803  1.00  0.00     0.131 A 
ATOM     83  C   UNL A   1      43.587  36.833  33.524  1.00  0.00     0.055 A 
ATOM     84  C   UNL A   1      43.880  37.605  31.264  1.00  0.00     0.041 A 
ATOM     85  F   UNL A   1      43.521  36.136  29.474  1.00  0.00    -0.206 F 
ATOM     86  C   UNL A   1      43.880  37.868  32.631  1.00  0.00     0.022 A 
BRANCH  83  87
ATOM     87  S   UNL A   1      43.430  37.179  35.297  1.00  0.00     0.124 S 
ATOM     88  O   UNL A   1      41.987  37.090  35.497  1.00  0.00    -0.237 OA
ATOM     89  O   UNL A   1      44.223  36.109  35.895  1.00  0.00    -0.237 OA
ATOM     90  O   UNL A   1      43.993  38.520  35.437  1.00  0.00    -0.744 OA
ENDBRANCH  83  87
ENDBRANCH  57  80
ENDBRANCH  31  32
ENDBRANCH  24  26
ENDBRANCH  23  24
ENDBRANCH  22  23
ENDBRANCH  21  22
ENDBRANCH   1  21
TORSDOF 20
ENDMDL
MODEL 3
REMARK VINA RESULT:     -10.2      5.523      9.835
REMARK SMILES CC[C@H](C)[NH+]1CCN(C(=O)CC(=O)OCCOCCOC(=O)c2ccc(-c3c4nc(c(-c5cc(S(=O)(=O)[O-])ccc5F)c5ccc([nH]5)c(-c5cc(S(=O)(=O)[O-])ccc5F)c5nc(c(-c6cc(S(=O)(=O)[O-])ccc6F)c6ccc3[nH]6)C=C5)C=C4)cc2)CC1
REMARK SMILES IDX 17 1 16 2 15 3 14 4 12 5 13 6 11 7 9 8 5 9 6 10 87 11 7 13
REMARK SMILES IDX 86 14 8 15 10 16 3 17 4 18 2 19 1 20 18 21 19 22 20 23 21 24
REMARK SMILES IDX 22 25 23 26 24 27 85 28 25 29 84 30 26 31 27 32 28 33 78 34
REMARK SMILES IDX 29 35 83 36 77 37 79 38 30 39 82 40 76 41 75 42 31 44 63 45
REMARK SMILES IDX 43 46 62 47 44 48 47 49 61 50 80 51 45 52 46 53 60 55 81 56
REMARK SMILES IDX 48 57 32 58 33 59 41 60 34 61 40 62 42 63 39 64 35 65 36 66
REMARK SMILES IDX 37 67 38 68 64 69 65 70 73 71 66 72 72 73 74 74 71 75 67 76
REMARK SMILES IDX 68 77 69 78 70 79 49 80 50 81 58 82 51 83 57 84 59 85 56 86
REMARK SMILES IDX 52 87 53 88 54 89 55 90
REMARK H PARENT 5 12 79 43 47 54
REMARK Flexibility Score: inf
ROOT
ATOM      1  O   UNL A   1      43.461  19.933  24.748  1.00  0.00    -0.374 OA
ENDROOT
BRANCH   1   2
ATOM      2  C   UNL A   1      43.274  19.174  25.943  1.00  0.00     0.202 C 
BRANCH   2   3
ATOM      3  C   UNL A   1      41.958  19.360  26.711  1.00  0.00     0.261 C 
BRANCH   3   4
ATOM      4  O   UNL A   1      41.003  20.199  26.025  1.00  0.00    -0.463 OA
BRANCH   4   5
ATOM      5  C   UNL A   1      40.472  21.203  26.767  1.00  0.00     0.315 C 
ATOM      6  O   UNL A   1      40.471  21.231  27.996  1.00  0.00    -0.252 OA
BRANCH   5   7
ATOM      7  C   UNL A   1      39.961  22.378  25.989  1.00  0.00     0.222 C 
BRANCH   7   8
ATOM      8  C   UNL A   1      38.707  23.073  26.451  1.00  0.00     0.234 C 
ATOM      9  N   UNL A   1      34.783  22.251  24.819  1.00  0.00    -0.330 N 
ATOM     10  C   UNL A   1      35.115  23.608  25.262  1.00  0.00     0.284 C 
ATOM     11  C   UNL A   1      35.926  21.692  24.104  1.00  0.00     0.284 C 
ATOM     12  H   UNL A   1      34.036  22.288  24.126  1.00  0.00     0.348 HD
ATOM     13  C   UNL A   1      36.376  23.709  26.138  1.00  0.00     0.181 C 
ATOM     14  C   UNL A   1      37.298  21.770  24.801  1.00  0.00     0.181 C 
ATOM     15  N   UNL A   1      37.524  22.889  25.723  1.00  0.00    -0.331 N 
ATOM     16  O   UNL A   1      38.761  23.865  27.395  1.00  0.00    -0.274 OA
BRANCH   9  17
ATOM     17  C   UNL A   1      33.950  21.415  25.713  1.00  0.00     0.180 C 
ATOM     18  C   UNL A   1      33.461  22.145  26.976  1.00  0.00     0.075 C 
BRANCH  17  19
ATOM     19  C   UNL A   1      32.819  20.599  25.034  1.00  0.00     0.061 C 
ATOM     20  C   UNL A   1      32.784  19.112  25.369  1.00  0.00     0.010 C 
ENDBRANCH  17  19
ENDBRANCH   9  17
ENDBRANCH   7   8
ENDBRANCH   5   7
ENDBRANCH   4   5
ENDBRANCH   3   4
ENDBRANCH   2   3
ENDBRANCH   1   2
BRANCH   1  21
ATOM     21  C   UNL A   1      44.371  21.019  24.794  1.00  0.00     0.202 C 
BRANCH  21  22
ATOM     22  C   UNL A   1      44.114  22.156  25.789  1.00  0.00     0.261 C 
BRANCH  22  23
ATOM     23  O   UNL A   1      43.239  23.191  25.347  1.00  0.00    -0.460 OA
BRANCH  23  24
ATOM     24  C   UNL A   1      43.793  24.426  25.366  1.00  0.00     0.338 C 
ATOM     25  O   UNL A   1      44.666  24.859  24.625  1.00  0.00    -0.246 OA
BRANCH  24  26
ATOM     26  C   UNL A   1      43.092  25.261  26.346  1.00  0.00     0.060 A 
ATOM     27  C   UNL A   1      43.442  26.613  26.410  1.00  0.00     0.016 A 
ATOM     28  C   UNL A   1      42.158  24.714  27.232  1.00  0.00     0.016 A 
ATOM     29  C   UNL A   1      42.881  27.421  27.391  1.00  0.00     0.010 A 
ATOM     30  C   UNL A   1      41.599  25.528  28.218  1.00  0.00     0.010 A 
ATOM     31  C   UNL A   1      41.982  26.877  28.319  1.00  0.00    -0.014 A 
BRANCH  31  32
ATOM     32  C   UNL A   1      41.548  27.715  29.460  1.00  0.00     0.031 A 
ATOM     33  C   UNL A   1      40.271  28.497  29.344  1.00  0.00     0.074 A 
ATOM     34  C   UNL A   1      42.259  27.706  30.601  1.00  0.00     0.049 A 
ATOM     35  N   UNL A   1      39.656  29.219  30.244  1.00  0.00    -0.248 NA
ATOM     36  C   UNL A   1      39.597  28.460  28.037  1.00  0.00     0.031 C 
ATOM     37  C   UNL A   1      43.502  26.964  30.810  1.00  0.00     0.029 A 
ATOM     38  N   UNL A   1      42.031  28.328  31.802  1.00  0.00    -0.354 N 
ATOM     39  C   UNL A   1      38.516  29.712  29.617  1.00  0.00     0.074 A 
ATOM     40  C   UNL A   1      38.555  29.249  28.247  1.00  0.00     0.031 C 
ATOM     41  C   UNL A   1      43.922  27.165  32.070  1.00  0.00     0.029 A 
ATOM     42  C   UNL A   1      42.994  28.067  32.748  1.00  0.00     0.049 A 
ATOM     43  H   UNL A   1      41.252  28.906  31.970  1.00  0.00     0.167 HD
ATOM     44  C   UNL A   1      37.524  30.470  30.146  1.00  0.00     0.034 A 
ATOM     45  C   UNL A   1      43.110  28.511  34.014  1.00  0.00     0.034 A 
ATOM     46  C   UNL A   1      37.526  30.939  31.510  1.00  0.00     0.049 A 
ATOM     47  C   UNL A   1      42.024  29.403  34.562  1.00  0.00     0.074 A 
ATOM     48  C   UNL A   1      36.577  31.705  32.165  1.00  0.00     0.029 A 
ATOM     49  N   UNL A   1      38.542  30.698  32.429  1.00  0.00    -0.354 N 
ATOM     50  N   UNL A   1      40.932  29.835  33.971  1.00  0.00    -0.248 NA
ATOM     51  C   UNL A   1      42.179  29.855  35.949  1.00  0.00     0.031 C 
ATOM     52  C   UNL A   1      37.052  31.983  33.453  1.00  0.00     0.029 A 
ATOM     53  C   UNL A   1      38.262  31.329  33.632  1.00  0.00     0.049 A 
ATOM     54  H   UNL A   1      39.346  30.157  32.252  1.00  0.00     0.167 HD
ATOM     55  C   UNL A   1      40.259  30.594  34.923  1.00  0.00     0.074 A 
ATOM     56  C   UNL A   1      41.058  30.537  36.133  1.00  0.00     0.031 C 
ATOM     57  C   UNL A   1      39.089  31.277  34.815  1.00  0.00     0.034 A 
BRANCH  44  58
ATOM     58  C   UNL A   1      36.397  30.875  29.224  1.00  0.00     0.023 A 
ATOM     59  C   UNL A   1      35.514  29.927  28.673  1.00  0.00     0.031 A 
ATOM     60  C   UNL A   1      36.233  32.220  28.850  1.00  0.00     0.131 A 
ATOM     61  C   UNL A   1      34.557  30.327  27.725  1.00  0.00     0.055 A 
ATOM     62  C   UNL A   1      35.229  32.623  27.965  1.00  0.00     0.041 A 
ATOM     63  F   UNL A   1      37.059  33.166  29.322  1.00  0.00    -0.206 F 
ATOM     64  C   UNL A   1      34.395  31.672  27.386  1.00  0.00     0.022 A 
BRANCH  61  65
ATOM     65  S   UNL A   1      33.629  29.048  26.835  1.00  0.00     0.124 S 
ATOM     66  O   UNL A   1      33.440  29.675  25.529  1.00  0.00    -0.237 OA
ATOM     67  O   UNL A   1      34.540  27.911  26.873  1.00  0.00    -0.237 OA
ATOM     68  O   UNL A   1      32.409  28.897  27.626  1.00  0.00    -0.744 OA
ENDBRANCH  61  65
ENDBRANCH  44  58
BRANCH  45  69
ATOM     69  C   UNL A   1      44.297  28.143  34.839  1.00  0.00     0.023 A 
ATOM     70  C   UNL A   1      44.296  27.002  35.656  1.00  0.00     0.031 A 
ATOM     71  C   UNL A   1      45.445  28.958  34.845  1.00  0.00     0.131 A 
ATOM     72  C   UNL A   1      45.405  26.727  36.474  1.00  0.00     0.055 A 
ATOM     73  C   UNL A   1      46.563  28.653  35.623  1.00  0.00     0.041 A 
ATOM     74  F   UNL A   1      45.499  30.060  34.081  1.00  0.00    -0.206 F 
ATOM     75  C   UNL A   1      46.542  27.538  36.453  1.00  0.00     0.022 A 
BRANCH  72  76
ATOM     76  S   UNL A   1      45.309  25.330  37.628  1.00  0.00     0.124 S 
ATOM     77  O   UNL A   1      46.214  24.368  37.008  1.00  0.00    -0.237 OA
ATOM     78  O   UNL A   1      45.769  25.935  38.873  1.00  0.00    -0.237 OA
ATOM     79  O   UNL A   1      43.894  24.963  37.601  1.00  0.00    -0.744 OA
ENDBRANCH  72  76
ENDBRANCH  45  69
BRANCH  57  80
ATOM     80  C   UNL A   1      38.610  31.996  36.052  1.00  0.00     0.023 A 
ATOM     81  C   UNL A   1      37.915  31.322  37.071  1.00  0.00     0.031 A 
ATOM     82  C   UNL A   1      38.828  33.377  36.200  1.00  0.00     0.131 A 
ATOM     83  C   UNL A   1      37.404  32.041  38.161  1.00  0.00     0.055 A 
ATOM     84  C   UNL A   1      38.374  34.075  37.319  1.00  0.00     0.041 A 
ATOM     85  F   UNL A   1      39.485  34.071  35.256  1.00  0.00    -0.206 F 
ATOM     86  C   UNL A   1      37.643  33.410  38.300  1.00  0.00     0.022 A 
BRANCH  83  87
ATOM     87  S   UNL A   1      36.328  31.180  39.341  1.00  0.00     0.124 S 
ATOM     88  O   UNL A   1      35.104  31.971  39.269  1.00  0.00    -0.237 OA
ATOM     89  O   UNL A   1      36.253  29.837  38.773  1.00  0.00    -0.237 OA
ATOM     90  O   UNL A   1      37.057  31.279  40.604  1.00  0.00    -0.744 OA
ENDBRANCH  83  87
ENDBRANCH  57  80
ENDBRANCH  31  32
ENDBRANCH  24  26
ENDBRANCH  23  24
ENDBRANCH  22  23
ENDBRANCH  21  22
ENDBRANCH   1  21
TORSDOF 20
ENDMDL
