MODEL 1
REMARK VINA RESULT:     -12.1      0.000      0.000
REMARK SMILES CC1=C(CC(=O)OCCOCCOC(=O)c2ccc(-c3c4nc(c(-c5cc(S(=O)(=O)[O-])ccc5F)c5ccc([nH]5)c(-c5cc(S(=O)(=O)[O-])ccc5F)c5nc(c(-c6cc(S(=O)(=O)[O-])ccc6F)c6ccc3[nH]6)C=C5)C=C4)cc2)c2cc(F)ccc2/C1=C\c1cccc(OCc2ccccc2)c1
REMARK SMILES IDX 9 1 8 2 7 3 5 4 6 5 4 6 3 7 1 8 2 9 86 10 79 11 85 12 87 13
REMARK SMILES IDX 80 14 84 15 81 16 83 17 82 18 88 19 89 20 101 21 90 22 92 23
REMARK SMILES IDX 91 24 93 25 94 26 95 27 96 28 100 29 97 30 99 31 98 32 10 33
REMARK SMILES IDX 11 34 12 35 13 36 14 37 15 38 16 39 17 40 78 41 18 42 77 43
REMARK SMILES IDX 19 44 20 45 21 46 71 47 22 48 76 49 70 50 72 51 23 52 75 53
REMARK SMILES IDX 69 54 68 55 24 57 56 58 36 59 55 60 37 61 40 62 54 63 73 64
REMARK SMILES IDX 38 65 39 66 53 68 74 69 41 70 25 71 26 72 34 73 27 74 33 75
REMARK SMILES IDX 35 76 32 77 28 78 29 79 30 80 31 81 57 82 58 83 66 84 59 85
REMARK SMILES IDX 65 86 67 87 64 88 60 89 61 90 62 91 63 92 42 93 43 94 51 95
REMARK SMILES IDX 44 96 50 97 52 98 49 99 45 100 46 101 47 102 48 103
REMARK H PARENT 72 56 40 67
REMARK Flexibility Score: inf
ROOT
ATOM      1  C   UNL A   1      33.420  29.157  25.679  1.00  0.00     0.202 C 
ENDROOT
BRANCH   1   2
ATOM      2  C   UNL A   1      32.186  29.866  25.097  1.00  0.00     0.261 C 
BRANCH   2   3
ATOM      3  O   UNL A   1      31.001  29.047  25.016  1.00  0.00    -0.463 OA
BRANCH   3   4
ATOM      4  C   UNL A   1      30.527  28.828  23.759  1.00  0.00     0.310 C 
ATOM      5  O   UNL A   1      30.270  29.718  22.951  1.00  0.00    -0.252 OA
BRANCH   4   6
ATOM      6  C   UNL A   1      30.336  27.362  23.376  1.00  0.00     0.159 C 
BRANCH   6   7
ATOM      7  C   UNL A   1      31.384  26.356  23.723  1.00  0.00    -0.025 C 
ATOM      8  C   UNL A   1      33.345  27.199  22.319  1.00  0.00     0.045 C 
ATOM      9  C   UNL A   1      32.661  26.281  23.279  1.00  0.00    -0.039 C 
ATOM     10  C   UNL A   1      33.349  25.158  23.935  1.00  0.00    -0.014 C 
ATOM     11  C   UNL A   1      31.222  25.330  24.773  1.00  0.00    -0.011 A 
ATOM     12  C   UNL A   1      32.384  24.542  24.859  1.00  0.00    -0.010 A 
ATOM     13  C   UNL A   1      34.638  24.829  23.742  1.00  0.00     0.017 C 
ATOM     14  C   UNL A   1      30.155  25.087  25.629  1.00  0.00     0.048 A 
ATOM     15  C   UNL A   1      32.446  23.447  25.715  1.00  0.00     0.012 A 
ATOM     16  C   UNL A   1      30.233  23.996  26.495  1.00  0.00     0.123 A 
ATOM     17  C   UNL A   1      31.350  23.163  26.527  1.00  0.00     0.040 A 
ATOM     18  F   UNL A   1      29.184  23.705  27.276  1.00  0.00    -0.207 F 
BRANCH  13  19
ATOM     19  C   UNL A   1      35.349  23.766  24.451  1.00  0.00    -0.021 A 
ATOM     20  C   UNL A   1      36.240  24.074  25.484  1.00  0.00     0.008 A 
ATOM     21  C   UNL A   1      35.150  22.432  24.071  1.00  0.00     0.054 A 
ATOM     22  C   UNL A   1      36.960  23.055  26.105  1.00  0.00     0.004 A 
ATOM     23  C   UNL A   1      35.796  21.407  24.764  1.00  0.00     0.120 A 
ATOM     24  C   UNL A   1      36.741  21.728  25.741  1.00  0.00     0.046 A 
BRANCH  23  25
ATOM     25  O   UNL A   1      35.513  20.072  24.663  1.00  0.00    -0.489 OA
BRANCH  25  26
ATOM     26  C   UNL A   1      34.144  19.655  24.629  1.00  0.00     0.265 C 
BRANCH  26  27
ATOM     27  C   UNL A   1      33.830  18.198  24.952  1.00  0.00    -0.011 A 
ATOM     28  C   UNL A   1      34.779  17.220  24.610  1.00  0.00     0.007 A 
ATOM     29  C   UNL A   1      32.605  17.759  25.477  1.00  0.00     0.007 A 
ATOM     30  C   UNL A   1      34.494  15.858  24.752  1.00  0.00     0.000 A 
ATOM     31  C   UNL A   1      32.305  16.401  25.585  1.00  0.00     0.000 A 
ATOM     32  C   UNL A   1      33.247  15.449  25.217  1.00  0.00     0.000 A 
ENDBRANCH  26  27
ENDBRANCH  25  26
ENDBRANCH  23  25
ENDBRANCH  13  19
ENDBRANCH   6   7
ENDBRANCH   4   6
ENDBRANCH   3   4
ENDBRANCH   2   3
ENDBRANCH   1   2
BRANCH   1  33
ATOM     33  O   UNL A   1      34.035  29.709  26.839  1.00  0.00    -0.374 OA
BRANCH  33  34
ATOM     34  C   UNL A   1      33.333  30.733  27.538  1.00  0.00     0.202 C 
BRANCH  34  35
ATOM     35  C   UNL A   1      33.961  32.129  27.615  1.00  0.00     0.261 C 
BRANCH  35  36
ATOM     36  O   UNL A   1      33.030  33.177  27.882  1.00  0.00    -0.460 OA
BRANCH  36  37
ATOM     37  C   UNL A   1      33.552  34.211  28.583  1.00  0.00     0.338 C 
ATOM     38  O   UNL A   1      33.133  35.357  28.644  1.00  0.00    -0.246 OA
BRANCH  37  39
ATOM     39  C   UNL A   1      34.637  33.702  29.427  1.00  0.00     0.060 A 
ATOM     40  C   UNL A   1      34.376  32.833  30.488  1.00  0.00     0.016 A 
ATOM     41  C   UNL A   1      35.944  34.091  29.112  1.00  0.00     0.016 A 
ATOM     42  C   UNL A   1      35.446  32.324  31.223  1.00  0.00     0.010 A 
ATOM     43  C   UNL A   1      37.007  33.576  29.841  1.00  0.00     0.010 A 
ATOM     44  C   UNL A   1      36.767  32.674  30.887  1.00  0.00    -0.014 A 
BRANCH  44  45
ATOM     45  C   UNL A   1      37.910  31.989  31.529  1.00  0.00     0.031 A 
ATOM     46  C   UNL A   1      38.605  30.847  30.856  1.00  0.00     0.074 A 
ATOM     47  C   UNL A   1      38.265  32.379  32.768  1.00  0.00     0.049 A 
ATOM     48  N   UNL A   1      39.617  30.140  31.283  1.00  0.00    -0.248 NA
ATOM     49  C   UNL A   1      38.093  30.434  29.540  1.00  0.00     0.031 C 
ATOM     50  C   UNL A   1      37.607  33.450  33.519  1.00  0.00     0.029 A 
ATOM     51  N   UNL A   1      39.244  31.929  33.614  1.00  0.00    -0.354 N 
ATOM     52  C   UNL A   1      39.873  29.203  30.291  1.00  0.00     0.074 A 
ATOM     53  C   UNL A   1      38.877  29.400  29.260  1.00  0.00     0.031 C 
ATOM     54  C   UNL A   1      38.216  33.592  34.703  1.00  0.00     0.029 A 
ATOM     55  C   UNL A   1      39.275  32.592  34.819  1.00  0.00     0.049 A 
ATOM     56  H   UNL A   1      39.865  31.201  33.383  1.00  0.00     0.167 HD
ATOM     57  C   UNL A   1      40.862  28.281  30.247  1.00  0.00     0.034 A 
ATOM     58  C   UNL A   1      40.063  32.412  35.900  1.00  0.00     0.034 A 
ATOM     59  C   UNL A   1      41.833  28.106  31.300  1.00  0.00     0.049 A 
ATOM     60  C   UNL A   1      41.143  31.364  35.832  1.00  0.00     0.074 A 
ATOM     61  C   UNL A   1      42.908  27.236  31.331  1.00  0.00     0.029 A 
ATOM     62  N   UNL A   1      41.846  28.797  32.505  1.00  0.00    -0.354 N 
ATOM     63  N   UNL A   1      41.446  30.559  34.840  1.00  0.00    -0.248 NA
ATOM     64  C   UNL A   1      41.999  31.207  37.015  1.00  0.00     0.031 C 
ATOM     65  C   UNL A   1      43.516  27.340  32.581  1.00  0.00     0.029 A 
ATOM     66  C   UNL A   1      42.888  28.345  33.300  1.00  0.00     0.049 A 
ATOM     67  H   UNL A   1      41.209  29.505  32.757  1.00  0.00     0.167 HD
ATOM     68  C   UNL A   1      42.544  29.819  35.268  1.00  0.00     0.074 A 
ATOM     69  C   UNL A   1      42.867  30.293  36.598  1.00  0.00     0.031 C 
ATOM     70  C   UNL A   1      43.216  28.835  34.619  1.00  0.00     0.034 A 
BRANCH  57  71
ATOM     71  C   UNL A   1      40.986  27.396  29.030  1.00  0.00     0.023 A 
ATOM     72  C   UNL A   1      41.977  27.659  28.065  1.00  0.00     0.031 A 
ATOM     73  C   UNL A   1      40.031  26.402  28.746  1.00  0.00     0.131 A 
ATOM     74  C   UNL A   1      41.961  26.973  26.844  1.00  0.00     0.055 A 
ATOM     75  C   UNL A   1      40.050  25.686  27.549  1.00  0.00     0.041 A 
ATOM     76  F   UNL A   1      39.061  26.116  29.629  1.00  0.00    -0.206 F 
ATOM     77  C   UNL A   1      41.008  25.982  26.585  1.00  0.00     0.022 A 
BRANCH  74  78
ATOM     78  S   UNL A   1      43.117  27.399  25.513  1.00  0.00     0.124 S 
ATOM     79  O   UNL A   1      43.485  26.080  25.003  1.00  0.00    -0.237 OA
ATOM     80  O   UNL A   1      42.278  28.199  24.626  1.00  0.00    -0.237 OA
ATOM     81  O   UNL A   1      44.186  28.121  26.195  1.00  0.00    -0.744 OA
ENDBRANCH  74  78
ENDBRANCH  57  71
BRANCH  58  82
ATOM     82  C   UNL A   1      39.881  33.301  37.084  1.00  0.00     0.023 A 
ATOM     83  C   UNL A   1      40.764  34.370  37.331  1.00  0.00     0.031 A 
ATOM     84  C   UNL A   1      38.902  33.019  38.051  1.00  0.00     0.131 A 
ATOM     85  C   UNL A   1      40.699  35.061  38.546  1.00  0.00     0.055 A 
ATOM     86  C   UNL A   1      38.790  33.765  39.227  1.00  0.00     0.041 A 
ATOM     87  F   UNL A   1      38.049  31.999  37.872  1.00  0.00    -0.206 F 
ATOM     88  C   UNL A   1      39.706  34.780  39.488  1.00  0.00     0.022 A 
BRANCH  85  89
ATOM     89  S   UNL A   1      41.994  36.246  39.012  1.00  0.00     0.124 S 
ATOM     90  O   UNL A   1      43.109  35.827  38.167  1.00  0.00    -0.237 OA
ATOM     91  O   UNL A   1      41.373  37.519  38.653  1.00  0.00    -0.237 OA
ATOM     92  O   UNL A   1      42.167  36.023  40.443  1.00  0.00    -0.744 OA
ENDBRANCH  85  89
ENDBRANCH  58  82
BRANCH  70  93
ATOM     93  C   UNL A   1      44.393  28.183  35.309  1.00  0.00     0.023 A 
ATOM     94  C   UNL A   1      44.171  27.221  36.313  1.00  0.00     0.031 A 
ATOM     95  C   UNL A   1      45.709  28.632  35.102  1.00  0.00     0.131 A 
ATOM     96  C   UNL A   1      45.234  26.785  37.111  1.00  0.00     0.055 A 
ATOM     97  C   UNL A   1      46.776  28.148  35.859  1.00  0.00     0.041 A 
ATOM     98  F   UNL A   1      45.974  29.559  34.166  1.00  0.00    -0.206 F 
ATOM     99  C   UNL A   1      46.539  27.234  36.882  1.00  0.00     0.022 A 
BRANCH  96 100
ATOM    100  S   UNL A   1      44.949  25.710  38.545  1.00  0.00     0.124 S 
ATOM    101  O   UNL A   1      43.780  26.333  39.162  1.00  0.00    -0.237 OA
ATOM    102  O   UNL A   1      44.706  24.416  37.913  1.00  0.00    -0.237 OA
ATOM    103  O   UNL A   1      46.185  25.812  39.314  1.00  0.00    -0.744 OA
ENDBRANCH  96 100
ENDBRANCH  70  93
ENDBRANCH  44  45
ENDBRANCH  37  39
ENDBRANCH  36  37
ENDBRANCH  35  36
ENDBRANCH  34  35
ENDBRANCH  33  34
ENDBRANCH   1  33
TORSDOF 22
ENDMDL
MODEL 2
REMARK VINA RESULT:     -11.8      1.839      2.175
REMARK SMILES CC1=C(CC(=O)OCCOCCOC(=O)c2ccc(-c3c4nc(c(-c5cc(S(=O)(=O)[O-])ccc5F)c5ccc([nH]5)c(-c5cc(S(=O)(=O)[O-])ccc5F)c5nc(c(-c6cc(S(=O)(=O)[O-])ccc6F)c6ccc3[nH]6)C=C5)C=C4)cc2)c2cc(F)ccc2/C1=C\c1cccc(OCc2ccccc2)c1
REMARK SMILES IDX 9 1 8 2 7 3 5 4 6 5 4 6 3 7 1 8 2 9 86 10 79 11 85 12 87 13
REMARK SMILES IDX 80 14 84 15 81 16 83 17 82 18 88 19 89 20 101 21 90 22 92 23
REMARK SMILES IDX 91 24 93 25 94 26 95 27 96 28 100 29 97 30 99 31 98 32 10 33
REMARK SMILES IDX 11 34 12 35 13 36 14 37 15 38 16 39 17 40 78 41 18 42 77 43
REMARK SMILES IDX 19 44 20 45 21 46 71 47 22 48 76 49 70 50 72 51 23 52 75 53
REMARK SMILES IDX 69 54 68 55 24 57 56 58 36 59 55 60 37 61 40 62 54 63 73 64
REMARK SMILES IDX 38 65 39 66 53 68 74 69 41 70 25 71 26 72 34 73 27 74 33 75
REMARK SMILES IDX 35 76 32 77 28 78 29 79 30 80 31 81 57 82 58 83 66 84 59 85
REMARK SMILES IDX 65 86 67 87 64 88 60 89 61 90 62 91 63 92 42 93 43 94 51 95
REMARK SMILES IDX 44 96 50 97 52 98 49 99 45 100 46 101 47 102 48 103
REMARK H PARENT 72 56 40 67
REMARK Flexibility Score: inf
ROOT
ATOM      1  C   UNL A   1      32.537  28.940  25.189  1.00  0.00     0.202 C 
ENDROOT
BRANCH   1   2
ATOM      2  C   UNL A   1      31.359  29.731  24.598  1.00  0.00     0.261 C 
BRANCH   2   3
ATOM      3  O   UNL A   1      30.231  28.924  24.198  1.00  0.00    -0.463 OA
BRANCH   3   4
ATOM      4  C   UNL A   1      30.210  28.561  22.886  1.00  0.00     0.310 C 
ATOM      5  O   UNL A   1      30.302  29.348  21.947  1.00  0.00    -0.252 OA
BRANCH   4   6
ATOM      6  C   UNL A   1      30.076  27.062  22.623  1.00  0.00     0.159 C 
BRANCH   6   7
ATOM      7  C   UNL A   1      31.122  26.119  23.123  1.00  0.00    -0.025 C 
ATOM      8  C   UNL A   1      33.014  26.576  21.469  1.00  0.00     0.045 C 
ATOM      9  C   UNL A   1      32.368  25.908  22.639  1.00  0.00    -0.039 C 
ATOM     10  C   UNL A   1      33.070  24.930  23.485  1.00  0.00    -0.014 C 
ATOM     11  C   UNL A   1      31.001  25.348  24.378  1.00  0.00    -0.011 A 
ATOM     12  C   UNL A   1      32.149  24.560  24.570  1.00  0.00    -0.010 A 
ATOM     13  C   UNL A   1      34.338  24.524  23.300  1.00  0.00     0.017 C 
ATOM     14  C   UNL A   1      29.981  25.331  25.321  1.00  0.00     0.048 A 
ATOM     15  C   UNL A   1      32.239  23.672  25.638  1.00  0.00     0.012 A 
ATOM     16  C   UNL A   1      30.087  24.449  26.398  1.00  0.00     0.123 A 
ATOM     17  C   UNL A   1      31.187  23.605  26.550  1.00  0.00     0.040 A 
ATOM     18  F   UNL A   1      29.080  24.368  27.278  1.00  0.00    -0.207 F 
BRANCH  13  19
ATOM     19  C   UNL A   1      35.068  23.615  24.182  1.00  0.00    -0.021 A 
ATOM     20  C   UNL A   1      35.912  24.117  25.177  1.00  0.00     0.008 A 
ATOM     21  C   UNL A   1      34.933  22.231  24.009  1.00  0.00     0.054 A 
ATOM     22  C   UNL A   1      36.652  23.238  25.967  1.00  0.00     0.004 A 
ATOM     23  C   UNL A   1      35.597  21.354  24.869  1.00  0.00     0.120 A 
ATOM     24  C   UNL A   1      36.497  21.862  25.808  1.00  0.00     0.046 A 
BRANCH  23  25
ATOM     25  O   UNL A   1      35.369  20.009  24.969  1.00  0.00    -0.489 OA
BRANCH  25  26
ATOM     26  C   UNL A   1      34.068  19.501  24.658  1.00  0.00     0.265 C 
BRANCH  26  27
ATOM     27  C   UNL A   1      33.838  17.998  24.771  1.00  0.00    -0.011 A 
ATOM     28  C   UNL A   1      32.552  17.544  25.108  1.00  0.00     0.007 A 
ATOM     29  C   UNL A   1      34.857  17.040  24.660  1.00  0.00     0.007 A 
ATOM     30  C   UNL A   1      32.309  16.190  25.363  1.00  0.00     0.000 A 
ATOM     31  C   UNL A   1      34.625  15.695  24.949  1.00  0.00     0.000 A 
ATOM     32  C   UNL A   1      33.352  15.270  25.306  1.00  0.00     0.000 A 
ENDBRANCH  26  27
ENDBRANCH  25  26
ENDBRANCH  23  25
ENDBRANCH  13  19
ENDBRANCH   6   7
ENDBRANCH   4   6
ENDBRANCH   3   4
ENDBRANCH   2   3
ENDBRANCH   1   2
BRANCH   1  33
ATOM     33  O   UNL A   1      33.213  29.475  26.323  1.00  0.00    -0.374 OA
BRANCH  33  34
ATOM     34  C   UNL A   1      32.629  30.600  26.972  1.00  0.00     0.202 C 
BRANCH  34  35
ATOM     35  C   UNL A   1      33.529  31.790  27.327  1.00  0.00     0.261 C 
BRANCH  35  36
ATOM     36  O   UNL A   1      32.841  32.887  27.925  1.00  0.00    -0.460 OA
BRANCH  36  37
ATOM     37  C   UNL A   1      33.647  33.917  28.275  1.00  0.00     0.338 C 
ATOM     38  O   UNL A   1      33.448  35.111  28.106  1.00  0.00    -0.246 OA
BRANCH  37  39
ATOM     39  C   UNL A   1      34.761  33.389  29.069  1.00  0.00     0.060 A 
ATOM     40  C   UNL A   1      34.540  32.466  30.093  1.00  0.00     0.016 A 
ATOM     41  C   UNL A   1      36.052  33.817  28.743  1.00  0.00     0.016 A 
ATOM     42  C   UNL A   1      35.635  31.942  30.777  1.00  0.00     0.010 A 
ATOM     43  C   UNL A   1      37.142  33.288  29.423  1.00  0.00     0.010 A 
ATOM     44  C   UNL A   1      36.942  32.333  30.429  1.00  0.00    -0.014 A 
BRANCH  44  45
ATOM     45  C   UNL A   1      38.112  31.639  31.011  1.00  0.00     0.031 A 
ATOM     46  C   UNL A   1      38.845  30.583  30.245  1.00  0.00     0.074 A 
ATOM     47  C   UNL A   1      38.456  31.939  32.278  1.00  0.00     0.049 A 
ATOM     48  N   UNL A   1      39.884  29.882  30.612  1.00  0.00    -0.248 NA
ATOM     49  C   UNL A   1      38.345  30.263  28.900  1.00  0.00     0.031 C 
ATOM     50  C   UNL A   1      37.763  32.918  33.116  1.00  0.00     0.029 A 
ATOM     51  N   UNL A   1      39.454  31.456  33.083  1.00  0.00    -0.354 N 
ATOM     52  C   UNL A   1      40.171  29.040  29.544  1.00  0.00     0.074 A 
ATOM     53  C   UNL A   1      39.164  29.285  28.534  1.00  0.00     0.031 C 
ATOM     54  C   UNL A   1      38.371  32.984  34.308  1.00  0.00     0.029 A 
ATOM     55  C   UNL A   1      39.465  32.017  34.340  1.00  0.00     0.049 A 
ATOM     56  H   UNL A   1      40.101  30.773  32.792  1.00  0.00     0.167 HD
ATOM     57  C   UNL A   1      41.194  28.162  29.424  1.00  0.00     0.034 A 
ATOM     58  C   UNL A   1      40.264  31.778  35.401  1.00  0.00     0.034 A 
ATOM     59  C   UNL A   1      42.174  27.936  30.458  1.00  0.00     0.049 A 
ATOM     60  C   UNL A   1      41.381  30.780  35.246  1.00  0.00     0.074 A 
ATOM     61  C   UNL A   1      43.280  27.107  30.416  1.00  0.00     0.029 A 
ATOM     62  N   UNL A   1      42.166  28.525  31.716  1.00  0.00    -0.354 N 
ATOM     63  N   UNL A   1      41.710  30.071  34.190  1.00  0.00    -0.248 NA
ATOM     64  C   UNL A   1      42.247  30.556  36.410  1.00  0.00     0.031 C 
ATOM     65  C   UNL A   1      43.889  27.129  31.670  1.00  0.00     0.029 A 
ATOM     66  C   UNL A   1      43.226  28.047  32.470  1.00  0.00     0.049 A 
ATOM     67  H   UNL A   1      41.504  29.186  32.027  1.00  0.00     0.167 HD
ATOM     68  C   UNL A   1      42.836  29.339  34.554  1.00  0.00     0.074 A 
ATOM     69  C   UNL A   1      43.146  29.713  35.919  1.00  0.00     0.031 C 
ATOM     70  C   UNL A   1      43.541  28.438  33.826  1.00  0.00     0.034 A 
BRANCH  57  71
ATOM     71  C   UNL A   1      41.345  27.386  28.137  1.00  0.00     0.023 A 
ATOM     72  C   UNL A   1      41.163  25.991  28.131  1.00  0.00     0.031 A 
ATOM     73  C   UNL A   1      41.821  27.999  26.963  1.00  0.00     0.131 A 
ATOM     74  C   UNL A   1      41.504  25.248  26.994  1.00  0.00     0.055 A 
ATOM     75  C   UNL A   1      42.110  27.260  25.815  1.00  0.00     0.041 A 
ATOM     76  F   UNL A   1      42.017  29.326  26.917  1.00  0.00    -0.206 F 
ATOM     77  C   UNL A   1      41.968  25.876  25.833  1.00  0.00     0.022 A 
BRANCH  74  78
ATOM     78  S   UNL A   1      41.442  23.436  27.002  1.00  0.00     0.124 S 
ATOM     79  O   UNL A   1      40.051  23.181  26.633  1.00  0.00    -0.237 OA
ATOM     80  O   UNL A   1      42.431  23.092  25.985  1.00  0.00    -0.237 OA
ATOM     81  O   UNL A   1      41.794  23.079  28.373  1.00  0.00    -0.744 OA
ENDBRANCH  74  78
ENDBRANCH  57  71
BRANCH  58  82
ATOM     82  C   UNL A   1      40.054  32.558  36.655  1.00  0.00     0.023 A 
ATOM     83  C   UNL A   1      39.102  32.154  37.610  1.00  0.00     0.031 A 
ATOM     84  C   UNL A   1      40.710  33.784  36.857  1.00  0.00     0.131 A 
ATOM     85  C   UNL A   1      38.778  33.003  38.674  1.00  0.00     0.055 A 
ATOM     86  C   UNL A   1      40.441  34.590  37.965  1.00  0.00     0.041 A 
ATOM     87  F   UNL A   1      41.611  34.223  35.966  1.00  0.00    -0.206 F 
ATOM     88  C   UNL A   1      39.455  34.209  38.870  1.00  0.00     0.022 A 
BRANCH  85  89
ATOM     89  S   UNL A   1      37.364  32.641  39.755  1.00  0.00     0.124 S 
ATOM     90  O   UNL A   1      37.390  33.771  40.679  1.00  0.00    -0.237 OA
ATOM     91  O   UNL A   1      36.258  32.631  38.801  1.00  0.00    -0.237 OA
ATOM     92  O   UNL A   1      37.696  31.344  40.334  1.00  0.00    -0.744 OA
ENDBRANCH  85  89
ENDBRANCH  58  82
BRANCH  70  93
ATOM     93  C   UNL A   1      44.745  27.775  34.458  1.00  0.00     0.023 A 
ATOM     94  C   UNL A   1      44.581  26.586  35.195  1.00  0.00     0.031 A 
ATOM     95  C   UNL A   1      46.002  28.401  34.481  1.00  0.00     0.131 A 
ATOM     96  C   UNL A   1      45.636  26.094  35.971  1.00  0.00     0.055 A 
ATOM     97  C   UNL A   1      47.071  27.872  35.206  1.00  0.00     0.041 A 
ATOM     98  F   UNL A   1      46.208  29.544  33.806  1.00  0.00    -0.206 F 
ATOM     99  C   UNL A   1      46.885  26.724  35.971  1.00  0.00     0.022 A 
BRANCH  96 100
ATOM    100  S   UNL A   1      45.397  24.689  37.093  1.00  0.00     0.124 S 
ATOM    101  O   UNL A   1      46.697  24.604  37.754  1.00  0.00    -0.237 OA
ATOM    102  O   UNL A   1      44.298  25.153  37.935  1.00  0.00    -0.237 OA
ATOM    103  O   UNL A   1      45.079  23.576  36.203  1.00  0.00    -0.744 OA
ENDBRANCH  96 100
ENDBRANCH  70  93
ENDBRANCH  44  45
ENDBRANCH  37  39
ENDBRANCH  36  37
ENDBRANCH  35  36
ENDBRANCH  34  35
ENDBRANCH  33  34
ENDBRANCH   1  33
TORSDOF 22
ENDMDL
MODEL 3
REMARK VINA RESULT:     -11.7      4.996     12.295
REMARK SMILES CC1=C(CC(=O)OCCOCCOC(=O)c2ccc(-c3c4nc(c(-c5cc(S(=O)(=O)[O-])ccc5F)c5ccc([nH]5)c(-c5cc(S(=O)(=O)[O-])ccc5F)c5nc(c(-c6cc(S(=O)(=O)[O-])ccc6F)c6ccc3[nH]6)C=C5)C=C4)cc2)c2cc(F)ccc2/C1=C\c1cccc(OCc2ccccc2)c1
REMARK SMILES IDX 9 1 8 2 7 3 5 4 6 5 4 6 3 7 1 8 2 9 86 10 79 11 85 12 87 13
REMARK SMILES IDX 80 14 84 15 81 16 83 17 82 18 88 19 89 20 101 21 90 22 92 23
REMARK SMILES IDX 91 24 93 25 94 26 95 27 96 28 100 29 97 30 99 31 98 32 10 33
REMARK SMILES IDX 11 34 12 35 13 36 14 37 15 38 16 39 17 40 78 41 18 42 77 43
REMARK SMILES IDX 19 44 20 45 21 46 71 47 22 48 76 49 70 50 72 51 23 52 75 53
REMARK SMILES IDX 69 54 68 55 24 57 56 58 36 59 55 60 37 61 40 62 54 63 73 64
REMARK SMILES IDX 38 65 39 66 53 68 74 69 41 70 25 71 26 72 34 73 27 74 33 75
REMARK SMILES IDX 35 76 32 77 28 78 29 79 30 80 31 81 57 82 58 83 66 84 59 85
REMARK SMILES IDX 65 86 67 87 64 88 60 89 61 90 62 91 63 92 42 93 43 94 51 95
REMARK SMILES IDX 44 96 50 97 52 98 49 99 45 100 46 101 47 102 48 103
REMARK H PARENT 72 56 40 67
REMARK Flexibility Score: inf
ROOT
ATOM      1  C   UNL A   1      33.215  35.480  30.134  1.00  0.00     0.202 C 
ENDROOT
BRANCH   1   2
ATOM      2  C   UNL A   1      32.671  35.674  31.559  1.00  0.00     0.261 C 
BRANCH   2   3
ATOM      3  O   UNL A   1      33.268  34.818  32.554  1.00  0.00    -0.463 OA
BRANCH   3   4
ATOM      4  C   UNL A   1      34.592  35.030  32.789  1.00  0.00     0.310 C 
ATOM      5  O   UNL A   1      35.081  36.124  33.060  1.00  0.00    -0.252 OA
BRANCH   4   6
ATOM      6  C   UNL A   1      35.479  33.788  32.711  1.00  0.00     0.159 C 
BRANCH   6   7
ATOM      7  C   UNL A   1      36.880  33.901  32.205  1.00  0.00    -0.025 C 
ATOM      8  C   UNL A   1      36.513  33.576  29.698  1.00  0.00     0.045 C 
ATOM      9  C   UNL A   1      37.325  33.812  30.930  1.00  0.00    -0.039 C 
ATOM     10  C   UNL A   1      38.777  34.047  30.894  1.00  0.00    -0.014 C 
ATOM     11  C   UNL A   1      38.027  34.301  33.045  1.00  0.00    -0.011 A 
ATOM     12  C   UNL A   1      39.204  34.318  32.275  1.00  0.00    -0.010 A 
ATOM     13  C   UNL A   1      39.525  34.062  29.777  1.00  0.00     0.017 C 
ATOM     14  C   UNL A   1      38.072  34.654  34.388  1.00  0.00     0.048 A 
ATOM     15  C   UNL A   1      40.440  34.576  32.860  1.00  0.00     0.012 A 
ATOM     16  C   UNL A   1      39.314  34.928  34.962  1.00  0.00     0.123 A 
ATOM     17  C   UNL A   1      40.494  34.866  34.222  1.00  0.00     0.040 A 
ATOM     18  F   UNL A   1      39.384  35.200  36.272  1.00  0.00    -0.207 F 
BRANCH  13  19
ATOM     19  C   UNL A   1      40.953  34.374  29.725  1.00  0.00    -0.021 A 
ATOM     20  C   UNL A   1      41.893  33.486  30.257  1.00  0.00     0.008 A 
ATOM     21  C   UNL A   1      41.373  35.583  29.157  1.00  0.00     0.054 A 
ATOM     22  C   UNL A   1      43.244  33.828  30.260  1.00  0.00     0.004 A 
ATOM     23  C   UNL A   1      42.735  35.876  29.070  1.00  0.00     0.120 A 
ATOM     24  C   UNL A   1      43.661  35.021  29.672  1.00  0.00     0.046 A 
BRANCH  23  25
ATOM     25  O   UNL A   1      43.290  36.888  28.336  1.00  0.00    -0.489 OA
BRANCH  25  26
ATOM     26  C   UNL A   1      42.467  37.991  27.943  1.00  0.00     0.265 C 
BRANCH  26  27
ATOM     27  C   UNL A   1      43.124  39.149  27.202  1.00  0.00    -0.011 A 
ATOM     28  C   UNL A   1      42.303  40.178  26.710  1.00  0.00     0.007 A 
ATOM     29  C   UNL A   1      44.491  39.203  26.888  1.00  0.00     0.007 A 
ATOM     30  C   UNL A   1      42.826  41.194  25.904  1.00  0.00     0.000 A 
ATOM     31  C   UNL A   1      45.008  40.195  26.055  1.00  0.00     0.000 A 
ATOM     32  C   UNL A   1      44.174  41.189  25.557  1.00  0.00     0.000 A 
ENDBRANCH  26  27
ENDBRANCH  25  26
ENDBRANCH  23  25
ENDBRANCH  13  19
ENDBRANCH   6   7
ENDBRANCH   4   6
ENDBRANCH   3   4
ENDBRANCH   2   3
ENDBRANCH   1   2
BRANCH   1  33
ATOM     33  O   UNL A   1      33.189  34.172  29.570  1.00  0.00    -0.374 OA
BRANCH  33  34
ATOM     34  C   UNL A   1      33.208  34.062  28.150  1.00  0.00     0.202 C 
BRANCH  34  35
ATOM     35  C   UNL A   1      33.366  32.670  27.527  1.00  0.00     0.261 C 
BRANCH  35  36
ATOM     36  O   UNL A   1      33.948  31.700  28.396  1.00  0.00    -0.460 OA
BRANCH  36  37
ATOM     37  C   UNL A   1      34.495  30.642  27.753  1.00  0.00     0.338 C 
ATOM     38  O   UNL A   1      34.106  30.112  26.723  1.00  0.00    -0.246 OA
BRANCH  37  39
ATOM     39  C   UNL A   1      35.769  30.310  28.398  1.00  0.00     0.060 A 
ATOM     40  C   UNL A   1      35.802  29.726  29.666  1.00  0.00     0.016 A 
ATOM     41  C   UNL A   1      36.946  30.567  27.687  1.00  0.00     0.016 A 
ATOM     42  C   UNL A   1      37.034  29.368  30.213  1.00  0.00     0.010 A 
ATOM     43  C   UNL A   1      38.171  30.203  28.232  1.00  0.00     0.010 A 
ATOM     44  C   UNL A   1      38.221  29.583  29.487  1.00  0.00    -0.014 A 
BRANCH  44  45
ATOM     45  C   UNL A   1      39.505  29.029  29.971  1.00  0.00     0.031 A 
ATOM     46  C   UNL A   1      40.203  29.616  31.157  1.00  0.00     0.074 A 
ATOM     47  C   UNL A   1      40.062  28.023  29.269  1.00  0.00     0.049 A 
ATOM     48  N   UNL A   1      41.331  29.251  31.704  1.00  0.00    -0.248 NA
ATOM     49  C   UNL A   1      39.561  30.768  31.808  1.00  0.00     0.031 C 
ATOM     50  C   UNL A   1      39.475  27.425  28.069  1.00  0.00     0.029 A 
ATOM     51  N   UNL A   1      41.232  27.334  29.448  1.00  0.00    -0.354 N 
ATOM     52  C   UNL A   1      41.536  30.119  32.768  1.00  0.00     0.074 A 
ATOM     53  C   UNL A   1      40.438  31.062  32.760  1.00  0.00     0.031 C 
ATOM     54  C   UNL A   1      40.274  26.443  27.633  1.00  0.00     0.029 A 
ATOM     55  C   UNL A   1      41.454  26.371  28.491  1.00  0.00     0.049 A 
ATOM     56  H   UNL A   1      41.856  27.511  30.189  1.00  0.00     0.167 HD
ATOM     57  C   UNL A   1      42.542  30.108  33.674  1.00  0.00     0.034 A 
ATOM     58  C   UNL A   1      42.493  25.527  28.318  1.00  0.00     0.034 A 
ATOM     59  C   UNL A   1      43.628  29.158  33.645  1.00  0.00     0.049 A 
ATOM     60  C   UNL A   1      43.610  25.551  29.329  1.00  0.00     0.074 A 
ATOM     61  C   UNL A   1      44.670  29.028  34.545  1.00  0.00     0.029 A 
ATOM     62  N   UNL A   1      43.822  28.188  32.669  1.00  0.00    -0.354 N 
ATOM     63  N   UNL A   1      43.736  26.304  30.397  1.00  0.00    -0.248 NA
ATOM     64  C   UNL A   1      44.716  24.607  29.127  1.00  0.00     0.031 C 
ATOM     65  C   UNL A   1      45.534  28.043  34.071  1.00  0.00     0.029 A 
ATOM     66  C   UNL A   1      44.987  27.483  32.927  1.00  0.00     0.049 A 
ATOM     67  H   UNL A   1      43.220  28.026  31.907  1.00  0.00     0.167 HD
ATOM     68  C   UNL A   1      44.920  25.906  31.010  1.00  0.00     0.074 A 
ATOM     69  C   UNL A   1      45.457  24.827  30.206  1.00  0.00     0.031 C 
ATOM     70  C   UNL A   1      45.508  26.395  32.131  1.00  0.00     0.034 A 
BRANCH  57  71
ATOM     71  C   UNL A   1      42.532  31.123  34.792  1.00  0.00     0.023 A 
ATOM     72  C   UNL A   1      43.292  32.303  34.679  1.00  0.00     0.031 A 
ATOM     73  C   UNL A   1      41.907  30.851  36.023  1.00  0.00     0.131 A 
ATOM     74  C   UNL A   1      43.448  33.140  35.791  1.00  0.00     0.055 A 
ATOM     75  C   UNL A   1      42.024  31.715  37.112  1.00  0.00     0.041 A 
ATOM     76  F   UNL A   1      41.175  29.737  36.185  1.00  0.00    -0.206 F 
ATOM     77  C   UNL A   1      42.811  32.857  37.004  1.00  0.00     0.022 A 
BRANCH  74  78
ATOM     78  S   UNL A   1      44.551  34.578  35.735  1.00  0.00     0.124 S 
ATOM     79  O   UNL A   1      45.602  34.115  34.832  1.00  0.00    -0.237 OA
ATOM     80  O   UNL A   1      43.675  35.613  35.195  1.00  0.00    -0.237 OA
ATOM     81  O   UNL A   1      44.962  34.758  37.124  1.00  0.00    -0.744 OA
ENDBRANCH  74  78
ENDBRANCH  57  71
BRANCH  58  82
ATOM     82  C   UNL A   1      42.460  24.562  27.182  1.00  0.00     0.023 A 
ATOM     83  C   UNL A   1      41.779  23.334  27.293  1.00  0.00     0.031 A 
ATOM     84  C   UNL A   1      43.212  24.795  26.019  1.00  0.00     0.131 A 
ATOM     85  C   UNL A   1      41.930  22.361  26.298  1.00  0.00     0.055 A 
ATOM     86  C   UNL A   1      43.293  23.852  24.992  1.00  0.00     0.041 A 
ATOM     87  F   UNL A   1      43.895  25.940  25.873  1.00  0.00    -0.206 F 
ATOM     88  C   UNL A   1      42.666  22.618  25.139  1.00  0.00     0.022 A 
BRANCH  85  89
ATOM     89  S   UNL A   1      41.301  20.676  26.544  1.00  0.00     0.124 S 
ATOM     90  O   UNL A   1      39.894  20.819  26.180  1.00  0.00    -0.237 OA
ATOM     91  O   UNL A   1      42.121  19.914  25.606  1.00  0.00    -0.237 OA
ATOM     92  O   UNL A   1      41.564  20.411  27.954  1.00  0.00    -0.744 OA
ENDBRANCH  85  89
ENDBRANCH  58  82
BRANCH  70  93
ATOM     93  C   UNL A   1      46.807  25.778  32.598  1.00  0.00     0.023 A 
ATOM     94  C   UNL A   1      46.793  24.798  33.609  1.00  0.00     0.031 A 
ATOM     95  C   UNL A   1      48.052  26.276  32.176  1.00  0.00     0.131 A 
ATOM     96  C   UNL A   1      47.991  24.392  34.207  1.00  0.00     0.055 A 
ATOM     97  C   UNL A   1      49.249  25.822  32.731  1.00  0.00     0.041 A 
ATOM     98  F   UNL A   1      48.122  27.222  31.225  1.00  0.00    -0.206 F 
ATOM     99  C   UNL A   1      49.221  24.890  33.765  1.00  0.00     0.022 A 
BRANCH  96 100
ATOM    100  S   UNL A   1      47.992  23.292  35.649  1.00  0.00     0.124 S 
ATOM    101  O   UNL A   1      47.142  22.195  35.194  1.00  0.00    -0.237 OA
ATOM    102  O   UNL A   1      49.409  22.968  35.786  1.00  0.00    -0.237 OA
ATOM    103  O   UNL A   1      47.429  24.111  36.718  1.00  0.00    -0.744 OA
ENDBRANCH  96 100
ENDBRANCH  70  93
ENDBRANCH  44  45
ENDBRANCH  37  39
ENDBRANCH  36  37
ENDBRANCH  35  36
ENDBRANCH  34  35
ENDBRANCH  33  34
ENDBRANCH   1  33
TORSDOF 22
ENDMDL
