MODEL 1
REMARK VINA RESULT:     -11.4      0.000      0.000
REMARK SMILES Cc1cccc(NC(=O)C[C@@H]2CCCCO2)c1C(=O)OCCOCCOC(=O)c1ccc(-c2c3nc(c(-c4cc(S(=O)(=O)[O-])ccc4F)c4ccc([nH]4)c(-c4cc(S(=O)(=O)[O-])ccc4F)c4nc(c(-c5cc(S(=O)(=O)[O-])ccc5F)c5ccc2[nH]5)C=C4)C=C3)cc1
REMARK SMILES IDX 23 1 22 2 21 3 20 4 18 5 19 6 17 7 1 8 2 9 3 10 4 11 6 12
REMARK SMILES IDX 5 13 7 14 8 15 9 17 10 18 11 19 12 20 16 21 13 22 15 23
REMARK SMILES IDX 14 24 24 25 25 26 26 27 27 28 28 29 29 30 30 31 91 32 31 33
REMARK SMILES IDX 90 34 32 35 33 36 34 37 84 38 35 39 89 40 83 41 85 42 36 43
REMARK SMILES IDX 88 44 82 45 81 46 37 48 69 49 49 50 68 51 50 52 53 53 67 54
REMARK SMILES IDX 86 55 51 56 52 57 66 59 87 60 54 61 38 62 39 63 47 64 40 65
REMARK SMILES IDX 46 66 48 67 45 68 41 69 42 70 43 71 44 72 70 73 71 74 79 75
REMARK SMILES IDX 72 76 78 77 80 78 77 79 73 80 74 81 75 82 76 83 55 84 56 85
REMARK SMILES IDX 64 86 57 87 63 88 65 89 62 90 58 91 59 92 60 93 61 94
REMARK H PARENT 7 16 85 47 53 58
REMARK Flexibility Score: inf
ROOT
ATOM      1  O   UNL A   1      37.009  23.058  25.836  1.00  0.00    -0.374 OA
ENDROOT
BRANCH   1   2
ATOM      2  C   UNL A   1      35.600  22.910  25.928  1.00  0.00     0.202 C 
BRANCH   2   3
ATOM      3  C   UNL A   1      35.247  22.289  24.628  1.00  0.00     0.261 C 
BRANCH   3   4
ATOM      4  O   UNL A   1      34.559  23.237  23.793  1.00  0.00    -0.460 OA
BRANCH   4   5
ATOM      5  C   UNL A   1      33.324  23.063  23.284  1.00  0.00     0.340 C 
ATOM      6  O   UNL A   1      33.036  22.703  22.161  1.00  0.00    -0.246 OA
BRANCH   5   7
ATOM      7  C   UNL A   1      32.308  23.440  24.329  1.00  0.00     0.086 A 
ATOM      8  C   UNL A   1      31.902  20.992  25.124  1.00  0.00     0.045 C 
ATOM      9  C   UNL A   1      31.691  22.487  25.193  1.00  0.00    -0.034 A 
ATOM     10  C   UNL A   1      30.722  22.918  26.108  1.00  0.00     0.004 A 
ATOM     11  C   UNL A   1      30.391  24.261  26.215  1.00  0.00     0.002 A 
ATOM     12  C   UNL A   1      31.863  24.794  24.357  1.00  0.00     0.056 A 
ATOM     13  C   UNL A   1      30.967  25.195  25.355  1.00  0.00     0.027 A 
BRANCH  12  14
ATOM     14  N   UNL A   1      32.235  25.671  23.303  1.00  0.00    -0.325 N 
ATOM     15  C   UNL A   1      33.019  26.797  23.299  1.00  0.00     0.227 C 
ATOM     16  H   UNL A   1      31.867  25.428  22.422  1.00  0.00     0.169 HD
ATOM     17  O   UNL A   1      33.032  27.513  22.292  1.00  0.00    -0.275 OA
BRANCH  15  18
ATOM     18  C   UNL A   1      33.855  27.206  24.491  1.00  0.00     0.132 C 
BRANCH  18  19
ATOM     19  C   UNL A   1      33.810  28.687  24.922  1.00  0.00     0.127 C 
ATOM     20  C   UNL A   1      34.238  28.844  26.390  1.00  0.00     0.033 C 
ATOM     21  O   UNL A   1      32.596  29.408  24.729  1.00  0.00    -0.378 OA
ATOM     22  C   UNL A   1      33.167  28.309  27.337  1.00  0.00     0.005 C 
ATOM     23  C   UNL A   1      31.503  29.041  25.558  1.00  0.00     0.160 C 
ATOM     24  C   UNL A   1      31.820  28.955  27.043  1.00  0.00     0.029 C 
ENDBRANCH  18  19
ENDBRANCH  15  18
ENDBRANCH  12  14
ENDBRANCH   5   7
ENDBRANCH   4   5
ENDBRANCH   3   4
ENDBRANCH   2   3
ENDBRANCH   1   2
BRANCH   1  25
ATOM     25  C   UNL A   1      37.663  22.134  25.007  1.00  0.00     0.202 C 
BRANCH  25  26
ATOM     26  C   UNL A   1      38.862  21.513  25.725  1.00  0.00     0.261 C 
BRANCH  26  27
ATOM     27  O   UNL A   1      39.297  22.378  26.802  1.00  0.00    -0.460 OA
BRANCH  27  28
ATOM     28  C   UNL A   1      40.371  23.179  26.540  1.00  0.00     0.338 C 
ATOM     29  O   UNL A   1      41.477  22.777  26.219  1.00  0.00    -0.246 OA
BRANCH  28  30
ATOM     30  C   UNL A   1      40.047  24.608  26.842  1.00  0.00     0.060 A 
ATOM     31  C   UNL A   1      40.671  25.657  26.135  1.00  0.00     0.016 A 
ATOM     32  C   UNL A   1      39.352  24.885  28.015  1.00  0.00     0.016 A 
ATOM     33  C   UNL A   1      40.739  26.947  26.693  1.00  0.00     0.010 A 
ATOM     34  C   UNL A   1      39.522  26.117  28.607  1.00  0.00     0.010 A 
ATOM     35  C   UNL A   1      40.242  27.147  27.977  1.00  0.00    -0.014 A 
BRANCH  35  36
ATOM     36  C   UNL A   1      40.476  28.309  28.846  1.00  0.00     0.031 A 
ATOM     37  C   UNL A   1      39.439  29.366  28.862  1.00  0.00     0.074 A 
ATOM     38  C   UNL A   1      41.408  28.261  29.833  1.00  0.00     0.049 A 
ATOM     39  N   UNL A   1      39.537  30.443  29.550  1.00  0.00    -0.248 NA
ATOM     40  C   UNL A   1      38.200  29.324  28.081  1.00  0.00     0.031 C 
ATOM     41  C   UNL A   1      41.437  28.979  31.111  1.00  0.00     0.029 A 
ATOM     42  N   UNL A   1      42.577  27.501  29.894  1.00  0.00    -0.354 N 
ATOM     43  C   UNL A   1      38.305  31.046  29.584  1.00  0.00     0.074 A 
ATOM     44  C   UNL A   1      37.546  30.390  28.554  1.00  0.00     0.031 C 
ATOM     45  C   UNL A   1      42.648  28.842  31.686  1.00  0.00     0.029 A 
ATOM     46  C   UNL A   1      43.496  28.125  30.747  1.00  0.00     0.049 A 
ATOM     47  H   UNL A   1      42.733  26.657  29.412  1.00  0.00     0.167 HD
ATOM     48  C   UNL A   1      38.074  31.949  30.576  1.00  0.00     0.034 A 
ATOM     49  C   UNL A   1      44.716  28.483  30.268  1.00  0.00     0.034 A 
ATOM     50  C   UNL A   1      39.331  32.249  31.283  1.00  0.00     0.049 A 
ATOM     51  C   UNL A   1      44.700  29.995  30.205  1.00  0.00     0.074 A 
ATOM     52  C   UNL A   1      39.828  31.950  32.539  1.00  0.00     0.029 A 
ATOM     53  N   UNL A   1      40.423  32.691  30.532  1.00  0.00    -0.354 N 
ATOM     54  N   UNL A   1      43.588  30.687  30.164  1.00  0.00    -0.248 NA
ATOM     55  C   UNL A   1      45.876  30.839  30.369  1.00  0.00     0.031 C 
ATOM     56  C   UNL A   1      41.251  32.096  32.484  1.00  0.00     0.029 A 
ATOM     57  C   UNL A   1      41.612  32.527  31.213  1.00  0.00     0.049 A 
ATOM     58  H   UNL A   1      40.352  33.072  29.627  1.00  0.00     0.167 HD
ATOM     59  C   UNL A   1      43.852  31.994  30.428  1.00  0.00     0.074 A 
ATOM     60  C   UNL A   1      45.306  32.052  30.492  1.00  0.00     0.031 C 
ATOM     61  C   UNL A   1      42.875  32.936  30.603  1.00  0.00     0.034 A 
BRANCH  48  62
ATOM     62  C   UNL A   1      36.722  32.466  31.023  1.00  0.00     0.023 A 
ATOM     63  C   UNL A   1      35.987  33.276  30.131  1.00  0.00     0.031 A 
ATOM     64  C   UNL A   1      36.131  32.297  32.296  1.00  0.00     0.131 A 
ATOM     65  C   UNL A   1      34.757  33.857  30.499  1.00  0.00     0.055 A 
ATOM     66  C   UNL A   1      34.883  32.835  32.645  1.00  0.00     0.041 A 
ATOM     67  F   UNL A   1      36.737  31.649  33.295  1.00  0.00    -0.206 F 
ATOM     68  C   UNL A   1      34.189  33.623  31.747  1.00  0.00     0.022 A 
BRANCH  65  69
ATOM     69  S   UNL A   1      33.921  34.963  29.332  1.00  0.00     0.124 S 
ATOM     70  O   UNL A   1      32.719  34.204  28.998  1.00  0.00    -0.237 OA
ATOM     71  O   UNL A   1      33.726  36.167  30.131  1.00  0.00    -0.237 OA
ATOM     72  O   UNL A   1      34.885  35.098  28.240  1.00  0.00    -0.744 OA
ENDBRANCH  65  69
ENDBRANCH  48  62
BRANCH  49  73
ATOM     73  C   UNL A   1      45.239  27.460  29.289  1.00  0.00     0.023 A 
ATOM     74  C   UNL A   1      44.999  27.685  27.901  1.00  0.00     0.031 A 
ATOM     75  C   UNL A   1      46.324  26.630  29.616  1.00  0.00     0.131 A 
ATOM     76  C   UNL A   1      45.888  27.195  26.918  1.00  0.00     0.055 A 
ATOM     77  C   UNL A   1      47.210  26.154  28.634  1.00  0.00     0.041 A 
ATOM     78  F   UNL A   1      46.640  26.399  30.899  1.00  0.00    -0.206 F 
ATOM     79  C   UNL A   1      47.019  26.464  27.287  1.00  0.00     0.022 A 
BRANCH  76  80
ATOM     80  S   UNL A   1      45.763  27.770  25.180  1.00  0.00     0.124 S 
ATOM     81  O   UNL A   1      46.339  26.654  24.440  1.00  0.00    -0.237 OA
ATOM     82  O   UNL A   1      44.330  27.976  24.998  1.00  0.00    -0.237 OA
ATOM     83  O   UNL A   1      46.546  29.005  25.177  1.00  0.00    -0.744 OA
ENDBRANCH  76  80
ENDBRANCH  49  73
BRANCH  61  84
ATOM     84  C   UNL A   1      43.100  34.374  30.229  1.00  0.00     0.023 A 
ATOM     85  C   UNL A   1      42.893  34.819  28.920  1.00  0.00     0.031 A 
ATOM     86  C   UNL A   1      43.397  35.373  31.181  1.00  0.00     0.131 A 
ATOM     87  C   UNL A   1      43.128  36.147  28.559  1.00  0.00     0.055 A 
ATOM     88  C   UNL A   1      43.496  36.724  30.845  1.00  0.00     0.041 A 
ATOM     89  F   UNL A   1      43.582  35.090  32.478  1.00  0.00    -0.206 F 
ATOM     90  C   UNL A   1      43.396  37.116  29.518  1.00  0.00     0.022 A 
BRANCH  87  91
ATOM     91  S   UNL A   1      43.215  36.508  26.792  1.00  0.00     0.124 S 
ATOM     92  O   UNL A   1      42.520  35.353  26.223  1.00  0.00    -0.237 OA
ATOM     93  O   UNL A   1      42.507  37.779  26.692  1.00  0.00    -0.237 OA
ATOM     94  O   UNL A   1      44.649  36.565  26.525  1.00  0.00    -0.744 OA
ENDBRANCH  87  91
ENDBRANCH  61  84
ENDBRANCH  35  36
ENDBRANCH  28  30
ENDBRANCH  27  28
ENDBRANCH  26  27
ENDBRANCH  25  26
ENDBRANCH   1  25
TORSDOF 20
ENDMDL
MODEL 2
REMARK VINA RESULT:     -11.3      3.788      9.520
REMARK SMILES Cc1cccc(NC(=O)C[C@@H]2CCCCO2)c1C(=O)OCCOCCOC(=O)c1ccc(-c2c3nc(c(-c4cc(S(=O)(=O)[O-])ccc4F)c4ccc([nH]4)c(-c4cc(S(=O)(=O)[O-])ccc4F)c4nc(c(-c5cc(S(=O)(=O)[O-])ccc5F)c5ccc2[nH]5)C=C4)C=C3)cc1
REMARK SMILES IDX 23 1 22 2 21 3 20 4 18 5 19 6 17 7 1 8 2 9 3 10 4 11 6 12
REMARK SMILES IDX 5 13 7 14 8 15 9 17 10 18 11 19 12 20 16 21 13 22 15 23
REMARK SMILES IDX 14 24 24 25 25 26 26 27 27 28 28 29 29 30 30 31 91 32 31 33
REMARK SMILES IDX 90 34 32 35 33 36 34 37 84 38 35 39 89 40 83 41 85 42 36 43
REMARK SMILES IDX 88 44 82 45 81 46 37 48 69 49 49 50 68 51 50 52 53 53 67 54
REMARK SMILES IDX 86 55 51 56 52 57 66 59 87 60 54 61 38 62 39 63 47 64 40 65
REMARK SMILES IDX 46 66 48 67 45 68 41 69 42 70 43 71 44 72 70 73 71 74 79 75
REMARK SMILES IDX 72 76 78 77 80 78 77 79 73 80 74 81 75 82 76 83 55 84 56 85
REMARK SMILES IDX 64 86 57 87 63 88 65 89 62 90 58 91 59 92 60 93 61 94
REMARK H PARENT 7 16 85 47 53 58
REMARK Flexibility Score: inf
ROOT
ATOM      1  O   UNL A   1      32.890  29.123  27.637  1.00  0.00    -0.374 OA
ENDROOT
BRANCH   1   2
ATOM      2  C   UNL A   1      31.605  28.525  27.568  1.00  0.00     0.202 C 
BRANCH   2   3
ATOM      3  C   UNL A   1      31.458  28.221  26.124  1.00  0.00     0.261 C 
BRANCH   3   4
ATOM      4  O   UNL A   1      31.855  26.864  25.857  1.00  0.00    -0.460 OA
BRANCH   4   5
ATOM      5  C   UNL A   1      33.079  26.485  25.441  1.00  0.00     0.340 C 
ATOM      6  O   UNL A   1      34.102  26.464  26.094  1.00  0.00    -0.246 OA
BRANCH   5   7
ATOM      7  C   UNL A   1      33.008  26.123  23.982  1.00  0.00     0.086 A 
ATOM      8  C   UNL A   1      33.883  28.429  23.145  1.00  0.00     0.045 C 
ATOM      9  C   UNL A   1      33.414  27.007  22.939  1.00  0.00    -0.034 A 
ATOM     10  C   UNL A   1      33.273  26.605  21.605  1.00  0.00     0.004 A 
ATOM     11  C   UNL A   1      32.785  25.345  21.288  1.00  0.00     0.002 A 
ATOM     12  C   UNL A   1      32.385  24.886  23.641  1.00  0.00     0.056 A 
ATOM     13  C   UNL A   1      32.357  24.486  22.300  1.00  0.00     0.027 A 
BRANCH  12  14
ATOM     14  N   UNL A   1      31.700  24.152  24.645  1.00  0.00    -0.325 N 
ATOM     15  C   UNL A   1      32.125  23.149  25.480  1.00  0.00     0.227 C 
ATOM     16  H   UNL A   1      30.755  24.406  24.762  1.00  0.00     0.169 HD
ATOM     17  O   UNL A   1      31.285  22.520  26.134  1.00  0.00    -0.275 OA
BRANCH  15  18
ATOM     18  C   UNL A   1      33.583  22.772  25.617  1.00  0.00     0.132 C 
BRANCH  18  19
ATOM     19  C   UNL A   1      34.164  21.779  24.590  1.00  0.00     0.127 C 
ATOM     20  C   UNL A   1      35.226  20.877  25.240  1.00  0.00     0.033 C 
ATOM     21  O   UNL A   1      34.700  22.301  23.377  1.00  0.00    -0.378 OA
ATOM     22  C   UNL A   1      36.504  21.657  25.537  1.00  0.00     0.005 C 
ATOM     23  C   UNL A   1      35.910  23.036  23.484  1.00  0.00     0.160 C 
ATOM     24  C   UNL A   1      37.011  22.354  24.283  1.00  0.00     0.029 C 
ENDBRANCH  18  19
ENDBRANCH  15  18
ENDBRANCH  12  14
ENDBRANCH   5   7
ENDBRANCH   4   5
ENDBRANCH   3   4
ENDBRANCH   2   3
ENDBRANCH   1   2
BRANCH   1  25
ATOM     25  C   UNL A   1      33.163  30.088  26.656  1.00  0.00     0.202 C 
BRANCH  25  26
ATOM     26  C   UNL A   1      33.404  31.457  27.292  1.00  0.00     0.261 C 
BRANCH  26  27
ATOM     27  O   UNL A   1      34.817  31.647  27.540  1.00  0.00    -0.460 OA
BRANCH  27  28
ATOM     28  C   UNL A   1      35.244  31.423  28.818  1.00  0.00     0.338 C 
ATOM     29  O   UNL A   1      34.966  32.122  29.777  1.00  0.00    -0.246 OA
BRANCH  28  30
ATOM     30  C   UNL A   1      36.218  30.288  28.855  1.00  0.00     0.060 A 
ATOM     31  C   UNL A   1      36.462  29.582  30.051  1.00  0.00     0.016 A 
ATOM     32  C   UNL A   1      37.083  30.135  27.776  1.00  0.00     0.016 A 
ATOM     33  C   UNL A   1      37.659  28.862  30.219  1.00  0.00     0.010 A 
ATOM     34  C   UNL A   1      38.300  29.526  27.987  1.00  0.00     0.010 A 
ATOM     35  C   UNL A   1      38.619  28.916  29.213  1.00  0.00    -0.014 A 
BRANCH  35  36
ATOM     36  C   UNL A   1      40.025  28.499  29.307  1.00  0.00     0.031 A 
ATOM     37  C   UNL A   1      40.356  27.123  28.870  1.00  0.00     0.074 A 
ATOM     38  C   UNL A   1      41.014  29.418  29.453  1.00  0.00     0.049 A 
ATOM     39  N   UNL A   1      41.535  26.625  28.932  1.00  0.00    -0.248 NA
ATOM     40  C   UNL A   1      39.382  26.162  28.346  1.00  0.00     0.031 C 
ATOM     41  C   UNL A   1      42.411  29.349  29.014  1.00  0.00     0.029 A 
ATOM     42  N   UNL A   1      40.953  30.679  30.048  1.00  0.00    -0.354 N 
ATOM     43  C   UNL A   1      41.558  25.476  28.182  1.00  0.00     0.074 A 
ATOM     44  C   UNL A   1      40.175  25.161  27.951  1.00  0.00     0.031 C 
ATOM     45  C   UNL A   1      43.116  30.354  29.569  1.00  0.00     0.029 A 
ATOM     46  C   UNL A   1      42.230  31.049  30.488  1.00  0.00     0.049 A 
ATOM     47  H   UNL A   1      40.139  31.224  30.146  1.00  0.00     0.167 HD
ATOM     48  C   UNL A   1      42.772  25.021  27.767  1.00  0.00     0.034 A 
ATOM     49  C   UNL A   1      42.429  31.330  31.803  1.00  0.00     0.034 A 
ATOM     50  C   UNL A   1      43.846  25.777  28.433  1.00  0.00     0.049 A 
ATOM     51  C   UNL A   1      43.261  30.187  32.341  1.00  0.00     0.074 A 
ATOM     52  C   UNL A   1      44.766  26.720  28.014  1.00  0.00     0.029 A 
ATOM     53  N   UNL A   1      43.850  25.827  29.829  1.00  0.00    -0.354 N 
ATOM     54  N   UNL A   1      43.314  29.017  31.755  1.00  0.00    -0.248 NA
ATOM     55  C   UNL A   1      44.219  30.308  33.432  1.00  0.00     0.031 C 
ATOM     56  C   UNL A   1      45.221  27.422  29.176  1.00  0.00     0.029 A 
ATOM     57  C   UNL A   1      44.614  26.876  30.300  1.00  0.00     0.049 A 
ATOM     58  H   UNL A   1      43.367  25.193  30.406  1.00  0.00     0.167 HD
ATOM     59  C   UNL A   1      44.354  28.300  32.255  1.00  0.00     0.074 A 
ATOM     60  C   UNL A   1      44.857  29.126  33.345  1.00  0.00     0.031 C 
ATOM     61  C   UNL A   1      44.756  27.099  31.738  1.00  0.00     0.034 A 
BRANCH  48  62
ATOM     62  C   UNL A   1      43.022  24.008  26.668  1.00  0.00     0.023 A 
ATOM     63  C   UNL A   1      42.606  22.676  26.878  1.00  0.00     0.031 A 
ATOM     64  C   UNL A   1      43.719  24.229  25.457  1.00  0.00     0.131 A 
ATOM     65  C   UNL A   1      42.869  21.660  25.938  1.00  0.00     0.055 A 
ATOM     66  C   UNL A   1      43.937  23.228  24.500  1.00  0.00     0.041 A 
ATOM     67  F   UNL A   1      44.273  25.404  25.145  1.00  0.00    -0.206 F 
ATOM     68  C   UNL A   1      43.516  21.933  24.737  1.00  0.00     0.022 A 
BRANCH  65  69
ATOM     69  S   UNL A   1      42.389  19.956  26.324  1.00  0.00     0.124 S 
ATOM     70  O   UNL A   1      42.118  20.031  27.757  1.00  0.00    -0.237 OA
ATOM     71  O   UNL A   1      41.235  19.755  25.457  1.00  0.00    -0.237 OA
ATOM     72  O   UNL A   1      43.574  19.178  25.963  1.00  0.00    -0.744 OA
ENDBRANCH  65  69
ENDBRANCH  48  62
BRANCH  49  73
ATOM     73  C   UNL A   1      41.239  32.049  32.392  1.00  0.00     0.023 A 
ATOM     74  C   UNL A   1      40.271  31.269  33.091  1.00  0.00     0.031 A 
ATOM     75  C   UNL A   1      41.303  33.414  32.716  1.00  0.00     0.131 A 
ATOM     76  C   UNL A   1      39.506  31.824  34.141  1.00  0.00     0.055 A 
ATOM     77  C   UNL A   1      40.546  33.959  33.768  1.00  0.00     0.041 A 
ATOM     78  F   UNL A   1      42.211  34.210  32.133  1.00  0.00    -0.206 F 
ATOM     79  C   UNL A   1      39.673  33.160  34.509  1.00  0.00     0.022 A 
BRANCH  76  80
ATOM     80  S   UNL A   1      38.521  30.742  35.248  1.00  0.00     0.124 S 
ATOM     81  O   UNL A   1      37.905  29.814  34.308  1.00  0.00    -0.237 OA
ATOM     82  O   UNL A   1      39.526  30.167  36.136  1.00  0.00    -0.237 OA
ATOM     83  O   UNL A   1      37.609  31.676  35.908  1.00  0.00    -0.744 OA
ENDBRANCH  76  80
ENDBRANCH  49  73
BRANCH  61  84
ATOM     84  C   UNL A   1      45.379  26.042  32.606  1.00  0.00     0.023 A 
ATOM     85  C   UNL A   1      44.589  25.109  33.285  1.00  0.00     0.031 A 
ATOM     86  C   UNL A   1      46.774  25.843  32.683  1.00  0.00     0.131 A 
ATOM     87  C   UNL A   1      45.159  24.144  34.117  1.00  0.00     0.055 A 
ATOM     88  C   UNL A   1      47.342  24.791  33.405  1.00  0.00     0.041 A 
ATOM     89  F   UNL A   1      47.645  26.640  32.050  1.00  0.00    -0.206 F 
ATOM     90  C   UNL A   1      46.534  23.951  34.158  1.00  0.00     0.022 A 
BRANCH  87  91
ATOM     91  S   UNL A   1      44.043  23.270  35.235  1.00  0.00     0.124 S 
ATOM     92  O   UNL A   1      44.138  24.090  36.443  1.00  0.00    -0.237 OA
ATOM     93  O   UNL A   1      42.768  23.338  34.529  1.00  0.00    -0.237 OA
ATOM     94  O   UNL A   1      44.634  21.940  35.337  1.00  0.00    -0.744 OA
ENDBRANCH  87  91
ENDBRANCH  61  84
ENDBRANCH  35  36
ENDBRANCH  28  30
ENDBRANCH  27  28
ENDBRANCH  26  27
ENDBRANCH  25  26
ENDBRANCH   1  25
TORSDOF 20
ENDMDL
MODEL 3
REMARK VINA RESULT:     -10.8      3.784      9.367
REMARK SMILES Cc1cccc(NC(=O)C[C@@H]2CCCCO2)c1C(=O)OCCOCCOC(=O)c1ccc(-c2c3nc(c(-c4cc(S(=O)(=O)[O-])ccc4F)c4ccc([nH]4)c(-c4cc(S(=O)(=O)[O-])ccc4F)c4nc(c(-c5cc(S(=O)(=O)[O-])ccc5F)c5ccc2[nH]5)C=C4)C=C3)cc1
REMARK SMILES IDX 23 1 22 2 21 3 20 4 18 5 19 6 17 7 1 8 2 9 3 10 4 11 6 12
REMARK SMILES IDX 5 13 7 14 8 15 9 17 10 18 11 19 12 20 16 21 13 22 15 23
REMARK SMILES IDX 14 24 24 25 25 26 26 27 27 28 28 29 29 30 30 31 91 32 31 33
REMARK SMILES IDX 90 34 32 35 33 36 34 37 84 38 35 39 89 40 83 41 85 42 36 43
REMARK SMILES IDX 88 44 82 45 81 46 37 48 69 49 49 50 68 51 50 52 53 53 67 54
REMARK SMILES IDX 86 55 51 56 52 57 66 59 87 60 54 61 38 62 39 63 47 64 40 65
REMARK SMILES IDX 46 66 48 67 45 68 41 69 42 70 43 71 44 72 70 73 71 74 79 75
REMARK SMILES IDX 72 76 78 77 80 78 77 79 73 80 74 81 75 82 76 83 55 84 56 85
REMARK SMILES IDX 64 86 57 87 63 88 65 89 62 90 58 91 59 92 60 93 61 94
REMARK H PARENT 7 16 85 47 53 58
REMARK Flexibility Score: inf
ROOT
ATOM      1  O   UNL A   1      32.880  29.793  24.709  1.00  0.00    -0.374 OA
ENDROOT
BRANCH   1   2
ATOM      2  C   UNL A   1      32.180  28.680  24.175  1.00  0.00     0.202 C 
BRANCH   2   3
ATOM      3  C   UNL A   1      33.226  27.970  23.400  1.00  0.00     0.261 C 
BRANCH   3   4
ATOM      4  O   UNL A   1      33.959  27.074  24.255  1.00  0.00    -0.460 OA
BRANCH   4   5
ATOM      5  C   UNL A   1      33.402  26.215  25.131  1.00  0.00     0.340 C 
ATOM      6  O   UNL A   1      33.364  26.320  26.340  1.00  0.00    -0.246 OA
BRANCH   5   7
ATOM      7  C   UNL A   1      32.852  25.036  24.375  1.00  0.00     0.086 A 
ATOM      8  C   UNL A   1      30.387  25.435  25.118  1.00  0.00     0.045 C 
ATOM      9  C   UNL A   1      31.463  24.709  24.345  1.00  0.00    -0.034 A 
ATOM     10  C   UNL A   1      31.042  23.567  23.651  1.00  0.00     0.004 A 
ATOM     11  C   UNL A   1      31.950  22.779  22.960  1.00  0.00     0.002 A 
ATOM     12  C   UNL A   1      33.788  24.145  23.773  1.00  0.00     0.056 A 
ATOM     13  C   UNL A   1      33.312  23.073  23.008  1.00  0.00     0.027 A 
BRANCH  12  14
ATOM     14  N   UNL A   1      35.171  24.287  24.064  1.00  0.00    -0.325 N 
ATOM     15  C   UNL A   1      36.140  23.352  24.326  1.00  0.00     0.227 C 
ATOM     16  H   UNL A   1      35.489  25.220  24.080  1.00  0.00     0.169 HD
ATOM     17  O   UNL A   1      37.236  23.731  24.756  1.00  0.00    -0.275 OA
BRANCH  15  18
ATOM     18  C   UNL A   1      35.911  21.871  24.128  1.00  0.00     0.132 C 
BRANCH  18  19
ATOM     19  C   UNL A   1      35.846  20.981  25.386  1.00  0.00     0.127 C 
ATOM     20  C   UNL A   1      35.599  19.512  25.007  1.00  0.00     0.033 C 
ATOM     21  O   UNL A   1      34.929  21.339  26.417  1.00  0.00    -0.378 OA
ATOM     22  C   UNL A   1      34.169  19.302  24.518  1.00  0.00     0.005 C 
ATOM     23  C   UNL A   1      33.550  21.177  26.122  1.00  0.00     0.160 C 
ATOM     24  C   UNL A   1      33.170  19.823  25.541  1.00  0.00     0.029 C 
ENDBRANCH  18  19
ENDBRANCH  15  18
ENDBRANCH  12  14
ENDBRANCH   5   7
ENDBRANCH   4   5
ENDBRANCH   3   4
ENDBRANCH   2   3
ENDBRANCH   1   2
BRANCH   1  25
ATOM     25  C   UNL A   1      32.570  30.126  26.036  1.00  0.00     0.202 C 
BRANCH  25  26
ATOM     26  C   UNL A   1      33.748  29.823  26.962  1.00  0.00     0.261 C 
BRANCH  26  27
ATOM     27  O   UNL A   1      34.025  30.970  27.802  1.00  0.00    -0.460 OA
BRANCH  27  28
ATOM     28  C   UNL A   1      35.323  31.394  27.840  1.00  0.00     0.338 C 
ATOM     29  O   UNL A   1      35.696  32.518  27.549  1.00  0.00    -0.246 OA
BRANCH  28  30
ATOM     30  C   UNL A   1      36.239  30.252  28.145  1.00  0.00     0.060 A 
ATOM     31  C   UNL A   1      36.367  29.759  29.460  1.00  0.00     0.016 A 
ATOM     32  C   UNL A   1      37.169  29.884  27.178  1.00  0.00     0.016 A 
ATOM     33  C   UNL A   1      37.516  29.040  29.840  1.00  0.00     0.010 A 
ATOM     34  C   UNL A   1      38.339  29.282  27.582  1.00  0.00     0.010 A 
ATOM     35  C   UNL A   1      38.545  28.886  28.915  1.00  0.00    -0.014 A 
BRANCH  35  36
ATOM     36  C   UNL A   1      39.920  28.445  29.186  1.00  0.00     0.031 A 
ATOM     37  C   UNL A   1      40.222  27.007  29.000  1.00  0.00     0.074 A 
ATOM     38  C   UNL A   1      40.935  29.345  29.264  1.00  0.00     0.049 A 
ATOM     39  N   UNL A   1      41.371  26.490  29.234  1.00  0.00    -0.248 NA
ATOM     40  C   UNL A   1      39.249  26.006  28.558  1.00  0.00     0.031 C 
ATOM     41  C   UNL A   1      42.356  29.162  28.954  1.00  0.00     0.029 A 
ATOM     42  N   UNL A   1      40.885  30.686  29.646  1.00  0.00    -0.354 N 
ATOM     43  C   UNL A   1      41.399  25.235  28.679  1.00  0.00     0.074 A 
ATOM     44  C   UNL A   1      40.025  24.930  28.391  1.00  0.00     0.031 C 
ATOM     45  C   UNL A   1      43.062  30.221  29.398  1.00  0.00     0.029 A 
ATOM     46  C   UNL A   1      42.141  31.082  30.122  1.00  0.00     0.049 A 
ATOM     47  H   UNL A   1      40.091  31.265  29.590  1.00  0.00     0.167 HD
ATOM     48  C   UNL A   1      42.619  24.681  28.439  1.00  0.00     0.034 A 
ATOM     49  C   UNL A   1      42.254  31.565  31.387  1.00  0.00     0.034 A 
ATOM     50  C   UNL A   1      43.673  25.500  29.061  1.00  0.00     0.049 A 
ATOM     51  C   UNL A   1      42.994  30.498  32.164  1.00  0.00     0.074 A 
ATOM     52  C   UNL A   1      44.662  26.335  28.574  1.00  0.00     0.029 A 
ATOM     53  N   UNL A   1      43.577  25.774  30.428  1.00  0.00    -0.354 N 
ATOM     54  N   UNL A   1      43.039  29.247  31.776  1.00  0.00    -0.248 NA
ATOM     55  C   UNL A   1      43.873  30.762  33.296  1.00  0.00     0.031 C 
ATOM     56  C   UNL A   1      45.060  27.200  29.642  1.00  0.00     0.029 A 
ATOM     57  C   UNL A   1      44.349  26.860  30.787  1.00  0.00     0.049 A 
ATOM     58  H   UNL A   1      43.025  25.256  31.057  1.00  0.00     0.167 HD
ATOM     59  C   UNL A   1      44.007  28.588  32.465  1.00  0.00     0.074 A 
ATOM     60  C   UNL A   1      44.463  29.562  33.447  1.00  0.00     0.031 C 
ATOM     61  C   UNL A   1      44.393  27.307  32.178  1.00  0.00     0.034 A 
BRANCH  48  62
ATOM     62  C   UNL A   1      42.906  23.497  27.537  1.00  0.00     0.023 A 
ATOM     63  C   UNL A   1      43.881  23.646  26.527  1.00  0.00     0.031 A 
ATOM     64  C   UNL A   1      42.234  22.254  27.535  1.00  0.00     0.131 A 
ATOM     65  C   UNL A   1      44.152  22.620  25.601  1.00  0.00     0.055 A 
ATOM     66  C   UNL A   1      42.538  21.214  26.644  1.00  0.00     0.041 A 
ATOM     67  F   UNL A   1      41.213  21.981  28.352  1.00  0.00    -0.206 F 
ATOM     68  C   UNL A   1      43.499  21.392  25.667  1.00  0.00     0.022 A 
BRANCH  65  69
ATOM     69  S   UNL A   1      45.349  22.922  24.274  1.00  0.00     0.124 S 
ATOM     70  O   UNL A   1      44.608  22.496  23.090  1.00  0.00    -0.237 OA
ATOM     71  O   UNL A   1      45.599  24.353  24.402  1.00  0.00    -0.237 OA
ATOM     72  O   UNL A   1      46.479  22.065  24.633  1.00  0.00    -0.744 OA
ENDBRANCH  65  69
ENDBRANCH  48  62
BRANCH  49  73
ATOM     73  C   UNL A   1      41.057  32.406  31.759  1.00  0.00     0.023 A 
ATOM     74  C   UNL A   1      39.906  31.735  32.268  1.00  0.00     0.031 A 
ATOM     75  C   UNL A   1      41.199  33.761  32.098  1.00  0.00     0.131 A 
ATOM     76  C   UNL A   1      39.025  32.376  33.167  1.00  0.00     0.055 A 
ATOM     77  C   UNL A   1      40.325  34.391  33.001  1.00  0.00     0.041 A 
ATOM     78  F   UNL A   1      42.272  34.455  31.693  1.00  0.00    -0.206 F 
ATOM     79  C   UNL A   1      39.258  33.692  33.568  1.00  0.00     0.022 A 
BRANCH  76  80
ATOM     80  S   UNL A   1      37.753  31.410  34.072  1.00  0.00     0.124 S 
ATOM     81  O   UNL A   1      38.531  30.303  34.614  1.00  0.00    -0.237 OA
ATOM     82  O   UNL A   1      37.245  32.364  35.053  1.00  0.00    -0.237 OA
ATOM     83  O   UNL A   1      36.791  31.060  33.029  1.00  0.00    -0.744 OA
ENDBRANCH  76  80
ENDBRANCH  49  73
BRANCH  61  84
ATOM     84  C   UNL A   1      44.904  26.384  33.249  1.00  0.00     0.023 A 
ATOM     85  C   UNL A   1      44.103  26.036  34.341  1.00  0.00     0.031 A 
ATOM     86  C   UNL A   1      46.145  25.719  33.155  1.00  0.00     0.131 A 
ATOM     87  C   UNL A   1      44.582  25.204  35.355  1.00  0.00     0.055 A 
ATOM     88  C   UNL A   1      46.565  24.780  34.099  1.00  0.00     0.041 A 
ATOM     89  F   UNL A   1      46.992  25.930  32.139  1.00  0.00    -0.206 F 
ATOM     90  C   UNL A   1      45.796  24.542  35.228  1.00  0.00     0.022 A 
BRANCH  87  91
ATOM     91  S   UNL A   1      43.624  25.151  36.884  1.00  0.00     0.124 S 
ATOM     92  O   UNL A   1      43.312  26.566  37.084  1.00  0.00    -0.237 OA
ATOM     93  O   UNL A   1      42.494  24.304  36.522  1.00  0.00    -0.237 OA
ATOM     94  O   UNL A   1      44.555  24.577  37.851  1.00  0.00    -0.744 OA
ENDBRANCH  87  91
ENDBRANCH  61  84
ENDBRANCH  35  36
ENDBRANCH  28  30
ENDBRANCH  27  28
ENDBRANCH  26  27
ENDBRANCH  25  26
ENDBRANCH   1  25
TORSDOF 20
ENDMDL
