MODEL 1
REMARK VINA RESULT:     -12.3      0.000      0.000
REMARK SMILES O=C(OCCOCCOC(=O)[C@H]1Cc2c([nH]c3ccccc23)[C@H](c2c[nH]c3ccccc23)[NH2+]1)c1ccc(-c2c3nc(c(-c4cc(S(=O)(=O)[O-])ccc4F)c4ccc([nH]4)c(-c4cc(S(=O)(=O)[O-])ccc4F)c4nc(c(-c5cc(S(=O)(=O)[O-])ccc5F)c5ccc2[nH]5)C=C4)C=C3)cc1
REMARK SMILES IDX 5 1 4 2 3 3 2 4 1 5 34 6 35 7 96 8 36 9 95 10 37 11 38 12
REMARK SMILES IDX 39 13 89 14 40 15 94 16 88 17 90 18 41 19 93 20 87 21 86 22
REMARK SMILES IDX 42 24 74 25 54 26 73 27 55 28 58 29 72 30 91 31 56 32 57 33
REMARK SMILES IDX 71 35 92 36 59 37 43 38 44 39 52 40 45 41 51 42 53 43 50 44
REMARK SMILES IDX 46 45 47 46 48 47 49 48 75 49 76 50 84 51 77 52 83 53 85 54
REMARK SMILES IDX 82 55 78 56 79 57 80 58 81 59 60 60 61 61 69 62 62 63 68 64
REMARK SMILES IDX 70 65 67 66 63 67 64 68 65 69 66 70 6 71 7 72 8 73 9 74
REMARK SMILES IDX 10 75 11 76 12 77 13 78 33 79 14 80 23 81 15 84 22 85 16 86
REMARK SMILES IDX 17 87 21 88 18 90 20 91 19 92 24 93 25 94 32 95 26 96 27 97
REMARK SMILES IDX 31 98 28 100 30 101 29 102
REMARK H PARENT 90 23 58 34 33 82 33 83 16 89 26 99
REMARK Flexibility Score: inf
ROOT
ATOM      1  C   UNL A   1      34.112  35.363  28.503  1.00  0.00     0.202 C 
ENDROOT
BRANCH   1   2
ATOM      2  C   UNL A   1      32.980  35.997  29.336  1.00  0.00     0.261 C 
BRANCH   2   3
ATOM      3  O   UNL A   1      32.582  35.180  30.449  1.00  0.00    -0.460 OA
BRANCH   3   4
ATOM      4  C   UNL A   1      33.060  35.240  31.720  1.00  0.00     0.338 C 
ATOM      5  O   UNL A   1      32.465  35.936  32.542  1.00  0.00    -0.246 OA
BRANCH   4   6
ATOM      6  C   UNL A   1      34.295  34.522  32.157  1.00  0.00     0.060 A 
ATOM      7  C   UNL A   1      34.289  33.278  32.775  1.00  0.00     0.016 A 
ATOM      8  C   UNL A   1      35.545  35.095  31.875  1.00  0.00     0.016 A 
ATOM      9  C   UNL A   1      35.432  32.628  33.155  1.00  0.00     0.010 A 
ATOM     10  C   UNL A   1      36.730  34.431  32.226  1.00  0.00     0.010 A 
ATOM     11  C   UNL A   1      36.661  33.193  32.872  1.00  0.00    -0.014 A 
BRANCH  11  12
ATOM     12  C   UNL A   1      37.788  32.467  33.462  1.00  0.00     0.031 A 
ATOM     13  C   UNL A   1      38.480  31.467  32.596  1.00  0.00     0.074 A 
ATOM     14  C   UNL A   1      38.341  32.960  34.587  1.00  0.00     0.049 A 
ATOM     15  N   UNL A   1      39.526  30.736  32.855  1.00  0.00    -0.248 NA
ATOM     16  C   UNL A   1      37.938  31.291  31.236  1.00  0.00     0.031 C 
ATOM     17  C   UNL A   1      37.828  34.116  35.340  1.00  0.00     0.029 A 
ATOM     18  N   UNL A   1      39.487  32.623  35.247  1.00  0.00    -0.354 N 
ATOM     19  C   UNL A   1      39.752  29.993  31.705  1.00  0.00     0.074 A 
ATOM     20  C   UNL A   1      38.734  30.356  30.746  1.00  0.00     0.031 C 
ATOM     21  C   UNL A   1      38.676  34.401  36.339  1.00  0.00     0.029 A 
ATOM     22  C   UNL A   1      39.728  33.394  36.360  1.00  0.00     0.049 A 
ATOM     23  H   UNL A   1      40.084  31.896  34.955  1.00  0.00     0.167 HD
ATOM     24  C   UNL A   1      40.730  29.083  31.491  1.00  0.00     0.034 A 
ATOM     25  C   UNL A   1      40.666  33.252  37.315  1.00  0.00     0.034 A 
ATOM     26  C   UNL A   1      41.703  28.757  32.501  1.00  0.00     0.049 A 
ATOM     27  C   UNL A   1      41.641  32.115  37.131  1.00  0.00     0.074 A 
ATOM     28  C   UNL A   1      42.650  27.753  32.509  1.00  0.00     0.029 A 
ATOM     29  N   UNL A   1      41.846  29.455  33.698  1.00  0.00    -0.354 N 
ATOM     30  N   UNL A   1      41.757  31.288  36.113  1.00  0.00    -0.248 NA
ATOM     31  C   UNL A   1      42.596  31.882  38.214  1.00  0.00     0.031 C 
ATOM     32  C   UNL A   1      43.324  27.807  33.735  1.00  0.00     0.029 A 
ATOM     33  C   UNL A   1      42.855  28.894  34.461  1.00  0.00     0.049 A 
ATOM     34  H   UNL A   1      41.307  30.235  33.964  1.00  0.00     0.167 HD
ATOM     35  C   UNL A   1      42.810  30.439  36.432  1.00  0.00     0.074 A 
ATOM     36  C   UNL A   1      43.315  30.886  37.717  1.00  0.00     0.031 C 
ATOM     37  C   UNL A   1      43.312  29.381  35.742  1.00  0.00     0.034 A 
BRANCH  24  38
ATOM     38  C   UNL A   1      40.677  28.326  30.190  1.00  0.00     0.023 A 
ATOM     39  C   UNL A   1      41.559  28.604  29.130  1.00  0.00     0.031 A 
ATOM     40  C   UNL A   1      39.645  27.399  29.962  1.00  0.00     0.131 A 
ATOM     41  C   UNL A   1      41.342  28.022  27.869  1.00  0.00     0.055 A 
ATOM     42  C   UNL A   1      39.485  26.762  28.730  1.00  0.00     0.041 A 
ATOM     43  F   UNL A   1      38.748  27.127  30.922  1.00  0.00    -0.206 F 
ATOM     44  C   UNL A   1      40.327  27.084  27.670  1.00  0.00     0.022 A 
BRANCH  41  45
ATOM     45  S   UNL A   1      42.302  28.628  26.454  1.00  0.00     0.124 S 
ATOM     46  O   UNL A   1      43.002  29.770  27.040  1.00  0.00    -0.237 OA
ATOM     47  O   UNL A   1      43.131  27.478  26.114  1.00  0.00    -0.237 OA
ATOM     48  O   UNL A   1      41.280  28.974  25.468  1.00  0.00    -0.744 OA
ENDBRANCH  41  45
ENDBRANCH  24  38
BRANCH  25  49
ATOM     49  C   UNL A   1      40.649  34.092  38.551  1.00  0.00     0.023 A 
ATOM     50  C   UNL A   1      39.869  33.754  39.667  1.00  0.00     0.031 A 
ATOM     51  C   UNL A   1      41.361  35.308  38.601  1.00  0.00     0.131 A 
ATOM     52  C   UNL A   1      39.774  34.642  40.753  1.00  0.00     0.055 A 
ATOM     53  C   UNL A   1      41.319  36.153  39.710  1.00  0.00     0.041 A 
ATOM     54  F   UNL A   1      42.113  35.703  37.561  1.00  0.00    -0.206 F 
ATOM     55  C   UNL A   1      40.505  35.832  40.789  1.00  0.00     0.022 A 
BRANCH  52  56
ATOM     56  S   UNL A   1      38.571  34.288  42.067  1.00  0.00     0.124 S 
ATOM     57  O   UNL A   1      37.809  33.190  41.485  1.00  0.00    -0.237 OA
ATOM     58  O   UNL A   1      39.442  33.943  43.186  1.00  0.00    -0.237 OA
ATOM     59  O   UNL A   1      37.843  35.547  42.209  1.00  0.00    -0.744 OA
ENDBRANCH  52  56
ENDBRANCH  25  49
BRANCH  37  60
ATOM     60  C   UNL A   1      44.487  28.682  36.370  1.00  0.00     0.023 A 
ATOM     61  C   UNL A   1      44.313  27.608  37.257  1.00  0.00     0.031 A 
ATOM     62  C   UNL A   1      45.795  29.114  36.090  1.00  0.00     0.131 A 
ATOM     63  C   UNL A   1      45.427  27.046  37.892  1.00  0.00     0.055 A 
ATOM     64  C   UNL A   1      46.904  28.502  36.669  1.00  0.00     0.041 A 
ATOM     65  F   UNL A   1      46.012  30.138  35.248  1.00  0.00    -0.206 F 
ATOM     66  C   UNL A   1      46.723  27.474  37.589  1.00  0.00     0.022 A 
BRANCH  63  67
ATOM     67  S   UNL A   1      45.149  25.831  39.207  1.00  0.00     0.124 S 
ATOM     68  O   UNL A   1      44.617  24.695  38.461  1.00  0.00    -0.237 OA
ATOM     69  O   UNL A   1      46.487  25.658  39.761  1.00  0.00    -0.237 OA
ATOM     70  O   UNL A   1      44.193  26.497  40.089  1.00  0.00    -0.744 OA
ENDBRANCH  63  67
ENDBRANCH  37  60
ENDBRANCH  11  12
ENDBRANCH   4   6
ENDBRANCH   3   4
ENDBRANCH   2   3
ENDBRANCH   1   2
BRANCH   1  71
ATOM     71  O   UNL A   1      33.911  34.056  27.958  1.00  0.00    -0.374 OA
BRANCH  71  72
ATOM     72  C   UNL A   1      34.489  32.959  28.670  1.00  0.00     0.202 C 
BRANCH  72  73
ATOM     73  C   UNL A   1      34.848  31.819  27.722  1.00  0.00     0.261 C 
BRANCH  73  74
ATOM     74  O   UNL A   1      33.731  30.920  27.701  1.00  0.00    -0.459 OA
BRANCH  74  75
ATOM     75  C   UNL A   1      34.027  29.686  27.219  1.00  0.00     0.365 C 
ATOM     76  O   UNL A   1      35.092  29.099  27.398  1.00  0.00    -0.245 OA
BRANCH  75  77
ATOM     77  C   UNL A   1      32.902  29.118  26.365  1.00  0.00     0.298 C 
ATOM     78  C   UNL A   1      32.062  30.199  25.648  1.00  0.00     0.115 C 
ATOM     79  N   UNL A   1      33.487  28.098  25.456  1.00  0.00    -0.323 N 
ATOM     80  C   UNL A   1      31.169  29.562  24.659  1.00  0.00    -0.006 A 
ATOM     81  C   UNL A   1      32.464  27.336  24.737  1.00  0.00     0.264 C 
ATOM     82  H   UNL A   1      34.049  27.451  26.008  1.00  0.00     0.347 HD
ATOM     83  H   UNL A   1      34.053  28.589  24.763  1.00  0.00     0.347 HD
ATOM     84  C   UNL A   1      31.376  28.261  24.254  1.00  0.00     0.083 A 
ATOM     85  C   UNL A   1      29.997  30.060  24.038  1.00  0.00     0.003 A 
ATOM     86  N   UNL A   1      30.435  27.994  23.295  1.00  0.00    -0.353 N 
ATOM     87  C   UNL A   1      29.574  29.067  23.155  1.00  0.00     0.046 A 
ATOM     88  C   UNL A   1      29.254  31.254  24.142  1.00  0.00     0.010 A 
ATOM     89  H   UNL A   1      30.381  27.158  22.778  1.00  0.00     0.166 HD
ATOM     90  C   UNL A   1      28.455  29.236  22.330  1.00  0.00     0.026 A 
ATOM     91  C   UNL A   1      28.115  31.421  23.347  1.00  0.00     0.001 A 
ATOM     92  C   UNL A   1      27.732  30.431  22.446  1.00  0.00     0.002 A 
BRANCH  81  93
ATOM     93  C   UNL A   1      31.971  26.130  25.527  1.00  0.00     0.041 A 
ATOM     94  C   UNL A   1      30.628  25.966  25.844  1.00  0.00     0.093 A 
ATOM     95  C   UNL A   1      32.633  24.933  26.039  1.00  0.00     0.009 A 
ATOM     96  N   UNL A   1      30.462  24.801  26.530  1.00  0.00    -0.361 N 
ATOM     97  C   UNL A   1      31.660  24.154  26.674  1.00  0.00     0.046 A 
ATOM     98  C   UNL A   1      33.943  24.390  26.035  1.00  0.00     0.011 A 
ATOM     99  H   UNL A   1      29.600  24.470  26.874  1.00  0.00     0.166 HD
ATOM    100  C   UNL A   1      31.934  22.930  27.307  1.00  0.00     0.026 A 
ATOM    101  C   UNL A   1      34.246  23.187  26.685  1.00  0.00     0.001 A 
ATOM    102  C   UNL A   1      33.249  22.466  27.316  1.00  0.00     0.002 A 
ENDBRANCH  81  93
ENDBRANCH  75  77
ENDBRANCH  74  75
ENDBRANCH  73  74
ENDBRANCH  72  73
ENDBRANCH  71  72
ENDBRANCH   1  71
TORSDOF 18
ENDMDL
MODEL 2
REMARK VINA RESULT:     -12.3      3.447     10.257
REMARK SMILES O=C(OCCOCCOC(=O)[C@H]1Cc2c([nH]c3ccccc23)[C@H](c2c[nH]c3ccccc23)[NH2+]1)c1ccc(-c2c3nc(c(-c4cc(S(=O)(=O)[O-])ccc4F)c4ccc([nH]4)c(-c4cc(S(=O)(=O)[O-])ccc4F)c4nc(c(-c5cc(S(=O)(=O)[O-])ccc5F)c5ccc2[nH]5)C=C4)C=C3)cc1
REMARK SMILES IDX 5 1 4 2 3 3 2 4 1 5 34 6 35 7 96 8 36 9 95 10 37 11 38 12
REMARK SMILES IDX 39 13 89 14 40 15 94 16 88 17 90 18 41 19 93 20 87 21 86 22
REMARK SMILES IDX 42 24 74 25 54 26 73 27 55 28 58 29 72 30 91 31 56 32 57 33
REMARK SMILES IDX 71 35 92 36 59 37 43 38 44 39 52 40 45 41 51 42 53 43 50 44
REMARK SMILES IDX 46 45 47 46 48 47 49 48 75 49 76 50 84 51 77 52 83 53 85 54
REMARK SMILES IDX 82 55 78 56 79 57 80 58 81 59 60 60 61 61 69 62 62 63 68 64
REMARK SMILES IDX 70 65 67 66 63 67 64 68 65 69 66 70 6 71 7 72 8 73 9 74
REMARK SMILES IDX 10 75 11 76 12 77 13 78 33 79 14 80 23 81 15 84 22 85 16 86
REMARK SMILES IDX 17 87 21 88 18 90 20 91 19 92 24 93 25 94 32 95 26 96 27 97
REMARK SMILES IDX 31 98 28 100 30 101 29 102
REMARK H PARENT 90 23 58 34 33 82 33 83 16 89 26 99
REMARK Flexibility Score: inf
ROOT
ATOM      1  C   UNL A   1      42.526  20.497  26.119  1.00  0.00     0.202 C 
ENDROOT
BRANCH   1   2
ATOM      2  C   UNL A   1      43.527  21.483  25.484  1.00  0.00     0.261 C 
BRANCH   2   3
ATOM      3  O   UNL A   1      42.903  22.690  25.019  1.00  0.00    -0.460 OA
BRANCH   3   4
ATOM      4  C   UNL A   1      43.357  23.961  25.181  1.00  0.00     0.338 C 
ATOM      5  O   UNL A   1      44.146  24.416  24.353  1.00  0.00    -0.246 OA
BRANCH   4   6
ATOM      6  C   UNL A   1      42.965  24.822  26.337  1.00  0.00     0.060 A 
ATOM      7  C   UNL A   1      42.317  24.347  27.470  1.00  0.00     0.016 A 
ATOM      8  C   UNL A   1      43.325  26.179  26.322  1.00  0.00     0.016 A 
ATOM      9  C   UNL A   1      41.980  25.148  28.528  1.00  0.00     0.010 A 
ATOM     10  C   UNL A   1      43.018  27.011  27.409  1.00  0.00     0.010 A 
ATOM     11  C   UNL A   1      42.339  26.482  28.511  1.00  0.00    -0.014 A 
BRANCH  11  12
ATOM     12  C   UNL A   1      41.788  27.250  29.631  1.00  0.00     0.031 A 
ATOM     13  C   UNL A   1      42.622  27.340  30.867  1.00  0.00     0.074 A 
ATOM     14  C   UNL A   1      40.763  28.086  29.383  1.00  0.00     0.049 A 
ATOM     15  N   UNL A   1      42.393  27.994  31.969  1.00  0.00    -0.248 NA
ATOM     16  C   UNL A   1      43.910  26.622  30.844  1.00  0.00     0.031 C 
ATOM     17  C   UNL A   1      40.071  28.210  28.091  1.00  0.00     0.029 A 
ATOM     18  N   UNL A   1      40.179  29.045  30.159  1.00  0.00    -0.354 N 
ATOM     19  C   UNL A   1      43.491  27.746  32.781  1.00  0.00     0.074 A 
ATOM     20  C   UNL A   1      44.385  26.878  32.050  1.00  0.00     0.031 C 
ATOM     21  C   UNL A   1      39.178  29.207  28.164  1.00  0.00     0.029 A 
ATOM     22  C   UNL A   1      39.161  29.721  29.526  1.00  0.00     0.049 A 
ATOM     23  H   UNL A   1      40.458  29.235  31.084  1.00  0.00     0.167 HD
ATOM     24  C   UNL A   1      43.709  28.207  34.034  1.00  0.00     0.034 A 
ATOM     25  C   UNL A   1      38.283  30.611  30.024  1.00  0.00     0.034 A 
ATOM     26  C   UNL A   1      42.764  29.057  34.710  1.00  0.00     0.049 A 
ATOM     27  C   UNL A   1      38.453  30.976  31.478  1.00  0.00     0.074 A 
ATOM     28  C   UNL A   1      42.752  29.476  36.025  1.00  0.00     0.029 A 
ATOM     29  N   UNL A   1      41.648  29.623  34.097  1.00  0.00    -0.354 N 
ATOM     30  N   UNL A   1      39.402  30.608  32.313  1.00  0.00    -0.248 NA
ATOM     31  C   UNL A   1      37.441  31.858  32.061  1.00  0.00     0.031 C 
ATOM     32  C   UNL A   1      41.599  30.245  36.221  1.00  0.00     0.029 A 
ATOM     33  C   UNL A   1      40.931  30.375  35.011  1.00  0.00     0.049 A 
ATOM     34  H   UNL A   1      41.404  29.504  33.151  1.00  0.00     0.167 HD
ATOM     35  C   UNL A   1      39.104  31.225  33.522  1.00  0.00     0.074 A 
ATOM     36  C   UNL A   1      37.911  32.018  33.288  1.00  0.00     0.031 C 
ATOM     37  C   UNL A   1      39.741  31.141  34.720  1.00  0.00     0.034 A 
BRANCH  24  38
ATOM     38  C   UNL A   1      44.931  27.684  34.743  1.00  0.00     0.023 A 
ATOM     39  C   UNL A   1      44.995  26.373  35.249  1.00  0.00     0.031 A 
ATOM     40  C   UNL A   1      45.999  28.552  35.027  1.00  0.00     0.131 A 
ATOM     41  C   UNL A   1      46.065  25.996  36.079  1.00  0.00     0.055 A 
ATOM     42  C   UNL A   1      47.100  28.146  35.784  1.00  0.00     0.041 A 
ATOM     43  F   UNL A   1      45.973  29.827  34.607  1.00  0.00    -0.206 F 
ATOM     44  C   UNL A   1      47.129  26.865  36.328  1.00  0.00     0.022 A 
BRANCH  41  45
ATOM     45  S   UNL A   1      45.967  24.412  36.958  1.00  0.00     0.124 S 
ATOM     46  O   UNL A   1      47.295  23.853  36.707  1.00  0.00    -0.237 OA
ATOM     47  O   UNL A   1      45.698  24.824  38.330  1.00  0.00    -0.237 OA
ATOM     48  O   UNL A   1      44.870  23.714  36.290  1.00  0.00    -0.744 OA
ENDBRANCH  41  45
ENDBRANCH  24  38
BRANCH  25  49
ATOM     49  C   UNL A   1      37.128  31.100  29.211  1.00  0.00     0.023 A 
ATOM     50  C   UNL A   1      36.117  30.234  28.764  1.00  0.00     0.031 A 
ATOM     51  C   UNL A   1      37.061  32.445  28.795  1.00  0.00     0.131 A 
ATOM     52  C   UNL A   1      35.125  30.707  27.887  1.00  0.00     0.055 A 
ATOM     53  C   UNL A   1      36.035  32.925  27.982  1.00  0.00     0.041 A 
ATOM     54  F   UNL A   1      38.005  33.324  29.171  1.00  0.00    -0.206 F 
ATOM     55  C   UNL A   1      35.068  32.049  27.506  1.00  0.00     0.022 A 
BRANCH  52  56
ATOM     56  S   UNL A   1      33.981  29.512  27.139  1.00  0.00     0.124 S 
ATOM     57  O   UNL A   1      33.034  30.390  26.462  1.00  0.00    -0.237 OA
ATOM     58  O   UNL A   1      34.871  28.741  26.277  1.00  0.00    -0.237 OA
ATOM     59  O   UNL A   1      33.446  28.788  28.290  1.00  0.00    -0.744 OA
ENDBRANCH  52  56
ENDBRANCH  25  49
BRANCH  37  60
ATOM     60  C   UNL A   1      39.160  31.968  35.835  1.00  0.00     0.023 A 
ATOM     61  C   UNL A   1      38.452  31.377  36.893  1.00  0.00     0.031 A 
ATOM     62  C   UNL A   1      39.302  33.366  35.822  1.00  0.00     0.131 A 
ATOM     63  C   UNL A   1      37.847  32.188  37.861  1.00  0.00     0.055 A 
ATOM     64  C   UNL A   1      38.760  34.163  36.828  1.00  0.00     0.041 A 
ATOM     65  F   UNL A   1      39.970  33.977  34.830  1.00  0.00    -0.206 F 
ATOM     66  C   UNL A   1      38.013  33.576  37.846  1.00  0.00     0.022 A 
BRANCH  63  67
ATOM     67  S   UNL A   1      36.743  31.412  39.070  1.00  0.00     0.124 S 
ATOM     68  O   UNL A   1      36.513  30.101  38.472  1.00  0.00    -0.237 OA
ATOM     69  O   UNL A   1      37.552  31.424  40.284  1.00  0.00    -0.237 OA
ATOM     70  O   UNL A   1      35.582  32.298  39.090  1.00  0.00    -0.744 OA
ENDBRANCH  63  67
ENDBRANCH  37  60
ENDBRANCH  11  12
ENDBRANCH   4   6
ENDBRANCH   3   4
ENDBRANCH   2   3
ENDBRANCH   1   2
BRANCH   1  71
ATOM     71  O   UNL A   1      41.131  20.682  25.868  1.00  0.00    -0.374 OA
BRANCH  71  72
ATOM     72  C   UNL A   1      40.336  21.181  26.947  1.00  0.00     0.202 C 
BRANCH  72  73
ATOM     73  C   UNL A   1      39.601  22.455  26.543  1.00  0.00     0.261 C 
BRANCH  73  74
ATOM     74  O   UNL A   1      38.543  22.068  25.656  1.00  0.00    -0.459 OA
BRANCH  74  75
ATOM     75  C   UNL A   1      37.491  22.925  25.648  1.00  0.00     0.365 C 
ATOM     76  O   UNL A   1      37.516  24.071  26.090  1.00  0.00    -0.245 OA
BRANCH  75  77
ATOM     77  C   UNL A   1      36.233  22.284  25.078  1.00  0.00     0.298 C 
ATOM     78  C   UNL A   1      36.183  20.750  25.257  1.00  0.00     0.115 C 
ATOM     79  N   UNL A   1      35.058  23.001  25.640  1.00  0.00    -0.323 N 
ATOM     80  C   UNL A   1      34.838  20.250  24.909  1.00  0.00    -0.006 A 
ATOM     81  C   UNL A   1      33.802  22.607  24.999  1.00  0.00     0.264 C 
ATOM     82  H   UNL A   1      35.193  24.003  25.509  1.00  0.00     0.347 HD
ATOM     83  H   UNL A   1      34.991  22.758  26.630  1.00  0.00     0.347 HD
ATOM     84  C   UNL A   1      33.768  21.113  24.805  1.00  0.00     0.083 A 
ATOM     85  C   UNL A   1      34.413  18.942  24.571  1.00  0.00     0.003 A 
ATOM     86  N   UNL A   1      32.667  20.342  24.543  1.00  0.00    -0.353 N 
ATOM     87  C   UNL A   1      33.034  19.019  24.380  1.00  0.00     0.046 A 
ATOM     88  C   UNL A   1      35.064  17.701  24.406  1.00  0.00     0.010 A 
ATOM     89  H   UNL A   1      31.745  20.682  24.480  1.00  0.00     0.166 HD
ATOM     90  C   UNL A   1      32.263  17.891  24.073  1.00  0.00     0.026 A 
ATOM     91  C   UNL A   1      34.309  16.574  24.066  1.00  0.00     0.001 A 
ATOM     92  C   UNL A   1      32.928  16.668  23.916  1.00  0.00     0.002 A 
BRANCH  81  93
ATOM     93  C   UNL A   1      33.507  23.420  23.744  1.00  0.00     0.041 A 
ATOM     94  C   UNL A   1      33.124  22.811  22.555  1.00  0.00     0.093 A 
ATOM     95  C   UNL A   1      33.464  24.854  23.470  1.00  0.00     0.009 A 
ATOM     96  N   UNL A   1      32.904  23.764  21.607  1.00  0.00    -0.361 N 
ATOM     97  C   UNL A   1      33.110  25.014  22.126  1.00  0.00     0.046 A 
ATOM     98  C   UNL A   1      33.664  26.055  24.196  1.00  0.00     0.011 A 
ATOM     99  H   UNL A   1      32.634  23.579  20.678  1.00  0.00     0.166 HD
ATOM    100  C   UNL A   1      32.989  26.264  21.497  1.00  0.00     0.026 A 
ATOM    101  C   UNL A   1      33.579  27.312  23.583  1.00  0.00     0.001 A 
ATOM    102  C   UNL A   1      33.245  27.413  22.245  1.00  0.00     0.002 A 
ENDBRANCH  81  93
ENDBRANCH  75  77
ENDBRANCH  74  75
ENDBRANCH  73  74
ENDBRANCH  72  73
ENDBRANCH  71  72
ENDBRANCH   1  71
TORSDOF 18
ENDMDL
MODEL 3
REMARK VINA RESULT:     -12.0      6.695     11.740
REMARK SMILES O=C(OCCOCCOC(=O)[C@H]1Cc2c([nH]c3ccccc23)[C@H](c2c[nH]c3ccccc23)[NH2+]1)c1ccc(-c2c3nc(c(-c4cc(S(=O)(=O)[O-])ccc4F)c4ccc([nH]4)c(-c4cc(S(=O)(=O)[O-])ccc4F)c4nc(c(-c5cc(S(=O)(=O)[O-])ccc5F)c5ccc2[nH]5)C=C4)C=C3)cc1
REMARK SMILES IDX 5 1 4 2 3 3 2 4 1 5 34 6 35 7 96 8 36 9 95 10 37 11 38 12
REMARK SMILES IDX 39 13 89 14 40 15 94 16 88 17 90 18 41 19 93 20 87 21 86 22
REMARK SMILES IDX 42 24 74 25 54 26 73 27 55 28 58 29 72 30 91 31 56 32 57 33
REMARK SMILES IDX 71 35 92 36 59 37 43 38 44 39 52 40 45 41 51 42 53 43 50 44
REMARK SMILES IDX 46 45 47 46 48 47 49 48 75 49 76 50 84 51 77 52 83 53 85 54
REMARK SMILES IDX 82 55 78 56 79 57 80 58 81 59 60 60 61 61 69 62 62 63 68 64
REMARK SMILES IDX 70 65 67 66 63 67 64 68 65 69 66 70 6 71 7 72 8 73 9 74
REMARK SMILES IDX 10 75 11 76 12 77 13 78 33 79 14 80 23 81 15 84 22 85 16 86
REMARK SMILES IDX 17 87 21 88 18 90 20 91 19 92 24 93 25 94 32 95 26 96 27 97
REMARK SMILES IDX 31 98 28 100 30 101 29 102
REMARK H PARENT 90 23 58 34 33 82 33 83 16 89 26 99
REMARK Flexibility Score: inf
ROOT
ATOM      1  C   UNL A   1      41.540  19.760  27.632  1.00  0.00     0.202 C 
ENDROOT
BRANCH   1   2
ATOM      2  C   UNL A   1      41.641  19.362  26.146  1.00  0.00     0.261 C 
BRANCH   2   3
ATOM      3  O   UNL A   1      42.994  19.137  25.720  1.00  0.00    -0.460 OA
BRANCH   3   4
ATOM      4  C   UNL A   1      43.759  19.960  24.955  1.00  0.00     0.338 C 
ATOM      5  O   UNL A   1      44.216  19.528  23.897  1.00  0.00    -0.246 OA
BRANCH   4   6
ATOM      6  C   UNL A   1      44.096  21.359  25.356  1.00  0.00     0.060 A 
ATOM      7  C   UNL A   1      44.634  21.702  26.590  1.00  0.00     0.016 A 
ATOM      8  C   UNL A   1      43.926  22.390  24.419  1.00  0.00     0.016 A 
ATOM      9  C   UNL A   1      44.952  22.988  26.935  1.00  0.00     0.010 A 
ATOM     10  C   UNL A   1      44.276  23.711  24.739  1.00  0.00     0.010 A 
ATOM     11  C   UNL A   1      44.788  23.999  26.008  1.00  0.00    -0.014 A 
BRANCH  11  12
ATOM     12  C   UNL A   1      45.024  25.338  26.555  1.00  0.00     0.031 A 
ATOM     13  C   UNL A   1      46.369  25.942  26.315  1.00  0.00     0.074 A 
ATOM     14  C   UNL A   1      43.957  26.067  26.930  1.00  0.00     0.049 A 
ATOM     15  N   UNL A   1      46.813  27.120  26.643  1.00  0.00    -0.248 NA
ATOM     16  C   UNL A   1      47.336  25.114  25.570  1.00  0.00     0.031 C 
ATOM     17  C   UNL A   1      42.568  25.583  26.941  1.00  0.00     0.029 A 
ATOM     18  N   UNL A   1      43.847  27.380  27.290  1.00  0.00    -0.354 N 
ATOM     19  C   UNL A   1      48.118  27.168  26.171  1.00  0.00     0.074 A 
ATOM     20  C   UNL A   1      48.398  25.900  25.538  1.00  0.00     0.031 C 
ATOM     21  C   UNL A   1      41.751  26.596  27.263  1.00  0.00     0.029 A 
ATOM     22  C   UNL A   1      42.558  27.765  27.579  1.00  0.00     0.049 A 
ATOM     23  H   UNL A   1      44.617  27.992  27.337  1.00  0.00     0.167 HD
ATOM     24  C   UNL A   1      48.995  28.193  26.277  1.00  0.00     0.034 A 
ATOM     25  C   UNL A   1      42.106  28.921  28.100  1.00  0.00     0.034 A 
ATOM     26  C   UNL A   1      48.652  29.425  26.939  1.00  0.00     0.049 A 
ATOM     27  C   UNL A   1      43.142  29.986  28.365  1.00  0.00     0.074 A 
ATOM     28  C   UNL A   1      49.463  30.490  27.275  1.00  0.00     0.029 A 
ATOM     29  N   UNL A   1      47.366  29.749  27.364  1.00  0.00    -0.354 N 
ATOM     30  N   UNL A   1      44.426  29.975  28.075  1.00  0.00    -0.248 NA
ATOM     31  C   UNL A   1      42.681  31.205  29.030  1.00  0.00     0.031 C 
ATOM     32  C   UNL A   1      48.680  31.430  27.955  1.00  0.00     0.029 A 
ATOM     33  C   UNL A   1      47.362  30.991  27.974  1.00  0.00     0.049 A 
ATOM     34  H   UNL A   1      46.573  29.177  27.248  1.00  0.00     0.167 HD
ATOM     35  C   UNL A   1      44.926  31.194  28.517  1.00  0.00     0.074 A 
ATOM     36  C   UNL A   1      43.792  31.925  29.053  1.00  0.00     0.031 C 
ATOM     37  C   UNL A   1      46.199  31.669  28.498  1.00  0.00     0.034 A 
BRANCH  24  38
ATOM     38  C   UNL A   1      50.395  27.938  25.784  1.00  0.00     0.023 A 
ATOM     39  C   UNL A   1      50.752  28.111  24.434  1.00  0.00     0.031 A 
ATOM     40  C   UNL A   1      51.355  27.394  26.655  1.00  0.00     0.131 A 
ATOM     41  C   UNL A   1      52.006  27.667  23.981  1.00  0.00     0.055 A 
ATOM     42  C   UNL A   1      52.629  27.031  26.215  1.00  0.00     0.041 A 
ATOM     43  F   UNL A   1      51.056  27.168  27.944  1.00  0.00    -0.206 F 
ATOM     44  C   UNL A   1      52.955  27.152  24.867  1.00  0.00     0.022 A 
BRANCH  41  45
ATOM     45  S   UNL A   1      52.320  27.620  22.195  1.00  0.00     0.124 S 
ATOM     46  O   UNL A   1      53.331  28.666  22.046  1.00  0.00    -0.237 OA
ATOM     47  O   UNL A   1      52.781  26.253  21.987  1.00  0.00    -0.237 OA
ATOM     48  O   UNL A   1      51.018  27.935  21.609  1.00  0.00    -0.744 OA
ENDBRANCH  41  45
ENDBRANCH  24  38
BRANCH  25  49
ATOM     49  C   UNL A   1      40.679  29.080  28.514  1.00  0.00     0.023 A 
ATOM     50  C   UNL A   1      40.282  28.985  29.857  1.00  0.00     0.031 A 
ATOM     51  C   UNL A   1      39.666  29.248  27.548  1.00  0.00     0.131 A 
ATOM     52  C   UNL A   1      38.915  29.000  30.187  1.00  0.00     0.055 A 
ATOM     53  C   UNL A   1      38.316  29.333  27.888  1.00  0.00     0.041 A 
ATOM     54  F   UNL A   1      39.973  29.328  26.243  1.00  0.00    -0.206 F 
ATOM     55  C   UNL A   1      37.931  29.190  29.215  1.00  0.00     0.022 A 
BRANCH  52  56
ATOM     56  S   UNL A   1      38.427  28.634  31.898  1.00  0.00     0.124 S 
ATOM     57  O   UNL A   1      39.403  29.407  32.657  1.00  0.00    -0.237 OA
ATOM     58  O   UNL A   1      37.054  29.125  31.931  1.00  0.00    -0.237 OA
ATOM     59  O   UNL A   1      38.574  27.183  31.990  1.00  0.00    -0.744 OA
ENDBRANCH  52  56
ENDBRANCH  25  49
BRANCH  37  60
ATOM     60  C   UNL A   1      46.393  33.058  29.042  1.00  0.00     0.023 A 
ATOM     61  C   UNL A   1      46.294  34.189  28.216  1.00  0.00     0.031 A 
ATOM     62  C   UNL A   1      46.700  33.245  30.400  1.00  0.00     0.131 A 
ATOM     63  C   UNL A   1      46.574  35.457  28.741  1.00  0.00     0.055 A 
ATOM     64  C   UNL A   1      46.905  34.516  30.933  1.00  0.00     0.041 A 
ATOM     65  F   UNL A   1      46.806  32.194  31.229  1.00  0.00    -0.206 F 
ATOM     66  C   UNL A   1      46.860  35.629  30.098  1.00  0.00     0.022 A 
BRANCH  63  67
ATOM     67  S   UNL A   1      46.675  36.860  27.599  1.00  0.00     0.124 S 
ATOM     68  O   UNL A   1      46.283  36.249  26.333  1.00  0.00    -0.237 OA
ATOM     69  O   UNL A   1      45.719  37.800  28.175  1.00  0.00    -0.237 OA
ATOM     70  O   UNL A   1      48.075  37.269  27.685  1.00  0.00    -0.744 OA
ENDBRANCH  63  67
ENDBRANCH  37  60
ENDBRANCH  11  12
ENDBRANCH   4   6
ENDBRANCH   3   4
ENDBRANCH   2   3
ENDBRANCH   1   2
BRANCH   1  71
ATOM     71  O   UNL A   1      40.617  20.788  28.004  1.00  0.00    -0.374 OA
BRANCH  71  72
ATOM     72  C   UNL A   1      40.898  22.112  27.542  1.00  0.00     0.202 C 
BRANCH  72  73
ATOM     73  C   UNL A   1      40.339  22.334  26.140  1.00  0.00     0.261 C 
BRANCH  73  74
ATOM     74  O   UNL A   1      38.958  21.952  26.172  1.00  0.00    -0.459 OA
BRANCH  74  75
ATOM     75  C   UNL A   1      38.100  22.970  25.905  1.00  0.00     0.365 C 
ATOM     76  O   UNL A   1      38.338  24.159  26.102  1.00  0.00    -0.245 OA
BRANCH  75  77
ATOM     77  C   UNL A   1      36.761  22.469  25.380  1.00  0.00     0.298 C 
ATOM     78  C   UNL A   1      36.616  20.931  25.419  1.00  0.00     0.115 C 
ATOM     79  N   UNL A   1      35.685  23.201  26.100  1.00  0.00    -0.323 N 
ATOM     80  C   UNL A   1      35.217  20.555  25.134  1.00  0.00    -0.006 A 
ATOM     81  C   UNL A   1      34.360  22.953  25.527  1.00  0.00     0.264 C 
ATOM     82  H   UNL A   1      35.881  24.200  26.052  1.00  0.00     0.347 HD
ATOM     83  H   UNL A   1      35.674  22.867  27.064  1.00  0.00     0.347 HD
ATOM     84  C   UNL A   1      34.207  21.490  25.198  1.00  0.00     0.083 A 
ATOM     85  C   UNL A   1      34.676  19.316  24.711  1.00  0.00     0.003 A 
ATOM     86  N   UNL A   1      33.037  20.821  24.954  1.00  0.00    -0.353 N 
ATOM     87  C   UNL A   1      33.296  19.499  24.640  1.00  0.00     0.046 A 
ATOM     88  C   UNL A   1      35.224  18.059  24.379  1.00  0.00     0.010 A 
ATOM     89  H   UNL A   1      32.139  21.223  24.998  1.00  0.00     0.166 HD
ATOM     90  C   UNL A   1      32.427  18.457  24.292  1.00  0.00     0.026 A 
ATOM     91  C   UNL A   1      34.368  17.021  23.997  1.00  0.00     0.001 A 
ATOM     92  C   UNL A   1      32.990  17.216  23.968  1.00  0.00     0.002 A 
BRANCH  81  93
ATOM     93  C   UNL A   1      34.032  23.902  24.381  1.00  0.00     0.041 A 
ATOM     94  C   UNL A   1      33.755  23.433  23.103  1.00  0.00     0.093 A 
ATOM     95  C   UNL A   1      33.856  25.350  24.303  1.00  0.00     0.009 A 
ATOM     96  N   UNL A   1      33.475  24.485  22.283  1.00  0.00    -0.361 N 
ATOM     97  C   UNL A   1      33.537  25.664  22.977  1.00  0.00     0.046 A 
ATOM     98  C   UNL A   1      33.910  26.451  25.195  1.00  0.00     0.011 A 
ATOM     99  H   UNL A   1      33.259  24.407  21.326  1.00  0.00     0.166 HD
ATOM    100  C   UNL A   1      33.316  26.972  22.519  1.00  0.00     0.026 A 
ATOM    101  C   UNL A   1      33.723  27.768  24.755  1.00  0.00     0.001 A 
ATOM    102  C   UNL A   1      33.429  28.024  23.428  1.00  0.00     0.002 A 
ENDBRANCH  81  93
ENDBRANCH  75  77
ENDBRANCH  74  75
ENDBRANCH  73  74
ENDBRANCH  72  73
ENDBRANCH  71  72
ENDBRANCH   1  71
TORSDOF 18
ENDMDL
