MODEL 1
REMARK VINA RESULT:     -11.2      0.000      0.000
REMARK SMILES COC(=O)[C@@H]1CCN(S(=O)(=O)N2CCC(C(=O)OCCOCCOC(=O)c3ccc(-c4c5nc(c(-c6cc(S(=O)(=O)[O-])ccc6F)c6ccc([nH]6)c(-c6cc(S(=O)(=O)[O-])ccc6F)c6nc(c(-c7cc(S(=O)(=O)[O-])ccc7F)c7ccc4[nH]7)C=C6)C=C5)cc3)CC2)C1
REMARK SMILES IDX 20 1 19 2 18 3 16 4 17 5 15 6 12 7 13 8 91 9 14 10 90 11
REMARK SMILES IDX 9 12 10 13 11 14 8 15 5 16 6 17 92 18 7 19 3 20 4 21 2 22
REMARK SMILES IDX 1 23 21 24 22 25 23 26 24 27 25 28 26 29 27 30 28 31 89 32
REMARK SMILES IDX 29 33 88 34 30 35 31 36 32 37 82 38 33 39 87 40 81 41 83 42
REMARK SMILES IDX 34 43 86 44 80 45 79 46 35 48 67 49 47 50 66 51 48 52 51 53
REMARK SMILES IDX 65 54 84 55 49 56 50 57 64 59 85 60 52 61 36 62 37 63 45 64
REMARK SMILES IDX 38 65 44 66 46 67 43 68 39 69 40 70 41 71 42 72 68 73 69 74
REMARK SMILES IDX 77 75 70 76 76 77 78 78 75 79 71 80 72 81 73 82 74 83 53 84
REMARK SMILES IDX 54 85 62 86 55 87 61 88 63 89 60 90 56 91 57 92 58 93 59 94
REMARK H PARENT 83 47 51 58
REMARK Flexibility Score: inf
ROOT
ATOM      1  C   UNL A   1      34.396  32.736  28.621  1.00  0.00     0.202 C 
ENDROOT
BRANCH   1   2
ATOM      2  C   UNL A   1      33.594  31.730  27.793  1.00  0.00     0.261 C 
BRANCH   2   3
ATOM      3  O   UNL A   1      34.436  30.830  27.058  1.00  0.00    -0.463 OA
BRANCH   3   4
ATOM      4  C   UNL A   1      34.609  29.626  27.651  1.00  0.00     0.309 C 
ATOM      5  O   UNL A   1      35.469  29.355  28.483  1.00  0.00    -0.252 OA
BRANCH   4   6
ATOM      6  C   UNL A   1      33.649  28.582  27.158  1.00  0.00     0.102 C 
ATOM      7  N   UNL A   1      31.850  27.094  25.512  1.00  0.00    -0.189 NA
ATOM      8  C   UNL A   1      31.370  27.576  26.827  1.00  0.00     0.104 C 
ATOM      9  C   UNL A   1      33.309  26.974  25.360  1.00  0.00     0.104 C 
ATOM     10  C   UNL A   1      32.144  28.829  27.274  1.00  0.00     0.032 C 
ATOM     11  C   UNL A   1      33.989  28.277  25.707  1.00  0.00     0.032 C 
BRANCH   7  12
ATOM     12  S   UNL A   1      30.885  26.001  24.678  1.00  0.00     0.281 S 
ATOM     13  O   UNL A   1      29.630  25.859  25.374  1.00  0.00    -0.195 OA
ATOM     14  O   UNL A   1      31.691  24.840  24.369  1.00  0.00    -0.195 OA
BRANCH  12  15
ATOM     15  N   UNL A   1      30.559  26.769  23.194  1.00  0.00    -0.188 NA
ATOM     16  C   UNL A   1      29.625  28.984  23.511  1.00  0.00     0.116 C 
ATOM     17  C   UNL A   1      31.130  29.084  23.312  1.00  0.00     0.033 C 
ATOM     18  C   UNL A   1      29.254  27.524  23.227  1.00  0.00     0.118 C 
ATOM     19  C   UNL A   1      31.496  27.775  22.647  1.00  0.00     0.104 C 
BRANCH  16  20
ATOM     20  C   UNL A   1      28.921  29.952  22.596  1.00  0.00     0.310 C 
ATOM     21  O   UNL A   1      28.308  29.655  21.581  1.00  0.00    -0.252 OA
BRANCH  20  22
ATOM     22  O   UNL A   1      29.116  31.225  23.046  1.00  0.00    -0.469 OA
ATOM     23  C   UNL A   1      28.244  32.194  22.465  1.00  0.00     0.282 C 
ENDBRANCH  20  22
ENDBRANCH  16  20
ENDBRANCH  12  15
ENDBRANCH   7  12
ENDBRANCH   4   6
ENDBRANCH   3   4
ENDBRANCH   2   3
ENDBRANCH   1   2
BRANCH   1  24
ATOM     24  O   UNL A   1      33.728  33.441  29.662  1.00  0.00    -0.374 OA
BRANCH  24  25
ATOM     25  C   UNL A   1      34.494  34.285  30.519  1.00  0.00     0.202 C 
BRANCH  25  26
ATOM     26  C   UNL A   1      34.521  33.998  32.027  1.00  0.00     0.261 C 
BRANCH  26  27
ATOM     27  O   UNL A   1      34.742  32.612  32.346  1.00  0.00    -0.460 OA
BRANCH  27  28
ATOM     28  C   UNL A   1      35.907  32.376  33.005  1.00  0.00     0.338 C 
ATOM     29  O   UNL A   1      36.144  32.621  34.176  1.00  0.00    -0.246 OA
BRANCH  28  30
ATOM     30  C   UNL A   1      36.817  31.571  32.169  1.00  0.00     0.060 A 
ATOM     31  C   UNL A   1      37.811  30.834  32.827  1.00  0.00     0.016 A 
ATOM     32  C   UNL A   1      36.771  31.619  30.777  1.00  0.00     0.016 A 
ATOM     33  C   UNL A   1      38.797  30.182  32.094  1.00  0.00     0.010 A 
ATOM     34  C   UNL A   1      37.770  30.969  30.041  1.00  0.00     0.010 A 
ATOM     35  C   UNL A   1      38.808  30.281  30.697  1.00  0.00    -0.014 A 
BRANCH  35  36
ATOM     36  C   UNL A   1      39.991  29.792  29.944  1.00  0.00     0.031 A 
ATOM     37  C   UNL A   1      41.184  30.695  29.792  1.00  0.00     0.074 A 
ATOM     38  C   UNL A   1      40.019  28.543  29.446  1.00  0.00     0.049 A 
ATOM     39  N   UNL A   1      42.300  30.497  29.140  1.00  0.00    -0.248 NA
ATOM     40  C   UNL A   1      41.103  32.001  30.464  1.00  0.00     0.031 C 
ATOM     41  C   UNL A   1      38.945  27.560  29.580  1.00  0.00     0.029 A 
ATOM     42  N   UNL A   1      40.986  27.891  28.722  1.00  0.00    -0.354 N 
ATOM     43  C   UNL A   1      43.054  31.653  29.317  1.00  0.00     0.074 A 
ATOM     44  C   UNL A   1      42.244  32.564  30.099  1.00  0.00     0.031 C 
ATOM     45  C   UNL A   1      39.308  26.431  28.949  1.00  0.00     0.029 A 
ATOM     46  C   UNL A   1      40.617  26.626  28.327  1.00  0.00     0.049 A 
ATOM     47  H   UNL A   1      41.860  28.289  28.508  1.00  0.00     0.167 HD
ATOM     48  C   UNL A   1      44.309  31.923  28.877  1.00  0.00     0.034 A 
ATOM     49  C   UNL A   1      41.246  25.743  27.526  1.00  0.00     0.034 A 
ATOM     50  C   UNL A   1      45.093  31.007  28.085  1.00  0.00     0.049 A 
ATOM     51  C   UNL A   1      42.599  26.103  26.960  1.00  0.00     0.074 A 
ATOM     52  C   UNL A   1      46.374  31.174  27.588  1.00  0.00     0.029 A 
ATOM     53  N   UNL A   1      44.665  29.755  27.657  1.00  0.00    -0.354 N 
ATOM     54  N   UNL A   1      43.302  27.200  27.131  1.00  0.00    -0.248 NA
ATOM     55  C   UNL A   1      43.245  25.104  26.101  1.00  0.00     0.031 C 
ATOM     56  C   UNL A   1      46.687  30.066  26.793  1.00  0.00     0.029 A 
ATOM     57  C   UNL A   1      45.642  29.158  26.872  1.00  0.00     0.049 A 
ATOM     58  H   UNL A   1      43.796  29.350  27.879  1.00  0.00     0.167 HD
ATOM     59  C   UNL A   1      44.488  27.006  26.426  1.00  0.00     0.074 A 
ATOM     60  C   UNL A   1      44.408  25.683  25.842  1.00  0.00     0.031 C 
ATOM     61  C   UNL A   1      45.549  27.842  26.282  1.00  0.00     0.034 A 
BRANCH  48  62
ATOM     62  C   UNL A   1      44.880  33.284  29.202  1.00  0.00     0.023 A 
ATOM     63  C   UNL A   1      44.536  34.429  28.460  1.00  0.00     0.031 A 
ATOM     64  C   UNL A   1      45.811  33.435  30.245  1.00  0.00     0.131 A 
ATOM     65  C   UNL A   1      45.178  35.651  28.718  1.00  0.00     0.055 A 
ATOM     66  C   UNL A   1      46.378  34.673  30.556  1.00  0.00     0.041 A 
ATOM     67  F   UNL A   1      46.201  32.377  30.974  1.00  0.00    -0.206 F 
ATOM     68  C   UNL A   1      46.075  35.787  29.779  1.00  0.00     0.022 A 
BRANCH  65  69
ATOM     69  S   UNL A   1      44.946  37.014  27.545  1.00  0.00     0.124 S 
ATOM     70  O   UNL A   1      46.270  37.106  26.935  1.00  0.00    -0.237 OA
ATOM     71  O   UNL A   1      43.880  36.513  26.685  1.00  0.00    -0.237 OA
ATOM     72  O   UNL A   1      44.582  38.143  28.398  1.00  0.00    -0.744 OA
ENDBRANCH  65  69
ENDBRANCH  48  62
BRANCH  49  73
ATOM     73  C   UNL A   1      40.586  24.453  27.167  1.00  0.00     0.023 A 
ATOM     74  C   UNL A   1      39.389  24.423  26.437  1.00  0.00     0.031 A 
ATOM     75  C   UNL A   1      41.128  23.227  27.595  1.00  0.00     0.131 A 
ATOM     76  C   UNL A   1      38.750  23.197  26.192  1.00  0.00     0.055 A 
ATOM     77  C   UNL A   1      40.522  22.006  27.297  1.00  0.00     0.041 A 
ATOM     78  F   UNL A   1      42.270  23.198  28.302  1.00  0.00    -0.206 F 
ATOM     79  C   UNL A   1      39.318  21.988  26.602  1.00  0.00     0.022 A 
BRANCH  76  80
ATOM     80  S   UNL A   1      37.116  23.209  25.406  1.00  0.00     0.124 S 
ATOM     81  O   UNL A   1      37.467  23.313  23.994  1.00  0.00    -0.237 OA
ATOM     82  O   UNL A   1      36.563  21.929  25.838  1.00  0.00    -0.237 OA
ATOM     83  O   UNL A   1      36.472  24.389  25.979  1.00  0.00    -0.744 OA
ENDBRANCH  76  80
ENDBRANCH  49  73
BRANCH  61  84
ATOM     84  C   UNL A   1      46.733  27.326  25.497  1.00  0.00     0.023 A 
ATOM     85  C   UNL A   1      47.029  27.786  24.203  1.00  0.00     0.031 A 
ATOM     86  C   UNL A   1      47.578  26.350  26.058  1.00  0.00     0.131 A 
ATOM     87  C   UNL A   1      48.102  27.229  23.489  1.00  0.00     0.055 A 
ATOM     88  C   UNL A   1      48.686  25.850  25.370  1.00  0.00     0.041 A 
ATOM     89  F   UNL A   1      47.343  25.867  27.288  1.00  0.00    -0.206 F 
ATOM     90  C   UNL A   1      48.944  26.279  24.072  1.00  0.00     0.022 A 
BRANCH  87  91
ATOM     91  S   UNL A   1      48.319  27.681  21.745  1.00  0.00     0.124 S 
ATOM     92  O   UNL A   1      49.367  28.692  21.823  1.00  0.00    -0.237 OA
ATOM     93  O   UNL A   1      48.701  26.411  21.138  1.00  0.00    -0.237 OA
ATOM     94  O   UNL A   1      47.002  28.181  21.354  1.00  0.00    -0.744 OA
ENDBRANCH  87  91
ENDBRANCH  61  84
ENDBRANCH  35  36
ENDBRANCH  28  30
ENDBRANCH  27  28
ENDBRANCH  26  27
ENDBRANCH  25  26
ENDBRANCH  24  25
ENDBRANCH   1  24
TORSDOF 21
ENDMDL
MODEL 2
REMARK VINA RESULT:     -10.8      2.524      8.372
REMARK SMILES COC(=O)[C@@H]1CCN(S(=O)(=O)N2CCC(C(=O)OCCOCCOC(=O)c3ccc(-c4c5nc(c(-c6cc(S(=O)(=O)[O-])ccc6F)c6ccc([nH]6)c(-c6cc(S(=O)(=O)[O-])ccc6F)c6nc(c(-c7cc(S(=O)(=O)[O-])ccc7F)c7ccc4[nH]7)C=C6)C=C5)cc3)CC2)C1
REMARK SMILES IDX 20 1 19 2 18 3 16 4 17 5 15 6 12 7 13 8 91 9 14 10 90 11
REMARK SMILES IDX 9 12 10 13 11 14 8 15 5 16 6 17 92 18 7 19 3 20 4 21 2 22
REMARK SMILES IDX 1 23 21 24 22 25 23 26 24 27 25 28 26 29 27 30 28 31 89 32
REMARK SMILES IDX 29 33 88 34 30 35 31 36 32 37 82 38 33 39 87 40 81 41 83 42
REMARK SMILES IDX 34 43 86 44 80 45 79 46 35 48 67 49 47 50 66 51 48 52 51 53
REMARK SMILES IDX 65 54 84 55 49 56 50 57 64 59 85 60 52 61 36 62 37 63 45 64
REMARK SMILES IDX 38 65 44 66 46 67 43 68 39 69 40 70 41 71 42 72 68 73 69 74
REMARK SMILES IDX 77 75 70 76 76 77 78 78 75 79 71 80 72 81 73 82 74 83 53 84
REMARK SMILES IDX 54 85 62 86 55 87 61 88 63 89 60 90 56 91 57 92 58 93 59 94
REMARK H PARENT 83 47 51 58
REMARK Flexibility Score: inf
ROOT
ATOM      1  C   UNL A   1      34.325  20.709  25.706  1.00  0.00     0.202 C 
ENDROOT
BRANCH   1   2
ATOM      2  C   UNL A   1      33.570  21.960  25.252  1.00  0.00     0.261 C 
BRANCH   2   3
ATOM      3  O   UNL A   1      33.604  22.133  23.829  1.00  0.00    -0.463 OA
BRANCH   3   4
ATOM      4  C   UNL A   1      34.358  23.179  23.416  1.00  0.00     0.309 C 
ATOM      5  O   UNL A   1      35.471  23.101  22.907  1.00  0.00    -0.252 OA
BRANCH   4   6
ATOM      6  C   UNL A   1      33.716  24.510  23.682  1.00  0.00     0.102 C 
ATOM      7  N   UNL A   1      33.122  27.304  23.650  1.00  0.00    -0.189 NA
ATOM      8  C   UNL A   1      33.386  26.652  24.953  1.00  0.00     0.104 C 
ATOM      9  C   UNL A   1      32.697  26.414  22.556  1.00  0.00     0.104 C 
ATOM     10  C   UNL A   1      34.279  25.412  24.781  1.00  0.00     0.032 C 
ATOM     11  C   UNL A   1      33.684  25.287  22.374  1.00  0.00     0.032 C 
BRANCH   7  12
ATOM     12  S   UNL A   1      32.514  28.869  23.664  1.00  0.00     0.281 S 
ATOM     13  O   UNL A   1      32.340  29.316  22.303  1.00  0.00    -0.195 OA
ATOM     14  O   UNL A   1      33.300  29.645  24.600  1.00  0.00    -0.195 OA
BRANCH  12  15
ATOM     15  N   UNL A   1      30.963  28.717  24.349  1.00  0.00    -0.188 NA
ATOM     16  C   UNL A   1      29.260  29.745  22.963  1.00  0.00     0.116 C 
ATOM     17  C   UNL A   1      29.347  28.258  22.653  1.00  0.00     0.033 C 
ATOM     18  C   UNL A   1      30.151  29.978  24.189  1.00  0.00     0.118 C 
ATOM     19  C   UNL A   1      30.030  27.673  23.870  1.00  0.00     0.104 C 
BRANCH  16  20
ATOM     20  C   UNL A   1      27.825  30.137  23.204  1.00  0.00     0.310 C 
ATOM     21  O   UNL A   1      26.872  29.373  23.225  1.00  0.00    -0.252 OA
BRANCH  20  22
ATOM     22  O   UNL A   1      27.743  31.491  23.346  1.00  0.00    -0.469 OA
ATOM     23  C   UNL A   1      28.153  32.228  22.194  1.00  0.00     0.282 C 
ENDBRANCH  20  22
ENDBRANCH  16  20
ENDBRANCH  12  15
ENDBRANCH   7  12
ENDBRANCH   4   6
ENDBRANCH   3   4
ENDBRANCH   2   3
ENDBRANCH   1   2
BRANCH   1  24
ATOM     24  O   UNL A   1      34.975  19.914  24.719  1.00  0.00    -0.374 OA
BRANCH  24  25
ATOM     25  C   UNL A   1      36.368  19.644  24.865  1.00  0.00     0.202 C 
BRANCH  25  26
ATOM     26  C   UNL A   1      37.379  20.776  24.636  1.00  0.00     0.261 C 
BRANCH  26  27
ATOM     27  O   UNL A   1      37.749  21.472  25.840  1.00  0.00    -0.460 OA
BRANCH  27  28
ATOM     28  C   UNL A   1      39.039  21.275  26.218  1.00  0.00     0.338 C 
ATOM     29  O   UNL A   1      39.733  20.304  25.962  1.00  0.00    -0.246 OA
BRANCH  28  30
ATOM     30  C   UNL A   1      39.593  22.501  26.820  1.00  0.00     0.060 A 
ATOM     31  C   UNL A   1      39.062  23.725  26.390  1.00  0.00     0.016 A 
ATOM     32  C   UNL A   1      40.674  22.466  27.699  1.00  0.00     0.016 A 
ATOM     33  C   UNL A   1      39.644  24.921  26.797  1.00  0.00     0.010 A 
ATOM     34  C   UNL A   1      41.265  23.670  28.100  1.00  0.00     0.010 A 
ATOM     35  C   UNL A   1      40.776  24.901  27.621  1.00  0.00    -0.014 A 
BRANCH  35  36
ATOM     36  C   UNL A   1      41.531  26.159  27.848  1.00  0.00     0.031 A 
ATOM     37  C   UNL A   1      40.860  27.291  28.578  1.00  0.00     0.074 A 
ATOM     38  C   UNL A   1      42.811  26.272  27.453  1.00  0.00     0.049 A 
ATOM     39  N   UNL A   1      41.309  28.490  28.845  1.00  0.00    -0.248 NA
ATOM     40  C   UNL A   1      39.497  27.034  29.066  1.00  0.00     0.031 C 
ATOM     41  C   UNL A   1      43.582  25.223  26.788  1.00  0.00     0.029 A 
ATOM     42  N   UNL A   1      43.687  27.325  27.550  1.00  0.00    -0.354 N 
ATOM     43  C   UNL A   1      40.283  29.135  29.528  1.00  0.00     0.074 A 
ATOM     44  C   UNL A   1      39.174  28.206  29.591  1.00  0.00     0.031 C 
ATOM     45  C   UNL A   1      44.815  25.688  26.526  1.00  0.00     0.029 A 
ATOM     46  C   UNL A   1      44.906  27.081  26.961  1.00  0.00     0.049 A 
ATOM     47  H   UNL A   1      43.465  28.172  27.998  1.00  0.00     0.167 HD
ATOM     48  C   UNL A   1      40.274  30.382  30.065  1.00  0.00     0.034 A 
ATOM     49  C   UNL A   1      45.960  27.898  26.764  1.00  0.00     0.034 A 
ATOM     50  C   UNL A   1      41.384  31.299  29.977  1.00  0.00     0.049 A 
ATOM     51  C   UNL A   1      45.891  29.317  27.276  1.00  0.00     0.074 A 
ATOM     52  C   UNL A   1      41.485  32.583  30.484  1.00  0.00     0.029 A 
ATOM     53  N   UNL A   1      42.584  31.037  29.325  1.00  0.00    -0.354 N 
ATOM     54  N   UNL A   1      44.915  29.919  27.919  1.00  0.00    -0.248 NA
ATOM     55  C   UNL A   1      47.067  30.164  27.043  1.00  0.00     0.031 C 
ATOM     56  C   UNL A   1      42.706  33.125  30.069  1.00  0.00     0.029 A 
ATOM     57  C   UNL A   1      43.414  32.148  29.386  1.00  0.00     0.049 A 
ATOM     58  H   UNL A   1      42.813  30.187  28.885  1.00  0.00     0.167 HD
ATOM     59  C   UNL A   1      45.377  31.204  28.195  1.00  0.00     0.074 A 
ATOM     60  C   UNL A   1      46.721  31.283  27.661  1.00  0.00     0.031 C 
ATOM     61  C   UNL A   1      44.749  32.223  28.838  1.00  0.00     0.034 A 
BRANCH  48  62
ATOM     62  C   UNL A   1      39.000  30.837  30.741  1.00  0.00     0.023 A 
ATOM     63  C   UNL A   1      37.958  31.451  30.024  1.00  0.00     0.031 A 
ATOM     64  C   UNL A   1      38.841  30.688  32.131  1.00  0.00     0.131 A 
ATOM     65  C   UNL A   1      36.844  31.964  30.708  1.00  0.00     0.055 A 
ATOM     66  C   UNL A   1      37.689  31.120  32.792  1.00  0.00     0.041 A 
ATOM     67  F   UNL A   1      39.810  30.133  32.876  1.00  0.00    -0.206 F 
ATOM     68  C   UNL A   1      36.689  31.778  32.083  1.00  0.00     0.022 A 
BRANCH  65  69
ATOM     69  S   UNL A   1      35.684  33.022  29.799  1.00  0.00     0.124 S 
ATOM     70  O   UNL A   1      36.583  33.740  28.899  1.00  0.00    -0.237 OA
ATOM     71  O   UNL A   1      34.795  32.051  29.173  1.00  0.00    -0.237 OA
ATOM     72  O   UNL A   1      35.077  33.842  30.845  1.00  0.00    -0.744 OA
ENDBRANCH  65  69
ENDBRANCH  48  62
BRANCH  49  73
ATOM     73  C   UNL A   1      47.151  27.416  26.005  1.00  0.00     0.023 A 
ATOM     74  C   UNL A   1      48.233  26.804  26.654  1.00  0.00     0.031 A 
ATOM     75  C   UNL A   1      47.239  27.606  24.612  1.00  0.00     0.131 A 
ATOM     76  C   UNL A   1      49.374  26.442  25.920  1.00  0.00     0.055 A 
ATOM     77  C   UNL A   1      48.350  27.189  23.878  1.00  0.00     0.041 A 
ATOM     78  F   UNL A   1      46.234  28.192  23.942  1.00  0.00    -0.206 F 
ATOM     79  C   UNL A   1      49.432  26.615  24.535  1.00  0.00     0.022 A 
BRANCH  76  80
ATOM     80  S   UNL A   1      50.824  25.822  26.816  1.00  0.00     0.124 S 
ATOM     81  O   UNL A   1      50.957  26.808  27.882  1.00  0.00    -0.237 OA
ATOM     82  O   UNL A   1      50.382  24.492  27.223  1.00  0.00    -0.237 OA
ATOM     83  O   UNL A   1      51.882  25.844  25.808  1.00  0.00    -0.744 OA
ENDBRANCH  76  80
ENDBRANCH  49  73
BRANCH  61  84
ATOM     84  C   UNL A   1      45.534  33.498  29.042  1.00  0.00     0.023 A 
ATOM     85  C   UNL A   1      45.558  34.523  28.080  1.00  0.00     0.031 A 
ATOM     86  C   UNL A   1      46.277  33.687  30.223  1.00  0.00     0.131 A 
ATOM     87  C   UNL A   1      46.355  35.660  28.287  1.00  0.00     0.055 A 
ATOM     88  C   UNL A   1      47.011  34.852  30.454  1.00  0.00     0.041 A 
ATOM     89  F   UNL A   1      46.297  32.742  31.176  1.00  0.00    -0.206 F 
ATOM     90  C   UNL A   1      47.064  35.840  29.477  1.00  0.00     0.022 A 
BRANCH  87  91
ATOM     91  S   UNL A   1      46.540  36.854  26.933  1.00  0.00     0.124 S 
ATOM     92  O   UNL A   1      46.882  35.987  25.811  1.00  0.00    -0.237 OA
ATOM     93  O   UNL A   1      45.220  37.474  26.881  1.00  0.00    -0.237 OA
ATOM     94  O   UNL A   1      47.617  37.729  27.393  1.00  0.00    -0.744 OA
ENDBRANCH  87  91
ENDBRANCH  61  84
ENDBRANCH  35  36
ENDBRANCH  28  30
ENDBRANCH  27  28
ENDBRANCH  26  27
ENDBRANCH  25  26
ENDBRANCH  24  25
ENDBRANCH   1  24
TORSDOF 21
ENDMDL
MODEL 3
REMARK VINA RESULT:     -10.6      2.827      8.925
REMARK SMILES COC(=O)[C@@H]1CCN(S(=O)(=O)N2CCC(C(=O)OCCOCCOC(=O)c3ccc(-c4c5nc(c(-c6cc(S(=O)(=O)[O-])ccc6F)c6ccc([nH]6)c(-c6cc(S(=O)(=O)[O-])ccc6F)c6nc(c(-c7cc(S(=O)(=O)[O-])ccc7F)c7ccc4[nH]7)C=C6)C=C5)cc3)CC2)C1
REMARK SMILES IDX 20 1 19 2 18 3 16 4 17 5 15 6 12 7 13 8 91 9 14 10 90 11
REMARK SMILES IDX 9 12 10 13 11 14 8 15 5 16 6 17 92 18 7 19 3 20 4 21 2 22
REMARK SMILES IDX 1 23 21 24 22 25 23 26 24 27 25 28 26 29 27 30 28 31 89 32
REMARK SMILES IDX 29 33 88 34 30 35 31 36 32 37 82 38 33 39 87 40 81 41 83 42
REMARK SMILES IDX 34 43 86 44 80 45 79 46 35 48 67 49 47 50 66 51 48 52 51 53
REMARK SMILES IDX 65 54 84 55 49 56 50 57 64 59 85 60 52 61 36 62 37 63 45 64
REMARK SMILES IDX 38 65 44 66 46 67 43 68 39 69 40 70 41 71 42 72 68 73 69 74
REMARK SMILES IDX 77 75 70 76 76 77 78 78 75 79 71 80 72 81 73 82 74 83 53 84
REMARK SMILES IDX 54 85 62 86 55 87 61 88 63 89 60 90 56 91 57 92 58 93 59 94
REMARK H PARENT 83 47 51 58
REMARK Flexibility Score: inf
ROOT
ATOM      1  C   UNL A   1      34.615  20.618  25.633  1.00  0.00     0.202 C 
ENDROOT
BRANCH   1   2
ATOM      2  C   UNL A   1      33.491  21.438  24.998  1.00  0.00     0.261 C 
BRANCH   2   3
ATOM      3  O   UNL A   1      32.931  20.799  23.843  1.00  0.00    -0.463 OA
BRANCH   3   4
ATOM      4  C   UNL A   1      32.299  21.643  22.995  1.00  0.00     0.309 C 
ATOM      5  O   UNL A   1      31.751  21.325  21.945  1.00  0.00    -0.252 OA
BRANCH   4   6
ATOM      6  C   UNL A   1      32.359  23.078  23.437  1.00  0.00     0.102 C 
ATOM      7  N   UNL A   1      31.901  25.890  23.634  1.00  0.00    -0.189 NA
ATOM      8  C   UNL A   1      33.288  25.412  23.430  1.00  0.00     0.104 C 
ATOM      9  C   UNL A   1      30.959  24.915  24.208  1.00  0.00     0.104 C 
ATOM     10  C   UNL A   1      33.304  24.046  22.724  1.00  0.00     0.032 C 
ATOM     11  C   UNL A   1      30.948  23.643  23.394  1.00  0.00     0.032 C 
BRANCH   7  12
ATOM     12  S   UNL A   1      31.677  27.510  24.016  1.00  0.00     0.281 S 
ATOM     13  O   UNL A   1      30.391  27.668  24.649  1.00  0.00    -0.195 OA
ATOM     14  O   UNL A   1      32.026  28.295  22.851  1.00  0.00    -0.195 OA
BRANCH  12  15
ATOM     15  N   UNL A   1      32.864  27.838  25.191  1.00  0.00    -0.188 NA
ATOM     16  C   UNL A   1      32.473  29.958  26.301  1.00  0.00     0.116 C 
ATOM     17  C   UNL A   1      31.870  28.828  27.122  1.00  0.00     0.033 C 
ATOM     18  C   UNL A   1      33.279  29.288  25.182  1.00  0.00     0.118 C 
ATOM     19  C   UNL A   1      32.589  27.593  26.624  1.00  0.00     0.104 C 
BRANCH  16  20
ATOM     20  C   UNL A   1      33.322  30.838  27.182  1.00  0.00     0.310 C 
ATOM     21  O   UNL A   1      33.011  31.946  27.592  1.00  0.00    -0.252 OA
BRANCH  20  22
ATOM     22  O   UNL A   1      34.520  30.228  27.411  1.00  0.00    -0.469 OA
ATOM     23  C   UNL A   1      35.557  31.112  27.835  1.00  0.00     0.282 C 
ENDBRANCH  20  22
ENDBRANCH  16  20
ENDBRANCH  12  15
ENDBRANCH   7  12
ENDBRANCH   4   6
ENDBRANCH   3   4
ENDBRANCH   2   3
ENDBRANCH   1   2
BRANCH   1  24
ATOM     24  O   UNL A   1      35.439  19.826  24.783  1.00  0.00    -0.374 OA
BRANCH  24  25
ATOM     25  C   UNL A   1      36.855  19.942  24.900  1.00  0.00     0.202 C 
BRANCH  25  26
ATOM     26  C   UNL A   1      37.516  21.310  24.680  1.00  0.00     0.261 C 
BRANCH  26  27
ATOM     27  O   UNL A   1      37.861  21.987  25.902  1.00  0.00    -0.460 OA
BRANCH  27  28
ATOM     28  C   UNL A   1      39.159  21.828  26.274  1.00  0.00     0.338 C 
ATOM     29  O   UNL A   1      39.884  20.884  26.004  1.00  0.00    -0.246 OA
BRANCH  28  30
ATOM     30  C   UNL A   1      39.674  23.065  26.889  1.00  0.00     0.060 A 
ATOM     31  C   UNL A   1      39.157  24.280  26.419  1.00  0.00     0.016 A 
ATOM     32  C   UNL A   1      40.710  23.047  27.821  1.00  0.00     0.016 A 
ATOM     33  C   UNL A   1      39.710  25.485  26.842  1.00  0.00     0.010 A 
ATOM     34  C   UNL A   1      41.272  24.260  28.238  1.00  0.00     0.010 A 
ATOM     35  C   UNL A   1      40.800  25.481  27.721  1.00  0.00    -0.014 A 
BRANCH  35  36
ATOM     36  C   UNL A   1      41.534  26.747  27.972  1.00  0.00     0.031 A 
ATOM     37  C   UNL A   1      42.945  26.885  27.471  1.00  0.00     0.074 A 
ATOM     38  C   UNL A   1      40.932  27.777  28.596  1.00  0.00     0.049 A 
ATOM     39  N   UNL A   1      43.787  27.876  27.617  1.00  0.00    -0.248 NA
ATOM     40  C   UNL A   1      43.479  25.748  26.707  1.00  0.00     0.031 C 
ATOM     41  C   UNL A   1      39.551  27.779  29.075  1.00  0.00     0.029 A 
ATOM     42  N   UNL A   1      41.410  29.018  28.936  1.00  0.00    -0.354 N 
ATOM     43  C   UNL A   1      44.952  27.481  26.968  1.00  0.00     0.074 A 
ATOM     44  C   UNL A   1      44.721  26.142  26.470  1.00  0.00     0.031 C 
ATOM     45  C   UNL A   1      39.295  28.962  29.658  1.00  0.00     0.029 A 
ATOM     46  C   UNL A   1      40.505  29.781  29.635  1.00  0.00     0.049 A 
ATOM     47  H   UNL A   1      42.312  29.331  28.701  1.00  0.00     0.167 HD
ATOM     48  C   UNL A   1      46.104  28.179  26.793  1.00  0.00     0.034 A 
ATOM     49  C   UNL A   1      40.648  30.987  30.222  1.00  0.00     0.034 A 
ATOM     50  C   UNL A   1      46.320  29.507  27.312  1.00  0.00     0.049 A 
ATOM     51  C   UNL A   1      41.973  31.704  30.106  1.00  0.00     0.074 A 
ATOM     52  C   UNL A   1      47.444  30.307  27.194  1.00  0.00     0.029 A 
ATOM     53  N   UNL A   1      45.400  30.230  28.064  1.00  0.00    -0.354 N 
ATOM     54  N   UNL A   1      43.070  31.322  29.492  1.00  0.00    -0.248 NA
ATOM     55  C   UNL A   1      42.075  33.017  30.755  1.00  0.00     0.031 C 
ATOM     56  C   UNL A   1      47.236  31.471  27.941  1.00  0.00     0.029 A 
ATOM     57  C   UNL A   1      45.945  31.447  28.446  1.00  0.00     0.049 A 
ATOM     58  H   UNL A   1      44.493  29.922  28.291  1.00  0.00     0.167 HD
ATOM     59  C   UNL A   1      43.980  32.364  29.655  1.00  0.00     0.074 A 
ATOM     60  C   UNL A   1      43.297  33.393  30.411  1.00  0.00     0.031 C 
ATOM     61  C   UNL A   1      45.261  32.463  29.213  1.00  0.00     0.034 A 
BRANCH  48  62
ATOM     62  C   UNL A   1      47.229  27.487  26.058  1.00  0.00     0.023 A 
ATOM     63  C   UNL A   1      48.186  26.706  26.731  1.00  0.00     0.031 A 
ATOM     64  C   UNL A   1      47.370  27.641  24.667  1.00  0.00     0.131 A 
ATOM     65  C   UNL A   1      49.281  26.179  26.028  1.00  0.00     0.055 A 
ATOM     66  C   UNL A   1      48.412  27.037  23.959  1.00  0.00     0.041 A 
ATOM     67  F   UNL A   1      46.504  28.395  23.970  1.00  0.00    -0.206 F 
ATOM     68  C   UNL A   1      49.385  26.316  24.642  1.00  0.00     0.022 A 
BRANCH  65  69
ATOM     69  S   UNL A   1      50.649  25.456  26.974  1.00  0.00     0.124 S 
ATOM     70  O   UNL A   1      51.593  25.115  25.914  1.00  0.00    -0.237 OA
ATOM     71  O   UNL A   1      51.042  26.554  27.851  1.00  0.00    -0.237 OA
ATOM     72  O   UNL A   1      50.036  24.311  27.644  1.00  0.00    -0.744 OA
ENDBRANCH  65  69
ENDBRANCH  48  62
BRANCH  49  73
ATOM     73  C   UNL A   1      39.528  31.574  31.014  1.00  0.00     0.023 A 
ATOM     74  C   UNL A   1      39.494  31.478  32.414  1.00  0.00     0.031 A 
ATOM     75  C   UNL A   1      38.446  32.203  30.370  1.00  0.00     0.131 A 
ATOM     76  C   UNL A   1      38.383  31.964  33.120  1.00  0.00     0.055 A 
ATOM     77  C   UNL A   1      37.373  32.739  31.082  1.00  0.00     0.041 A 
ATOM     78  F   UNL A   1      38.426  32.318  29.033  1.00  0.00    -0.206 F 
ATOM     79  C   UNL A   1      37.331  32.609  32.465  1.00  0.00     0.022 A 
BRANCH  76  80
ATOM     80  S   UNL A   1      38.287  31.661  34.906  1.00  0.00     0.124 S 
ATOM     81  O   UNL A   1      39.501  32.314  35.383  1.00  0.00    -0.237 OA
ATOM     82  O   UNL A   1      37.028  32.311  35.256  1.00  0.00    -0.237 OA
ATOM     83  O   UNL A   1      38.282  30.203  35.003  1.00  0.00    -0.744 OA
ENDBRANCH  76  80
ENDBRANCH  49  73
BRANCH  61  84
ATOM     84  C   UNL A   1      45.990  33.757  29.496  1.00  0.00     0.023 A 
ATOM     85  C   UNL A   1      45.837  34.894  28.684  1.00  0.00     0.031 A 
ATOM     86  C   UNL A   1      46.862  33.848  30.597  1.00  0.00     0.131 A 
ATOM     87  C   UNL A   1      46.587  36.051  28.949  1.00  0.00     0.055 A 
ATOM     88  C   UNL A   1      47.551  35.024  30.897  1.00  0.00     0.041 A 
ATOM     89  F   UNL A   1      47.054  32.794  31.406  1.00  0.00    -0.206 F 
ATOM     90  C   UNL A   1      47.427  36.130  30.062  1.00  0.00     0.022 A 
BRANCH  87  91
ATOM     91  S   UNL A   1      46.534  37.417  27.756  1.00  0.00     0.124 S 
ATOM     92  O   UNL A   1      45.596  38.337  28.391  1.00  0.00    -0.237 OA
ATOM     93  O   UNL A   1      47.926  37.851  27.716  1.00  0.00    -0.237 OA
ATOM     94  O   UNL A   1      46.048  36.784  26.531  1.00  0.00    -0.744 OA
ENDBRANCH  87  91
ENDBRANCH  61  84
ENDBRANCH  35  36
ENDBRANCH  28  30
ENDBRANCH  27  28
ENDBRANCH  26  27
ENDBRANCH  25  26
ENDBRANCH  24  25
ENDBRANCH   1  24
TORSDOF 21
ENDMDL
