MODEL 1
REMARK VINA RESULT:     -12.7      0.000      0.000
REMARK SMILES CC1(C)Oc2ccc(NC(=O)[C@H]3CC=CC[C@@H]3C(=O)OCCOCCOC(=O)c3ccc(-c4c5nc(c(-c6cc(S(=O)(=O)[O-])ccc6F)c6ccc([nH]6)c(-c6cc(S(=O)(=O)[O-])ccc6F)c6nc(c(-c7cc(S(=O)(=O)[O-])ccc7F)c7ccc4[nH]7)C=C6)C=C5)cc3)cc2NC1=O
REMARK SMILES IDX 24 1 23 2 22 3 21 4 20 5 18 6 19 7 17 8 12 9 13 10 14 11
REMARK SMILES IDX 16 12 15 13 10 14 9 15 11 17 8 18 1 19 2 20 3 21 4 22 95 23
REMARK SMILES IDX 5 24 94 25 96 26 6 27 93 28 7 30 92 31 25 32 26 33 27 34
REMARK SMILES IDX 28 35 29 36 30 37 91 38 31 39 90 40 32 41 33 42 34 43 84 44
REMARK SMILES IDX 35 45 89 46 83 47 85 48 36 49 88 50 82 51 81 52 37 54 69 55
REMARK SMILES IDX 49 56 68 57 50 58 53 59 67 60 86 61 51 62 52 63 66 65 87 66
REMARK SMILES IDX 54 67 38 68 39 69 47 70 40 71 46 72 48 73 45 74 41 75 42 76
REMARK SMILES IDX 43 77 44 78 70 79 71 80 79 81 72 82 78 83 80 84 77 85 73 86
REMARK SMILES IDX 74 87 75 88 76 89 55 90 56 91 64 92 57 93 63 94 65 95 62 96
REMARK SMILES IDX 58 97 59 98 60 99 61 100
REMARK H PARENT 9 16 94 29 85 53 53 64
REMARK Flexibility Score: inf
ROOT
ATOM      1  C   UNL A   1      32.295  28.626  27.113  1.00  0.00     0.202 C 
ENDROOT
BRANCH   1   2
ATOM      2  O   UNL A   1      31.068  27.942  27.364  1.00  0.00    -0.374 OA
BRANCH   2   3
ATOM      3  C   UNL A   1      30.757  26.792  26.578  1.00  0.00     0.202 C 
BRANCH   3   4
ATOM      4  C   UNL A   1      31.834  25.708  26.471  1.00  0.00     0.261 C 
BRANCH   4   5
ATOM      5  O   UNL A   1      31.347  24.441  26.938  1.00  0.00    -0.463 OA
BRANCH   5   6
ATOM      6  C   UNL A   1      31.621  23.388  26.134  1.00  0.00     0.310 C 
ATOM      7  O   UNL A   1      30.952  22.359  26.075  1.00  0.00    -0.252 OA
BRANCH   6   8
ATOM      8  C   UNL A   1      32.754  23.646  25.156  1.00  0.00     0.116 C 
ATOM      9  C   UNL A   1      32.210  23.493  23.734  1.00  0.00     0.097 C 
ATOM     10  C   UNL A   1      32.135  21.964  23.423  1.00  0.00     0.041 C 
ATOM     11  C   UNL A   1      33.296  21.148  23.935  1.00  0.00    -0.030 C 
ATOM     12  C   UNL A   1      34.113  22.986  25.361  1.00  0.00     0.043 C 
ATOM     13  C   UNL A   1      34.204  21.617  24.798  1.00  0.00    -0.030 C 
BRANCH   9  14
ATOM     14  C   UNL A   1      32.925  24.272  22.618  1.00  0.00     0.228 C 
ATOM     15  N   UNL A   1      32.805  25.605  22.349  1.00  0.00    -0.326 N 
ATOM     16  H   UNL A   1      33.378  25.882  21.598  1.00  0.00     0.169 HD
ATOM     17  O   UNL A   1      33.678  23.671  21.837  1.00  0.00    -0.274 OA
BRANCH  15  18
ATOM     18  C   UNL A   1      32.072  26.680  22.874  1.00  0.00     0.043 A 
ATOM     19  C   UNL A   1      27.743  31.263  23.531  1.00  0.00     0.067 C 
ATOM     20  C   UNL A   1      28.432  30.068  22.864  1.00  0.00     0.182 C 
ATOM     21  C   UNL A   1      28.308  30.228  21.333  1.00  0.00     0.067 C 
ATOM     22  O   UNL A   1      29.810  30.140  23.266  1.00  0.00    -0.476 OA
ATOM     23  C   UNL A   1      27.715  28.742  23.211  1.00  0.00     0.268 C 
ATOM     24  C   UNL A   1      30.490  28.953  23.259  1.00  0.00     0.144 A 
ATOM     25  N   UNL A   1      28.496  27.625  23.029  1.00  0.00    -0.319 N 
ATOM     26  O   UNL A   1      26.526  28.642  23.500  1.00  0.00    -0.270 OA
ATOM     27  C   UNL A   1      31.848  28.989  23.558  1.00  0.00     0.051 A 
ATOM     28  C   UNL A   1      29.889  27.724  23.003  1.00  0.00     0.086 A 
ATOM     29  H   UNL A   1      28.068  26.745  22.915  1.00  0.00     0.170 HD
ATOM     30  C   UNL A   1      32.627  27.829  23.432  1.00  0.00     0.030 A 
ATOM     31  C   UNL A   1      30.675  26.591  22.785  1.00  0.00     0.056 A 
ENDBRANCH  15  18
ENDBRANCH   9  14
ENDBRANCH   6   8
ENDBRANCH   5   6
ENDBRANCH   4   5
ENDBRANCH   3   4
ENDBRANCH   2   3
ENDBRANCH   1   2
BRANCH   1  32
ATOM     32  C   UNL A   1      32.319  30.157  27.250  1.00  0.00     0.261 C 
BRANCH  32  33
ATOM     33  O   UNL A   1      33.553  30.731  26.780  1.00  0.00    -0.460 OA
BRANCH  33  34
ATOM     34  C   UNL A   1      34.142  31.627  27.611  1.00  0.00     0.338 C 
ATOM     35  O   UNL A   1      33.617  32.587  28.139  1.00  0.00    -0.246 OA
BRANCH  34  36
ATOM     36  C   UNL A   1      35.487  31.133  27.973  1.00  0.00     0.060 A 
ATOM     37  C   UNL A   1      36.531  32.007  28.275  1.00  0.00     0.016 A 
ATOM     38  C   UNL A   1      35.667  29.748  28.077  1.00  0.00     0.016 A 
ATOM     39  C   UNL A   1      37.754  31.486  28.714  1.00  0.00     0.010 A 
ATOM     40  C   UNL A   1      36.890  29.231  28.500  1.00  0.00     0.010 A 
ATOM     41  C   UNL A   1      37.934  30.097  28.850  1.00  0.00    -0.014 A 
BRANCH  41  42
ATOM     42  C   UNL A   1      39.133  29.536  29.524  1.00  0.00     0.031 A 
ATOM     43  C   UNL A   1      39.917  28.407  28.926  1.00  0.00     0.074 A 
ATOM     44  C   UNL A   1      39.446  30.005  30.748  1.00  0.00     0.049 A 
ATOM     45  N   UNL A   1      40.965  27.794  29.410  1.00  0.00    -0.248 NA
ATOM     46  C   UNL A   1      39.464  27.894  27.625  1.00  0.00     0.031 C 
ATOM     47  C   UNL A   1      38.713  31.065  31.441  1.00  0.00     0.029 A 
ATOM     48  N   UNL A   1      40.435  29.650  31.632  1.00  0.00    -0.354 N 
ATOM     49  C   UNL A   1      41.312  26.831  28.471  1.00  0.00     0.074 A 
ATOM     50  C   UNL A   1      40.331  26.911  27.409  1.00  0.00     0.031 C 
ATOM     51  C   UNL A   1      39.282  31.283  32.634  1.00  0.00     0.029 A 
ATOM     52  C   UNL A   1      40.392  30.350  32.816  1.00  0.00     0.049 A 
ATOM     53  H   UNL A   1      41.109  28.959  31.438  1.00  0.00     0.167 HD
ATOM     54  C   UNL A   1      42.364  25.977  28.494  1.00  0.00     0.034 A 
ATOM     55  C   UNL A   1      41.149  30.248  33.929  1.00  0.00     0.034 A 
ATOM     56  C   UNL A   1      43.321  25.912  29.572  1.00  0.00     0.049 A 
ATOM     57  C   UNL A   1      42.287  29.261  33.947  1.00  0.00     0.074 A 
ATOM     58  C   UNL A   1      44.459  25.129  29.653  1.00  0.00     0.029 A 
ATOM     59  N   UNL A   1      43.252  26.634  30.756  1.00  0.00    -0.354 N 
ATOM     60  N   UNL A   1      42.681  28.447  32.996  1.00  0.00    -0.248 NA
ATOM     61  C   UNL A   1      43.090  29.177  35.175  1.00  0.00     0.031 C 
ATOM     62  C   UNL A   1      45.027  25.310  30.913  1.00  0.00     0.029 A 
ATOM     63  C   UNL A   1      44.299  26.275  31.591  1.00  0.00     0.049 A 
ATOM     64  H   UNL A   1      42.561  27.301  30.971  1.00  0.00     0.167 HD
ATOM     65  C   UNL A   1      43.788  27.770  33.502  1.00  0.00     0.074 A 
ATOM     66  C   UNL A   1      44.017  28.290  34.834  1.00  0.00     0.031 C 
ATOM     67  C   UNL A   1      44.537  26.803  32.915  1.00  0.00     0.034 A 
BRANCH  54  68
ATOM     68  C   UNL A   1      42.586  25.053  27.319  1.00  0.00     0.023 A 
ATOM     69  C   UNL A   1      42.050  23.750  27.334  1.00  0.00     0.031 A 
ATOM     70  C   UNL A   1      43.471  25.393  26.281  1.00  0.00     0.131 A 
ATOM     71  C   UNL A   1      42.442  22.823  26.359  1.00  0.00     0.055 A 
ATOM     72  C   UNL A   1      43.822  24.480  25.285  1.00  0.00     0.041 A 
ATOM     73  F   UNL A   1      44.019  26.618  26.227  1.00  0.00    -0.206 F 
ATOM     74  C   UNL A   1      43.319  23.184  25.331  1.00  0.00     0.022 A 
BRANCH  71  75
ATOM     75  S   UNL A   1      41.903  21.092  26.435  1.00  0.00     0.124 S 
ATOM     76  O   UNL A   1      42.700  20.483  25.373  1.00  0.00    -0.237 OA
ATOM     77  O   UNL A   1      42.282  20.715  27.795  1.00  0.00    -0.237 OA
ATOM     78  O   UNL A   1      40.470  21.160  26.174  1.00  0.00    -0.744 OA
ENDBRANCH  71  75
ENDBRANCH  54  68
BRANCH  55  79
ATOM     79  C   UNL A   1      40.870  31.160  35.078  1.00  0.00     0.023 A 
ATOM     80  C   UNL A   1      39.749  30.959  35.906  1.00  0.00     0.031 A 
ATOM     81  C   UNL A   1      41.643  32.315  35.283  1.00  0.00     0.131 A 
ATOM     82  C   UNL A   1      39.387  31.938  36.839  1.00  0.00     0.055 A 
ATOM     83  C   UNL A   1      41.322  33.249  36.270  1.00  0.00     0.041 A 
ATOM     84  F   UNL A   1      42.712  32.559  34.511  1.00  0.00    -0.206 F 
ATOM     85  C   UNL A   1      40.177  33.073  37.040  1.00  0.00     0.022 A 
BRANCH  82  86
ATOM     86  S   UNL A   1      37.800  31.844  37.715  1.00  0.00     0.124 S 
ATOM     87  O   UNL A   1      38.171  32.251  39.066  1.00  0.00    -0.237 OA
ATOM     88  O   UNL A   1      36.991  32.804  36.966  1.00  0.00    -0.237 OA
ATOM     89  O   UNL A   1      37.404  30.448  37.562  1.00  0.00    -0.744 OA
ENDBRANCH  82  86
ENDBRANCH  55  79
BRANCH  67  90
ATOM     90  C   UNL A   1      45.692  26.202  33.684  1.00  0.00     0.023 A 
ATOM     91  C   UNL A   1      45.494  25.040  34.456  1.00  0.00     0.031 A 
ATOM     92  C   UNL A   1      46.914  26.884  33.813  1.00  0.00     0.131 A 
ATOM     93  C   UNL A   1      46.472  24.637  35.374  1.00  0.00     0.055 A 
ATOM     94  C   UNL A   1      47.909  26.444  34.686  1.00  0.00     0.041 A 
ATOM     95  F   UNL A   1      47.149  28.001  33.106  1.00  0.00    -0.206 F 
ATOM     96  C   UNL A   1      47.682  25.327  35.487  1.00  0.00     0.022 A 
BRANCH  93  97
ATOM     97  S   UNL A   1      46.165  23.272  36.529  1.00  0.00     0.124 S 
ATOM     98  O   UNL A   1      44.827  22.836  36.136  1.00  0.00    -0.237 OA
ATOM     99  O   UNL A   1      47.245  22.346  36.201  1.00  0.00    -0.237 OA
ATOM    100  O   UNL A   1      46.250  23.898  37.845  1.00  0.00    -0.744 OA
ENDBRANCH  93  97
ENDBRANCH  67  90
ENDBRANCH  41  42
ENDBRANCH  34  36
ENDBRANCH  33  34
ENDBRANCH  32  33
ENDBRANCH   1  32
TORSDOF 19
ENDMDL
MODEL 2
REMARK VINA RESULT:     -12.7      0.713      7.239
REMARK SMILES CC1(C)Oc2ccc(NC(=O)[C@H]3CC=CC[C@@H]3C(=O)OCCOCCOC(=O)c3ccc(-c4c5nc(c(-c6cc(S(=O)(=O)[O-])ccc6F)c6ccc([nH]6)c(-c6cc(S(=O)(=O)[O-])ccc6F)c6nc(c(-c7cc(S(=O)(=O)[O-])ccc7F)c7ccc4[nH]7)C=C6)C=C5)cc3)cc2NC1=O
REMARK SMILES IDX 24 1 23 2 22 3 21 4 20 5 18 6 19 7 17 8 12 9 13 10 14 11
REMARK SMILES IDX 16 12 15 13 10 14 9 15 11 17 8 18 1 19 2 20 3 21 4 22 95 23
REMARK SMILES IDX 5 24 94 25 96 26 6 27 93 28 7 30 92 31 25 32 26 33 27 34
REMARK SMILES IDX 28 35 29 36 30 37 91 38 31 39 90 40 32 41 33 42 34 43 84 44
REMARK SMILES IDX 35 45 89 46 83 47 85 48 36 49 88 50 82 51 81 52 37 54 69 55
REMARK SMILES IDX 49 56 68 57 50 58 53 59 67 60 86 61 51 62 52 63 66 65 87 66
REMARK SMILES IDX 54 67 38 68 39 69 47 70 40 71 46 72 48 73 45 74 41 75 42 76
REMARK SMILES IDX 43 77 44 78 70 79 71 80 79 81 72 82 78 83 80 84 77 85 73 86
REMARK SMILES IDX 74 87 75 88 76 89 55 90 56 91 64 92 57 93 63 94 65 95 62 96
REMARK SMILES IDX 58 97 59 98 60 99 61 100
REMARK H PARENT 9 16 94 29 85 53 53 64
REMARK Flexibility Score: inf
ROOT
ATOM      1  C   UNL A   1      31.813  28.662  27.296  1.00  0.00     0.202 C 
ENDROOT
BRANCH   1   2
ATOM      2  O   UNL A   1      31.341  27.847  26.224  1.00  0.00    -0.374 OA
BRANCH   2   3
ATOM      3  C   UNL A   1      31.525  26.435  26.310  1.00  0.00     0.202 C 
BRANCH   3   4
ATOM      4  C   UNL A   1      30.281  25.558  26.132  1.00  0.00     0.261 C 
BRANCH   4   5
ATOM      5  O   UNL A   1      30.619  24.284  25.561  1.00  0.00    -0.463 OA
BRANCH   5   6
ATOM      6  C   UNL A   1      31.853  23.824  25.872  1.00  0.00     0.310 C 
ATOM      7  O   UNL A   1      32.105  23.078  26.815  1.00  0.00    -0.252 OA
BRANCH   6   8
ATOM      8  C   UNL A   1      32.912  24.173  24.840  1.00  0.00     0.116 C 
ATOM      9  C   UNL A   1      32.402  23.749  23.462  1.00  0.00     0.097 C 
ATOM     10  C   UNL A   1      32.621  22.207  23.335  1.00  0.00     0.041 C 
ATOM     11  C   UNL A   1      33.919  21.695  23.908  1.00  0.00    -0.030 C 
ATOM     12  C   UNL A   1      34.373  23.813  25.085  1.00  0.00     0.043 C 
ATOM     13  C   UNL A   1      34.723  22.428  24.686  1.00  0.00    -0.030 C 
BRANCH   9  14
ATOM     14  C   UNL A   1      32.950  24.509  22.243  1.00  0.00     0.228 C 
ATOM     15  N   UNL A   1      32.751  25.827  21.946  1.00  0.00    -0.326 N 
ATOM     16  H   UNL A   1      33.219  26.094  21.124  1.00  0.00     0.169 HD
ATOM     17  O   UNL A   1      33.627  23.905  21.397  1.00  0.00    -0.274 OA
BRANCH  15  18
ATOM     18  C   UNL A   1      32.045  26.896  22.520  1.00  0.00     0.043 A 
ATOM     19  C   UNL A   1      27.727  31.437  23.474  1.00  0.00     0.067 C 
ATOM     20  C   UNL A   1      28.379  30.246  22.762  1.00  0.00     0.182 C 
ATOM     21  C   UNL A   1      28.144  30.399  21.244  1.00  0.00     0.067 C 
ATOM     22  O   UNL A   1      29.781  30.334  23.064  1.00  0.00    -0.476 OA
ATOM     23  C   UNL A   1      27.703  28.914  23.163  1.00  0.00     0.268 C 
ATOM     24  C   UNL A   1      30.472  29.154  23.011  1.00  0.00     0.144 A 
ATOM     25  N   UNL A   1      28.480  27.804  22.929  1.00  0.00    -0.319 N 
ATOM     26  O   UNL A   1      26.539  28.803  23.537  1.00  0.00    -0.270 OA
ATOM     27  C   UNL A   1      31.847  29.204  23.212  1.00  0.00     0.051 A 
ATOM     28  C   UNL A   1      29.867  27.917  22.802  1.00  0.00     0.086 A 
ATOM     29  H   UNL A   1      28.055  26.919  22.849  1.00  0.00     0.170 HD
ATOM     30  C   UNL A   1      32.627  28.052  23.034  1.00  0.00     0.030 A 
ATOM     31  C   UNL A   1      30.647  26.792  22.531  1.00  0.00     0.056 A 
ENDBRANCH  15  18
ENDBRANCH   9  14
ENDBRANCH   6   8
ENDBRANCH   5   6
ENDBRANCH   4   5
ENDBRANCH   3   4
ENDBRANCH   2   3
ENDBRANCH   1   2
BRANCH   1  32
ATOM     32  C   UNL A   1      31.884  30.182  27.081  1.00  0.00     0.261 C 
BRANCH  32  33
ATOM     33  O   UNL A   1      33.183  30.613  26.631  1.00  0.00    -0.460 OA
BRANCH  33  34
ATOM     34  C   UNL A   1      33.768  31.592  27.366  1.00  0.00     0.338 C 
ATOM     35  O   UNL A   1      33.243  32.607  27.778  1.00  0.00    -0.246 OA
BRANCH  34  36
ATOM     36  C   UNL A   1      35.105  31.133  27.797  1.00  0.00     0.060 A 
ATOM     37  C   UNL A   1      36.140  32.033  28.053  1.00  0.00     0.016 A 
ATOM     38  C   UNL A   1      35.286  29.761  28.014  1.00  0.00     0.016 A 
ATOM     39  C   UNL A   1      37.354  31.553  28.561  1.00  0.00     0.010 A 
ATOM     40  C   UNL A   1      36.500  29.285  28.504  1.00  0.00     0.010 A 
ATOM     41  C   UNL A   1      37.534  30.180  28.809  1.00  0.00    -0.014 A 
BRANCH  41  42
ATOM     42  C   UNL A   1      38.717  29.678  29.553  1.00  0.00     0.031 A 
ATOM     43  C   UNL A   1      39.114  30.251  30.880  1.00  0.00     0.074 A 
ATOM     44  C   UNL A   1      39.493  28.752  28.955  1.00  0.00     0.049 A 
ATOM     45  N   UNL A   1      40.136  29.939  31.633  1.00  0.00    -0.248 NA
ATOM     46  C   UNL A   1      38.262  31.317  31.430  1.00  0.00     0.031 C 
ATOM     47  C   UNL A   1      39.224  28.170  27.640  1.00  0.00     0.029 A 
ATOM     48  N   UNL A   1      40.663  28.154  29.352  1.00  0.00    -0.354 N 
ATOM     49  C   UNL A   1      40.049  30.754  32.754  1.00  0.00     0.074 A 
ATOM     50  C   UNL A   1      38.898  31.610  32.559  1.00  0.00     0.031 C 
ATOM     51  C   UNL A   1      40.190  27.291  27.345  1.00  0.00     0.029 A 
ATOM     52  C   UNL A   1      41.175  27.277  28.423  1.00  0.00     0.049 A 
ATOM     53  H   UNL A   1      41.095  28.336  30.218  1.00  0.00     0.167 HD
ATOM     54  C   UNL A   1      40.849  30.765  33.847  1.00  0.00     0.034 A 
ATOM     55  C   UNL A   1      42.314  26.552  28.429  1.00  0.00     0.034 A 
ATOM     56  C   UNL A   1      41.998  29.907  34.010  1.00  0.00     0.049 A 
ATOM     57  C   UNL A   1      43.211  26.614  29.638  1.00  0.00     0.074 A 
ATOM     58  C   UNL A   1      42.828  29.796  35.111  1.00  0.00     0.029 A 
ATOM     59  N   UNL A   1      42.490  29.030  33.053  1.00  0.00    -0.354 N 
ATOM     60  N   UNL A   1      43.044  27.295  30.748  1.00  0.00    -0.248 NA
ATOM     61  C   UNL A   1      44.441  25.811  29.609  1.00  0.00     0.031 C 
ATOM     62  C   UNL A   1      43.868  28.925  34.791  1.00  0.00     0.029 A 
ATOM     63  C   UNL A   1      43.641  28.415  33.522  1.00  0.00     0.049 A 
ATOM     64  H   UNL A   1      42.083  28.869  32.172  1.00  0.00     0.167 HD
ATOM     65  C   UNL A   1      44.136  26.988  31.556  1.00  0.00     0.074 A 
ATOM     66  C   UNL A   1      44.943  26.038  30.818  1.00  0.00     0.031 C 
ATOM     67  C   UNL A   1      44.440  27.457  32.792  1.00  0.00     0.034 A 
BRANCH  54  68
ATOM     68  C   UNL A   1      40.522  31.701  34.988  1.00  0.00     0.023 A 
ATOM     69  C   UNL A   1      39.519  31.358  35.918  1.00  0.00     0.031 A 
ATOM     70  C   UNL A   1      41.066  32.996  35.048  1.00  0.00     0.131 A 
ATOM     71  C   UNL A   1      39.060  32.315  36.833  1.00  0.00     0.055 A 
ATOM     72  C   UNL A   1      40.638  33.930  35.992  1.00  0.00     0.041 A 
ATOM     73  F   UNL A   1      42.015  33.377  34.177  1.00  0.00    -0.206 F 
ATOM     74  C   UNL A   1      39.620  33.596  36.879  1.00  0.00     0.022 A 
BRANCH  71  75
ATOM     75  S   UNL A   1      37.663  31.967  37.936  1.00  0.00     0.124 S 
ATOM     76  O   UNL A   1      38.234  32.268  39.247  1.00  0.00    -0.237 OA
ATOM     77  O   UNL A   1      36.657  32.913  37.461  1.00  0.00    -0.237 OA
ATOM     78  O   UNL A   1      37.369  30.559  37.696  1.00  0.00    -0.744 OA
ENDBRANCH  71  75
ENDBRANCH  54  68
BRANCH  55  79
ATOM     79  C   UNL A   1      42.612  25.668  27.263  1.00  0.00     0.023 A 
ATOM     80  C   UNL A   1      42.102  24.358  27.199  1.00  0.00     0.031 A 
ATOM     81  C   UNL A   1      43.515  26.074  26.267  1.00  0.00     0.131 A 
ATOM     82  C   UNL A   1      42.562  23.477  26.213  1.00  0.00     0.055 A 
ATOM     83  C   UNL A   1      43.910  25.216  25.238  1.00  0.00     0.041 A 
ATOM     84  F   UNL A   1      44.040  27.307  26.291  1.00  0.00    -0.206 F 
ATOM     85  C   UNL A   1      43.449  23.903  25.220  1.00  0.00     0.022 A 
BRANCH  82  86
ATOM     86  S   UNL A   1      42.144  21.712  26.274  1.00  0.00     0.124 S 
ATOM     87  O   UNL A   1      42.486  21.365  27.650  1.00  0.00    -0.237 OA
ATOM     88  O   UNL A   1      40.716  21.735  25.965  1.00  0.00    -0.237 OA
ATOM     89  O   UNL A   1      42.992  21.121  25.244  1.00  0.00    -0.744 OA
ENDBRANCH  82  86
ENDBRANCH  55  79
BRANCH  67  90
ATOM     90  C   UNL A   1      45.707  26.980  33.466  1.00  0.00     0.023 A 
ATOM     91  C   UNL A   1      45.661  25.892  34.359  1.00  0.00     0.031 A 
ATOM     92  C   UNL A   1      46.898  27.720  33.382  1.00  0.00     0.131 A 
ATOM     93  C   UNL A   1      46.760  25.620  35.183  1.00  0.00     0.055 A 
ATOM     94  C   UNL A   1      48.011  27.408  34.163  1.00  0.00     0.041 A 
ATOM     95  F   UNL A   1      46.990  28.772  32.552  1.00  0.00    -0.206 F 
ATOM     96  C   UNL A   1      47.938  26.366  35.084  1.00  0.00     0.022 A 
BRANCH  93  97
ATOM     97  S   UNL A   1      46.663  24.362  36.488  1.00  0.00     0.124 S 
ATOM     98  O   UNL A   1      45.925  23.291  35.823  1.00  0.00    -0.237 OA
ATOM     99  O   UNL A   1      48.072  24.081  36.747  1.00  0.00    -0.237 OA
ATOM    100  O   UNL A   1      45.945  25.030  37.569  1.00  0.00    -0.744 OA
ENDBRANCH  93  97
ENDBRANCH  67  90
ENDBRANCH  41  42
ENDBRANCH  34  36
ENDBRANCH  33  34
ENDBRANCH  32  33
ENDBRANCH   1  32
TORSDOF 19
ENDMDL
MODEL 3
REMARK VINA RESULT:     -12.6      1.847      2.149
REMARK SMILES CC1(C)Oc2ccc(NC(=O)[C@H]3CC=CC[C@@H]3C(=O)OCCOCCOC(=O)c3ccc(-c4c5nc(c(-c6cc(S(=O)(=O)[O-])ccc6F)c6ccc([nH]6)c(-c6cc(S(=O)(=O)[O-])ccc6F)c6nc(c(-c7cc(S(=O)(=O)[O-])ccc7F)c7ccc4[nH]7)C=C6)C=C5)cc3)cc2NC1=O
REMARK SMILES IDX 24 1 23 2 22 3 21 4 20 5 18 6 19 7 17 8 12 9 13 10 14 11
REMARK SMILES IDX 16 12 15 13 10 14 9 15 11 17 8 18 1 19 2 20 3 21 4 22 95 23
REMARK SMILES IDX 5 24 94 25 96 26 6 27 93 28 7 30 92 31 25 32 26 33 27 34
REMARK SMILES IDX 28 35 29 36 30 37 91 38 31 39 90 40 32 41 33 42 34 43 84 44
REMARK SMILES IDX 35 45 89 46 83 47 85 48 36 49 88 50 82 51 81 52 37 54 69 55
REMARK SMILES IDX 49 56 68 57 50 58 53 59 67 60 86 61 51 62 52 63 66 65 87 66
REMARK SMILES IDX 54 67 38 68 39 69 47 70 40 71 46 72 48 73 45 74 41 75 42 76
REMARK SMILES IDX 43 77 44 78 70 79 71 80 79 81 72 82 78 83 80 84 77 85 73 86
REMARK SMILES IDX 74 87 75 88 76 89 55 90 56 91 64 92 57 93 63 94 65 95 62 96
REMARK SMILES IDX 58 97 59 98 60 99 61 100
REMARK H PARENT 9 16 94 29 85 53 53 64
REMARK Flexibility Score: inf
ROOT
ATOM      1  C   UNL A   1      31.865  28.285  27.176  1.00  0.00     0.202 C 
ENDROOT
BRANCH   1   2
ATOM      2  O   UNL A   1      31.047  27.119  27.258  1.00  0.00    -0.374 OA
BRANCH   2   3
ATOM      3  C   UNL A   1      30.664  26.470  26.047  1.00  0.00     0.202 C 
BRANCH   3   4
ATOM      4  C   UNL A   1      29.994  25.097  26.173  1.00  0.00     0.261 C 
BRANCH   4   5
ATOM      5  O   UNL A   1      30.808  24.065  25.594  1.00  0.00    -0.463 OA
BRANCH   5   6
ATOM      6  C   UNL A   1      32.110  24.086  25.962  1.00  0.00     0.310 C 
ATOM      7  O   UNL A   1      32.544  23.648  27.025  1.00  0.00    -0.252 OA
BRANCH   6   8
ATOM      8  C   UNL A   1      33.048  24.550  24.861  1.00  0.00     0.116 C 
ATOM      9  C   UNL A   1      32.670  23.828  23.566  1.00  0.00     0.097 C 
ATOM     10  C   UNL A   1      33.278  22.391  23.636  1.00  0.00     0.041 C 
ATOM     11  C   UNL A   1      34.662  22.309  24.232  1.00  0.00    -0.030 C 
ATOM     12  C   UNL A   1      34.552  24.611  25.106  1.00  0.00     0.043 C 
ATOM     13  C   UNL A   1      35.247  23.321  24.881  1.00  0.00    -0.030 C 
BRANCH   9  14
ATOM     14  C   UNL A   1      33.009  24.531  22.242  1.00  0.00     0.228 C 
ATOM     15  N   UNL A   1      32.690  25.812  21.894  1.00  0.00    -0.326 N 
ATOM     16  H   UNL A   1      33.033  26.048  21.002  1.00  0.00     0.169 HD
ATOM     17  O   UNL A   1      33.610  23.908  21.353  1.00  0.00    -0.274 OA
BRANCH  15  18
ATOM     18  C   UNL A   1      31.997  26.878  22.488  1.00  0.00     0.043 A 
ATOM     19  C   UNL A   1      27.740  31.459  23.521  1.00  0.00     0.067 C 
ATOM     20  C   UNL A   1      28.379  30.275  22.785  1.00  0.00     0.182 C 
ATOM     21  C   UNL A   1      28.157  30.468  21.270  1.00  0.00     0.067 C 
ATOM     22  O   UNL A   1      29.780  30.336  23.099  1.00  0.00    -0.476 OA
ATOM     23  C   UNL A   1      27.681  28.945  23.151  1.00  0.00     0.268 C 
ATOM     24  C   UNL A   1      30.454  29.147  23.022  1.00  0.00     0.144 A 
ATOM     25  N   UNL A   1      28.443  27.830  22.895  1.00  0.00    -0.319 N 
ATOM     26  O   UNL A   1      26.512  28.842  23.514  1.00  0.00    -0.270 OA
ATOM     27  C   UNL A   1      31.828  29.172  23.233  1.00  0.00     0.051 A 
ATOM     28  C   UNL A   1      29.832  27.925  22.780  1.00  0.00     0.086 A 
ATOM     29  H   UNL A   1      28.005  26.953  22.791  1.00  0.00     0.170 HD
ATOM     30  C   UNL A   1      32.592  28.013  23.033  1.00  0.00     0.030 A 
ATOM     31  C   UNL A   1      30.597  26.795  22.488  1.00  0.00     0.056 A 
ENDBRANCH  15  18
ENDBRANCH   9  14
ENDBRANCH   6   8
ENDBRANCH   5   6
ENDBRANCH   4   5
ENDBRANCH   3   4
ENDBRANCH   2   3
ENDBRANCH   1   2
BRANCH   1  32
ATOM     32  C   UNL A   1      33.372  28.104  26.933  1.00  0.00     0.261 C 
BRANCH  32  33
ATOM     33  O   UNL A   1      33.983  29.281  26.371  1.00  0.00    -0.460 OA
BRANCH  33  34
ATOM     34  C   UNL A   1      34.195  30.306  27.234  1.00  0.00     0.338 C 
ATOM     35  O   UNL A   1      33.400  31.167  27.554  1.00  0.00    -0.246 OA
BRANCH  34  36
ATOM     36  C   UNL A   1      35.487  30.094  27.921  1.00  0.00     0.060 A 
ATOM     37  C   UNL A   1      35.549  29.681  29.251  1.00  0.00     0.016 A 
ATOM     38  C   UNL A   1      36.659  30.250  27.170  1.00  0.00     0.016 A 
ATOM     39  C   UNL A   1      36.795  29.393  29.821  1.00  0.00     0.010 A 
ATOM     40  C   UNL A   1      37.898  29.978  27.743  1.00  0.00     0.010 A 
ATOM     41  C   UNL A   1      37.975  29.519  29.065  1.00  0.00    -0.014 A 
BRANCH  41  42
ATOM     42  C   UNL A   1      39.275  29.006  29.570  1.00  0.00     0.031 A 
ATOM     43  C   UNL A   1      39.924  27.791  28.980  1.00  0.00     0.074 A 
ATOM     44  C   UNL A   1      39.815  29.609  30.647  1.00  0.00     0.049 A 
ATOM     45  N   UNL A   1      41.039  27.207  29.334  1.00  0.00    -0.248 NA
ATOM     46  C   UNL A   1      39.231  27.140  27.858  1.00  0.00     0.031 C 
ATOM     47  C   UNL A   1      39.233  30.766  31.328  1.00  0.00     0.029 A 
ATOM     48  N   UNL A   1      40.949  29.331  31.370  1.00  0.00    -0.354 N 
ATOM     49  C   UNL A   1      41.197  26.129  28.473  1.00  0.00     0.074 A 
ATOM     50  C   UNL A   1      40.034  26.112  27.609  1.00  0.00     0.031 C 
ATOM     51  C   UNL A   1      40.018  31.107  32.359  1.00  0.00     0.029 A 
ATOM     52  C   UNL A   1      41.134  30.169  32.446  1.00  0.00     0.049 A 
ATOM     53  H   UNL A   1      41.569  28.602  31.141  1.00  0.00     0.167 HD
ATOM     54  C   UNL A   1      42.227  25.253  28.405  1.00  0.00     0.034 A 
ATOM     55  C   UNL A   1      42.086  30.178  33.403  1.00  0.00     0.034 A 
ATOM     56  C   UNL A   1      43.369  25.287  29.288  1.00  0.00     0.049 A 
ATOM     57  C   UNL A   1      43.200  29.165  33.332  1.00  0.00     0.074 A 
ATOM     58  C   UNL A   1      44.496  24.486  29.252  1.00  0.00     0.029 A 
ATOM     59  N   UNL A   1      43.529  26.147  30.366  1.00  0.00    -0.354 N 
ATOM     60  N   UNL A   1      43.402  28.232  32.432  1.00  0.00    -0.248 NA
ATOM     61  C   UNL A   1      44.218  29.205  34.391  1.00  0.00     0.031 C 
ATOM     62  C   UNL A   1      45.291  24.798  30.354  1.00  0.00     0.029 A 
ATOM     63  C   UNL A   1      44.711  25.859  31.030  1.00  0.00     0.049 A 
ATOM     64  H   UNL A   1      42.896  26.856  30.621  1.00  0.00     0.167 HD
ATOM     65  C   UNL A   1      44.579  27.587  32.804  1.00  0.00     0.074 A 
ATOM     66  C   UNL A   1      45.058  28.255  33.996  1.00  0.00     0.031 C 
ATOM     67  C   UNL A   1      45.197  26.534  32.212  1.00  0.00     0.034 A 
BRANCH  54  68
ATOM     68  C   UNL A   1      42.218  24.188  27.333  1.00  0.00     0.023 A 
ATOM     69  C   UNL A   1      41.666  22.919  27.601  1.00  0.00     0.031 A 
ATOM     70  C   UNL A   1      42.913  24.366  26.123  1.00  0.00     0.131 A 
ATOM     71  C   UNL A   1      41.859  21.869  26.694  1.00  0.00     0.055 A 
ATOM     72  C   UNL A   1      43.062  23.328  25.201  1.00  0.00     0.041 A 
ATOM     73  F   UNL A   1      43.469  25.552  25.825  1.00  0.00    -0.206 F 
ATOM     74  C   UNL A   1      42.548  22.069  25.493  1.00  0.00     0.022 A 
BRANCH  71  75
ATOM     75  S   UNL A   1      41.305  20.183  27.075  1.00  0.00     0.124 S 
ATOM     76  O   UNL A   1      40.292  19.962  26.047  1.00  0.00    -0.237 OA
ATOM     77  O   UNL A   1      42.537  19.415  26.914  1.00  0.00    -0.237 OA
ATOM     78  O   UNL A   1      40.795  20.282  28.437  1.00  0.00    -0.744 OA
ENDBRANCH  71  75
ENDBRANCH  54  68
BRANCH  55  79
ATOM     79  C   UNL A   1      42.034  31.229  34.463  1.00  0.00     0.023 A 
ATOM     80  C   UNL A   1      41.014  31.228  35.433  1.00  0.00     0.031 A 
ATOM     81  C   UNL A   1      42.923  32.316  34.441  1.00  0.00     0.131 A 
ATOM     82  C   UNL A   1      40.859  32.331  36.281  1.00  0.00     0.055 A 
ATOM     83  C   UNL A   1      42.812  33.376  35.342  1.00  0.00     0.041 A 
ATOM     84  F   UNL A   1      43.903  32.370  33.527  1.00  0.00    -0.206 F 
ATOM     85  C   UNL A   1      41.762  33.397  36.256  1.00  0.00     0.022 A 
BRANCH  82  86
ATOM     86  S   UNL A   1      39.393  32.489  37.341  1.00  0.00     0.124 S 
ATOM     87  O   UNL A   1      38.621  31.307  36.973  1.00  0.00    -0.237 OA
ATOM     88  O   UNL A   1      39.988  32.464  38.675  1.00  0.00    -0.237 OA
ATOM     89  O   UNL A   1      38.817  33.769  36.944  1.00  0.00    -0.744 OA
ENDBRANCH  82  86
ENDBRANCH  55  79
BRANCH  67  90
ATOM     90  C   UNL A   1      46.471  25.995  32.822  1.00  0.00     0.023 A 
ATOM     91  C   UNL A   1      47.719  26.351  32.274  1.00  0.00     0.031 A 
ATOM     92  C   UNL A   1      46.439  24.985  33.799  1.00  0.00     0.131 A 
ATOM     93  C   UNL A   1      48.872  25.653  32.654  1.00  0.00     0.055 A 
ATOM     94  C   UNL A   1      47.600  24.334  34.217  1.00  0.00     0.041 A 
ATOM     95  F   UNL A   1      45.274  24.604  34.347  1.00  0.00    -0.206 F 
ATOM     96  C   UNL A   1      48.821  24.653  33.629  1.00  0.00     0.022 A 
BRANCH  93  97
ATOM     97  S   UNL A   1      50.458  25.941  31.820  1.00  0.00     0.124 S 
ATOM     98  O   UNL A   1      50.756  27.319  32.201  1.00  0.00    -0.237 OA
ATOM     99  O   UNL A   1      51.313  24.926  32.430  1.00  0.00    -0.237 OA
ATOM    100  O   UNL A   1      50.154  25.742  30.406  1.00  0.00    -0.744 OA
ENDBRANCH  93  97
ENDBRANCH  67  90
ENDBRANCH  41  42
ENDBRANCH  34  36
ENDBRANCH  33  34
ENDBRANCH  32  33
ENDBRANCH   1  32
TORSDOF 19
ENDMDL
