MODEL 1
REMARK VINA RESULT:      -9.5      0.000      0.000
REMARK SMILES C=CCN(CC(=O)OCCOCCOC(=O)c1ccc(-c2c3nc(c(-c4cc(S(=O)(=O)[O-])ccc4F)c4ccc([nH]4)c(-c4cc(S(=O)(=O)[O-])ccc4F)c4nc(c(-c5cc(S(=O)(=O)[O-])ccc5F)c5ccc2[nH]5)C=C4)C=C3)cc1)C(=O)N1CCC(CC)(CC)C1
REMARK SMILES IDX 10 1 9 2 8 3 6 4 7 5 5 6 4 7 3 8 2 9 1 10 80 11 81 12 82 13
REMARK SMILES IDX 83 14 90 15 84 16 85 17 86 18 87 19 88 20 89 21 11 22 12 23
REMARK SMILES IDX 13 24 14 25 15 26 16 27 17 28 18 29 79 30 19 31 78 32 20 33
REMARK SMILES IDX 21 34 22 35 72 36 23 37 77 38 71 39 73 40 24 41 76 42 70 43
REMARK SMILES IDX 69 44 25 46 57 47 37 48 56 49 38 50 41 51 55 52 74 53 39 54
REMARK SMILES IDX 40 55 54 57 75 58 42 59 26 60 27 61 35 62 28 63 34 64 36 65
REMARK SMILES IDX 33 66 29 67 30 68 31 69 32 70 58 71 59 72 67 73 60 74 66 75
REMARK SMILES IDX 68 76 65 77 61 78 62 79 63 80 64 81 43 82 44 83 52 84 45 85
REMARK SMILES IDX 51 86 53 87 50 88 46 89 47 90 48 91 49 92
REMARK H PARENT 73 45 41 56
REMARK Flexibility Score: inf
ROOT
ATOM      1  C   UNL A   1      32.681  29.250  26.884  1.00  0.00     0.202 C 
ENDROOT
BRANCH   1   2
ATOM      2  C   UNL A   1      31.477  28.611  26.178  1.00  0.00     0.261 C 
BRANCH   2   3
ATOM      3  O   UNL A   1      31.638  28.544  24.735  1.00  0.00    -0.462 OA
BRANCH   3   4
ATOM      4  C   UNL A   1      30.487  28.577  24.010  1.00  0.00     0.325 C 
ATOM      5  O   UNL A   1      30.000  29.611  23.557  1.00  0.00    -0.250 OA
BRANCH   4   6
ATOM      6  C   UNL A   1      29.754  27.224  23.864  1.00  0.00     0.244 C 
BRANCH   6   7
ATOM      7  N   UNL A   1      30.452  25.930  23.908  1.00  0.00    -0.310 N 
BRANCH   7   8
ATOM      8  C   UNL A   1      30.807  25.379  22.592  1.00  0.00     0.149 C 
BRANCH   8   9
ATOM      9  C   UNL A   1      31.842  26.246  21.919  1.00  0.00    -0.013 C 
ATOM     10  C   UNL A   1      32.891  25.757  21.241  1.00  0.00     0.006 C 
ENDBRANCH   8   9
ENDBRANCH   7   8
BRANCH   7  11
ATOM     11  C   UNL A   1      30.968  25.267  25.017  1.00  0.00     0.320 C 
ATOM     12  O   UNL A   1      30.227  24.966  25.961  1.00  0.00    -0.248 OA
BRANCH  11  13
ATOM     13  N   UNL A   1      32.311  24.949  25.117  1.00  0.00    -0.324 N 
ATOM     14  C   UNL A   1      33.409  25.786  25.511  1.00  0.00     0.122 C 
ATOM     15  C   UNL A   1      32.690  23.536  25.279  1.00  0.00     0.128 C 
ATOM     16  C   UNL A   1      34.653  24.942  25.489  1.00  0.00     0.030 C 
ATOM     17  C   UNL A   1      34.190  23.489  25.693  1.00  0.00    -0.011 C 
BRANCH  17  18
ATOM     18  C   UNL A   1      35.017  22.592  24.726  1.00  0.00     0.005 C 
ATOM     19  C   UNL A   1      34.877  22.981  23.250  1.00  0.00     0.004 C 
ENDBRANCH  17  18
BRANCH  17  20
ATOM     20  C   UNL A   1      34.421  22.930  27.133  1.00  0.00     0.005 C 
ATOM     21  C   UNL A   1      34.071  21.490  27.448  1.00  0.00     0.004 C 
ENDBRANCH  17  20
ENDBRANCH  11  13
ENDBRANCH   7  11
ENDBRANCH   6   7
ENDBRANCH   4   6
ENDBRANCH   3   4
ENDBRANCH   2   3
ENDBRANCH   1   2
BRANCH   1  22
ATOM     22  O   UNL A   1      32.920  30.631  26.626  1.00  0.00    -0.374 OA
BRANCH  22  23
ATOM     23  C   UNL A   1      31.793  31.468  26.442  1.00  0.00     0.202 C 
BRANCH  23  24
ATOM     24  C   UNL A   1      31.803  32.867  27.091  1.00  0.00     0.261 C 
BRANCH  24  25
ATOM     25  O   UNL A   1      32.614  32.993  28.227  1.00  0.00    -0.460 OA
BRANCH  25  26
ATOM     26  C   UNL A   1      33.540  33.969  28.136  1.00  0.00     0.338 C 
ATOM     27  O   UNL A   1      33.388  35.146  27.919  1.00  0.00    -0.246 OA
BRANCH  26  28
ATOM     28  C   UNL A   1      34.726  33.272  28.618  1.00  0.00     0.060 A 
ATOM     29  C   UNL A   1      34.538  32.018  29.197  1.00  0.00     0.016 A 
ATOM     30  C   UNL A   1      35.994  33.775  28.300  1.00  0.00     0.016 A 
ATOM     31  C   UNL A   1      35.653  31.273  29.528  1.00  0.00     0.010 A 
ATOM     32  C   UNL A   1      37.107  33.019  28.612  1.00  0.00     0.010 A 
ATOM     33  C   UNL A   1      36.930  31.794  29.272  1.00  0.00    -0.014 A 
BRANCH  33  34
ATOM     34  C   UNL A   1      38.082  31.166  29.927  1.00  0.00     0.031 A 
ATOM     35  C   UNL A   1      38.335  31.540  31.356  1.00  0.00     0.074 A 
ATOM     36  C   UNL A   1      38.815  30.258  29.266  1.00  0.00     0.049 A 
ATOM     37  N   UNL A   1      39.260  31.116  32.170  1.00  0.00    -0.248 NA
ATOM     38  C   UNL A   1      37.423  32.538  31.943  1.00  0.00     0.031 C 
ATOM     39  C   UNL A   1      38.589  29.837  27.883  1.00  0.00     0.029 A 
ATOM     40  N   UNL A   1      39.887  29.521  29.676  1.00  0.00    -0.354 N 
ATOM     41  C   UNL A   1      39.041  31.795  33.364  1.00  0.00     0.074 A 
ATOM     42  C   UNL A   1      37.939  32.703  33.147  1.00  0.00     0.031 C 
ATOM     43  C   UNL A   1      39.496  28.899  27.564  1.00  0.00     0.029 A 
ATOM     44  C   UNL A   1      40.381  28.686  28.705  1.00  0.00     0.049 A 
ATOM     45  H   UNL A   1      40.270  29.581  30.582  1.00  0.00     0.167 HD
ATOM     46  C   UNL A   1      39.696  31.649  34.538  1.00  0.00     0.034 A 
ATOM     47  C   UNL A   1      41.440  27.859  28.749  1.00  0.00     0.034 A 
ATOM     48  C   UNL A   1      40.805  30.743  34.694  1.00  0.00     0.049 A 
ATOM     49  C   UNL A   1      42.201  27.762  30.049  1.00  0.00     0.074 A 
ATOM     50  C   UNL A   1      41.572  30.499  35.816  1.00  0.00     0.029 A 
ATOM     51  N   UNL A   1      41.311  29.936  33.678  1.00  0.00    -0.354 N 
ATOM     52  N   UNL A   1      41.989  28.400  31.180  1.00  0.00    -0.248 NA
ATOM     53  C   UNL A   1      43.327  26.827  30.084  1.00  0.00     0.031 C 
ATOM     54  C   UNL A   1      42.587  29.607  35.459  1.00  0.00     0.029 A 
ATOM     55  C   UNL A   1      42.398  29.216  34.140  1.00  0.00     0.049 A 
ATOM     56  H   UNL A   1      40.947  29.885  32.765  1.00  0.00     0.167 HD
ATOM     57  C   UNL A   1      42.934  27.912  32.076  1.00  0.00     0.074 A 
ATOM     58  C   UNL A   1      43.707  26.920  31.351  1.00  0.00     0.031 C 
ATOM     59  C   UNL A   1      43.148  28.242  33.378  1.00  0.00     0.034 A 
BRANCH  46  60
ATOM     60  C   UNL A   1      39.265  32.535  35.681  1.00  0.00     0.023 A 
ATOM     61  C   UNL A   1      39.660  33.884  35.770  1.00  0.00     0.031 A 
ATOM     62  C   UNL A   1      38.515  32.002  36.744  1.00  0.00     0.131 A 
ATOM     63  C   UNL A   1      39.379  34.623  36.930  1.00  0.00     0.055 A 
ATOM     64  C   UNL A   1      38.160  32.771  37.855  1.00  0.00     0.041 A 
ATOM     65  F   UNL A   1      38.139  30.714  36.737  1.00  0.00    -0.206 F 
ATOM     66  C   UNL A   1      38.608  34.084  37.962  1.00  0.00     0.022 A 
BRANCH  63  67
ATOM     67  S   UNL A   1      40.183  36.237  37.149  1.00  0.00     0.124 S 
ATOM     68  O   UNL A   1      41.566  35.844  37.407  1.00  0.00    -0.237 OA
ATOM     69  O   UNL A   1      39.932  36.890  35.869  1.00  0.00    -0.237 OA
ATOM     70  O   UNL A   1      39.483  36.816  38.293  1.00  0.00    -0.744 OA
ENDBRANCH  63  67
ENDBRANCH  46  60
BRANCH  47  71
ATOM     71  C   UNL A   1      41.840  27.082  27.542  1.00  0.00     0.023 A 
ATOM     72  C   UNL A   1      41.645  25.694  27.469  1.00  0.00     0.031 A 
ATOM     73  C   UNL A   1      42.445  27.720  26.443  1.00  0.00     0.131 A 
ATOM     74  C   UNL A   1      42.087  24.984  26.341  1.00  0.00     0.055 A 
ATOM     75  C   UNL A   1      42.835  27.019  25.302  1.00  0.00     0.041 A 
ATOM     76  F   UNL A   1      42.651  29.047  26.458  1.00  0.00    -0.206 F 
ATOM     77  C   UNL A   1      42.668  25.638  25.252  1.00  0.00     0.022 A 
BRANCH  74  78
ATOM     78  S   UNL A   1      41.966  23.175  26.350  1.00  0.00     0.124 S 
ATOM     79  O   UNL A   1      40.532  22.971  26.177  1.00  0.00    -0.237 OA
ATOM     80  O   UNL A   1      42.809  22.810  25.216  1.00  0.00    -0.237 OA
ATOM     81  O   UNL A   1      42.496  22.806  27.661  1.00  0.00    -0.744 OA
ENDBRANCH  74  78
ENDBRANCH  47  71
BRANCH  59  82
ATOM     82  C   UNL A   1      44.225  27.473  34.103  1.00  0.00     0.023 A 
ATOM     83  C   UNL A   1      43.969  26.236  34.716  1.00  0.00     0.031 A 
ATOM     84  C   UNL A   1      45.528  27.999  34.184  1.00  0.00     0.131 A 
ATOM     85  C   UNL A   1      44.981  25.600  35.447  1.00  0.00     0.055 A 
ATOM     86  C   UNL A   1      46.551  27.323  34.846  1.00  0.00     0.041 A 
ATOM     87  F   UNL A   1      45.826  29.179  33.617  1.00  0.00    -0.206 F 
ATOM     88  C   UNL A   1      46.277  26.124  35.498  1.00  0.00     0.022 A 
BRANCH  85  89
ATOM     89  S   UNL A   1      44.550  24.143  36.435  1.00  0.00     0.124 S 
ATOM     90  O   UNL A   1      44.139  24.745  37.698  1.00  0.00    -0.237 OA
ATOM     91  O   UNL A   1      43.487  23.533  35.643  1.00  0.00    -0.237 OA
ATOM     92  O   UNL A   1      45.798  23.383  36.487  1.00  0.00    -0.744 OA
ENDBRANCH  85  89
ENDBRANCH  59  82
ENDBRANCH  33  34
ENDBRANCH  26  28
ENDBRANCH  25  26
ENDBRANCH  24  25
ENDBRANCH  23  24
ENDBRANCH  22  23
ENDBRANCH   1  22
TORSDOF 24
ENDMDL
MODEL 2
REMARK VINA RESULT:      -8.6      5.937     10.040
REMARK SMILES C=CCN(CC(=O)OCCOCCOC(=O)c1ccc(-c2c3nc(c(-c4cc(S(=O)(=O)[O-])ccc4F)c4ccc([nH]4)c(-c4cc(S(=O)(=O)[O-])ccc4F)c4nc(c(-c5cc(S(=O)(=O)[O-])ccc5F)c5ccc2[nH]5)C=C4)C=C3)cc1)C(=O)N1CCC(CC)(CC)C1
REMARK SMILES IDX 10 1 9 2 8 3 6 4 7 5 5 6 4 7 3 8 2 9 1 10 80 11 81 12 82 13
REMARK SMILES IDX 83 14 90 15 84 16 85 17 86 18 87 19 88 20 89 21 11 22 12 23
REMARK SMILES IDX 13 24 14 25 15 26 16 27 17 28 18 29 79 30 19 31 78 32 20 33
REMARK SMILES IDX 21 34 22 35 72 36 23 37 77 38 71 39 73 40 24 41 76 42 70 43
REMARK SMILES IDX 69 44 25 46 57 47 37 48 56 49 38 50 41 51 55 52 74 53 39 54
REMARK SMILES IDX 40 55 54 57 75 58 42 59 26 60 27 61 35 62 28 63 34 64 36 65
REMARK SMILES IDX 33 66 29 67 30 68 31 69 32 70 58 71 59 72 67 73 60 74 66 75
REMARK SMILES IDX 68 76 65 77 61 78 62 79 63 80 64 81 43 82 44 83 52 84 45 85
REMARK SMILES IDX 51 86 53 87 50 88 46 89 47 90 48 91 49 92
REMARK H PARENT 73 45 41 56
REMARK Flexibility Score: inf
ROOT
ATOM      1  C   UNL A   1      39.377  21.554  26.121  1.00  0.00     0.202 C 
ENDROOT
BRANCH   1   2
ATOM      2  C   UNL A   1      37.956  21.698  25.557  1.00  0.00     0.261 C 
BRANCH   2   3
ATOM      3  O   UNL A   1      37.391  23.019  25.780  1.00  0.00    -0.462 OA
BRANCH   3   4
ATOM      4  C   UNL A   1      36.110  23.193  25.357  1.00  0.00     0.325 C 
ATOM      5  O   UNL A   1      35.813  23.754  24.304  1.00  0.00    -0.250 OA
BRANCH   4   6
ATOM      6  C   UNL A   1      35.015  22.722  26.342  1.00  0.00     0.244 C 
BRANCH   6   7
ATOM      7  N   UNL A   1      33.581  22.756  26.015  1.00  0.00    -0.310 N 
BRANCH   7   8
ATOM      8  C   UNL A   1      33.121  21.659  25.152  1.00  0.00     0.149 C 
BRANCH   8   9
ATOM      9  C   UNL A   1      33.943  20.418  25.393  1.00  0.00    -0.013 C 
ATOM     10  C   UNL A   1      33.888  19.330  24.611  1.00  0.00     0.006 C 
ENDBRANCH   8   9
ENDBRANCH   7   8
BRANCH   7  11
ATOM     11  C   UNL A   1      32.594  23.573  26.559  1.00  0.00     0.320 C 
ATOM     12  O   UNL A   1      32.109  23.309  27.665  1.00  0.00    -0.248 OA
BRANCH  11  13
ATOM     13  N   UNL A   1      32.109  24.678  25.882  1.00  0.00    -0.324 N 
ATOM     14  C   UNL A   1      30.860  25.365  26.055  1.00  0.00     0.122 C 
ATOM     15  C   UNL A   1      33.068  25.568  25.208  1.00  0.00     0.128 C 
ATOM     16  C   UNL A   1      30.843  26.524  25.096  1.00  0.00     0.030 C 
ATOM     17  C   UNL A   1      32.316  26.876  24.822  1.00  0.00    -0.011 C 
BRANCH  17  18
ATOM     18  C   UNL A   1      32.451  27.179  23.301  1.00  0.00     0.005 C 
ATOM     19  C   UNL A   1      33.705  26.574  22.660  1.00  0.00     0.004 C 
ENDBRANCH  17  18
BRANCH  17  20
ATOM     20  C   UNL A   1      32.833  28.139  25.580  1.00  0.00     0.005 C 
ATOM     21  C   UNL A   1      31.867  28.985  26.383  1.00  0.00     0.004 C 
ENDBRANCH  17  20
ENDBRANCH  11  13
ENDBRANCH   7  11
ENDBRANCH   6   7
ENDBRANCH   4   6
ENDBRANCH   3   4
ENDBRANCH   2   3
ENDBRANCH   1   2
BRANCH   1  22
ATOM     22  O   UNL A   1      39.938  20.245  26.126  1.00  0.00    -0.374 OA
BRANCH  22  23
ATOM     23  C   UNL A   1      41.248  20.095  26.643  1.00  0.00     0.202 C 
BRANCH  23  24
ATOM     24  C   UNL A   1      42.224  19.154  25.907  1.00  0.00     0.261 C 
BRANCH  24  25
ATOM     25  O   UNL A   1      43.578  19.502  26.004  1.00  0.00    -0.460 OA
BRANCH  25  26
ATOM     26  C   UNL A   1      44.096  20.010  24.868  1.00  0.00     0.338 C 
ATOM     27  O   UNL A   1      44.157  19.515  23.770  1.00  0.00    -0.246 OA
BRANCH  26  28
ATOM     28  C   UNL A   1      44.324  21.396  25.263  1.00  0.00     0.060 A 
ATOM     29  C   UNL A   1      43.898  22.388  24.382  1.00  0.00     0.016 A 
ATOM     30  C   UNL A   1      44.754  21.675  26.566  1.00  0.00     0.016 A 
ATOM     31  C   UNL A   1      43.967  23.705  24.794  1.00  0.00     0.010 A 
ATOM     32  C   UNL A   1      44.801  22.990  26.984  1.00  0.00     0.010 A 
ATOM     33  C   UNL A   1      44.456  24.001  26.075  1.00  0.00    -0.014 A 
BRANCH  33  34
ATOM     34  C   UNL A   1      44.843  25.385  26.369  1.00  0.00     0.031 A 
ATOM     35  C   UNL A   1      43.783  26.277  26.941  1.00  0.00     0.074 A 
ATOM     36  C   UNL A   1      46.110  25.781  26.179  1.00  0.00     0.049 A 
ATOM     37  N   UNL A   1      43.863  27.523  27.313  1.00  0.00    -0.248 NA
ATOM     38  C   UNL A   1      42.445  25.680  27.108  1.00  0.00     0.031 C 
ATOM     39  C   UNL A   1      47.186  24.941  25.653  1.00  0.00     0.029 A 
ATOM     40  N   UNL A   1      46.703  26.986  26.419  1.00  0.00    -0.354 N 
ATOM     41  C   UNL A   1      42.589  27.859  27.757  1.00  0.00     0.074 A 
ATOM     42  C   UNL A   1      41.743  26.708  27.548  1.00  0.00     0.031 C 
ATOM     43  C   UNL A   1      48.320  25.660  25.623  1.00  0.00     0.029 A 
ATOM     44  C   UNL A   1      48.036  27.014  26.091  1.00  0.00     0.049 A 
ATOM     45  H   UNL A   1      46.223  27.761  26.791  1.00  0.00     0.167 HD
ATOM     46  C   UNL A   1      42.178  29.024  28.308  1.00  0.00     0.034 A 
ATOM     47  C   UNL A   1      48.910  28.033  26.157  1.00  0.00     0.034 A 
ATOM     48  C   UNL A   1      43.060  30.150  28.473  1.00  0.00     0.049 A 
ATOM     49  C   UNL A   1      48.414  29.347  26.711  1.00  0.00     0.074 A 
ATOM     50  C   UNL A   1      42.783  31.396  29.002  1.00  0.00     0.029 A 
ATOM     51  N   UNL A   1      44.400  30.164  28.094  1.00  0.00    -0.354 N 
ATOM     52  N   UNL A   1      47.210  29.661  27.138  1.00  0.00    -0.248 NA
ATOM     53  C   UNL A   1      49.393  30.431  26.810  1.00  0.00     0.031 C 
ATOM     54  C   UNL A   1      43.930  32.185  28.870  1.00  0.00     0.029 A 
ATOM     55  C   UNL A   1      44.955  31.405  28.350  1.00  0.00     0.049 A 
ATOM     56  H   UNL A   1      44.882  29.400  27.702  1.00  0.00     0.167 HD
ATOM     57  C   UNL A   1      47.297  30.973  27.593  1.00  0.00     0.074 A 
ATOM     58  C   UNL A   1      48.677  31.380  27.396  1.00  0.00     0.031 C 
ATOM     59  C   UNL A   1      46.336  31.772  28.129  1.00  0.00     0.034 A 
BRANCH  46  60
ATOM     60  C   UNL A   1      40.721  29.130  28.686  1.00  0.00     0.023 A 
ATOM     61  C   UNL A   1      40.287  29.030  30.023  1.00  0.00     0.031 A 
ATOM     62  C   UNL A   1      39.739  29.252  27.687  1.00  0.00     0.131 A 
ATOM     63  C   UNL A   1      38.916  28.966  30.312  1.00  0.00     0.055 A 
ATOM     64  C   UNL A   1      38.376  29.280  27.992  1.00  0.00     0.041 A 
ATOM     65  F   UNL A   1      40.085  29.316  26.392  1.00  0.00    -0.206 F 
ATOM     66  C   UNL A   1      37.956  29.117  29.309  1.00  0.00     0.022 A 
BRANCH  63  67
ATOM     67  S   UNL A   1      38.403  28.506  31.993  1.00  0.00     0.124 S 
ATOM     68  O   UNL A   1      39.461  29.111  32.799  1.00  0.00    -0.237 OA
ATOM     69  O   UNL A   1      37.085  29.121  32.100  1.00  0.00    -0.237 OA
ATOM     70  O   UNL A   1      38.409  27.045  31.965  1.00  0.00    -0.744 OA
ENDBRANCH  63  67
ENDBRANCH  46  60
BRANCH  47  71
ATOM     71  C   UNL A   1      50.312  27.857  25.686  1.00  0.00     0.023 A 
ATOM     72  C   UNL A   1      50.622  27.809  24.318  1.00  0.00     0.031 A 
ATOM     73  C   UNL A   1      51.368  27.712  26.605  1.00  0.00     0.131 A 
ATOM     74  C   UNL A   1      51.946  27.582  23.908  1.00  0.00     0.055 A 
ATOM     75  C   UNL A   1      52.689  27.540  26.194  1.00  0.00     0.041 A 
ATOM     76  F   UNL A   1      51.129  27.754  27.926  1.00  0.00    -0.206 F 
ATOM     77  C   UNL A   1      52.983  27.461  24.836  1.00  0.00     0.022 A 
BRANCH  74  78
ATOM     78  S   UNL A   1      52.284  27.366  22.140  1.00  0.00     0.124 S 
ATOM     79  O   UNL A   1      51.022  27.786  21.542  1.00  0.00    -0.237 OA
ATOM     80  O   UNL A   1      53.420  28.259  21.938  1.00  0.00    -0.237 OA
ATOM     81  O   UNL A   1      52.587  25.941  22.024  1.00  0.00    -0.744 OA
ENDBRANCH  74  78
ENDBRANCH  47  71
BRANCH  59  82
ATOM     82  C   UNL A   1      46.773  33.141  28.588  1.00  0.00     0.023 A 
ATOM     83  C   UNL A   1      46.664  34.271  27.762  1.00  0.00     0.031 A 
ATOM     84  C   UNL A   1      47.315  33.309  29.876  1.00  0.00     0.131 A 
ATOM     85  C   UNL A   1      47.159  35.505  28.203  1.00  0.00     0.055 A 
ATOM     86  C   UNL A   1      47.733  34.555  30.339  1.00  0.00     0.041 A 
ATOM     87  F   UNL A   1      47.442  32.261  30.707  1.00  0.00    -0.206 F 
ATOM     88  C   UNL A   1      47.673  35.660  29.494  1.00  0.00     0.022 A 
BRANCH  85  89
ATOM     89  S   UNL A   1      47.239  36.878  27.022  1.00  0.00     0.124 S 
ATOM     90  O   UNL A   1      46.719  36.261  25.806  1.00  0.00    -0.237 OA
ATOM     91  O   UNL A   1      46.379  37.877  27.648  1.00  0.00    -0.237 OA
ATOM     92  O   UNL A   1      48.660  37.218  26.987  1.00  0.00    -0.744 OA
ENDBRANCH  85  89
ENDBRANCH  59  82
ENDBRANCH  33  34
ENDBRANCH  26  28
ENDBRANCH  25  26
ENDBRANCH  24  25
ENDBRANCH  23  24
ENDBRANCH  22  23
ENDBRANCH   1  22
TORSDOF 24
ENDMDL
MODEL 3
REMARK VINA RESULT:      -8.3      4.813     10.530
REMARK SMILES C=CCN(CC(=O)OCCOCCOC(=O)c1ccc(-c2c3nc(c(-c4cc(S(=O)(=O)[O-])ccc4F)c4ccc([nH]4)c(-c4cc(S(=O)(=O)[O-])ccc4F)c4nc(c(-c5cc(S(=O)(=O)[O-])ccc5F)c5ccc2[nH]5)C=C4)C=C3)cc1)C(=O)N1CCC(CC)(CC)C1
REMARK SMILES IDX 10 1 9 2 8 3 6 4 7 5 5 6 4 7 3 8 2 9 1 10 80 11 81 12 82 13
REMARK SMILES IDX 83 14 90 15 84 16 85 17 86 18 87 19 88 20 89 21 11 22 12 23
REMARK SMILES IDX 13 24 14 25 15 26 16 27 17 28 18 29 79 30 19 31 78 32 20 33
REMARK SMILES IDX 21 34 22 35 72 36 23 37 77 38 71 39 73 40 24 41 76 42 70 43
REMARK SMILES IDX 69 44 25 46 57 47 37 48 56 49 38 50 41 51 55 52 74 53 39 54
REMARK SMILES IDX 40 55 54 57 75 58 42 59 26 60 27 61 35 62 28 63 34 64 36 65
REMARK SMILES IDX 33 66 29 67 30 68 31 69 32 70 58 71 59 72 67 73 60 74 66 75
REMARK SMILES IDX 68 76 65 77 61 78 62 79 63 80 64 81 43 82 44 83 52 84 45 85
REMARK SMILES IDX 51 86 53 87 50 88 46 89 47 90 48 91 49 92
REMARK H PARENT 73 45 41 56
REMARK Flexibility Score: inf
ROOT
ATOM      1  C   UNL A   1      38.602  19.960  24.985  1.00  0.00     0.202 C 
ENDROOT
BRANCH   1   2
ATOM      2  C   UNL A   1      37.150  19.514  24.761  1.00  0.00     0.261 C 
BRANCH   2   3
ATOM      3  O   UNL A   1      36.184  20.412  25.371  1.00  0.00    -0.462 OA
BRANCH   3   4
ATOM      4  C   UNL A   1      35.765  21.446  24.592  1.00  0.00     0.325 C 
ATOM      5  O   UNL A   1      36.420  22.473  24.419  1.00  0.00    -0.250 OA
BRANCH   4   6
ATOM      6  C   UNL A   1      34.346  21.300  23.998  1.00  0.00     0.244 C 
BRANCH   6   7
ATOM      7  N   UNL A   1      33.163  21.001  24.821  1.00  0.00    -0.310 N 
BRANCH   7   8
ATOM      8  C   UNL A   1      33.266  19.772  25.620  1.00  0.00     0.149 C 
BRANCH   8   9
ATOM      9  C   UNL A   1      32.837  18.576  24.805  1.00  0.00    -0.013 C 
ATOM     10  C   UNL A   1      32.516  18.643  23.504  1.00  0.00     0.006 C 
ENDBRANCH   8   9
ENDBRANCH   7   8
BRANCH   7  11
ATOM     11  C   UNL A   1      32.062  21.813  25.072  1.00  0.00     0.320 C 
ATOM     12  O   UNL A   1      31.126  21.394  25.765  1.00  0.00    -0.248 OA
BRANCH  11  13
ATOM     13  N   UNL A   1      31.960  23.087  24.542  1.00  0.00    -0.324 N 
ATOM     14  C   UNL A   1      31.582  23.484  23.215  1.00  0.00     0.122 C 
ATOM     15  C   UNL A   1      31.777  24.220  25.462  1.00  0.00     0.128 C 
ATOM     16  C   UNL A   1      31.593  24.988  23.170  1.00  0.00     0.030 C 
ATOM     17  C   UNL A   1      31.365  25.461  24.616  1.00  0.00    -0.011 C 
BRANCH  17  18
ATOM     18  C   UNL A   1      32.319  26.664  24.873  1.00  0.00     0.005 C 
ATOM     19  C   UNL A   1      33.762  26.251  25.188  1.00  0.00     0.004 C 
ENDBRANCH  17  18
BRANCH  17  20
ATOM     20  C   UNL A   1      29.917  25.965  24.914  1.00  0.00     0.005 C 
ATOM     21  C   UNL A   1      29.169  26.768  23.869  1.00  0.00     0.004 C 
ENDBRANCH  17  20
ENDBRANCH  11  13
ENDBRANCH   7  11
ENDBRANCH   6   7
ENDBRANCH   4   6
ENDBRANCH   3   4
ENDBRANCH   2   3
ENDBRANCH   1   2
BRANCH   1  22
ATOM     22  O   UNL A   1      39.471  19.028  25.621  1.00  0.00    -0.374 OA
BRANCH  22  23
ATOM     23  C   UNL A   1      40.555  19.548  26.371  1.00  0.00     0.202 C 
BRANCH  23  24
ATOM     24  C   UNL A   1      41.074  20.960  26.028  1.00  0.00     0.261 C 
BRANCH  24  25
ATOM     25  O   UNL A   1      40.796  21.947  26.982  1.00  0.00    -0.460 OA
BRANCH  25  26
ATOM     26  C   UNL A   1      39.614  22.571  26.798  1.00  0.00     0.338 C 
ATOM     27  O   UNL A   1      38.536  22.100  26.534  1.00  0.00    -0.246 OA
BRANCH  26  28
ATOM     28  C   UNL A   1      39.940  23.919  27.252  1.00  0.00     0.060 A 
ATOM     29  C   UNL A   1      39.125  24.957  26.803  1.00  0.00     0.016 A 
ATOM     30  C   UNL A   1      40.898  24.090  28.259  1.00  0.00     0.016 A 
ATOM     31  C   UNL A   1      39.319  26.219  27.332  1.00  0.00     0.010 A 
ATOM     32  C   UNL A   1      41.075  25.348  28.801  1.00  0.00     0.010 A 
ATOM     33  C   UNL A   1      40.319  26.415  28.296  1.00  0.00    -0.014 A 
BRANCH  33  34
ATOM     34  C   UNL A   1      40.741  27.789  28.590  1.00  0.00     0.031 A 
ATOM     35  C   UNL A   1      42.151  28.153  28.238  1.00  0.00     0.074 A 
ATOM     36  C   UNL A   1      39.862  28.667  29.093  1.00  0.00     0.049 A 
ATOM     37  N   UNL A   1      42.768  29.294  28.366  1.00  0.00    -0.248 NA
ATOM     38  C   UNL A   1      42.984  27.076  27.673  1.00  0.00     0.031 C 
ATOM     39  C   UNL A   1      38.468  28.369  29.423  1.00  0.00     0.029 A 
ATOM     40  N   UNL A   1      40.010  29.987  29.401  1.00  0.00    -0.354 N 
ATOM     41  C   UNL A   1      44.058  29.072  27.897  1.00  0.00     0.074 A 
ATOM     42  C   UNL A   1      44.153  27.675  27.544  1.00  0.00     0.031 C 
ATOM     43  C   UNL A   1      37.883  29.489  29.879  1.00  0.00     0.029 A 
ATOM     44  C   UNL A   1      38.871  30.564  29.905  1.00  0.00     0.049 A 
ATOM     45  H   UNL A   1      40.853  30.481  29.274  1.00  0.00     0.167 HD
ATOM     46  C   UNL A   1      45.061  29.969  27.759  1.00  0.00     0.034 A 
ATOM     47  C   UNL A   1      38.672  31.818  30.345  1.00  0.00     0.034 A 
ATOM     48  C   UNL A   1      44.919  31.348  28.149  1.00  0.00     0.049 A 
ATOM     49  C   UNL A   1      39.825  32.787  30.247  1.00  0.00     0.074 A 
ATOM     50  C   UNL A   1      45.849  32.367  28.081  1.00  0.00     0.029 A 
ATOM     51  N   UNL A   1      43.761  31.897  28.696  1.00  0.00    -0.354 N 
ATOM     52  N   UNL A   1      41.044  32.578  29.796  1.00  0.00    -0.248 NA
ATOM     53  C   UNL A   1      39.574  34.158  30.697  1.00  0.00     0.031 C 
ATOM     54  C   UNL A   1      45.282  33.508  28.657  1.00  0.00     0.029 A 
ATOM     55  C   UNL A   1      43.964  33.232  28.997  1.00  0.00     0.049 A 
ATOM     56  H   UNL A   1      42.921  31.406  28.845  1.00  0.00     0.167 HD
ATOM     57  C   UNL A   1      41.694  33.805  29.873  1.00  0.00     0.074 A 
ATOM     58  C   UNL A   1      40.724  34.746  30.403  1.00  0.00     0.031 C 
ATOM     59  C   UNL A   1      42.970  34.134  29.535  1.00  0.00     0.034 A 
BRANCH  46  60
ATOM     60  C   UNL A   1      46.380  29.452  27.240  1.00  0.00     0.023 A 
ATOM     61  C   UNL A   1      46.554  29.065  25.897  1.00  0.00     0.031 A 
ATOM     62  C   UNL A   1      47.461  29.265  28.120  1.00  0.00     0.131 A 
ATOM     63  C   UNL A   1      47.742  28.434  25.497  1.00  0.00     0.055 A 
ATOM     64  C   UNL A   1      48.674  28.720  27.693  1.00  0.00     0.041 A 
ATOM     65  F   UNL A   1      47.347  29.579  29.420  1.00  0.00    -0.206 F 
ATOM     66  C   UNL A   1      48.814  28.284  26.378  1.00  0.00     0.022 A 
BRANCH  63  67
ATOM     67  S   UNL A   1      47.803  27.656  23.857  1.00  0.00     0.124 S 
ATOM     68  O   UNL A   1      47.414  26.283  24.169  1.00  0.00    -0.237 OA
ATOM     69  O   UNL A   1      46.833  28.439  23.100  1.00  0.00    -0.237 OA
ATOM     70  O   UNL A   1      49.196  27.824  23.449  1.00  0.00    -0.744 OA
ENDBRANCH  63  67
ENDBRANCH  46  60
BRANCH  47  71
ATOM     71  C   UNL A   1      37.355  32.217  30.917  1.00  0.00     0.023 A 
ATOM     72  C   UNL A   1      36.377  32.845  30.131  1.00  0.00     0.031 A 
ATOM     73  C   UNL A   1      37.062  31.989  32.275  1.00  0.00     0.131 A 
ATOM     74  C   UNL A   1      35.170  33.260  30.716  1.00  0.00     0.055 A 
ATOM     75  C   UNL A   1      35.840  32.355  32.840  1.00  0.00     0.041 A 
ATOM     76  F   UNL A   1      37.960  31.386  33.072  1.00  0.00    -0.206 F 
ATOM     77  C   UNL A   1      34.889  33.007  32.061  1.00  0.00     0.022 A 
BRANCH  74  78
ATOM     78  S   UNL A   1      33.999  34.212  29.711  1.00  0.00     0.124 S 
ATOM     79  O   UNL A   1      33.293  33.155  28.995  1.00  0.00    -0.237 OA
ATOM     80  O   UNL A   1      33.233  34.921  30.731  1.00  0.00    -0.237 OA
ATOM     81  O   UNL A   1      34.864  35.054  28.888  1.00  0.00    -0.744 OA
ENDBRANCH  74  78
ENDBRANCH  47  71
BRANCH  59  82
ATOM     82  C   UNL A   1      43.355  35.586  29.679  1.00  0.00     0.023 A 
ATOM     83  C   UNL A   1      43.078  36.529  28.676  1.00  0.00     0.031 A 
ATOM     84  C   UNL A   1      44.019  36.023  30.840  1.00  0.00     0.131 A 
ATOM     85  C   UNL A   1      43.529  37.848  28.820  1.00  0.00     0.055 A 
ATOM     86  C   UNL A   1      44.394  37.355  31.012  1.00  0.00     0.041 A 
ATOM     87  F   UNL A   1      44.309  35.162  31.828  1.00  0.00    -0.206 F 
ATOM     88  C   UNL A   1      44.165  38.273  29.991  1.00  0.00     0.022 A 
BRANCH  85  89
ATOM     89  S   UNL A   1      43.383  38.972  27.406  1.00  0.00     0.124 S 
ATOM     90  O   UNL A   1      44.771  39.094  26.973  1.00  0.00    -0.237 OA
ATOM     91  O   UNL A   1      42.498  38.234  26.511  1.00  0.00    -0.237 OA
ATOM     92  O   UNL A   1      42.806  40.183  27.988  1.00  0.00    -0.744 OA
ENDBRANCH  85  89
ENDBRANCH  59  82
ENDBRANCH  33  34
ENDBRANCH  26  28
ENDBRANCH  25  26
ENDBRANCH  24  25
ENDBRANCH  23  24
ENDBRANCH  22  23
ENDBRANCH   1  22
TORSDOF 24
ENDMDL
