MODEL 1
REMARK VINA RESULT:     -10.5      0.000      0.000
REMARK SMILES C[C@H]1[C@H](C(=O)OCCOCCOC(=O)c2ccc(-c3c4nc(c(-c5cc(S(=O)(=O)[O-])ccc5F)c5ccc([nH]5)c(-c5cc(S(=O)(=O)[O-])ccc5F)c5nc(c(-c6cc(S(=O)(=O)[O-])ccc6F)c6ccc3[nH]6)C=C5)C=C4)cc2)CCN1S(=O)(=O)[C@@H](C)C#N
REMARK SMILES IDX 9 1 8 2 7 3 6 4 4 5 5 6 3 7 1 8 2 9 80 10 78 11 79 12 81 13
REMARK SMILES IDX 82 14 83 15 84 16 85 17 86 18 87 19 10 20 11 21 12 22 13 23
REMARK SMILES IDX 14 24 15 25 16 26 77 27 17 28 76 29 18 30 19 31 20 32 70 33
REMARK SMILES IDX 21 34 75 35 69 36 71 37 22 38 74 39 68 40 67 41 23 43 55 44
REMARK SMILES IDX 35 45 54 46 36 47 39 48 53 49 72 50 37 51 38 52 52 54 73 55
REMARK SMILES IDX 40 56 24 57 25 58 33 59 26 60 32 61 34 62 31 63 27 64 28 65
REMARK SMILES IDX 29 66 30 67 56 68 57 69 65 70 58 71 64 72 66 73 63 74 59 75
REMARK SMILES IDX 60 76 61 77 62 78 41 79 42 80 50 81 43 82 49 83 51 84 48 85
REMARK SMILES IDX 44 86 45 87 46 88 47 89
REMARK H PARENT 71 42 39 53
REMARK Flexibility Score: inf
ROOT
ATOM      1  O   UNL A   1      36.204  22.695  24.212  1.00  0.00    -0.374 OA
ENDROOT
BRANCH   1   2
ATOM      2  C   UNL A   1      35.390  23.182  23.146  1.00  0.00     0.202 C 
BRANCH   2   3
ATOM      3  C   UNL A   1      34.204  24.070  23.544  1.00  0.00     0.261 C 
BRANCH   3   4
ATOM      4  O   UNL A   1      32.928  23.583  23.100  1.00  0.00    -0.463 OA
BRANCH   4   5
ATOM      5  C   UNL A   1      32.212  22.864  24.000  1.00  0.00     0.310 C 
ATOM      6  O   UNL A   1      32.471  21.718  24.357  1.00  0.00    -0.252 OA
BRANCH   5   7
ATOM      7  C   UNL A   1      30.976  23.581  24.501  1.00  0.00     0.118 C 
ATOM      8  C   UNL A   1      30.039  23.344  26.843  1.00  0.00     0.027 C 
ATOM      9  C   UNL A   1      31.017  24.111  25.946  1.00  0.00     0.084 C 
ATOM     10  N   UNL A   1      30.544  25.550  25.891  1.00  0.00    -0.197 NA
ATOM     11  C   UNL A   1      30.714  24.804  23.637  1.00  0.00     0.034 C 
ATOM     12  C   UNL A   1      29.915  25.711  24.546  1.00  0.00     0.103 C 
BRANCH  10  13
ATOM     13  S   UNL A   1      31.708  26.752  26.262  1.00  0.00     0.230 S 
ATOM     14  O   UNL A   1      31.324  27.359  27.515  1.00  0.00    -0.211 OA
ATOM     15  O   UNL A   1      33.007  26.112  26.140  1.00  0.00    -0.211 OA
BRANCH  13  16
ATOM     16  C   UNL A   1      31.622  27.956  24.933  1.00  0.00     0.223 C 
ATOM     17  C   UNL A   1      31.472  29.379  25.444  1.00  0.00     0.043 C 
BRANCH  16  18
ATOM     18  C   UNL A   1      32.879  27.815  24.091  1.00  0.00     0.083 C 
ATOM     19  N   UNL A   1      33.923  27.698  23.392  1.00  0.00    -0.197 NA
ENDBRANCH  16  18
ENDBRANCH  13  16
ENDBRANCH  10  13
ENDBRANCH   5   7
ENDBRANCH   4   5
ENDBRANCH   3   4
ENDBRANCH   2   3
ENDBRANCH   1   2
BRANCH   1  20
ATOM     20  C   UNL A   1      35.937  21.370  24.681  1.00  0.00     0.202 C 
BRANCH  20  21
ATOM     21  C   UNL A   1      37.160  20.508  24.998  1.00  0.00     0.261 C 
BRANCH  21  22
ATOM     22  O   UNL A   1      38.359  21.292  24.920  1.00  0.00    -0.460 OA
BRANCH  22  23
ATOM     23  C   UNL A   1      39.277  20.969  25.856  1.00  0.00     0.338 C 
ATOM     24  O   UNL A   1      39.812  19.880  26.018  1.00  0.00    -0.246 OA
BRANCH  23  25
ATOM     25  C   UNL A   1      39.615  22.166  26.641  1.00  0.00     0.060 A 
ATOM     26  C   UNL A   1      38.902  23.348  26.427  1.00  0.00     0.016 A 
ATOM     27  C   UNL A   1      40.738  22.156  27.471  1.00  0.00     0.016 A 
ATOM     28  C   UNL A   1      39.369  24.541  26.984  1.00  0.00     0.010 A 
ATOM     29  C   UNL A   1      41.163  23.336  28.082  1.00  0.00     0.010 A 
ATOM     30  C   UNL A   1      40.528  24.550  27.780  1.00  0.00    -0.014 A 
BRANCH  30  31
ATOM     31  C   UNL A   1      41.183  25.843  28.124  1.00  0.00     0.031 A 
ATOM     32  C   UNL A   1      42.586  26.110  27.632  1.00  0.00     0.074 A 
ATOM     33  C   UNL A   1      40.528  26.782  28.832  1.00  0.00     0.049 A 
ATOM     34  N   UNL A   1      43.329  27.178  27.776  1.00  0.00    -0.248 NA
ATOM     35  C   UNL A   1      43.244  25.020  26.895  1.00  0.00     0.031 C 
ATOM     36  C   UNL A   1      39.179  26.641  29.379  1.00  0.00     0.029 A 
ATOM     37  N   UNL A   1      40.910  28.047  29.205  1.00  0.00    -0.354 N 
ATOM     38  C   UNL A   1      44.540  26.885  27.154  1.00  0.00     0.074 A 
ATOM     39  C   UNL A   1      44.454  25.517  26.692  1.00  0.00     0.031 C 
ATOM     40  C   UNL A   1      38.839  27.784  30.000  1.00  0.00     0.029 A 
ATOM     41  C   UNL A   1      39.950  28.729  29.913  1.00  0.00     0.049 A 
ATOM     42  H   UNL A   1      41.791  28.430  28.986  1.00  0.00     0.167 HD
ATOM     43  C   UNL A   1      45.617  27.687  26.958  1.00  0.00     0.034 A 
ATOM     44  C   UNL A   1      39.963  29.976  30.428  1.00  0.00     0.034 A 
ATOM     45  C   UNL A   1      45.691  29.055  27.408  1.00  0.00     0.049 A 
ATOM     46  C   UNL A   1      41.173  30.849  30.207  1.00  0.00     0.074 A 
ATOM     47  C   UNL A   1      46.717  29.968  27.232  1.00  0.00     0.029 A 
ATOM     48  N   UNL A   1      44.699  29.708  28.126  1.00  0.00    -0.354 N 
ATOM     49  N   UNL A   1      42.294  30.570  29.581  1.00  0.00    -0.248 NA
ATOM     50  C   UNL A   1      41.110  32.213  30.746  1.00  0.00     0.031 C 
ATOM     51  C   UNL A   1      46.368  31.153  27.894  1.00  0.00     0.029 A 
ATOM     52  C   UNL A   1      45.097  31.004  28.422  1.00  0.00     0.049 A 
ATOM     53  H   UNL A   1      43.837  29.310  28.388  1.00  0.00     0.167 HD
ATOM     54  C   UNL A   1      43.054  31.737  29.625  1.00  0.00     0.074 A 
ATOM     55  C   UNL A   1      42.257  32.723  30.325  1.00  0.00     0.031 C 
ATOM     56  C   UNL A   1      44.297  31.974  29.132  1.00  0.00     0.034 A 
BRANCH  43  57
ATOM     57  C   UNL A   1      46.809  27.084  26.250  1.00  0.00     0.023 A 
ATOM     58  C   UNL A   1      47.819  26.402  26.951  1.00  0.00     0.031 A 
ATOM     59  C   UNL A   1      46.955  27.226  24.858  1.00  0.00     0.131 A 
ATOM     60  C   UNL A   1      48.966  25.959  26.274  1.00  0.00     0.055 A 
ATOM     61  C   UNL A   1      48.062  26.711  24.179  1.00  0.00     0.041 A 
ATOM     62  F   UNL A   1      46.034  27.885  24.137  1.00  0.00    -0.206 F 
ATOM     63  C   UNL A   1      49.083  26.087  24.889  1.00  0.00     0.022 A 
BRANCH  60  64
ATOM     64  S   UNL A   1      50.364  25.340  27.250  1.00  0.00     0.124 S 
ATOM     65  O   UNL A   1      50.720  26.518  28.035  1.00  0.00    -0.237 OA
ATOM     66  O   UNL A   1      49.769  24.234  27.990  1.00  0.00    -0.237 OA
ATOM     67  O   UNL A   1      51.345  24.957  26.236  1.00  0.00    -0.744 OA
ENDBRANCH  60  64
ENDBRANCH  43  57
BRANCH  44  68
ATOM     68  C   UNL A   1      38.796  30.483  31.203  1.00  0.00     0.023 A 
ATOM     69  C   UNL A   1      37.718  31.115  30.564  1.00  0.00     0.031 A 
ATOM     70  C   UNL A   1      38.768  30.384  32.605  1.00  0.00     0.131 A 
ATOM     71  C   UNL A   1      36.678  31.665  31.328  1.00  0.00     0.055 A 
ATOM     72  C   UNL A   1      37.708  30.891  33.358  1.00  0.00     0.041 A 
ATOM     73  F   UNL A   1      39.773  29.785  33.264  1.00  0.00    -0.206 F 
ATOM     74  C   UNL A   1      36.660  31.548  32.719  1.00  0.00     0.022 A 
BRANCH  71  75
ATOM     75  S   UNL A   1      35.378  32.606  30.480  1.00  0.00     0.124 S 
ATOM     76  O   UNL A   1      34.406  32.801  31.550  1.00  0.00    -0.237 OA
ATOM     77  O   UNL A   1      36.102  33.796  30.046  1.00  0.00    -0.237 OA
ATOM     78  O   UNL A   1      34.955  31.710  29.406  1.00  0.00    -0.744 OA
ENDBRANCH  71  75
ENDBRANCH  44  68
BRANCH  56  79
ATOM     79  C   UNL A   1      44.844  33.370  29.299  1.00  0.00     0.023 A 
ATOM     80  C   UNL A   1      44.523  34.403  28.401  1.00  0.00     0.031 A 
ATOM     81  C   UNL A   1      45.723  33.663  30.357  1.00  0.00     0.131 A 
ATOM     82  C   UNL A   1      45.125  35.662  28.540  1.00  0.00     0.055 A 
ATOM     83  C   UNL A   1      46.274  34.934  30.525  1.00  0.00     0.041 A 
ATOM     84  F   UNL A   1      46.064  32.715  31.245  1.00  0.00    -0.206 F 
ATOM     85  C   UNL A   1      45.988  35.939  29.603  1.00  0.00     0.022 A 
BRANCH  82  86
ATOM     86  S   UNL A   1      44.849  36.907  27.250  1.00  0.00     0.124 S 
ATOM     87  O   UNL A   1      46.030  36.743  26.409  1.00  0.00    -0.237 OA
ATOM     88  O   UNL A   1      43.585  36.473  26.663  1.00  0.00    -0.237 OA
ATOM     89  O   UNL A   1      44.788  38.165  27.992  1.00  0.00    -0.744 OA
ENDBRANCH  82  86
ENDBRANCH  56  79
ENDBRANCH  30  31
ENDBRANCH  23  25
ENDBRANCH  22  23
ENDBRANCH  21  22
ENDBRANCH  20  21
ENDBRANCH   1  20
TORSDOF 20
ENDMDL
MODEL 2
REMARK VINA RESULT:     -10.3      4.594     10.159
REMARK SMILES C[C@H]1[C@H](C(=O)OCCOCCOC(=O)c2ccc(-c3c4nc(c(-c5cc(S(=O)(=O)[O-])ccc5F)c5ccc([nH]5)c(-c5cc(S(=O)(=O)[O-])ccc5F)c5nc(c(-c6cc(S(=O)(=O)[O-])ccc6F)c6ccc3[nH]6)C=C5)C=C4)cc2)CCN1S(=O)(=O)[C@@H](C)C#N
REMARK SMILES IDX 9 1 8 2 7 3 6 4 4 5 5 6 3 7 1 8 2 9 80 10 78 11 79 12 81 13
REMARK SMILES IDX 82 14 83 15 84 16 85 17 86 18 87 19 10 20 11 21 12 22 13 23
REMARK SMILES IDX 14 24 15 25 16 26 77 27 17 28 76 29 18 30 19 31 20 32 70 33
REMARK SMILES IDX 21 34 75 35 69 36 71 37 22 38 74 39 68 40 67 41 23 43 55 44
REMARK SMILES IDX 35 45 54 46 36 47 39 48 53 49 72 50 37 51 38 52 52 54 73 55
REMARK SMILES IDX 40 56 24 57 25 58 33 59 26 60 32 61 34 62 31 63 27 64 28 65
REMARK SMILES IDX 29 66 30 67 56 68 57 69 65 70 58 71 64 72 66 73 63 74 59 75
REMARK SMILES IDX 60 76 61 77 62 78 41 79 42 80 50 81 43 82 49 83 51 84 48 85
REMARK SMILES IDX 44 86 45 87 46 88 47 89
REMARK H PARENT 71 42 39 53
REMARK Flexibility Score: inf
ROOT
ATOM      1  O   UNL A   1      32.228  30.368  26.230  1.00  0.00    -0.374 OA
ENDROOT
BRANCH   1   2
ATOM      2  C   UNL A   1      31.825  29.229  26.990  1.00  0.00     0.202 C 
BRANCH   2   3
ATOM      3  C   UNL A   1      32.560  27.916  26.694  1.00  0.00     0.261 C 
BRANCH   3   4
ATOM      4  O   UNL A   1      31.909  26.746  27.217  1.00  0.00    -0.463 OA
BRANCH   4   5
ATOM      5  C   UNL A   1      31.175  26.022  26.336  1.00  0.00     0.310 C 
ATOM      6  O   UNL A   1      29.970  25.811  26.424  1.00  0.00    -0.252 OA
BRANCH   5   7
ATOM      7  C   UNL A   1      32.000  25.406  25.225  1.00  0.00     0.118 C 
ATOM      8  C   UNL A   1      34.509  25.071  25.326  1.00  0.00     0.027 C 
ATOM      9  C   UNL A   1      33.140  24.461  25.646  1.00  0.00     0.084 C 
ATOM     10  N   UNL A   1      32.996  23.209  24.803  1.00  0.00    -0.197 NA
ATOM     11  C   UNL A   1      31.101  24.569  24.330  1.00  0.00     0.034 C 
ATOM     12  C   UNL A   1      32.054  23.576  23.703  1.00  0.00     0.103 C 
BRANCH  10  13
ATOM     13  S   UNL A   1      32.569  21.773  25.634  1.00  0.00     0.230 S 
ATOM     14  O   UNL A   1      33.044  21.897  26.992  1.00  0.00    -0.211 OA
ATOM     15  O   UNL A   1      31.153  21.564  25.383  1.00  0.00    -0.211 OA
BRANCH  13  16
ATOM     16  C   UNL A   1      33.423  20.438  24.792  1.00  0.00     0.223 C 
ATOM     17  C   UNL A   1      34.930  20.499  24.980  1.00  0.00     0.043 C 
BRANCH  16  18
ATOM     18  C   UNL A   1      32.867  19.123  25.314  1.00  0.00     0.083 C 
ATOM     19  N   UNL A   1      32.407  18.032  25.748  1.00  0.00    -0.197 NA
ENDBRANCH  16  18
ENDBRANCH  13  16
ENDBRANCH  10  13
ENDBRANCH   5   7
ENDBRANCH   4   5
ENDBRANCH   3   4
ENDBRANCH   2   3
ENDBRANCH   1   2
BRANCH   1  20
ATOM     20  C   UNL A   1      31.336  31.487  26.212  1.00  0.00     0.202 C 
BRANCH  20  21
ATOM     21  C   UNL A   1      31.849  32.767  26.873  1.00  0.00     0.261 C 
BRANCH  21  22
ATOM     22  O   UNL A   1      32.781  32.454  27.918  1.00  0.00    -0.460 OA
BRANCH  22  23
ATOM     23  C   UNL A   1      33.797  33.337  28.019  1.00  0.00     0.338 C 
ATOM     24  O   UNL A   1      33.712  34.557  28.038  1.00  0.00    -0.246 OA
BRANCH  23  25
ATOM     25  C   UNL A   1      35.064  32.606  28.177  1.00  0.00     0.060 A 
ATOM     26  C   UNL A   1      35.034  31.234  28.435  1.00  0.00     0.016 A 
ATOM     27  C   UNL A   1      36.268  33.311  28.226  1.00  0.00     0.016 A 
ATOM     28  C   UNL A   1      36.207  30.584  28.826  1.00  0.00     0.010 A 
ATOM     29  C   UNL A   1      37.452  32.646  28.550  1.00  0.00     0.010 A 
ATOM     30  C   UNL A   1      37.416  31.295  28.929  1.00  0.00    -0.014 A 
BRANCH  30  31
ATOM     31  C   UNL A   1      38.584  30.680  29.618  1.00  0.00     0.031 A 
ATOM     32  C   UNL A   1      38.877  31.061  31.050  1.00  0.00     0.074 A 
ATOM     33  C   UNL A   1      39.353  29.767  28.994  1.00  0.00     0.049 A 
ATOM     34  N   UNL A   1      39.811  30.621  31.854  1.00  0.00    -0.248 NA
ATOM     35  C   UNL A   1      38.012  32.090  31.648  1.00  0.00     0.031 C 
ATOM     36  C   UNL A   1      39.186  29.327  27.609  1.00  0.00     0.029 A 
ATOM     37  N   UNL A   1      40.424  29.041  29.451  1.00  0.00    -0.354 N 
ATOM     38  C   UNL A   1      39.648  31.322  33.046  1.00  0.00     0.074 A 
ATOM     39  C   UNL A   1      38.570  32.262  32.835  1.00  0.00     0.031 C 
ATOM     40  C   UNL A   1      40.111  28.389  27.337  1.00  0.00     0.029 A 
ATOM     41  C   UNL A   1      40.946  28.178  28.517  1.00  0.00     0.049 A 
ATOM     42  H   UNL A   1      40.785  29.130  30.363  1.00  0.00     0.167 HD
ATOM     43  C   UNL A   1      40.314  31.180  34.220  1.00  0.00     0.034 A 
ATOM     44  C   UNL A   1      41.977  27.312  28.605  1.00  0.00     0.034 A 
ATOM     45  C   UNL A   1      41.379  30.229  34.428  1.00  0.00     0.049 A 
ATOM     46  C   UNL A   1      42.710  27.175  29.916  1.00  0.00     0.074 A 
ATOM     47  C   UNL A   1      42.096  29.975  35.585  1.00  0.00     0.029 A 
ATOM     48  N   UNL A   1      41.882  29.376  33.456  1.00  0.00    -0.354 N 
ATOM     49  N   UNL A   1      42.516  27.816  31.046  1.00  0.00    -0.248 NA
ATOM     50  C   UNL A   1      43.789  26.180  29.968  1.00  0.00     0.031 C 
ATOM     51  C   UNL A   1      43.070  29.011  35.295  1.00  0.00     0.029 A 
ATOM     52  C   UNL A   1      42.915  28.612  33.977  1.00  0.00     0.049 A 
ATOM     53  H   UNL A   1      41.552  29.320  32.529  1.00  0.00     0.167 HD
ATOM     54  C   UNL A   1      43.429  27.278  31.950  1.00  0.00     0.074 A 
ATOM     55  C   UNL A   1      44.160  26.250  31.237  1.00  0.00     0.031 C 
ATOM     56  C   UNL A   1      43.644  27.600  33.252  1.00  0.00     0.034 A 
BRANCH  43  57
ATOM     57  C   UNL A   1      39.921  32.098  35.354  1.00  0.00     0.023 A 
ATOM     58  C   UNL A   1      39.040  31.685  36.369  1.00  0.00     0.031 A 
ATOM     59  C   UNL A   1      40.405  33.418  35.400  1.00  0.00     0.131 A 
ATOM     60  C   UNL A   1      38.609  32.603  37.340  1.00  0.00     0.055 A 
ATOM     61  C   UNL A   1      40.034  34.303  36.416  1.00  0.00     0.041 A 
ATOM     62  F   UNL A   1      41.233  33.876  34.448  1.00  0.00    -0.206 F 
ATOM     63  C   UNL A   1      39.119  33.902  37.384  1.00  0.00     0.022 A 
BRANCH  60  64
ATOM     64  S   UNL A   1      37.265  32.117  38.457  1.00  0.00     0.124 S 
ATOM     65  O   UNL A   1      37.829  32.452  39.761  1.00  0.00    -0.237 OA
ATOM     66  O   UNL A   1      36.159  32.954  38.004  1.00  0.00    -0.237 OA
ATOM     67  O   UNL A   1      37.109  30.686  38.203  1.00  0.00    -0.744 OA
ENDBRANCH  60  64
ENDBRANCH  43  57
BRANCH  44  68
ATOM     68  C   UNL A   1      42.382  26.501  27.423  1.00  0.00     0.023 A 
ATOM     69  C   UNL A   1      42.007  25.154  27.301  1.00  0.00     0.031 A 
ATOM     70  C   UNL A   1      43.196  27.055  26.419  1.00  0.00     0.131 A 
ATOM     71  C   UNL A   1      42.482  24.391  26.224  1.00  0.00     0.055 A 
ATOM     72  C   UNL A   1      43.627  26.304  25.324  1.00  0.00     0.041 A 
ATOM     73  F   UNL A   1      43.579  28.340  26.487  1.00  0.00    -0.206 F 
ATOM     74  C   UNL A   1      43.281  24.960  25.230  1.00  0.00     0.022 A 
BRANCH  71  75
ATOM     75  S   UNL A   1      42.102  22.617  26.179  1.00  0.00     0.124 S 
ATOM     76  O   UNL A   1      42.692  22.219  24.906  1.00  0.00    -0.237 OA
ATOM     77  O   UNL A   1      42.778  22.134  27.379  1.00  0.00    -0.237 OA
ATOM     78  O   UNL A   1      40.642  22.580  26.231  1.00  0.00    -0.744 OA
ENDBRANCH  71  75
ENDBRANCH  44  68
BRANCH  56  79
ATOM     79  C   UNL A   1      44.686  26.798  33.991  1.00  0.00     0.023 A 
ATOM     80  C   UNL A   1      46.034  27.197  34.033  1.00  0.00     0.031 A 
ATOM     81  C   UNL A   1      44.331  25.601  34.639  1.00  0.00     0.131 A 
ATOM     82  C   UNL A   1      46.987  26.375  34.654  1.00  0.00     0.055 A 
ATOM     83  C   UNL A   1      45.274  24.817  35.305  1.00  0.00     0.041 A 
ATOM     84  F   UNL A   1      43.058  25.173  34.631  1.00  0.00    -0.206 F 
ATOM     85  C   UNL A   1      46.614  25.195  35.302  1.00  0.00     0.022 A 
BRANCH  82  86
ATOM     86  S   UNL A   1      48.742  26.816  34.513  1.00  0.00     0.124 S 
ATOM     87  O   UNL A   1      49.357  25.938  35.503  1.00  0.00    -0.237 OA
ATOM     88  O   UNL A   1      49.030  26.502  33.118  1.00  0.00    -0.237 OA
ATOM     89  O   UNL A   1      48.767  28.239  34.847  1.00  0.00    -0.744 OA
ENDBRANCH  82  86
ENDBRANCH  56  79
ENDBRANCH  30  31
ENDBRANCH  23  25
ENDBRANCH  22  23
ENDBRANCH  21  22
ENDBRANCH  20  21
ENDBRANCH   1  20
TORSDOF 20
ENDMDL
MODEL 3
REMARK VINA RESULT:     -10.2      4.762     10.070
REMARK SMILES C[C@H]1[C@H](C(=O)OCCOCCOC(=O)c2ccc(-c3c4nc(c(-c5cc(S(=O)(=O)[O-])ccc5F)c5ccc([nH]5)c(-c5cc(S(=O)(=O)[O-])ccc5F)c5nc(c(-c6cc(S(=O)(=O)[O-])ccc6F)c6ccc3[nH]6)C=C5)C=C4)cc2)CCN1S(=O)(=O)[C@@H](C)C#N
REMARK SMILES IDX 9 1 8 2 7 3 6 4 4 5 5 6 3 7 1 8 2 9 80 10 78 11 79 12 81 13
REMARK SMILES IDX 82 14 83 15 84 16 85 17 86 18 87 19 10 20 11 21 12 22 13 23
REMARK SMILES IDX 14 24 15 25 16 26 77 27 17 28 76 29 18 30 19 31 20 32 70 33
REMARK SMILES IDX 21 34 75 35 69 36 71 37 22 38 74 39 68 40 67 41 23 43 55 44
REMARK SMILES IDX 35 45 54 46 36 47 39 48 53 49 72 50 37 51 38 52 52 54 73 55
REMARK SMILES IDX 40 56 24 57 25 58 33 59 26 60 32 61 34 62 31 63 27 64 28 65
REMARK SMILES IDX 29 66 30 67 56 68 57 69 65 70 58 71 64 72 66 73 63 74 59 75
REMARK SMILES IDX 60 76 61 77 62 78 41 79 42 80 50 81 43 82 49 83 51 84 48 85
REMARK SMILES IDX 44 86 45 87 46 88 47 89
REMARK H PARENT 71 42 39 53
REMARK Flexibility Score: inf
ROOT
ATOM      1  O   UNL A   1      32.749  29.059  24.044  1.00  0.00    -0.374 OA
ENDROOT
BRANCH   1   2
ATOM      2  C   UNL A   1      31.514  28.469  23.639  1.00  0.00     0.202 C 
BRANCH   2   3
ATOM      3  C   UNL A   1      31.582  27.481  22.468  1.00  0.00     0.261 C 
BRANCH   3   4
ATOM      4  O   UNL A   1      31.131  26.155  22.789  1.00  0.00    -0.463 OA
BRANCH   4   5
ATOM      5  C   UNL A   1      32.096  25.219  22.969  1.00  0.00     0.310 C 
ATOM      6  O   UNL A   1      33.290  25.381  22.738  1.00  0.00    -0.252 OA
BRANCH   5   7
ATOM      7  C   UNL A   1      31.560  23.879  23.426  1.00  0.00     0.118 C 
ATOM      8  C   UNL A   1      32.126  21.666  22.328  1.00  0.00     0.027 C 
ATOM      9  C   UNL A   1      32.539  22.690  23.391  1.00  0.00     0.084 C 
ATOM     10  N   UNL A   1      32.434  22.006  24.740  1.00  0.00    -0.197 NA
ATOM     11  C   UNL A   1      31.109  23.979  24.874  1.00  0.00     0.034 C 
ATOM     12  C   UNL A   1      31.193  22.552  25.368  1.00  0.00     0.103 C 
BRANCH  10  13
ATOM     13  S   UNL A   1      33.816  22.088  25.748  1.00  0.00     0.230 S 
ATOM     14  O   UNL A   1      33.426  22.749  26.972  1.00  0.00    -0.211 OA
ATOM     15  O   UNL A   1      34.362  20.743  25.800  1.00  0.00    -0.211 OA
BRANCH  13  16
ATOM     16  C   UNL A   1      35.022  23.078  24.861  1.00  0.00     0.223 C 
ATOM     17  C   UNL A   1      35.152  24.484  25.424  1.00  0.00     0.043 C 
BRANCH  16  18
ATOM     18  C   UNL A   1      36.356  22.351  24.914  1.00  0.00     0.083 C 
ATOM     19  N   UNL A   1      37.463  21.748  24.958  1.00  0.00    -0.197 NA
ENDBRANCH  16  18
ENDBRANCH  13  16
ENDBRANCH  10  13
ENDBRANCH   5   7
ENDBRANCH   4   5
ENDBRANCH   3   4
ENDBRANCH   2   3
ENDBRANCH   1   2
BRANCH   1  20
ATOM     20  C   UNL A   1      32.977  29.187  25.451  1.00  0.00     0.202 C 
BRANCH  20  21
ATOM     21  C   UNL A   1      32.360  30.414  26.124  1.00  0.00     0.261 C 
BRANCH  21  22
ATOM     22  O   UNL A   1      32.852  30.551  27.465  1.00  0.00    -0.460 OA
BRANCH  22  23
ATOM     23  C   UNL A   1      33.669  31.612  27.635  1.00  0.00     0.338 C 
ATOM     24  O   UNL A   1      33.356  32.794  27.606  1.00  0.00    -0.246 OA
BRANCH  23  25
ATOM     25  C   UNL A   1      35.027  31.137  27.943  1.00  0.00     0.060 A 
ATOM     26  C   UNL A   1      35.231  29.786  28.232  1.00  0.00     0.016 A 
ATOM     27  C   UNL A   1      36.065  32.060  28.097  1.00  0.00     0.016 A 
ATOM     28  C   UNL A   1      36.458  29.375  28.758  1.00  0.00     0.010 A 
ATOM     29  C   UNL A   1      37.311  31.635  28.558  1.00  0.00     0.010 A 
ATOM     30  C   UNL A   1      37.492  30.304  28.966  1.00  0.00    -0.014 A 
BRANCH  30  31
ATOM     31  C   UNL A   1      38.676  29.927  29.787  1.00  0.00     0.031 A 
ATOM     32  C   UNL A   1      38.789  30.455  31.198  1.00  0.00     0.074 A 
ATOM     33  C   UNL A   1      39.619  29.099  29.301  1.00  0.00     0.049 A 
ATOM     34  N   UNL A   1      39.707  30.223  32.102  1.00  0.00    -0.248 NA
ATOM     35  C   UNL A   1      37.736  31.382  31.642  1.00  0.00     0.031 C 
ATOM     36  C   UNL A   1      39.635  28.536  27.951  1.00  0.00     0.029 A 
ATOM     37  N   UNL A   1      40.743  28.581  29.894  1.00  0.00    -0.354 N 
ATOM     38  C   UNL A   1      39.344  30.978  33.214  1.00  0.00     0.074 A 
ATOM     39  C   UNL A   1      38.162  31.725  32.847  1.00  0.00     0.031 C 
ATOM     40  C   UNL A   1      40.706  27.733  27.827  1.00  0.00     0.029 A 
ATOM     41  C   UNL A   1      41.462  27.740  29.078  1.00  0.00     0.049 A 
ATOM     42  H   UNL A   1      41.010  28.791  30.818  1.00  0.00     0.167 HD
ATOM     43  C   UNL A   1      39.923  31.028  34.441  1.00  0.00     0.034 A 
ATOM     44  C   UNL A   1      42.597  27.050  29.314  1.00  0.00     0.034 A 
ATOM     45  C   UNL A   1      41.095  30.269  34.806  1.00  0.00     0.049 A 
ATOM     46  C   UNL A   1      43.230  27.125  30.681  1.00  0.00     0.074 A 
ATOM     47  C   UNL A   1      41.742  30.214  36.028  1.00  0.00     0.029 A 
ATOM     48  N   UNL A   1      41.796  29.432  33.949  1.00  0.00    -0.354 N 
ATOM     49  N   UNL A   1      42.851  27.811  31.735  1.00  0.00    -0.248 NA
ATOM     50  C   UNL A   1      44.435  26.312  30.896  1.00  0.00     0.031 C 
ATOM     51  C   UNL A   1      42.867  29.391  35.893  1.00  0.00     0.029 A 
ATOM     52  C   UNL A   1      42.883  28.876  34.607  1.00  0.00     0.049 A 
ATOM     53  H   UNL A   1      41.557  29.258  33.010  1.00  0.00     0.167 HD
ATOM     54  C   UNL A   1      43.754  27.488  32.745  1.00  0.00     0.074 A 
ATOM     55  C   UNL A   1      44.685  26.533  32.177  1.00  0.00     0.031 C 
ATOM     56  C   UNL A   1      43.810  27.935  34.026  1.00  0.00     0.034 A 
BRANCH  43  57
ATOM     57  C   UNL A   1      39.307  31.958  35.460  1.00  0.00     0.023 A 
ATOM     58  C   UNL A   1      39.727  33.294  35.591  1.00  0.00     0.031 A 
ATOM     59  C   UNL A   1      38.312  31.492  36.338  1.00  0.00     0.131 A 
ATOM     60  C   UNL A   1      39.212  34.091  36.626  1.00  0.00     0.055 A 
ATOM     61  C   UNL A   1      37.747  32.316  37.314  1.00  0.00     0.041 A 
ATOM     62  F   UNL A   1      37.885  30.221  36.275  1.00  0.00    -0.206 F 
ATOM     63  C   UNL A   1      38.208  33.619  37.473  1.00  0.00     0.022 A 
BRANCH  60  64
ATOM     64  S   UNL A   1      39.978  35.707  36.937  1.00  0.00     0.124 S 
ATOM     65  O   UNL A   1      39.281  36.135  38.147  1.00  0.00    -0.237 OA
ATOM     66  O   UNL A   1      41.386  35.363  37.098  1.00  0.00    -0.237 OA
ATOM     67  O   UNL A   1      39.656  36.475  35.737  1.00  0.00    -0.744 OA
ENDBRANCH  60  64
ENDBRANCH  43  57
BRANCH  44  68
ATOM     68  C   UNL A   1      43.214  26.225  28.239  1.00  0.00     0.023 A 
ATOM     69  C   UNL A   1      44.273  26.718  27.460  1.00  0.00     0.031 A 
ATOM     70  C   UNL A   1      42.716  24.944  27.942  1.00  0.00     0.131 A 
ATOM     71  C   UNL A   1      44.771  25.954  26.393  1.00  0.00     0.055 A 
ATOM     72  C   UNL A   1      43.246  24.168  26.910  1.00  0.00     0.041 A 
ATOM     73  F   UNL A   1      41.706  24.425  28.660  1.00  0.00    -0.206 F 
ATOM     74  C   UNL A   1      44.271  24.679  26.120  1.00  0.00     0.022 A 
BRANCH  71  75
ATOM     75  S   UNL A   1      46.035  26.684  25.316  1.00  0.00     0.124 S 
ATOM     76  O   UNL A   1      46.414  25.544  24.488  1.00  0.00    -0.237 OA
ATOM     77  O   UNL A   1      45.286  27.742  24.647  1.00  0.00    -0.237 OA
ATOM     78  O   UNL A   1      47.058  27.143  26.253  1.00  0.00    -0.744 OA
ENDBRANCH  71  75
ENDBRANCH  44  68
BRANCH  56  79
ATOM     79  C   UNL A   1      44.893  27.359  34.905  1.00  0.00     0.023 A 
ATOM     80  C   UNL A   1      44.723  26.139  35.584  1.00  0.00     0.031 A 
ATOM     81  C   UNL A   1      46.102  28.054  35.087  1.00  0.00     0.131 A 
ATOM     82  C   UNL A   1      45.718  25.684  36.462  1.00  0.00     0.055 A 
ATOM     83  C   UNL A   1      47.112  27.568  35.918  1.00  0.00     0.041 A 
ATOM     84  F   UNL A   1      46.317  29.223  34.463  1.00  0.00    -0.206 F 
ATOM     85  C   UNL A   1      46.917  26.383  36.624  1.00  0.00     0.022 A 
BRANCH  82  86
ATOM     86  S   UNL A   1      45.380  24.217  37.476  1.00  0.00     0.124 S 
ATOM     87  O   UNL A   1      44.592  23.393  36.566  1.00  0.00    -0.237 OA
ATOM     88  O   UNL A   1      46.723  23.730  37.775  1.00  0.00    -0.237 OA
ATOM     89  O   UNL A   1      44.646  24.752  38.621  1.00  0.00    -0.744 OA
ENDBRANCH  82  86
ENDBRANCH  56  79
ENDBRANCH  30  31
ENDBRANCH  23  25
ENDBRANCH  22  23
ENDBRANCH  21  22
ENDBRANCH  20  21
ENDBRANCH   1  20
TORSDOF 20
ENDMDL
