MODEL 1
REMARK VINA RESULT:     -10.5      0.000      0.000
REMARK SMILES CC[N@@H+](Cc1cccc(C)n1)Cc1csc(C(=O)OCCOCCOC(=O)c2ccc(-c3c4nc(c(-c5cc(S(=O)(=O)[O-])ccc5F)c5ccc([nH]5)c(-c5cc(S(=O)(=O)[O-])ccc5F)c5nc(c(-c6cc(S(=O)(=O)[O-])ccc6F)c6ccc3[nH]6)C=C5)C=C4)cc2)n1
REMARK SMILES IDX 21 1 20 2 19 3 17 4 18 5 16 6 13 7 14 8 91 9 15 10 12 11
REMARK SMILES IDX 3 12 2 14 1 15 4 16 5 17 6 18 11 19 7 20 9 21 8 22 10 23
REMARK SMILES IDX 22 24 23 25 24 26 25 27 26 28 27 29 28 30 29 31 90 32 30 33
REMARK SMILES IDX 89 34 31 35 32 36 33 37 83 38 34 39 88 40 82 41 84 42 35 43
REMARK SMILES IDX 87 44 81 45 80 46 36 48 68 49 48 50 67 51 49 52 52 53 66 54
REMARK SMILES IDX 85 55 50 56 51 57 65 59 86 60 53 61 37 62 38 63 46 64 39 65
REMARK SMILES IDX 45 66 47 67 44 68 40 69 41 70 42 71 43 72 69 73 70 74 78 75
REMARK SMILES IDX 71 76 77 77 79 78 76 79 72 80 73 81 74 82 75 83 54 84 55 85
REMARK SMILES IDX 63 86 56 87 62 88 64 89 61 90 57 91 58 92 59 93 60 94
REMARK H PARENT 3 13 84 47 52 58
REMARK Flexibility Score: inf
ROOT
ATOM      1  C   UNL A   1      37.386  22.491  24.885  1.00  0.00     0.202 C 
ENDROOT
BRANCH   1   2
ATOM      2  C   UNL A   1      36.381  23.190  25.802  1.00  0.00     0.261 C 
BRANCH   2   3
ATOM      3  O   UNL A   1      35.089  22.583  25.634  1.00  0.00    -0.458 OA
BRANCH   3   4
ATOM      4  C   UNL A   1      34.188  22.833  26.620  1.00  0.00     0.367 C 
ATOM      5  O   UNL A   1      34.419  22.654  27.828  1.00  0.00    -0.243 OA
BRANCH   4   6
ATOM      6  C   UNL A   1      32.955  23.346  26.065  1.00  0.00     0.202 A 
ATOM      7  C   UNL A   1      31.484  24.818  25.303  1.00  0.00     0.106 A 
ATOM      8  C   UNL A   1      30.906  23.656  24.823  1.00  0.00     0.097 A 
ATOM      9  N   UNL A   1      32.653  24.627  26.029  1.00  0.00    -0.229 NA
ATOM     10  S   UNL A   1      31.835  22.302  25.284  1.00  0.00    -0.115 S 
BRANCH   7  11
ATOM     11  C   UNL A   1      30.953  26.198  25.085  1.00  0.00     0.320 C 
BRANCH  11  12
ATOM     12  N   UNL A   1      31.705  26.981  24.110  1.00  0.00    -0.325 N 
ATOM     13  H   UNL A   1      32.600  26.935  24.596  1.00  0.00     0.348 HD
BRANCH  12  14
ATOM     14  C   UNL A   1      32.137  26.367  22.861  1.00  0.00     0.259 C 
ATOM     15  C   UNL A   1      33.371  26.948  22.178  1.00  0.00     0.071 C 
ENDBRANCH  12  14
BRANCH  12  16
ATOM     16  C   UNL A   1      31.411  28.422  24.055  1.00  0.00     0.319 C 
BRANCH  16  17
ATOM     17  C   UNL A   1      30.021  28.933  23.673  1.00  0.00     0.095 A 
ATOM     18  C   UNL A   1      29.006  28.094  23.223  1.00  0.00     0.030 A 
ATOM     19  N   UNL A   1      29.851  30.286  23.695  1.00  0.00    -0.252 NA
ATOM     20  C   UNL A   1      27.785  28.632  22.826  1.00  0.00     0.004 A 
ATOM     21  C   UNL A   1      28.659  30.798  23.292  1.00  0.00     0.038 A 
ATOM     22  C   UNL A   1      27.609  30.006  22.849  1.00  0.00     0.023 A 
ATOM     23  C   UNL A   1      28.529  32.292  23.260  1.00  0.00     0.067 C 
ENDBRANCH  16  17
ENDBRANCH  12  16
ENDBRANCH  11  12
ENDBRANCH   7  11
ENDBRANCH   4   6
ENDBRANCH   3   4
ENDBRANCH   2   3
ENDBRANCH   1   2
BRANCH   1  24
ATOM     24  O   UNL A   1      37.009  21.174  24.466  1.00  0.00    -0.374 OA
BRANCH  24  25
ATOM     25  C   UNL A   1      37.762  20.080  24.984  1.00  0.00     0.202 C 
BRANCH  25  26
ATOM     26  C   UNL A   1      39.038  20.433  25.759  1.00  0.00     0.261 C 
BRANCH  26  27
ATOM     27  O   UNL A   1      39.992  19.360  25.793  1.00  0.00    -0.460 OA
BRANCH  27  28
ATOM     28  C   UNL A   1      41.205  19.707  26.284  1.00  0.00     0.338 C 
ATOM     29  O   UNL A   1      42.227  19.020  26.264  1.00  0.00    -0.246 OA
BRANCH  28  30
ATOM     30  C   UNL A   1      41.213  21.112  26.729  1.00  0.00     0.060 A 
ATOM     31  C   UNL A   1      41.085  22.099  25.743  1.00  0.00     0.016 A 
ATOM     32  C   UNL A   1      41.423  21.469  28.064  1.00  0.00     0.016 A 
ATOM     33  C   UNL A   1      41.218  23.445  26.078  1.00  0.00     0.010 A 
ATOM     34  C   UNL A   1      41.573  22.822  28.397  1.00  0.00     0.010 A 
ATOM     35  C   UNL A   1      41.510  23.810  27.398  1.00  0.00    -0.014 A 
BRANCH  35  36
ATOM     36  C   UNL A   1      41.944  25.199  27.683  1.00  0.00     0.031 A 
ATOM     37  C   UNL A   1      43.324  25.620  27.256  1.00  0.00     0.074 A 
ATOM     38  C   UNL A   1      41.117  26.081  28.273  1.00  0.00     0.049 A 
ATOM     39  N   UNL A   1      43.930  26.768  27.409  1.00  0.00    -0.248 NA
ATOM     40  C   UNL A   1      44.126  24.601  26.561  1.00  0.00     0.031 C 
ATOM     41  C   UNL A   1      39.744  25.804  28.689  1.00  0.00     0.029 A 
ATOM     42  N   UNL A   1      41.321  27.391  28.628  1.00  0.00    -0.354 N 
ATOM     43  C   UNL A   1      45.182  26.615  26.822  1.00  0.00     0.074 A 
ATOM     44  C   UNL A   1      45.258  25.252  26.342  1.00  0.00     0.031 C 
ATOM     45  C   UNL A   1      39.232  26.908  29.261  1.00  0.00     0.029 A 
ATOM     46  C   UNL A   1      40.248  27.960  29.273  1.00  0.00     0.049 A 
ATOM     47  H   UNL A   1      42.155  27.877  28.438  1.00  0.00     0.167 HD
ATOM     48  C   UNL A   1      46.177  27.528  26.692  1.00  0.00     0.034 A 
ATOM     49  C   UNL A   1      40.115  29.181  29.828  1.00  0.00     0.034 A 
ATOM     50  C   UNL A   1      46.104  28.873  27.203  1.00  0.00     0.049 A 
ATOM     51  C   UNL A   1      41.265  30.155  29.748  1.00  0.00     0.074 A 
ATOM     52  C   UNL A   1      47.058  29.874  27.145  1.00  0.00     0.029 A 
ATOM     53  N   UNL A   1      45.015  29.401  27.883  1.00  0.00    -0.354 N 
ATOM     54  N   UNL A   1      42.446  29.996  29.197  1.00  0.00    -0.248 NA
ATOM     55  C   UNL A   1      41.060  31.474  30.362  1.00  0.00     0.031 C 
ATOM     56  C   UNL A   1      46.565  30.989  27.834  1.00  0.00     0.029 A 
ATOM     57  C   UNL A   1      45.282  30.705  28.271  1.00  0.00     0.049 A 
ATOM     58  H   UNL A   1      44.175  28.920  28.063  1.00  0.00     0.167 HD
ATOM     59  C   UNL A   1      43.115  31.203  29.377  1.00  0.00     0.074 A 
ATOM     60  C   UNL A   1      42.205  32.082  30.084  1.00  0.00     0.031 C 
ATOM     61  C   UNL A   1      44.364  31.560  28.984  1.00  0.00     0.034 A 
BRANCH  48  62
ATOM     62  C   UNL A   1      47.442  27.061  26.019  1.00  0.00     0.023 A 
ATOM     63  C   UNL A   1      48.414  26.321  26.713  1.00  0.00     0.031 A 
ATOM     64  C   UNL A   1      47.707  27.416  24.685  1.00  0.00     0.131 A 
ATOM     65  C   UNL A   1      49.637  26.020  26.095  1.00  0.00     0.055 A 
ATOM     66  C   UNL A   1      48.897  27.055  24.052  1.00  0.00     0.041 A 
ATOM     67  F   UNL A   1      46.824  28.144  23.984  1.00  0.00    -0.206 F 
ATOM     68  C   UNL A   1      49.877  26.366  24.763  1.00  0.00     0.022 A 
BRANCH  65  69
ATOM     69  S   UNL A   1      50.963  25.296  27.098  1.00  0.00     0.124 S 
ATOM     70  O   UNL A   1      51.444  26.461  27.837  1.00  0.00    -0.237 OA
ATOM     71  O   UNL A   1      50.254  24.291  27.880  1.00  0.00    -0.237 OA
ATOM     72  O   UNL A   1      51.897  24.770  26.104  1.00  0.00    -0.744 OA
ENDBRANCH  65  69
ENDBRANCH  48  62
BRANCH  49  73
ATOM     73  C   UNL A   1      38.868  29.542  30.555  1.00  0.00     0.023 A 
ATOM     74  C   UNL A   1      37.921  30.412  29.995  1.00  0.00     0.031 A 
ATOM     75  C   UNL A   1      38.633  29.053  31.853  1.00  0.00     0.131 A 
ATOM     76  C   UNL A   1      36.797  30.795  30.744  1.00  0.00     0.055 A 
ATOM     77  C   UNL A   1      37.495  29.406  32.579  1.00  0.00     0.041 A 
ATOM     78  F   UNL A   1      39.510  28.217  32.431  1.00  0.00    -0.206 F 
ATOM     79  C   UNL A   1      36.573  30.291  32.028  1.00  0.00     0.022 A 
BRANCH  76  80
ATOM     80  S   UNL A   1      35.653  32.014  30.039  1.00  0.00     0.124 S 
ATOM     81  O   UNL A   1      36.542  33.141  29.779  1.00  0.00    -0.237 OA
ATOM     82  O   UNL A   1      35.149  31.310  28.864  1.00  0.00    -0.237 OA
ATOM     83  O   UNL A   1      34.676  32.221  31.105  1.00  0.00    -0.744 OA
ENDBRANCH  76  80
ENDBRANCH  49  73
BRANCH  61  84
ATOM     84  C   UNL A   1      44.793  32.974  29.271  1.00  0.00     0.023 A 
ATOM     85  C   UNL A   1      44.708  33.985  28.299  1.00  0.00     0.031 A 
ATOM     86  C   UNL A   1      45.295  33.309  30.541  1.00  0.00     0.131 A 
ATOM     87  C   UNL A   1      45.155  35.279  28.601  1.00  0.00     0.055 A 
ATOM     88  C   UNL A   1      45.701  34.607  30.848  1.00  0.00     0.041 A 
ATOM     89  F   UNL A   1      45.395  32.378  31.503  1.00  0.00    -0.206 F 
ATOM     90  C   UNL A   1      45.641  35.600  29.874  1.00  0.00     0.022 A 
BRANCH  87  91
ATOM     91  S   UNL A   1      45.147  36.535  27.292  1.00  0.00     0.124 S 
ATOM     92  O   UNL A   1      45.445  35.738  26.106  1.00  0.00    -0.237 OA
ATOM     93  O   UNL A   1      43.792  37.068  27.377  1.00  0.00    -0.237 OA
ATOM     94  O   UNL A   1      46.203  37.461  27.697  1.00  0.00    -0.744 OA
ENDBRANCH  87  91
ENDBRANCH  61  84
ENDBRANCH  35  36
ENDBRANCH  28  30
ENDBRANCH  27  28
ENDBRANCH  26  27
ENDBRANCH  25  26
ENDBRANCH  24  25
ENDBRANCH   1  24
TORSDOF 22
ENDMDL
MODEL 2
REMARK VINA RESULT:     -10.5      2.458      3.279
REMARK SMILES CC[N@@H+](Cc1cccc(C)n1)Cc1csc(C(=O)OCCOCCOC(=O)c2ccc(-c3c4nc(c(-c5cc(S(=O)(=O)[O-])ccc5F)c5ccc([nH]5)c(-c5cc(S(=O)(=O)[O-])ccc5F)c5nc(c(-c6cc(S(=O)(=O)[O-])ccc6F)c6ccc3[nH]6)C=C5)C=C4)cc2)n1
REMARK SMILES IDX 21 1 20 2 19 3 17 4 18 5 16 6 13 7 14 8 91 9 15 10 12 11
REMARK SMILES IDX 3 12 2 14 1 15 4 16 5 17 6 18 11 19 7 20 9 21 8 22 10 23
REMARK SMILES IDX 22 24 23 25 24 26 25 27 26 28 27 29 28 30 29 31 90 32 30 33
REMARK SMILES IDX 89 34 31 35 32 36 33 37 83 38 34 39 88 40 82 41 84 42 35 43
REMARK SMILES IDX 87 44 81 45 80 46 36 48 68 49 48 50 67 51 49 52 52 53 66 54
REMARK SMILES IDX 85 55 50 56 51 57 65 59 86 60 53 61 37 62 38 63 46 64 39 65
REMARK SMILES IDX 45 66 47 67 44 68 40 69 41 70 42 71 43 72 69 73 70 74 78 75
REMARK SMILES IDX 71 76 77 77 79 78 76 79 72 80 73 81 74 82 75 83 54 84 55 85
REMARK SMILES IDX 63 86 56 87 62 88 64 89 61 90 57 91 58 92 59 93 60 94
REMARK H PARENT 3 13 84 47 52 58
REMARK Flexibility Score: inf
ROOT
ATOM      1  C   UNL A   1      37.956  23.189  25.837  1.00  0.00     0.202 C 
ENDROOT
BRANCH   1   2
ATOM      2  C   UNL A   1      36.461  23.488  25.966  1.00  0.00     0.261 C 
BRANCH   2   3
ATOM      3  O   UNL A   1      36.017  24.185  24.792  1.00  0.00    -0.458 OA
BRANCH   3   4
ATOM      4  C   UNL A   1      35.594  23.402  23.765  1.00  0.00     0.367 C 
ATOM      5  O   UNL A   1      36.323  23.042  22.825  1.00  0.00    -0.243 OA
BRANCH   4   6
ATOM      6  C   UNL A   1      34.204  23.042  23.938  1.00  0.00     0.202 A 
ATOM      7  C   UNL A   1      31.996  23.234  23.893  1.00  0.00     0.106 A 
ATOM      8  C   UNL A   1      32.098  21.866  24.080  1.00  0.00     0.097 A 
ATOM      9  N   UNL A   1      33.212  23.902  23.828  1.00  0.00    -0.229 NA
ATOM     10  S   UNL A   1      33.737  21.405  24.178  1.00  0.00    -0.115 S 
BRANCH   7  11
ATOM     11  C   UNL A   1      30.716  23.991  23.752  1.00  0.00     0.320 C 
BRANCH  11  12
ATOM     12  N   UNL A   1      30.257  24.626  24.982  1.00  0.00    -0.325 N 
ATOM     13  H   UNL A   1      29.331  24.197  24.991  1.00  0.00     0.348 HD
BRANCH  12  14
ATOM     14  C   UNL A   1      30.709  24.122  26.273  1.00  0.00     0.259 C 
ATOM     15  C   UNL A   1      29.870  23.037  26.942  1.00  0.00     0.071 C 
ENDBRANCH  12  14
BRANCH  12  16
ATOM     16  C   UNL A   1      29.974  26.069  24.913  1.00  0.00     0.319 C 
BRANCH  16  17
ATOM     17  C   UNL A   1      31.077  27.078  24.591  1.00  0.00     0.095 A 
ATOM     18  C   UNL A   1      31.217  27.667  23.338  1.00  0.00     0.030 A 
ATOM     19  N   UNL A   1      31.996  27.298  25.574  1.00  0.00    -0.252 NA
ATOM     20  C   UNL A   1      32.285  28.525  23.090  1.00  0.00     0.004 A 
ATOM     21  C   UNL A   1      33.040  28.128  25.314  1.00  0.00     0.038 A 
ATOM     22  C   UNL A   1      33.219  28.753  24.087  1.00  0.00     0.023 A 
ATOM     23  C   UNL A   1      34.071  28.293  26.391  1.00  0.00     0.067 C 
ENDBRANCH  16  17
ENDBRANCH  12  16
ENDBRANCH  11  12
ENDBRANCH   7  11
ENDBRANCH   4   6
ENDBRANCH   3   4
ENDBRANCH   2   3
ENDBRANCH   1   2
BRANCH   1  24
ATOM     24  O   UNL A   1      38.289  21.798  25.750  1.00  0.00    -0.374 OA
BRANCH  24  25
ATOM     25  C   UNL A   1      39.583  21.404  26.200  1.00  0.00     0.202 C 
BRANCH  25  26
ATOM     26  C   UNL A   1      40.007  19.963  25.889  1.00  0.00     0.261 C 
BRANCH  26  27
ATOM     27  O   UNL A   1      41.208  19.568  26.571  1.00  0.00    -0.460 OA
BRANCH  27  28
ATOM     28  C   UNL A   1      42.329  19.647  25.818  1.00  0.00     0.338 C 
ATOM     29  O   UNL A   1      42.697  18.839  24.964  1.00  0.00    -0.246 OA
BRANCH  28  30
ATOM     30  C   UNL A   1      43.018  20.933  26.028  1.00  0.00     0.060 A 
ATOM     31  C   UNL A   1      43.272  21.318  27.352  1.00  0.00     0.016 A 
ATOM     32  C   UNL A   1      43.338  21.789  24.970  1.00  0.00     0.016 A 
ATOM     33  C   UNL A   1      43.798  22.578  27.627  1.00  0.00     0.010 A 
ATOM     34  C   UNL A   1      43.850  23.062  25.249  1.00  0.00     0.010 A 
ATOM     35  C   UNL A   1      44.045  23.474  26.579  1.00  0.00    -0.014 A 
BRANCH  35  36
ATOM     36  C   UNL A   1      44.313  24.898  26.896  1.00  0.00     0.031 A 
ATOM     37  C   UNL A   1      45.715  25.417  26.727  1.00  0.00     0.074 A 
ATOM     38  C   UNL A   1      43.326  25.723  27.289  1.00  0.00     0.049 A 
ATOM     39  N   UNL A   1      46.195  26.612  26.955  1.00  0.00    -0.248 NA
ATOM     40  C   UNL A   1      46.709  24.452  26.231  1.00  0.00     0.031 C 
ATOM     41  C   UNL A   1      41.923  25.347  27.444  1.00  0.00     0.029 A 
ATOM     42  N   UNL A   1      43.361  27.051  27.633  1.00  0.00    -0.354 N 
ATOM     43  C   UNL A   1      47.544  26.547  26.624  1.00  0.00     0.074 A 
ATOM     44  C   UNL A   1      47.811  25.185  26.211  1.00  0.00     0.031 C 
ATOM     45  C   UNL A   1      41.231  26.418  27.871  1.00  0.00     0.029 A 
ATOM     46  C   UNL A   1      42.146  27.546  28.042  1.00  0.00     0.049 A 
ATOM     47  H   UNL A   1      44.179  27.597  27.590  1.00  0.00     0.167 HD
ATOM     48  C   UNL A   1      48.476  27.532  26.656  1.00  0.00     0.034 A 
ATOM     49  C   UNL A   1      41.819  28.763  28.522  1.00  0.00     0.034 A 
ATOM     50  C   UNL A   1      48.208  28.876  27.100  1.00  0.00     0.049 A 
ATOM     51  C   UNL A   1      42.889  29.822  28.632  1.00  0.00     0.074 A 
ATOM     52  C   UNL A   1      49.080  29.947  27.192  1.00  0.00     0.029 A 
ATOM     53  N   UNL A   1      46.973  29.329  27.542  1.00  0.00    -0.354 N 
ATOM     54  N   UNL A   1      44.163  29.745  28.322  1.00  0.00    -0.248 NA
ATOM     55  C   UNL A   1      42.474  31.132  29.152  1.00  0.00     0.031 C 
ATOM     56  C   UNL A   1      48.383  31.033  27.738  1.00  0.00     0.029 A 
ATOM     57  C   UNL A   1      47.064  30.657  27.931  1.00  0.00     0.049 A 
ATOM     58  H   UNL A   1      46.151  28.788  27.573  1.00  0.00     0.167 HD
ATOM     59  C   UNL A   1      44.694  31.004  28.586  1.00  0.00     0.074 A 
ATOM     60  C   UNL A   1      43.604  31.822  29.077  1.00  0.00     0.031 C 
ATOM     61  C   UNL A   1      45.966  31.450  28.427  1.00  0.00     0.034 A 
BRANCH  48  62
ATOM     62  C   UNL A   1      49.878  27.153  26.252  1.00  0.00     0.023 A 
ATOM     63  C   UNL A   1      50.371  27.426  24.964  1.00  0.00     0.031 A 
ATOM     64  C   UNL A   1      50.708  26.453  27.144  1.00  0.00     0.131 A 
ATOM     65  C   UNL A   1      51.630  26.940  24.581  1.00  0.00     0.055 A 
ATOM     66  C   UNL A   1      51.987  26.032  26.780  1.00  0.00     0.041 A 
ATOM     67  F   UNL A   1      50.277  26.145  28.378  1.00  0.00    -0.206 F 
ATOM     68  C   UNL A   1      52.449  26.262  25.487  1.00  0.00     0.022 A 
BRANCH  65  69
ATOM     69  S   UNL A   1      52.124  27.084  22.841  1.00  0.00     0.124 S 
ATOM     70  O   UNL A   1      53.184  26.084  22.752  1.00  0.00    -0.237 OA
ATOM     71  O   UNL A   1      50.887  26.770  22.135  1.00  0.00    -0.237 OA
ATOM     72  O   UNL A   1      52.574  28.470  22.726  1.00  0.00    -0.744 OA
ENDBRANCH  65  69
ENDBRANCH  48  62
BRANCH  49  73
ATOM     73  C   UNL A   1      40.433  29.039  28.986  1.00  0.00     0.023 A 
ATOM     74  C   UNL A   1      40.089  28.965  30.344  1.00  0.00     0.031 A 
ATOM     75  C   UNL A   1      39.416  29.336  28.060  1.00  0.00     0.131 A 
ATOM     76  C   UNL A   1      38.753  29.152  30.737  1.00  0.00     0.055 A 
ATOM     77  C   UNL A   1      38.097  29.558  28.458  1.00  0.00     0.041 A 
ATOM     78  F   UNL A   1      39.697  29.417  26.749  1.00  0.00    -0.206 F 
ATOM     79  C   UNL A   1      37.758  29.457  29.804  1.00  0.00     0.022 A 
BRANCH  76  80
ATOM     80  S   UNL A   1      38.320  28.932  32.484  1.00  0.00     0.124 S 
ATOM     81  O   UNL A   1      39.021  30.049  33.108  1.00  0.00    -0.237 OA
ATOM     82  O   UNL A   1      36.864  29.027  32.449  1.00  0.00    -0.237 OA
ATOM     83  O   UNL A   1      38.848  27.607  32.803  1.00  0.00    -0.744 OA
ENDBRANCH  76  80
ENDBRANCH  49  73
BRANCH  61  84
ATOM     84  C   UNL A   1      46.227  32.898  28.746  1.00  0.00     0.023 A 
ATOM     85  C   UNL A   1      46.153  33.897  27.760  1.00  0.00     0.031 A 
ATOM     86  C   UNL A   1      46.555  33.279  30.058  1.00  0.00     0.131 A 
ATOM     87  C   UNL A   1      46.442  35.228  28.095  1.00  0.00     0.055 A 
ATOM     88  C   UNL A   1      46.802  34.610  30.395  1.00  0.00     0.041 A 
ATOM     89  F   UNL A   1      46.638  32.361  31.035  1.00  0.00    -0.206 F 
ATOM     90  C   UNL A   1      46.755  35.592  29.409  1.00  0.00     0.022 A 
BRANCH  87  91
ATOM     91  S   UNL A   1      46.457  36.477  26.781  1.00  0.00     0.124 S 
ATOM     92  O   UNL A   1      47.742  37.135  27.002  1.00  0.00    -0.237 OA
ATOM     93  O   UNL A   1      46.358  35.664  25.573  1.00  0.00    -0.237 OA
ATOM     94  O   UNL A   1      45.283  37.297  27.072  1.00  0.00    -0.744 OA
ENDBRANCH  87  91
ENDBRANCH  61  84
ENDBRANCH  35  36
ENDBRANCH  28  30
ENDBRANCH  27  28
ENDBRANCH  26  27
ENDBRANCH  25  26
ENDBRANCH  24  25
ENDBRANCH   1  24
TORSDOF 22
ENDMDL
MODEL 3
REMARK VINA RESULT:     -10.4      1.886      2.239
REMARK SMILES CC[N@@H+](Cc1cccc(C)n1)Cc1csc(C(=O)OCCOCCOC(=O)c2ccc(-c3c4nc(c(-c5cc(S(=O)(=O)[O-])ccc5F)c5ccc([nH]5)c(-c5cc(S(=O)(=O)[O-])ccc5F)c5nc(c(-c6cc(S(=O)(=O)[O-])ccc6F)c6ccc3[nH]6)C=C5)C=C4)cc2)n1
REMARK SMILES IDX 21 1 20 2 19 3 17 4 18 5 16 6 13 7 14 8 91 9 15 10 12 11
REMARK SMILES IDX 3 12 2 14 1 15 4 16 5 17 6 18 11 19 7 20 9 21 8 22 10 23
REMARK SMILES IDX 22 24 23 25 24 26 25 27 26 28 27 29 28 30 29 31 90 32 30 33
REMARK SMILES IDX 89 34 31 35 32 36 33 37 83 38 34 39 88 40 82 41 84 42 35 43
REMARK SMILES IDX 87 44 81 45 80 46 36 48 68 49 48 50 67 51 49 52 52 53 66 54
REMARK SMILES IDX 85 55 50 56 51 57 65 59 86 60 53 61 37 62 38 63 46 64 39 65
REMARK SMILES IDX 45 66 47 67 44 68 40 69 41 70 42 71 43 72 69 73 70 74 78 75
REMARK SMILES IDX 71 76 77 77 79 78 76 79 72 80 73 81 74 82 75 83 54 84 55 85
REMARK SMILES IDX 63 86 56 87 62 88 64 89 61 90 57 91 58 92 59 93 60 94
REMARK H PARENT 3 13 84 47 52 58
REMARK Flexibility Score: inf
ROOT
ATOM      1  C   UNL A   1      37.482  22.183  25.734  1.00  0.00     0.202 C 
ENDROOT
BRANCH   1   2
ATOM      2  C   UNL A   1      36.430  21.121  25.406  1.00  0.00     0.261 C 
BRANCH   2   3
ATOM      3  O   UNL A   1      35.238  21.390  26.163  1.00  0.00    -0.458 OA
BRANCH   3   4
ATOM      4  C   UNL A   1      34.065  21.126  25.530  1.00  0.00     0.367 C 
ATOM      5  O   UNL A   1      33.847  20.087  24.885  1.00  0.00    -0.243 OA
BRANCH   4   6
ATOM      6  C   UNL A   1      33.124  22.205  25.733  1.00  0.00     0.202 A 
ATOM      7  C   UNL A   1      31.635  23.772  25.240  1.00  0.00     0.106 A 
ATOM      8  C   UNL A   1      31.434  23.695  26.607  1.00  0.00     0.097 A 
ATOM      9  N   UNL A   1      32.619  22.923  24.750  1.00  0.00    -0.229 NA
ATOM     10  S   UNL A   1      32.490  22.544  27.294  1.00  0.00    -0.115 S 
BRANCH   7  11
ATOM     11  C   UNL A   1      30.882  24.665  24.308  1.00  0.00     0.320 C 
BRANCH  11  12
ATOM     12  N   UNL A   1      31.699  25.695  23.675  1.00  0.00    -0.325 N 
ATOM     13  H   UNL A   1      32.502  25.598  24.296  1.00  0.00     0.348 HD
BRANCH  12  14
ATOM     14  C   UNL A   1      32.391  25.408  22.425  1.00  0.00     0.259 C 
ATOM     15  C   UNL A   1      32.892  26.594  21.607  1.00  0.00     0.071 C 
ENDBRANCH  12  14
BRANCH  12  16
ATOM     16  C   UNL A   1      31.270  27.089  23.872  1.00  0.00     0.319 C 
BRANCH  16  17
ATOM     17  C   UNL A   1      31.755  27.905  25.071  1.00  0.00     0.095 A 
ATOM     18  C   UNL A   1      32.383  27.329  26.171  1.00  0.00     0.030 A 
ATOM     19  N   UNL A   1      31.443  29.233  25.060  1.00  0.00    -0.252 NA
ATOM     20  C   UNL A   1      32.738  28.119  27.261  1.00  0.00     0.004 A 
ATOM     21  C   UNL A   1      31.783  29.989  26.136  1.00  0.00     0.038 A 
ATOM     22  C   UNL A   1      32.425  29.468  27.252  1.00  0.00     0.023 A 
ATOM     23  C   UNL A   1      31.364  31.429  26.124  1.00  0.00     0.067 C 
ENDBRANCH  16  17
ENDBRANCH  12  16
ENDBRANCH  11  12
ENDBRANCH   7  11
ENDBRANCH   4   6
ENDBRANCH   3   4
ENDBRANCH   2   3
ENDBRANCH   1   2
BRANCH   1  24
ATOM     24  O   UNL A   1      38.840  21.741  25.624  1.00  0.00    -0.374 OA
BRANCH  24  25
ATOM     25  C   UNL A   1      39.067  20.339  25.510  1.00  0.00     0.202 C 
BRANCH  25  26
ATOM     26  C   UNL A   1      40.121  19.736  26.448  1.00  0.00     0.261 C 
BRANCH  26  27
ATOM     27  O   UNL A   1      41.213  19.119  25.749  1.00  0.00    -0.460 OA
BRANCH  27  28
ATOM     28  C   UNL A   1      42.425  19.657  26.020  1.00  0.00     0.338 C 
ATOM     29  O   UNL A   1      43.519  19.122  25.843  1.00  0.00    -0.246 OA
BRANCH  28  30
ATOM     30  C   UNL A   1      42.298  21.068  26.426  1.00  0.00     0.060 A 
ATOM     31  C   UNL A   1      42.245  22.028  25.407  1.00  0.00     0.016 A 
ATOM     32  C   UNL A   1      42.314  21.461  27.767  1.00  0.00     0.016 A 
ATOM     33  C   UNL A   1      42.260  23.385  25.722  1.00  0.00     0.010 A 
ATOM     34  C   UNL A   1      42.345  22.826  28.082  1.00  0.00     0.010 A 
ATOM     35  C   UNL A   1      42.358  23.790  27.059  1.00  0.00    -0.014 A 
BRANCH  35  36
ATOM     36  C   UNL A   1      42.674  25.207  27.361  1.00  0.00     0.031 A 
ATOM     37  C   UNL A   1      44.016  25.745  26.945  1.00  0.00     0.074 A 
ATOM     38  C   UNL A   1      41.775  26.011  27.958  1.00  0.00     0.049 A 
ATOM     39  N   UNL A   1      44.525  26.938  27.114  1.00  0.00    -0.248 NA
ATOM     40  C   UNL A   1      44.903  24.804  26.242  1.00  0.00     0.031 C 
ATOM     41  C   UNL A   1      40.428  25.616  28.364  1.00  0.00     0.029 A 
ATOM     42  N   UNL A   1      41.869  27.329  28.328  1.00  0.00    -0.354 N 
ATOM     43  C   UNL A   1      45.787  26.896  26.531  1.00  0.00     0.074 A 
ATOM     44  C   UNL A   1      45.978  25.549  26.036  1.00  0.00     0.031 C 
ATOM     45  C   UNL A   1      39.825  26.668  28.946  1.00  0.00     0.029 A 
ATOM     46  C   UNL A   1      40.750  27.799  28.974  1.00  0.00     0.049 A 
ATOM     47  H   UNL A   1      42.661  27.884  28.148  1.00  0.00     0.167 HD
ATOM     48  C   UNL A   1      46.704  27.889  26.416  1.00  0.00     0.034 A 
ATOM     49  C   UNL A   1      40.514  28.999  29.542  1.00  0.00     0.034 A 
ATOM     50  C   UNL A   1      46.518  29.218  26.942  1.00  0.00     0.049 A 
ATOM     51  C   UNL A   1      41.581  30.065  29.479  1.00  0.00     0.074 A 
ATOM     52  C   UNL A   1      47.386  30.295  26.900  1.00  0.00     0.029 A 
ATOM     53  N   UNL A   1      45.387  29.646  27.622  1.00  0.00    -0.354 N 
ATOM     54  N   UNL A   1      42.773  30.011  28.932  1.00  0.00    -0.248 NA
ATOM     55  C   UNL A   1      41.265  31.356  30.107  1.00  0.00     0.031 C 
ATOM     56  C   UNL A   1      46.800  31.357  27.599  1.00  0.00     0.029 A 
ATOM     57  C   UNL A   1      45.543  30.963  28.027  1.00  0.00     0.049 A 
ATOM     58  H   UNL A   1      44.588  29.095  27.793  1.00  0.00     0.167 HD
ATOM     59  C   UNL A   1      43.339  31.267  29.128  1.00  0.00     0.074 A 
ATOM     60  C   UNL A   1      42.357  32.059  29.841  1.00  0.00     0.031 C 
ATOM     61  C   UNL A   1      44.556  31.731  28.745  1.00  0.00     0.034 A 
BRANCH  48  62
ATOM     62  C   UNL A   1      48.005  27.536  25.743  1.00  0.00     0.023 A 
ATOM     63  C   UNL A   1      48.183  27.693  24.358  1.00  0.00     0.031 A 
ATOM     64  C   UNL A   1      49.058  26.977  26.487  1.00  0.00     0.131 A 
ATOM     65  C   UNL A   1      49.358  27.229  23.747  1.00  0.00     0.055 A 
ATOM     66  C   UNL A   1      50.253  26.580  25.884  1.00  0.00     0.041 A 
ATOM     67  F   UNL A   1      48.932  26.782  27.809  1.00  0.00    -0.206 F 
ATOM     68  C   UNL A   1      50.402  26.692  24.504  1.00  0.00     0.022 A 
BRANCH  65  69
ATOM     69  S   UNL A   1      49.446  27.208  21.935  1.00  0.00     0.124 S 
ATOM     70  O   UNL A   1      50.884  27.082  21.711  1.00  0.00    -0.237 OA
ATOM     71  O   UNL A   1      48.640  26.042  21.594  1.00  0.00    -0.237 OA
ATOM     72  O   UNL A   1      48.874  28.497  21.550  1.00  0.00    -0.744 OA
ENDBRANCH  65  69
ENDBRANCH  48  62
BRANCH  49  73
ATOM     73  C   UNL A   1      39.240  29.248  30.268  1.00  0.00     0.023 A 
ATOM     74  C   UNL A   1      38.254  30.097  29.744  1.00  0.00     0.031 A 
ATOM     75  C   UNL A   1      39.013  28.668  31.530  1.00  0.00     0.131 A 
ATOM     76  C   UNL A   1      37.100  30.373  30.495  1.00  0.00     0.055 A 
ATOM     77  C   UNL A   1      37.847  28.915  32.256  1.00  0.00     0.041 A 
ATOM     78  F   UNL A   1      39.927  27.848  32.073  1.00  0.00    -0.206 F 
ATOM     79  C   UNL A   1      36.886  29.780  31.743  1.00  0.00     0.022 A 
BRANCH  76  80
ATOM     80  S   UNL A   1      35.901  31.567  29.843  1.00  0.00     0.124 S 
ATOM     81  O   UNL A   1      36.775  32.616  29.328  1.00  0.00    -0.237 OA
ATOM     82  O   UNL A   1      35.194  30.773  28.845  1.00  0.00    -0.237 OA
ATOM     83  O   UNL A   1      35.112  31.934  31.017  1.00  0.00    -0.744 OA
ENDBRANCH  76  80
ENDBRANCH  49  73
BRANCH  61  84
ATOM     84  C   UNL A   1      44.865  33.171  29.050  1.00  0.00     0.023 A 
ATOM     85  C   UNL A   1      44.499  34.208  28.175  1.00  0.00     0.031 A 
ATOM     86  C   UNL A   1      45.539  33.507  30.238  1.00  0.00     0.131 A 
ATOM     87  C   UNL A   1      44.842  35.533  28.484  1.00  0.00     0.055 A 
ATOM     88  C   UNL A   1      45.843  34.830  30.559  1.00  0.00     0.041 A 
ATOM     89  F   UNL A   1      45.909  32.551  31.105  1.00  0.00    -0.206 F 
ATOM     90  C   UNL A   1      45.502  35.851  29.676  1.00  0.00     0.022 A 
BRANCH  87  91
ATOM     91  S   UNL A   1      44.465  36.837  27.281  1.00  0.00     0.124 S 
ATOM     92  O   UNL A   1      43.338  36.261  26.554  1.00  0.00    -0.237 OA
ATOM     93  O   UNL A   1      44.156  37.976  28.139  1.00  0.00    -0.237 OA
ATOM     94  O   UNL A   1      45.701  36.961  26.510  1.00  0.00    -0.744 OA
ENDBRANCH  87  91
ENDBRANCH  61  84
ENDBRANCH  35  36
ENDBRANCH  28  30
ENDBRANCH  27  28
ENDBRANCH  26  27
ENDBRANCH  25  26
ENDBRANCH  24  25
ENDBRANCH   1  24
TORSDOF 22
ENDMDL
