MODEL 1
REMARK VINA RESULT:     -11.1      0.000      0.000
REMARK SMILES CN(C(=O)N1CCC(C(=O)OCCOCCOC(=O)c2ccc(-c3c4nc(c(-c5cc(S(=O)(=O)[O-])ccc5F)c5ccc([nH]5)c(-c5cc(S(=O)(=O)[O-])ccc5F)c5nc(c(-c6cc(S(=O)(=O)[O-])ccc6F)c6ccc3[nH]6)C=C5)C=C4)cc2)CC1)[C@H]1CCSC1
REMARK SMILES IDX 15 1 14 2 13 3 12 4 11 5 9 6 10 7 8 8 3 9 4 10 5 11 6 12
REMARK SMILES IDX 84 13 7 14 83 15 2 16 1 17 85 18 86 19 89 20 87 21 88 22
REMARK SMILES IDX 16 23 17 24 18 25 19 26 20 27 21 28 82 29 22 30 81 31 23 32
REMARK SMILES IDX 24 33 25 34 75 35 26 36 80 37 74 38 76 39 27 40 79 41 73 42
REMARK SMILES IDX 72 43 28 45 60 46 40 47 59 48 41 49 44 50 58 51 77 52 42 53
REMARK SMILES IDX 43 54 57 56 78 57 45 58 29 59 30 60 38 61 31 62 37 63 39 64
REMARK SMILES IDX 36 65 32 66 33 67 34 68 35 69 61 70 62 71 70 72 63 73 69 74
REMARK SMILES IDX 71 75 68 76 64 77 65 78 66 79 67 80 46 81 47 82 55 83 48 84
REMARK SMILES IDX 54 85 56 86 53 87 49 88 50 89 51 90 52 91
REMARK H PARENT 76 44 44 55
REMARK Flexibility Score: inf
ROOT
ATOM      1  C   UNL A   1      35.713  20.653  24.625  1.00  0.00     0.202 C 
ENDROOT
BRANCH   1   2
ATOM      2  O   UNL A   1      34.742  19.617  24.760  1.00  0.00    -0.374 OA
BRANCH   2   3
ATOM      3  C   UNL A   1      33.631  19.873  25.620  1.00  0.00     0.202 C 
BRANCH   3   4
ATOM      4  C   UNL A   1      32.396  20.510  24.977  1.00  0.00     0.261 C 
BRANCH   4   5
ATOM      5  O   UNL A   1      32.216  20.085  23.614  1.00  0.00    -0.463 OA
BRANCH   5   6
ATOM      6  C   UNL A   1      32.115  21.079  22.698  1.00  0.00     0.309 C 
ATOM      7  O   UNL A   1      31.800  20.931  21.522  1.00  0.00    -0.252 OA
BRANCH   6   8
ATOM      8  C   UNL A   1      32.469  22.440  23.256  1.00  0.00     0.103 C 
ATOM      9  C   UNL A   1      32.889  26.431  22.594  1.00  0.00     0.320 C 
ATOM     10  O   UNL A   1      33.645  26.443  21.626  1.00  0.00    -0.248 OA
ATOM     11  N   UNL A   1      32.806  25.293  23.375  1.00  0.00    -0.325 N 
ATOM     12  C   UNL A   1      33.972  24.417  23.430  1.00  0.00     0.122 C 
ATOM     13  C   UNL A   1      31.540  24.703  23.809  1.00  0.00     0.122 C 
ATOM     14  C   UNL A   1      33.726  23.107  22.689  1.00  0.00     0.037 C 
ATOM     15  C   UNL A   1      31.272  23.376  23.105  1.00  0.00     0.037 C 
BRANCH   9  16
ATOM     16  N   UNL A   1      32.156  27.541  22.988  1.00  0.00    -0.324 N 
ATOM     17  C   UNL A   1      30.893  27.940  22.375  1.00  0.00     0.149 C 
BRANCH  16  18
ATOM     18  C   UNL A   1      32.606  28.401  24.101  1.00  0.00     0.097 C 
ATOM     19  C   UNL A   1      31.582  28.791  25.173  1.00  0.00     0.037 C 
ATOM     20  C   UNL A   1      33.795  27.826  24.869  1.00  0.00     0.094 C 
ATOM     21  C   UNL A   1      32.329  29.682  26.154  1.00  0.00     0.072 C 
ATOM     22  S   UNL A   1      33.990  28.952  26.287  1.00  0.00    -0.160 SA
ENDBRANCH  16  18
ENDBRANCH   9  16
ENDBRANCH   6   8
ENDBRANCH   5   6
ENDBRANCH   4   5
ENDBRANCH   3   4
ENDBRANCH   2   3
ENDBRANCH   1   2
BRANCH   1  23
ATOM     23  C   UNL A   1      37.158  20.316  25.018  1.00  0.00     0.261 C 
BRANCH  23  24
ATOM     24  O   UNL A   1      37.928  21.480  25.365  1.00  0.00    -0.460 OA
BRANCH  24  25
ATOM     25  C   UNL A   1      39.087  21.222  26.020  1.00  0.00     0.338 C 
ATOM     26  O   UNL A   1      39.716  20.173  26.008  1.00  0.00    -0.246 OA
BRANCH  25  27
ATOM     27  C   UNL A   1      39.619  22.457  26.625  1.00  0.00     0.060 A 
ATOM     28  C   UNL A   1      39.127  23.679  26.148  1.00  0.00     0.016 A 
ATOM     29  C   UNL A   1      40.626  22.429  27.592  1.00  0.00     0.016 A 
ATOM     30  C   UNL A   1      39.661  24.880  26.615  1.00  0.00     0.010 A 
ATOM     31  C   UNL A   1      41.170  23.636  28.048  1.00  0.00     0.010 A 
ATOM     32  C   UNL A   1      40.706  24.866  27.547  1.00  0.00    -0.014 A 
BRANCH  32  33
ATOM     33  C   UNL A   1      41.388  26.133  27.916  1.00  0.00     0.031 A 
ATOM     34  C   UNL A   1      40.609  27.205  28.629  1.00  0.00     0.074 A 
ATOM     35  C   UNL A   1      42.689  26.321  27.621  1.00  0.00     0.049 A 
ATOM     36  N   UNL A   1      40.981  28.410  28.973  1.00  0.00    -0.248 NA
ATOM     37  C   UNL A   1      39.225  26.872  29.002  1.00  0.00     0.031 C 
ATOM     38  C   UNL A   1      43.560  25.333  26.984  1.00  0.00     0.029 A 
ATOM     39  N   UNL A   1      43.502  27.412  27.808  1.00  0.00    -0.354 N 
ATOM     40  C   UNL A   1      39.876  28.988  29.589  1.00  0.00     0.074 A 
ATOM     41  C   UNL A   1      38.815  28.003  29.558  1.00  0.00     0.031 C 
ATOM     42  C   UNL A   1      44.781  25.870  26.818  1.00  0.00     0.029 A 
ATOM     43  C   UNL A   1      44.766  27.253  27.289  1.00  0.00     0.049 A 
ATOM     44  H   UNL A   1      43.207  28.230  28.270  1.00  0.00     0.167 HD
ATOM     45  C   UNL A   1      39.761  30.226  30.127  1.00  0.00     0.034 A 
ATOM     46  C   UNL A   1      45.779  28.137  27.170  1.00  0.00     0.034 A 
ATOM     47  C   UNL A   1      40.830  31.193  30.155  1.00  0.00     0.049 A 
ATOM     48  C   UNL A   1      45.583  29.547  27.679  1.00  0.00     0.074 A 
ATOM     49  C   UNL A   1      40.837  32.451  30.733  1.00  0.00     0.029 A 
ATOM     50  N   UNL A   1      42.071  31.023  29.558  1.00  0.00    -0.354 N 
ATOM     51  N   UNL A   1      44.546  30.068  28.295  1.00  0.00    -0.248 NA
ATOM     52  C   UNL A   1      46.690  30.491  27.470  1.00  0.00     0.031 C 
ATOM     53  C   UNL A   1      42.050  33.072  30.415  1.00  0.00     0.029 A 
ATOM     54  C   UNL A   1      42.831  32.174  29.704  1.00  0.00     0.049 A 
ATOM     55  H   UNL A   1      42.370  30.206  29.098  1.00  0.00     0.167 HD
ATOM     56  C   UNL A   1      44.891  31.388  28.571  1.00  0.00     0.074 A 
ATOM     57  C   UNL A   1      46.234  31.582  28.069  1.00  0.00     0.031 C 
ATOM     58  C   UNL A   1      44.165  32.355  29.188  1.00  0.00     0.034 A 
BRANCH  45  59
ATOM     59  C   UNL A   1      38.416  30.634  30.675  1.00  0.00     0.023 A 
ATOM     60  C   UNL A   1      37.463  31.308  29.895  1.00  0.00     0.031 A 
ATOM     61  C   UNL A   1      38.081  30.319  32.005  1.00  0.00     0.131 A 
ATOM     62  C   UNL A   1      36.235  31.685  30.463  1.00  0.00     0.055 A 
ATOM     63  C   UNL A   1      36.834  30.640  32.545  1.00  0.00     0.041 A 
ATOM     64  F   UNL A   1      38.961  29.694  32.801  1.00  0.00    -0.206 F 
ATOM     65  C   UNL A   1      35.906  31.335  31.776  1.00  0.00     0.022 A 
BRANCH  62  66
ATOM     66  S   UNL A   1      35.109  32.726  29.496  1.00  0.00     0.124 S 
ATOM     67  O   UNL A   1      34.174  33.184  30.520  1.00  0.00    -0.237 OA
ATOM     68  O   UNL A   1      36.006  33.739  28.951  1.00  0.00    -0.237 OA
ATOM     69  O   UNL A   1      34.544  31.802  28.515  1.00  0.00    -0.744 OA
ENDBRANCH  62  66
ENDBRANCH  45  59
BRANCH  46  70
ATOM     70  C   UNL A   1      47.050  27.759  26.485  1.00  0.00     0.023 A 
ATOM     71  C   UNL A   1      47.206  27.932  25.101  1.00  0.00     0.031 A 
ATOM     72  C   UNL A   1      48.095  27.133  27.190  1.00  0.00     0.131 A 
ATOM     73  C   UNL A   1      48.350  27.432  24.456  1.00  0.00     0.055 A 
ATOM     74  C   UNL A   1      49.256  26.692  26.555  1.00  0.00     0.041 A 
ATOM     75  F   UNL A   1      47.997  26.933  28.514  1.00  0.00    -0.206 F 
ATOM     76  C   UNL A   1      49.381  26.825  25.176  1.00  0.00     0.022 A 
BRANCH  73  77
ATOM     77  S   UNL A   1      48.415  27.480  22.644  1.00  0.00     0.124 S 
ATOM     78  O   UNL A   1      47.186  28.196  22.320  1.00  0.00    -0.237 OA
ATOM     79  O   UNL A   1      49.660  28.201  22.406  1.00  0.00    -0.237 OA
ATOM     80  O   UNL A   1      48.433  26.068  22.267  1.00  0.00    -0.744 OA
ENDBRANCH  73  77
ENDBRANCH  46  70
BRANCH  58  81
ATOM     81  C   UNL A   1      44.829  33.696  29.385  1.00  0.00     0.023 A 
ATOM     82  C   UNL A   1      44.781  34.696  28.397  1.00  0.00     0.031 A 
ATOM     83  C   UNL A   1      45.511  33.980  30.582  1.00  0.00     0.131 A 
ATOM     84  C   UNL A   1      45.441  35.916  28.607  1.00  0.00     0.055 A 
ATOM     85  C   UNL A   1      46.116  35.216  30.807  1.00  0.00     0.041 A 
ATOM     86  F   UNL A   1      45.587  33.060  31.558  1.00  0.00    -0.206 F 
ATOM     87  C   UNL A   1      46.092  36.189  29.813  1.00  0.00     0.022 A 
BRANCH  84  88
ATOM     88  S   UNL A   1      45.493  37.125  27.256  1.00  0.00     0.124 S 
ATOM     89  O   UNL A   1      44.089  37.504  27.135  1.00  0.00    -0.237 OA
ATOM     90  O   UNL A   1      46.386  38.151  27.785  1.00  0.00    -0.237 OA
ATOM     91  O   UNL A   1      46.030  36.361  26.131  1.00  0.00    -0.744 OA
ENDBRANCH  84  88
ENDBRANCH  58  81
ENDBRANCH  32  33
ENDBRANCH  25  27
ENDBRANCH  24  25
ENDBRANCH  23  24
ENDBRANCH   1  23
TORSDOF 19
ENDMDL
MODEL 2
REMARK VINA RESULT:     -10.8      1.761      2.032
REMARK SMILES CN(C(=O)N1CCC(C(=O)OCCOCCOC(=O)c2ccc(-c3c4nc(c(-c5cc(S(=O)(=O)[O-])ccc5F)c5ccc([nH]5)c(-c5cc(S(=O)(=O)[O-])ccc5F)c5nc(c(-c6cc(S(=O)(=O)[O-])ccc6F)c6ccc3[nH]6)C=C5)C=C4)cc2)CC1)[C@H]1CCSC1
REMARK SMILES IDX 15 1 14 2 13 3 12 4 11 5 9 6 10 7 8 8 3 9 4 10 5 11 6 12
REMARK SMILES IDX 84 13 7 14 83 15 2 16 1 17 85 18 86 19 89 20 87 21 88 22
REMARK SMILES IDX 16 23 17 24 18 25 19 26 20 27 21 28 82 29 22 30 81 31 23 32
REMARK SMILES IDX 24 33 25 34 75 35 26 36 80 37 74 38 76 39 27 40 79 41 73 42
REMARK SMILES IDX 72 43 28 45 60 46 40 47 59 48 41 49 44 50 58 51 77 52 42 53
REMARK SMILES IDX 43 54 57 56 78 57 45 58 29 59 30 60 38 61 31 62 37 63 39 64
REMARK SMILES IDX 36 65 32 66 33 67 34 68 35 69 61 70 62 71 70 72 63 73 69 74
REMARK SMILES IDX 71 75 68 76 64 77 65 78 66 79 67 80 46 81 47 82 55 83 48 84
REMARK SMILES IDX 54 85 56 86 53 87 49 88 50 89 51 90 52 91
REMARK H PARENT 76 44 44 55
REMARK Flexibility Score: inf
ROOT
ATOM      1  C   UNL A   1      35.341  20.073  24.906  1.00  0.00     0.202 C 
ENDROOT
BRANCH   1   2
ATOM      2  O   UNL A   1      34.976  18.730  24.596  1.00  0.00    -0.374 OA
BRANCH   2   3
ATOM      3  C   UNL A   1      33.643  18.328  24.913  1.00  0.00     0.202 C 
BRANCH   3   4
ATOM      4  C   UNL A   1      32.515  19.005  24.130  1.00  0.00     0.261 C 
BRANCH   4   5
ATOM      5  O   UNL A   1      31.990  20.153  24.821  1.00  0.00    -0.463 OA
BRANCH   5   6
ATOM      6  C   UNL A   1      32.137  21.340  24.183  1.00  0.00     0.309 C 
ATOM      7  O   UNL A   1      32.206  21.489  22.968  1.00  0.00    -0.252 OA
BRANCH   6   8
ATOM      8  C   UNL A   1      32.245  22.514  25.131  1.00  0.00     0.103 C 
ATOM      9  C   UNL A   1      32.636  26.535  25.602  1.00  0.00     0.320 C 
ATOM     10  O   UNL A   1      33.638  26.767  24.929  1.00  0.00    -0.248 OA
ATOM     11  N   UNL A   1      32.389  25.242  26.026  1.00  0.00    -0.325 N 
ATOM     12  C   UNL A   1      33.532  24.354  26.206  1.00  0.00     0.122 C 
ATOM     13  C   UNL A   1      31.083  24.593  25.917  1.00  0.00     0.122 C 
ATOM     14  C   UNL A   1      33.577  23.271  25.133  1.00  0.00     0.037 C 
ATOM     15  C   UNL A   1      31.097  23.485  24.867  1.00  0.00     0.037 C 
BRANCH   9  16
ATOM     16  N   UNL A   1      31.765  27.531  26.019  1.00  0.00    -0.324 N 
ATOM     17  C   UNL A   1      31.694  28.026  27.390  1.00  0.00     0.149 C 
BRANCH  16  18
ATOM     18  C   UNL A   1      30.844  28.189  25.071  1.00  0.00     0.097 C 
ATOM     19  C   UNL A   1      31.134  29.641  24.671  1.00  0.00     0.037 C 
ATOM     20  C   UNL A   1      30.686  27.432  23.754  1.00  0.00     0.094 C 
ATOM     21  C   UNL A   1      30.018  30.040  23.719  1.00  0.00     0.072 C 
ATOM     22  S   UNL A   1      29.699  28.556  22.715  1.00  0.00    -0.160 SA
ENDBRANCH  16  18
ENDBRANCH   9  16
ENDBRANCH   6   8
ENDBRANCH   5   6
ENDBRANCH   4   5
ENDBRANCH   3   4
ENDBRANCH   2   3
ENDBRANCH   1   2
BRANCH   1  23
ATOM     23  C   UNL A   1      36.795  20.485  24.636  1.00  0.00     0.261 C 
BRANCH  23  24
ATOM     24  O   UNL A   1      37.355  21.281  25.697  1.00  0.00    -0.460 OA
BRANCH  24  25
ATOM     25  C   UNL A   1      38.661  21.035  25.964  1.00  0.00     0.338 C 
ATOM     26  O   UNL A   1      39.301  20.043  25.640  1.00  0.00    -0.246 OA
BRANCH  25  27
ATOM     27  C   UNL A   1      39.296  22.227  26.555  1.00  0.00     0.060 A 
ATOM     28  C   UNL A   1      38.824  23.483  26.150  1.00  0.00     0.016 A 
ATOM     29  C   UNL A   1      40.374  22.127  27.437  1.00  0.00     0.016 A 
ATOM     30  C   UNL A   1      39.449  24.645  26.602  1.00  0.00     0.010 A 
ATOM     31  C   UNL A   1      41.007  23.296  27.878  1.00  0.00     0.010 A 
ATOM     32  C   UNL A   1      40.562  24.559  27.447  1.00  0.00    -0.014 A 
BRANCH  32  33
ATOM     33  C   UNL A   1      41.329  25.784  27.791  1.00  0.00     0.031 A 
ATOM     34  C   UNL A   1      40.650  26.881  28.565  1.00  0.00     0.074 A 
ATOM     35  C   UNL A   1      42.618  25.911  27.421  1.00  0.00     0.049 A 
ATOM     36  N   UNL A   1      41.103  28.060  28.903  1.00  0.00    -0.248 NA
ATOM     37  C   UNL A   1      39.276  26.611  29.016  1.00  0.00     0.031 C 
ATOM     38  C   UNL A   1      43.397  24.891  26.719  1.00  0.00     0.029 A 
ATOM     39  N   UNL A   1      43.495  26.956  27.574  1.00  0.00    -0.354 N 
ATOM     40  C   UNL A   1      40.068  28.682  29.593  1.00  0.00     0.074 A 
ATOM     41  C   UNL A   1      38.957  27.752  29.612  1.00  0.00     0.031 C 
ATOM     42  C   UNL A   1      44.632  25.369  26.487  1.00  0.00     0.029 A 
ATOM     43  C   UNL A   1      44.717  26.743  26.977  1.00  0.00     0.049 A 
ATOM     44  H   UNL A   1      43.271  27.781  28.064  1.00  0.00     0.167 HD
ATOM     45  C   UNL A   1      40.048  29.915  30.154  1.00  0.00     0.034 A 
ATOM     46  C   UNL A   1      45.764  27.577  26.810  1.00  0.00     0.034 A 
ATOM     47  C   UNL A   1      41.165  30.827  30.131  1.00  0.00     0.049 A 
ATOM     48  C   UNL A   1      45.671  28.986  27.349  1.00  0.00     0.074 A 
ATOM     49  C   UNL A   1      41.271  32.072  30.725  1.00  0.00     0.029 A 
ATOM     50  N   UNL A   1      42.358  30.605  29.457  1.00  0.00    -0.354 N 
ATOM     51  N   UNL A   1      44.701  29.548  28.034  1.00  0.00    -0.248 NA
ATOM     52  C   UNL A   1      46.810  29.877  27.087  1.00  0.00     0.031 C 
ATOM     53  C   UNL A   1      42.493  32.637  30.343  1.00  0.00     0.029 A 
ATOM     54  C   UNL A   1      43.183  31.713  29.574  1.00  0.00     0.049 A 
ATOM     55  H   UNL A   1      42.587  29.781  28.969  1.00  0.00     0.167 HD
ATOM     56  C   UNL A   1      45.129  30.844  28.307  1.00  0.00     0.074 A 
ATOM     57  C   UNL A   1      46.448  30.979  27.727  1.00  0.00     0.031 C 
ATOM     58  C   UNL A   1      44.492  31.836  28.980  1.00  0.00     0.034 A 
BRANCH  45  59
ATOM     59  C   UNL A   1      38.761  30.380  30.788  1.00  0.00     0.023 A 
ATOM     60  C   UNL A   1      37.752  31.022  30.051  1.00  0.00     0.031 A 
ATOM     61  C   UNL A   1      38.538  30.155  32.159  1.00  0.00     0.131 A 
ATOM     62  C   UNL A   1      36.584  31.455  30.697  1.00  0.00     0.055 A 
ATOM     63  C   UNL A   1      37.347  30.532  32.782  1.00  0.00     0.041 A 
ATOM     64  F   UNL A   1      39.476  29.565  32.915  1.00  0.00    -0.206 F 
ATOM     65  C   UNL A   1      36.365  31.194  32.052  1.00  0.00     0.022 A 
BRANCH  62  66
ATOM     66  S   UNL A   1      35.391  32.454  29.765  1.00  0.00     0.124 S 
ATOM     67  O   UNL A   1      34.340  32.665  30.757  1.00  0.00    -0.237 OA
ATOM     68  O   UNL A   1      36.177  33.631  29.407  1.00  0.00    -0.237 OA
ATOM     69  O   UNL A   1      35.019  31.591  28.647  1.00  0.00    -0.744 OA
ENDBRANCH  62  66
ENDBRANCH  45  59
BRANCH  46  70
ATOM     70  C   UNL A   1      46.971  27.147  26.044  1.00  0.00     0.023 A 
ATOM     71  C   UNL A   1      48.029  26.475  26.675  1.00  0.00     0.031 A 
ATOM     72  C   UNL A   1      47.126  27.485  24.686  1.00  0.00     0.131 A 
ATOM     73  C   UNL A   1      49.215  26.215  25.970  1.00  0.00     0.055 A 
ATOM     74  C   UNL A   1      48.282  27.171  23.972  1.00  0.00     0.041 A 
ATOM     75  F   UNL A   1      46.150  28.137  24.033  1.00  0.00    -0.206 F 
ATOM     76  C   UNL A   1      49.344  26.547  24.619  1.00  0.00     0.022 A 
BRANCH  73  77
ATOM     77  S   UNL A   1      50.636  25.544  26.877  1.00  0.00     0.124 S 
ATOM     78  O   UNL A   1      50.987  26.660  27.748  1.00  0.00    -0.237 OA
ATOM     79  O   UNL A   1      50.052  24.378  27.532  1.00  0.00    -0.237 OA
ATOM     80  O   UNL A   1      51.603  25.245  25.824  1.00  0.00    -0.744 OA
ENDBRANCH  73  77
ENDBRANCH  46  70
BRANCH  58  81
ATOM     81  C   UNL A   1      45.233  33.138  29.155  1.00  0.00     0.023 A 
ATOM     82  C   UNL A   1      45.157  34.166  28.199  1.00  0.00     0.031 A 
ATOM     83  C   UNL A   1      46.022  33.356  30.300  1.00  0.00     0.131 A 
ATOM     84  C   UNL A   1      45.890  35.348  28.385  1.00  0.00     0.055 A 
ATOM     85  C   UNL A   1      46.703  34.555  30.506  1.00  0.00     0.041 A 
ATOM     86  F   UNL A   1      46.131  32.407  31.244  1.00  0.00    -0.206 F 
ATOM     87  C   UNL A   1      46.648  35.556  29.540  1.00  0.00     0.022 A 
BRANCH  84  88
ATOM     88  S   UNL A   1      45.893  36.591  27.064  1.00  0.00     0.124 S 
ATOM     89  O   UNL A   1      44.500  37.025  27.053  1.00  0.00    -0.237 OA
ATOM     90  O   UNL A   1      46.861  37.568  27.552  1.00  0.00    -0.237 OA
ATOM     91  O   UNL A   1      46.318  35.838  25.884  1.00  0.00    -0.744 OA
ENDBRANCH  84  88
ENDBRANCH  58  81
ENDBRANCH  32  33
ENDBRANCH  25  27
ENDBRANCH  24  25
ENDBRANCH  23  24
ENDBRANCH   1  23
TORSDOF 19
ENDMDL
MODEL 3
REMARK VINA RESULT:     -10.8      1.525      2.005
REMARK SMILES CN(C(=O)N1CCC(C(=O)OCCOCCOC(=O)c2ccc(-c3c4nc(c(-c5cc(S(=O)(=O)[O-])ccc5F)c5ccc([nH]5)c(-c5cc(S(=O)(=O)[O-])ccc5F)c5nc(c(-c6cc(S(=O)(=O)[O-])ccc6F)c6ccc3[nH]6)C=C5)C=C4)cc2)CC1)[C@H]1CCSC1
REMARK SMILES IDX 15 1 14 2 13 3 12 4 11 5 9 6 10 7 8 8 3 9 4 10 5 11 6 12
REMARK SMILES IDX 84 13 7 14 83 15 2 16 1 17 85 18 86 19 89 20 87 21 88 22
REMARK SMILES IDX 16 23 17 24 18 25 19 26 20 27 21 28 82 29 22 30 81 31 23 32
REMARK SMILES IDX 24 33 25 34 75 35 26 36 80 37 74 38 76 39 27 40 79 41 73 42
REMARK SMILES IDX 72 43 28 45 60 46 40 47 59 48 41 49 44 50 58 51 77 52 42 53
REMARK SMILES IDX 43 54 57 56 78 57 45 58 29 59 30 60 38 61 31 62 37 63 39 64
REMARK SMILES IDX 36 65 32 66 33 67 34 68 35 69 61 70 62 71 70 72 63 73 69 74
REMARK SMILES IDX 71 75 68 76 64 77 65 78 66 79 67 80 46 81 47 82 55 83 48 84
REMARK SMILES IDX 54 85 56 86 53 87 49 88 50 89 51 90 52 91
REMARK H PARENT 76 44 44 55
REMARK Flexibility Score: inf
ROOT
ATOM      1  C   UNL A   1      35.695  21.186  24.822  1.00  0.00     0.202 C 
ENDROOT
BRANCH   1   2
ATOM      2  O   UNL A   1      34.557  20.657  25.499  1.00  0.00    -0.374 OA
BRANCH   2   3
ATOM      3  C   UNL A   1      33.470  20.206  24.691  1.00  0.00     0.202 C 
BRANCH   3   4
ATOM      4  C   UNL A   1      32.732  21.271  23.875  1.00  0.00     0.261 C 
BRANCH   4   5
ATOM      5  O   UNL A   1      32.355  22.403  24.679  1.00  0.00    -0.463 OA
BRANCH   5   6
ATOM      6  C   UNL A   1      32.795  23.608  24.240  1.00  0.00     0.309 C 
ATOM      7  O   UNL A   1      33.847  23.805  23.643  1.00  0.00    -0.252 OA
BRANCH   6   8
ATOM      8  C   UNL A   1      31.858  24.744  24.588  1.00  0.00     0.103 C 
ATOM      9  C   UNL A   1      30.466  28.457  23.685  1.00  0.00     0.320 C 
ATOM     10  O   UNL A   1      31.508  29.107  23.632  1.00  0.00    -0.248 OA
ATOM     11  N   UNL A   1      30.457  27.243  24.346  1.00  0.00    -0.325 N 
ATOM     12  C   UNL A   1      31.419  27.048  25.425  1.00  0.00     0.122 C 
ATOM     13  C   UNL A   1      29.855  26.029  23.795  1.00  0.00     0.122 C 
ATOM     14  C   UNL A   1      32.511  26.057  25.033  1.00  0.00     0.037 C 
ATOM     15  C   UNL A   1      30.919  25.004  23.412  1.00  0.00     0.037 C 
BRANCH   9  16
ATOM     16  N   UNL A   1      29.266  28.921  23.167  1.00  0.00    -0.324 N 
ATOM     17  C   UNL A   1      28.027  28.150  23.170  1.00  0.00     0.149 C 
BRANCH  16  18
ATOM     18  C   UNL A   1      29.155  30.274  22.584  1.00  0.00     0.097 C 
ATOM     19  C   UNL A   1      28.160  30.488  21.437  1.00  0.00     0.037 C 
ATOM     20  C   UNL A   1      28.822  31.353  23.613  1.00  0.00     0.094 C 
ATOM     21  C   UNL A   1      28.290  31.951  21.043  1.00  0.00     0.072 C 
ATOM     22  S   UNL A   1      28.530  32.844  22.610  1.00  0.00    -0.160 SA
ENDBRANCH  16  18
ENDBRANCH   9  16
ENDBRANCH   6   8
ENDBRANCH   5   6
ENDBRANCH   4   5
ENDBRANCH   3   4
ENDBRANCH   2   3
ENDBRANCH   1   2
BRANCH   1  23
ATOM     23  C   UNL A   1      37.057  20.550  25.134  1.00  0.00     0.261 C 
BRANCH  23  24
ATOM     24  O   UNL A   1      38.130  21.508  25.151  1.00  0.00    -0.460 OA
BRANCH  24  25
ATOM     25  C   UNL A   1      39.139  21.217  26.009  1.00  0.00     0.338 C 
ATOM     26  O   UNL A   1      39.675  20.128  26.165  1.00  0.00    -0.246 OA
BRANCH  25  27
ATOM     27  C   UNL A   1      39.662  22.451  26.623  1.00  0.00     0.060 A 
ATOM     28  C   UNL A   1      39.169  23.673  26.147  1.00  0.00     0.016 A 
ATOM     29  C   UNL A   1      40.661  22.423  27.598  1.00  0.00     0.016 A 
ATOM     30  C   UNL A   1      39.694  24.874  26.623  1.00  0.00     0.010 A 
ATOM     31  C   UNL A   1      41.196  23.630  28.064  1.00  0.00     0.010 A 
ATOM     32  C   UNL A   1      40.731  24.861  27.564  1.00  0.00    -0.014 A 
BRANCH  32  33
ATOM     33  C   UNL A   1      41.406  26.129  27.944  1.00  0.00     0.031 A 
ATOM     34  C   UNL A   1      40.615  27.195  28.652  1.00  0.00     0.074 A 
ATOM     35  C   UNL A   1      42.708  26.322  27.664  1.00  0.00     0.049 A 
ATOM     36  N   UNL A   1      40.980  28.401  29.004  1.00  0.00    -0.248 NA
ATOM     37  C   UNL A   1      39.229  26.857  29.009  1.00  0.00     0.031 C 
ATOM     38  C   UNL A   1      43.589  25.338  27.033  1.00  0.00     0.029 A 
ATOM     39  N   UNL A   1      43.516  27.415  27.862  1.00  0.00    -0.354 N 
ATOM     40  C   UNL A   1      39.867  28.974  29.610  1.00  0.00     0.074 A 
ATOM     41  C   UNL A   1      38.808  27.985  29.565  1.00  0.00     0.031 C 
ATOM     42  C   UNL A   1      44.810  25.880  26.881  1.00  0.00     0.029 A 
ATOM     43  C   UNL A   1      44.786  27.262  27.356  1.00  0.00     0.049 A 
ATOM     44  H   UNL A   1      43.214  28.231  28.324  1.00  0.00     0.167 HD
ATOM     45  C   UNL A   1      39.741  30.209  30.150  1.00  0.00     0.034 A 
ATOM     46  C   UNL A   1      45.797  28.149  27.251  1.00  0.00     0.034 A 
ATOM     47  C   UNL A   1      40.807  31.180  30.193  1.00  0.00     0.049 A 
ATOM     48  C   UNL A   1      45.591  29.557  27.762  1.00  0.00     0.074 A 
ATOM     49  C   UNL A   1      40.804  32.436  30.774  1.00  0.00     0.029 A 
ATOM     50  N   UNL A   1      42.055  31.016  29.608  1.00  0.00    -0.354 N 
ATOM     51  N   UNL A   1      44.546  30.072  28.369  1.00  0.00    -0.248 NA
ATOM     52  C   UNL A   1      46.697  30.505  27.568  1.00  0.00     0.031 C 
ATOM     53  C   UNL A   1      42.018  33.061  30.471  1.00  0.00     0.029 A 
ATOM     54  C   UNL A   1      42.809  32.169  29.766  1.00  0.00     0.049 A 
ATOM     55  H   UNL A   1      42.361  30.201  29.149  1.00  0.00     0.167 HD
ATOM     56  C   UNL A   1      44.883  31.393  28.653  1.00  0.00     0.074 A 
ATOM     57  C   UNL A   1      46.232  31.593  28.165  1.00  0.00     0.031 C 
ATOM     58  C   UNL A   1      44.149  32.356  29.264  1.00  0.00     0.034 A 
BRANCH  45  59
ATOM     59  C   UNL A   1      38.390  30.611  30.685  1.00  0.00     0.023 A 
ATOM     60  C   UNL A   1      37.438  31.275  29.894  1.00  0.00     0.031 A 
ATOM     61  C   UNL A   1      38.045  30.301  32.014  1.00  0.00     0.131 A 
ATOM     62  C   UNL A   1      36.204  31.647  30.450  1.00  0.00     0.055 A 
ATOM     63  C   UNL A   1      36.792  30.616  32.542  1.00  0.00     0.041 A 
ATOM     64  F   UNL A   1      38.923  29.685  32.820  1.00  0.00    -0.206 F 
ATOM     65  C   UNL A   1      35.866  31.301  31.761  1.00  0.00     0.022 A 
BRANCH  62  66
ATOM     66  S   UNL A   1      35.079  32.676  29.469  1.00  0.00     0.124 S 
ATOM     67  O   UNL A   1      34.289  33.329  30.509  1.00  0.00    -0.237 OA
ATOM     68  O   UNL A   1      36.000  33.536  28.732  1.00  0.00    -0.237 OA
ATOM     69  O   UNL A   1      34.347  31.707  28.656  1.00  0.00    -0.744 OA
ENDBRANCH  62  66
ENDBRANCH  45  59
BRANCH  46  70
ATOM     70  C   UNL A   1      47.077  27.777  26.578  1.00  0.00     0.023 A 
ATOM     71  C   UNL A   1      47.255  27.974  25.200  1.00  0.00     0.031 A 
ATOM     72  C   UNL A   1      48.108  27.134  27.288  1.00  0.00     0.131 A 
ATOM     73  C   UNL A   1      48.405  27.480  24.564  1.00  0.00     0.055 A 
ATOM     74  C   UNL A   1      49.277  26.699  26.662  1.00  0.00     0.041 A 
ATOM     75  F   UNL A   1      47.989  26.911  28.606  1.00  0.00    -0.206 F 
ATOM     76  C   UNL A   1      49.423  26.856  25.288  1.00  0.00     0.022 A 
BRANCH  73  77
ATOM     77  S   UNL A   1      48.498  27.559  22.754  1.00  0.00     0.124 S 
ATOM     78  O   UNL A   1      47.282  28.296  22.425  1.00  0.00    -0.237 OA
ATOM     79  O   UNL A   1      49.755  28.270  22.547  1.00  0.00    -0.237 OA
ATOM     80  O   UNL A   1      48.505  26.155  22.351  1.00  0.00    -0.744 OA
ENDBRANCH  73  77
ENDBRANCH  46  70
BRANCH  58  81
ATOM     81  C   UNL A   1      44.805  33.698  29.473  1.00  0.00     0.023 A 
ATOM     82  C   UNL A   1      44.631  34.755  28.561  1.00  0.00     0.031 A 
ATOM     83  C   UNL A   1      45.610  33.925  30.604  1.00  0.00     0.131 A 
ATOM     84  C   UNL A   1      45.288  35.976  28.775  1.00  0.00     0.055 A 
ATOM     85  C   UNL A   1      46.214  35.160  30.840  1.00  0.00     0.041 A 
ATOM     86  F   UNL A   1      45.811  32.950  31.506  1.00  0.00    -0.206 F 
ATOM     87  C   UNL A   1      46.064  36.191  29.917  1.00  0.00     0.022 A 
BRANCH  84  88
ATOM     88  S   UNL A   1      45.168  37.266  27.506  1.00  0.00     0.124 S 
ATOM     89  O   UNL A   1      46.342  36.992  26.683  1.00  0.00    -0.237 OA
ATOM     90  O   UNL A   1      43.877  36.981  26.889  1.00  0.00    -0.237 OA
ATOM     91  O   UNL A   1      45.224  38.510  28.273  1.00  0.00    -0.744 OA
ENDBRANCH  84  88
ENDBRANCH  58  81
ENDBRANCH  32  33
ENDBRANCH  25  27
ENDBRANCH  24  25
ENDBRANCH  23  24
ENDBRANCH   1  23
TORSDOF 19
ENDMDL
