MODEL 1
REMARK VINA RESULT:     -12.3      0.000      0.000
REMARK SMILES Cc1ccc(C(=O)N2CCCC[C@@H]2C(=O)OCCOCCOC(=O)c2ccc(-c3c4nc(c(-c5cc(S(=O)(=O)[O-])ccc5F)c5ccc([nH]5)c(-c5cc(S(=O)(=O)[O-])ccc5F)c5nc(c(-c6cc(S(=O)(=O)[O-])ccc6F)c6ccc3[nH]6)C=C5)C=C4)cc2)cc1S(=O)(=O)N1CCCCC1
REMARK SMILES IDX 18 1 17 2 16 3 14 4 15 5 13 6 8 7 9 8 10 9 12 10 11 11 6 12
REMARK SMILES IDX 7 13 5 14 1 15 2 16 3 17 89 18 4 19 88 20 90 21 91 22 92 23
REMARK SMILES IDX 93 24 94 25 98 26 95 27 97 28 96 29 19 30 20 31 21 32 22 33
REMARK SMILES IDX 23 34 24 35 25 36 26 37 87 38 27 39 86 40 28 41 29 42 30 43
REMARK SMILES IDX 80 44 31 45 85 46 79 47 81 48 32 49 84 50 78 51 77 52 33 54
REMARK SMILES IDX 65 55 45 56 64 57 46 58 49 59 63 60 82 61 47 62 48 63 62 65
REMARK SMILES IDX 83 66 50 67 34 68 35 69 43 70 36 71 42 72 44 73 41 74 37 75
REMARK SMILES IDX 38 76 39 77 40 78 66 79 67 80 75 81 68 82 74 83 76 84 73 85
REMARK SMILES IDX 69 86 70 87 71 88 72 89 51 90 52 91 60 92 53 93 59 94 61 95
REMARK SMILES IDX 58 96 54 97 55 98 56 99 57 100
REMARK H PARENT 81 53 49 64
REMARK Flexibility Score: inf
ROOT
ATOM      1  C   UNL A   1      34.023  31.203  27.936  1.00  0.00     0.202 C 
ENDROOT
BRANCH   1   2
ATOM      2  C   UNL A   1      33.799  30.079  26.925  1.00  0.00     0.261 C 
BRANCH   2   3
ATOM      3  O   UNL A   1      32.504  30.156  26.280  1.00  0.00    -0.462 OA
BRANCH   3   4
ATOM      4  C   UNL A   1      32.369  29.668  25.015  1.00  0.00     0.328 C 
ATOM      5  O   UNL A   1      33.288  29.297  24.294  1.00  0.00    -0.250 OA
BRANCH   4   6
ATOM      6  C   UNL A   1      30.881  29.408  24.671  1.00  0.00     0.195 C 
ATOM      7  N   UNL A   1      30.424  28.284  23.784  1.00  0.00    -0.325 N 
ATOM      8  C   UNL A   1      29.636  28.551  22.585  1.00  0.00     0.121 C 
ATOM      9  C   UNL A   1      29.496  29.994  22.169  1.00  0.00     0.022 C 
ATOM     10  C   UNL A   1      30.344  30.816  24.295  1.00  0.00     0.037 C 
ATOM     11  C   UNL A   1      29.137  30.812  23.393  1.00  0.00     0.005 C 
BRANCH   7  12
ATOM     12  C   UNL A   1      30.309  26.934  24.190  1.00  0.00     0.254 C 
ATOM     13  O   UNL A   1      29.378  26.200  23.852  1.00  0.00    -0.269 OA
BRANCH  12  14
ATOM     14  C   UNL A   1      31.460  26.268  24.791  1.00  0.00     0.041 A 
ATOM     15  C   UNL A   1      33.051  23.144  26.595  1.00  0.00     0.046 C 
ATOM     16  C   UNL A   1      32.909  24.510  26.118  1.00  0.00    -0.031 A 
ATOM     17  C   UNL A   1      32.078  25.360  26.856  1.00  0.00     0.005 A 
ATOM     18  C   UNL A   1      33.315  24.723  24.819  1.00  0.00     0.086 A 
ATOM     19  C   UNL A   1      31.358  26.288  26.182  1.00  0.00     0.014 A 
ATOM     20  C   UNL A   1      32.500  25.591  24.097  1.00  0.00     0.035 A 
BRANCH  18  21
ATOM     21  S   UNL A   1      34.663  23.687  24.130  1.00  0.00     0.243 S 
ATOM     22  O   UNL A   1      34.843  24.097  22.749  1.00  0.00    -0.207 OA
ATOM     23  O   UNL A   1      35.751  23.808  25.077  1.00  0.00    -0.207 OA
BRANCH  21  24
ATOM     24  N   UNL A   1      34.181  21.982  24.103  1.00  0.00    -0.198 NA
ATOM     25  C   UNL A   1      32.626  21.550  23.190  1.00  0.00     0.102 C 
ATOM     26  C   UNL A   1      35.306  20.688  24.859  1.00  0.00     0.102 C 
ATOM     27  C   UNL A   1      32.158  19.607  22.877  1.00  0.00     0.017 C 
ATOM     28  C   UNL A   1      34.813  18.742  24.670  1.00  0.00     0.017 C 
ATOM     29  C   UNL A   1      33.234  18.227  23.693  1.00  0.00     0.003 C 
ENDBRANCH  21  24
ENDBRANCH  18  21
ENDBRANCH  12  14
ENDBRANCH   7  12
ENDBRANCH   4   6
ENDBRANCH   3   4
ENDBRANCH   2   3
ENDBRANCH   1   2
BRANCH   1  30
ATOM     30  O   UNL A   1      33.152  32.276  27.571  1.00  0.00    -0.374 OA
BRANCH  30  31
ATOM     31  C   UNL A   1      33.685  33.588  27.621  1.00  0.00     0.202 C 
BRANCH  31  32
ATOM     32  C   UNL A   1      33.060  34.494  28.692  1.00  0.00     0.261 C 
BRANCH  32  33
ATOM     33  O   UNL A   1      34.090  35.231  29.378  1.00  0.00    -0.460 OA
BRANCH  33  34
ATOM     34  C   UNL A   1      34.141  35.020  30.721  1.00  0.00     0.338 C 
ATOM     35  O   UNL A   1      33.664  35.760  31.562  1.00  0.00    -0.246 OA
BRANCH  34  36
ATOM     36  C   UNL A   1      34.958  33.809  31.014  1.00  0.00     0.060 A 
ATOM     37  C   UNL A   1      34.633  32.974  32.096  1.00  0.00     0.016 A 
ATOM     38  C   UNL A   1      36.169  33.632  30.349  1.00  0.00     0.016 A 
ATOM     39  C   UNL A   1      35.551  32.013  32.552  1.00  0.00     0.010 A 
ATOM     40  C   UNL A   1      37.113  32.770  30.872  1.00  0.00     0.010 A 
ATOM     41  C   UNL A   1      36.820  31.936  31.967  1.00  0.00    -0.014 A 
BRANCH  41  42
ATOM     42  C   UNL A   1      37.984  31.175  32.527  1.00  0.00     0.031 A 
ATOM     43  C   UNL A   1      38.388  29.870  31.779  1.00  0.00     0.074 A 
ATOM     44  C   UNL A   1      38.831  32.056  33.118  1.00  0.00     0.049 A 
ATOM     45  N   UNL A   1      39.453  29.112  31.827  1.00  0.00    -0.248 NA
ATOM     46  C   UNL A   1      37.404  29.293  30.878  1.00  0.00     0.031 C 
ATOM     47  C   UNL A   1      40.060  32.613  32.585  1.00  0.00     0.029 A 
ATOM     48  N   UNL A   1      38.603  32.953  34.147  1.00  0.00    -0.354 N 
ATOM     49  C   UNL A   1      39.567  28.300  30.647  1.00  0.00     0.074 A 
ATOM     50  C   UNL A   1      38.123  28.382  30.228  1.00  0.00     0.031 C 
ATOM     51  C   UNL A   1      40.703  33.404  33.443  1.00  0.00     0.029 A 
ATOM     52  C   UNL A   1      39.816  33.551  34.539  1.00  0.00     0.049 A 
ATOM     53  H   UNL A   1      37.723  33.145  34.544  1.00  0.00     0.167 HD
ATOM     54  C   UNL A   1      40.925  27.824  30.011  1.00  0.00     0.034 A 
ATOM     55  C   UNL A   1      40.246  33.519  35.814  1.00  0.00     0.034 A 
ATOM     56  C   UNL A   1      41.925  28.238  31.433  1.00  0.00     0.049 A 
ATOM     57  C   UNL A   1      41.021  32.220  36.023  1.00  0.00     0.074 A 
ATOM     58  C   UNL A   1      43.290  28.559  31.711  1.00  0.00     0.029 A 
ATOM     59  N   UNL A   1      41.444  28.248  32.812  1.00  0.00    -0.354 N 
ATOM     60  N   UNL A   1      41.124  31.213  35.170  1.00  0.00    -0.248 NA
ATOM     61  C   UNL A   1      41.887  32.059  37.184  1.00  0.00     0.031 C 
ATOM     62  C   UNL A   1      43.466  29.132  32.973  1.00  0.00     0.029 A 
ATOM     63  C   UNL A   1      42.319  28.913  33.689  1.00  0.00     0.049 A 
ATOM     64  H   UNL A   1      40.597  27.834  33.097  1.00  0.00     0.167 HD
ATOM     65  C   UNL A   1      41.963  30.252  35.697  1.00  0.00     0.074 A 
ATOM     66  C   UNL A   1      42.465  30.879  36.919  1.00  0.00     0.031 C 
ATOM     67  C   UNL A   1      42.259  29.020  35.148  1.00  0.00     0.034 A 
BRANCH  54  68
ATOM     68  C   UNL A   1      41.521  27.019  28.169  1.00  0.00     0.023 A 
ATOM     69  C   UNL A   1      42.928  26.929  27.465  1.00  0.00     0.031 A 
ATOM     70  C   UNL A   1      40.824  26.227  26.990  1.00  0.00     0.131 A 
ATOM     71  C   UNL A   1      43.452  26.377  26.236  1.00  0.00     0.055 A 
ATOM     72  C   UNL A   1      41.346  25.635  25.761  1.00  0.00     0.041 A 
ATOM     73  F   UNL A   1      39.501  25.916  26.947  1.00  0.00    -0.206 F 
ATOM     74  C   UNL A   1      42.656  25.697  25.375  1.00  0.00     0.022 A 
BRANCH  71  75
ATOM     75  S   UNL A   1      45.215  26.679  25.839  1.00  0.00     0.124 S 
ATOM     76  O   UNL A   1      45.780  26.902  27.165  1.00  0.00    -0.237 OA
ATOM     77  O   UNL A   1      45.599  25.429  25.190  1.00  0.00    -0.237 OA
ATOM     78  O   UNL A   1      45.176  27.847  24.964  1.00  0.00    -0.744 OA
ENDBRANCH  71  75
ENDBRANCH  54  68
BRANCH  55  79
ATOM     79  C   UNL A   1      39.220  34.310  36.581  1.00  0.00     0.023 A 
ATOM     80  C   UNL A   1      38.322  33.469  37.319  1.00  0.00     0.031 A 
ATOM     81  C   UNL A   1      39.611  35.517  37.184  1.00  0.00     0.131 A 
ATOM     82  C   UNL A   1      38.113  33.691  38.694  1.00  0.00     0.055 A 
ATOM     83  C   UNL A   1      39.374  35.742  38.552  1.00  0.00     0.041 A 
ATOM     84  F   UNL A   1      40.464  36.339  36.555  1.00  0.00    -0.206 F 
ATOM     85  C   UNL A   1      38.678  34.803  39.322  1.00  0.00     0.022 A 
BRANCH  82  86
ATOM     86  S   UNL A   1      37.400  32.365  39.743  1.00  0.00     0.124 S 
ATOM     87  O   UNL A   1      36.551  33.121  40.656  1.00  0.00    -0.237 OA
ATOM     88  O   UNL A   1      36.702  31.512  38.786  1.00  0.00    -0.237 OA
ATOM     89  O   UNL A   1      38.584  31.750  40.341  1.00  0.00    -0.744 OA
ENDBRANCH  82  86
ENDBRANCH  55  79
BRANCH  67  90
ATOM     90  C   UNL A   1      42.992  27.931  35.947  1.00  0.00     0.023 A 
ATOM     91  C   UNL A   1      44.388  27.910  36.054  1.00  0.00     0.031 A 
ATOM     92  C   UNL A   1      42.321  26.904  36.662  1.00  0.00     0.131 A 
ATOM     93  C   UNL A   1      45.061  26.853  36.686  1.00  0.00     0.055 A 
ATOM     94  C   UNL A   1      42.990  25.897  37.368  1.00  0.00     0.041 A 
ATOM     95  F   UNL A   1      40.984  26.827  36.731  1.00  0.00    -0.206 F 
ATOM     96  C   UNL A   1      44.373  25.855  37.367  1.00  0.00     0.022 A 
BRANCH  93  97
ATOM     97  S   UNL A   1      46.860  26.778  36.526  1.00  0.00     0.124 S 
ATOM     98  O   UNL A   1      47.013  26.394  35.125  1.00  0.00    -0.237 OA
ATOM     99  O   UNL A   1      47.266  28.142  36.854  1.00  0.00    -0.237 OA
ATOM    100  O   UNL A   1      47.248  25.763  37.501  1.00  0.00    -0.744 OA
ENDBRANCH  93  97
ENDBRANCH  67  90
ENDBRANCH  41  42
ENDBRANCH  34  36
ENDBRANCH  33  34
ENDBRANCH  32  33
ENDBRANCH  31  32
ENDBRANCH  30  31
ENDBRANCH   1  30
TORSDOF 21
ENDMDL
MODEL 2
REMARK VINA RESULT:     -11.8      1.762      2.081
REMARK SMILES Cc1ccc(C(=O)N2CCCC[C@@H]2C(=O)OCCOCCOC(=O)c2ccc(-c3c4nc(c(-c5cc(S(=O)(=O)[O-])ccc5F)c5ccc([nH]5)c(-c5cc(S(=O)(=O)[O-])ccc5F)c5nc(c(-c6cc(S(=O)(=O)[O-])ccc6F)c6ccc3[nH]6)C=C5)C=C4)cc2)cc1S(=O)(=O)N1CCCCC1
REMARK SMILES IDX 18 1 17 2 16 3 14 4 15 5 13 6 8 7 9 8 10 9 12 10 11 11 6 12
REMARK SMILES IDX 7 13 5 14 1 15 2 16 3 17 89 18 4 19 88 20 90 21 91 22 92 23
REMARK SMILES IDX 93 24 94 25 98 26 95 27 97 28 96 29 19 30 20 31 21 32 22 33
REMARK SMILES IDX 23 34 24 35 25 36 26 37 87 38 27 39 86 40 28 41 29 42 30 43
REMARK SMILES IDX 80 44 31 45 85 46 79 47 81 48 32 49 84 50 78 51 77 52 33 54
REMARK SMILES IDX 65 55 45 56 64 57 46 58 49 59 63 60 82 61 47 62 48 63 62 65
REMARK SMILES IDX 83 66 50 67 34 68 35 69 43 70 36 71 42 72 44 73 41 74 37 75
REMARK SMILES IDX 38 76 39 77 40 78 66 79 67 80 75 81 68 82 74 83 76 84 73 85
REMARK SMILES IDX 69 86 70 87 71 88 72 89 51 90 52 91 60 92 53 93 59 94 61 95
REMARK SMILES IDX 58 96 54 97 55 98 56 99 57 100
REMARK H PARENT 81 53 49 64
REMARK Flexibility Score: inf
ROOT
ATOM      1  C   UNL A   1      33.624  29.656  27.464  1.00  0.00     0.202 C 
ENDROOT
BRANCH   1   2
ATOM      2  C   UNL A   1      33.499  29.207  26.008  1.00  0.00     0.261 C 
BRANCH   2   3
ATOM      3  O   UNL A   1      32.534  29.987  25.263  1.00  0.00    -0.462 OA
BRANCH   3   4
ATOM      4  C   UNL A   1      32.031  29.478  24.103  1.00  0.00     0.328 C 
ATOM      5  O   UNL A   1      32.696  29.067  23.160  1.00  0.00    -0.250 OA
BRANCH   4   6
ATOM      6  C   UNL A   1      30.502  29.253  24.207  1.00  0.00     0.195 C 
ATOM      7  N   UNL A   1      29.790  28.103  23.550  1.00  0.00    -0.325 N 
ATOM      8  C   UNL A   1      28.701  28.338  22.608  1.00  0.00     0.121 C 
ATOM      9  C   UNL A   1      28.477  29.763  22.167  1.00  0.00     0.022 C 
ATOM     10  C   UNL A   1      29.907  30.659  23.917  1.00  0.00     0.037 C 
ATOM     11  C   UNL A   1      28.494  30.652  23.393  1.00  0.00     0.005 C 
BRANCH   7  12
ATOM     12  C   UNL A   1      29.768  26.780  24.049  1.00  0.00     0.254 C 
ATOM     13  O   UNL A   1      28.855  25.984  23.822  1.00  0.00    -0.269 OA
BRANCH  12  14
ATOM     14  C   UNL A   1      30.988  26.209  24.612  1.00  0.00     0.041 A 
ATOM     15  C   UNL A   1      32.864  23.248  26.418  1.00  0.00     0.046 C 
ATOM     16  C   UNL A   1      32.610  24.588  25.914  1.00  0.00    -0.031 A 
ATOM     17  C   UNL A   1      31.758  25.402  26.668  1.00  0.00     0.005 A 
ATOM     18  C   UNL A   1      32.941  24.791  24.592  1.00  0.00     0.086 A 
ATOM     19  C   UNL A   1      30.947  26.261  26.005  1.00  0.00     0.014 A 
ATOM     20  C   UNL A   1      32.038  25.581  23.887  1.00  0.00     0.035 A 
BRANCH  18  21
ATOM     21  S   UNL A   1      34.323  23.825  23.867  1.00  0.00     0.243 S 
ATOM     22  O   UNL A   1      34.366  24.153  22.453  1.00  0.00    -0.207 OA
ATOM     23  O   UNL A   1      35.461  24.104  24.718  1.00  0.00    -0.207 OA
BRANCH  21  24
ATOM     24  N   UNL A   1      33.994  22.088  23.985  1.00  0.00    -0.198 NA
ATOM     25  C   UNL A   1      32.452  21.456  23.172  1.00  0.00     0.102 C 
ATOM     26  C   UNL A   1      35.256  20.958  24.786  1.00  0.00     0.102 C 
ATOM     27  C   UNL A   1      32.149  19.462  23.021  1.00  0.00     0.017 C 
ATOM     28  C   UNL A   1      34.932  18.968  24.760  1.00  0.00     0.017 C 
ATOM     29  C   UNL A   1      33.371  18.246  23.890  1.00  0.00     0.003 C 
ENDBRANCH  21  24
ENDBRANCH  18  21
ENDBRANCH  12  14
ENDBRANCH   7  12
ENDBRANCH   4   6
ENDBRANCH   3   4
ENDBRANCH   2   3
ENDBRANCH   1   2
BRANCH   1  30
ATOM     30  O   UNL A   1      33.158  31.006  27.528  1.00  0.00    -0.374 OA
BRANCH  30  31
ATOM     31  C   UNL A   1      34.139  32.025  27.602  1.00  0.00     0.202 C 
BRANCH  31  32
ATOM     32  C   UNL A   1      33.605  33.400  28.030  1.00  0.00     0.261 C 
BRANCH  32  33
ATOM     33  O   UNL A   1      34.541  34.038  28.921  1.00  0.00    -0.460 OA
BRANCH  33  34
ATOM     34  C   UNL A   1      34.378  33.725  30.235  1.00  0.00     0.338 C 
ATOM     35  O   UNL A   1      33.578  34.258  30.985  1.00  0.00    -0.246 OA
BRANCH  34  36
ATOM     36  C   UNL A   1      35.392  32.715  30.648  1.00  0.00     0.060 A 
ATOM     37  C   UNL A   1      35.295  32.075  31.894  1.00  0.00     0.016 A 
ATOM     38  C   UNL A   1      36.552  32.572  29.889  1.00  0.00     0.016 A 
ATOM     39  C   UNL A   1      36.386  31.353  32.407  1.00  0.00     0.010 A 
ATOM     40  C   UNL A   1      37.658  31.963  30.448  1.00  0.00     0.010 A 
ATOM     41  C   UNL A   1      37.595  31.330  31.703  1.00  0.00    -0.014 A 
BRANCH  41  42
ATOM     42  C   UNL A   1      38.906  30.855  32.252  1.00  0.00     0.031 A 
ATOM     43  C   UNL A   1      39.507  29.572  31.609  1.00  0.00     0.074 A 
ATOM     44  C   UNL A   1      39.603  31.933  32.696  1.00  0.00     0.049 A 
ATOM     45  N   UNL A   1      40.696  29.027  31.656  1.00  0.00    -0.248 NA
ATOM     46  C   UNL A   1      38.604  28.733  30.838  1.00  0.00     0.031 C 
ATOM     47  C   UNL A   1      40.679  32.641  32.028  1.00  0.00     0.029 A 
ATOM     48  N   UNL A   1      39.264  32.880  33.646  1.00  0.00    -0.354 N 
ATOM     49  C   UNL A   1      40.899  28.126  30.556  1.00  0.00     0.074 A 
ATOM     50  C   UNL A   1      39.446  27.902  30.231  1.00  0.00     0.031 C 
ATOM     51  C   UNL A   1      41.206  33.622  32.759  1.00  0.00     0.029 A 
ATOM     52  C   UNL A   1      40.363  33.725  33.894  1.00  0.00     0.049 A 
ATOM     53  H   UNL A   1      38.384  32.952  34.082  1.00  0.00     0.167 HD
ATOM     54  C   UNL A   1      42.289  27.835  29.878  1.00  0.00     0.034 A 
ATOM     55  C   UNL A   1      40.854  33.908  35.133  1.00  0.00     0.034 A 
ATOM     56  C   UNL A   1      43.264  28.572  31.181  1.00  0.00     0.049 A 
ATOM     57  C   UNL A   1      41.866  32.800  35.414  1.00  0.00     0.074 A 
ATOM     58  C   UNL A   1      44.558  29.162  31.332  1.00  0.00     0.029 A 
ATOM     59  N   UNL A   1      42.859  28.646  32.581  1.00  0.00    -0.354 N 
ATOM     60  N   UNL A   1      42.112  31.742  34.658  1.00  0.00    -0.248 NA
ATOM     61  C   UNL A   1      42.803  32.923  36.522  1.00  0.00     0.031 C 
ATOM     62  C   UNL A   1      44.687  29.890  32.518  1.00  0.00     0.029 A 
ATOM     63  C   UNL A   1      43.638  29.547  33.328  1.00  0.00     0.049 A 
ATOM     64  H   UNL A   1      42.119  28.120  32.963  1.00  0.00     0.167 HD
ATOM     65  C   UNL A   1      43.140  31.009  35.217  1.00  0.00     0.074 A 
ATOM     66  C   UNL A   1      43.576  31.844  36.335  1.00  0.00     0.031 C 
ATOM     67  C   UNL A   1      43.632  29.799  34.771  1.00  0.00     0.034 A 
BRANCH  54  68
ATOM     68  C   UNL A   1      42.931  26.956  28.086  1.00  0.00     0.023 A 
ATOM     69  C   UNL A   1      42.898  25.465  27.574  1.00  0.00     0.031 A 
ATOM     70  C   UNL A   1      43.552  27.463  26.722  1.00  0.00     0.131 A 
ATOM     71  C   UNL A   1      43.273  24.762  26.367  1.00  0.00     0.055 A 
ATOM     72  C   UNL A   1      43.905  26.772  25.486  1.00  0.00     0.041 A 
ATOM     73  F   UNL A   1      43.857  28.761  26.451  1.00  0.00    -0.206 F 
ATOM     74  C   UNL A   1      43.766  25.425  25.292  1.00  0.00     0.022 A 
BRANCH  71  75
ATOM     75  S   UNL A   1      43.128  22.937  26.353  1.00  0.00     0.124 S 
ATOM     76  O   UNL A   1      42.876  22.673  24.940  1.00  0.00    -0.237 OA
ATOM     77  O   UNL A   1      44.437  22.523  26.850  1.00  0.00    -0.237 OA
ATOM     78  O   UNL A   1      42.010  22.673  27.254  1.00  0.00    -0.744 OA
ENDBRANCH  71  75
ENDBRANCH  54  68
BRANCH  55  79
ATOM     79  C   UNL A   1      39.739  34.580  35.889  1.00  0.00     0.023 A 
ATOM     80  C   UNL A   1      39.083  33.689  36.802  1.00  0.00     0.031 A 
ATOM     81  C   UNL A   1      39.910  35.912  36.302  1.00  0.00     0.131 A 
ATOM     82  C   UNL A   1      38.921  34.053  38.153  1.00  0.00     0.055 A 
ATOM     83  C   UNL A   1      39.721  36.271  37.649  1.00  0.00     0.041 A 
ATOM     84  F   UNL A   1      40.532  36.790  35.504  1.00  0.00    -0.206 F 
ATOM     85  C   UNL A   1      39.284  35.329  38.588  1.00  0.00     0.022 A 
BRANCH  82  86
ATOM     86  S   UNL A   1      38.566  32.769  39.416  1.00  0.00     0.124 S 
ATOM     87  O   UNL A   1      39.900  32.442  39.903  1.00  0.00    -0.237 OA
ATOM     88  O   UNL A   1      37.694  33.457  40.364  1.00  0.00    -0.237 OA
ATOM     89  O   UNL A   1      37.900  31.723  38.640  1.00  0.00    -0.744 OA
ENDBRANCH  82  86
ENDBRANCH  55  79
BRANCH  67  90
ATOM     90  C   UNL A   1      44.592  28.952  35.619  1.00  0.00     0.023 A 
ATOM     91  C   UNL A   1      44.164  27.796  36.285  1.00  0.00     0.031 A 
ATOM     92  C   UNL A   1      45.976  29.243  35.756  1.00  0.00     0.131 A 
ATOM     93  C   UNL A   1      45.012  27.089  37.151  1.00  0.00     0.055 A 
ATOM     94  C   UNL A   1      46.845  28.486  36.550  1.00  0.00     0.041 A 
ATOM     95  F   UNL A   1      46.565  30.265  35.119  1.00  0.00    -0.206 F 
ATOM     96  C   UNL A   1      46.360  27.409  37.271  1.00  0.00     0.022 A 
BRANCH  93  97
ATOM     97  S   UNL A   1      44.286  25.786  38.171  1.00  0.00     0.124 S 
ATOM     98  O   UNL A   1      43.056  25.495  37.440  1.00  0.00    -0.237 OA
ATOM     99  O   UNL A   1      45.307  24.744  38.131  1.00  0.00    -0.237 OA
ATOM    100  O   UNL A   1      44.106  26.430  39.470  1.00  0.00    -0.744 OA
ENDBRANCH  93  97
ENDBRANCH  67  90
ENDBRANCH  41  42
ENDBRANCH  34  36
ENDBRANCH  33  34
ENDBRANCH  32  33
ENDBRANCH  31  32
ENDBRANCH  30  31
ENDBRANCH   1  30
TORSDOF 21
ENDMDL
MODEL 3
REMARK VINA RESULT:     -11.3      3.392      6.114
REMARK SMILES Cc1ccc(C(=O)N2CCCC[C@@H]2C(=O)OCCOCCOC(=O)c2ccc(-c3c4nc(c(-c5cc(S(=O)(=O)[O-])ccc5F)c5ccc([nH]5)c(-c5cc(S(=O)(=O)[O-])ccc5F)c5nc(c(-c6cc(S(=O)(=O)[O-])ccc6F)c6ccc3[nH]6)C=C5)C=C4)cc2)cc1S(=O)(=O)N1CCCCC1
REMARK SMILES IDX 18 1 17 2 16 3 14 4 15 5 13 6 8 7 9 8 10 9 12 10 11 11 6 12
REMARK SMILES IDX 7 13 5 14 1 15 2 16 3 17 89 18 4 19 88 20 90 21 91 22 92 23
REMARK SMILES IDX 93 24 94 25 98 26 95 27 97 28 96 29 19 30 20 31 21 32 22 33
REMARK SMILES IDX 23 34 24 35 25 36 26 37 87 38 27 39 86 40 28 41 29 42 30 43
REMARK SMILES IDX 80 44 31 45 85 46 79 47 81 48 32 49 84 50 78 51 77 52 33 54
REMARK SMILES IDX 65 55 45 56 64 57 46 58 49 59 63 60 82 61 47 62 48 63 62 65
REMARK SMILES IDX 83 66 50 67 34 68 35 69 43 70 36 71 42 72 44 73 41 74 37 75
REMARK SMILES IDX 38 76 39 77 40 78 66 79 67 80 75 81 68 82 74 83 76 84 73 85
REMARK SMILES IDX 69 86 70 87 71 88 72 89 51 90 52 91 60 92 53 93 59 94 61 95
REMARK SMILES IDX 58 96 54 97 55 98 56 99 57 100
REMARK H PARENT 81 53 49 64
REMARK Flexibility Score: inf
ROOT
ATOM      1  C   UNL A   1      31.945  25.819  25.654  1.00  0.00     0.202 C 
ENDROOT
BRANCH   1   2
ATOM      2  C   UNL A   1      33.248  25.134  26.068  1.00  0.00     0.261 C 
BRANCH   2   3
ATOM      3  O   UNL A   1      33.039  23.794  26.573  1.00  0.00    -0.462 OA
BRANCH   3   4
ATOM      4  C   UNL A   1      34.060  22.894  26.493  1.00  0.00     0.328 C 
ATOM      5  O   UNL A   1      34.747  22.513  27.433  1.00  0.00    -0.250 OA
BRANCH   4   6
ATOM      6  C   UNL A   1      34.102  22.217  25.101  1.00  0.00     0.195 C 
ATOM      7  N   UNL A   1      34.765  22.835  23.902  1.00  0.00    -0.325 N 
ATOM      8  C   UNL A   1      34.016  23.076  22.674  1.00  0.00     0.121 C 
ATOM      9  C   UNL A   1      32.520  22.884  22.740  1.00  0.00     0.022 C 
ATOM     10  C   UNL A   1      32.638  21.743  24.884  1.00  0.00     0.037 C 
ATOM     11  C   UNL A   1      32.237  21.572  23.441  1.00  0.00     0.005 C 
BRANCH   7  12
ATOM     12  C   UNL A   1      36.160  22.838  23.667  1.00  0.00     0.254 C 
ATOM     13  O   UNL A   1      36.683  23.374  22.688  1.00  0.00    -0.269 OA
BRANCH  12  14
ATOM     14  C   UNL A   1      37.067  22.457  24.746  1.00  0.00     0.041 A 
ATOM     15  C   UNL A   1      40.650  21.372  25.983  1.00  0.00     0.046 C 
ATOM     16  C   UNL A   1      39.212  21.583  26.006  1.00  0.00    -0.031 A 
ATOM     17  C   UNL A   1      38.418  20.643  25.341  1.00  0.00     0.005 A 
ATOM     18  C   UNL A   1      38.811  22.851  26.367  1.00  0.00     0.086 A 
ATOM     19  C   UNL A   1      37.296  21.081  24.721  1.00  0.00     0.014 A 
ATOM     20  C   UNL A   1      37.728  23.340  25.643  1.00  0.00     0.035 A 
BRANCH  18  21
ATOM     21  S   UNL A   1      39.861  23.818  27.520  1.00  0.00     0.243 S 
ATOM     22  O   UNL A   1      38.970  24.673  28.282  1.00  0.00    -0.207 OA
ATOM     23  O   UNL A   1      40.683  22.833  28.192  1.00  0.00    -0.207 OA
BRANCH  21  24
ATOM     24  N   UNL A   1      40.953  24.883  26.618  1.00  0.00    -0.198 NA
ATOM     25  C   UNL A   1      40.500  26.678  26.516  1.00  0.00     0.102 C 
ATOM     26  C   UNL A   1      42.559  24.201  25.936  1.00  0.00     0.102 C 
ATOM     27  C   UNL A   1      41.826  28.000  25.750  1.00  0.00     0.017 C 
ATOM     28  C   UNL A   1      43.858  25.469  25.057  1.00  0.00     0.017 C 
ATOM     29  C   UNL A   1      43.466  27.354  24.962  1.00  0.00     0.003 C 
ENDBRANCH  21  24
ENDBRANCH  18  21
ENDBRANCH  12  14
ENDBRANCH   7  12
ENDBRANCH   4   6
ENDBRANCH   3   4
ENDBRANCH   2   3
ENDBRANCH   1   2
BRANCH   1  30
ATOM     30  O   UNL A   1      32.295  27.096  25.116  1.00  0.00    -0.374 OA
BRANCH  30  31
ATOM     31  C   UNL A   1      32.255  28.203  25.999  1.00  0.00     0.202 C 
BRANCH  31  32
ATOM     32  C   UNL A   1      33.457  29.153  25.893  1.00  0.00     0.261 C 
BRANCH  32  33
ATOM     33  O   UNL A   1      34.400  28.876  26.946  1.00  0.00    -0.460 OA
BRANCH  33  34
ATOM     34  C   UNL A   1      34.838  29.972  27.621  1.00  0.00     0.338 C 
ATOM     35  O   UNL A   1      34.359  31.089  27.523  1.00  0.00    -0.246 OA
BRANCH  34  36
ATOM     36  C   UNL A   1      36.053  29.631  28.413  1.00  0.00     0.060 A 
ATOM     37  C   UNL A   1      35.971  29.452  29.803  1.00  0.00     0.016 A 
ATOM     38  C   UNL A   1      37.303  29.708  27.802  1.00  0.00     0.016 A 
ATOM     39  C   UNL A   1      37.138  29.422  30.585  1.00  0.00     0.010 A 
ATOM     40  C   UNL A   1      38.437  29.796  28.584  1.00  0.00     0.010 A 
ATOM     41  C   UNL A   1      38.382  29.640  29.981  1.00  0.00    -0.014 A 
BRANCH  41  42
ATOM     42  C   UNL A   1      39.660  29.920  30.712  1.00  0.00     0.031 A 
ATOM     43  C   UNL A   1      40.791  28.860  30.569  1.00  0.00     0.074 A 
ATOM     44  C   UNL A   1      39.825  31.265  30.791  1.00  0.00     0.049 A 
ATOM     45  N   UNL A   1      42.069  28.881  30.848  1.00  0.00    -0.248 NA
ATOM     46  C   UNL A   1      40.406  27.542  30.094  1.00  0.00     0.031 C 
ATOM     47  C   UNL A   1      40.664  32.114  29.966  1.00  0.00     0.029 A 
ATOM     48  N   UNL A   1      39.005  32.230  31.347  1.00  0.00    -0.354 N 
ATOM     49  C   UNL A   1      42.775  27.857  30.129  1.00  0.00     0.074 A 
ATOM     50  C   UNL A   1      41.585  26.981  29.840  1.00  0.00     0.031 C 
ATOM     51  C   UNL A   1      40.661  33.392  30.340  1.00  0.00     0.029 A 
ATOM     52  C   UNL A   1      39.656  33.478  31.337  1.00  0.00     0.049 A 
ATOM     53  H   UNL A   1      38.098  32.068  31.696  1.00  0.00     0.167 HD
ATOM     54  C   UNL A   1      44.269  27.965  29.647  1.00  0.00     0.034 A 
ATOM     55  C   UNL A   1      39.825  34.202  32.459  1.00  0.00     0.034 A 
ATOM     56  C   UNL A   1      44.666  29.382  30.660  1.00  0.00     0.049 A 
ATOM     57  C   UNL A   1      41.107  33.733  33.141  1.00  0.00     0.074 A 
ATOM     58  C   UNL A   1      45.607  30.459  30.655  1.00  0.00     0.029 A 
ATOM     59  N   UNL A   1      44.027  29.697  31.935  1.00  0.00    -0.354 N 
ATOM     60  N   UNL A   1      41.851  32.692  32.801  1.00  0.00    -0.248 NA
ATOM     61  C   UNL A   1      41.728  34.546  34.179  1.00  0.00     0.031 C 
ATOM     62  C   UNL A   1      45.253  31.493  31.526  1.00  0.00     0.029 A 
ATOM     63  C   UNL A   1      44.279  31.013  32.361  1.00  0.00     0.049 A 
ATOM     64  H   UNL A   1      43.477  29.056  32.442  1.00  0.00     0.167 HD
ATOM     65  C   UNL A   1      42.963  32.638  33.617  1.00  0.00     0.074 A 
ATOM     66  C   UNL A   1      42.863  33.868  34.401  1.00  0.00     0.031 C 
ATOM     67  C   UNL A   1      43.933  31.656  33.630  1.00  0.00     0.034 A 
BRANCH  54  68
ATOM     68  C   UNL A   1      45.488  26.931  28.290  1.00  0.00     0.023 A 
ATOM     69  C   UNL A   1      46.355  27.422  27.068  1.00  0.00     0.031 A 
ATOM     70  C   UNL A   1      45.967  25.437  28.094  1.00  0.00     0.131 A 
ATOM     71  C   UNL A   1      47.245  26.816  26.103  1.00  0.00     0.055 A 
ATOM     72  C   UNL A   1      46.889  24.816  27.146  1.00  0.00     0.041 A 
ATOM     73  F   UNL A   1      45.579  24.394  28.876  1.00  0.00    -0.206 F 
ATOM     74  C   UNL A   1      47.538  25.493  26.151  1.00  0.00     0.022 A 
BRANCH  71  75
ATOM     75  S   UNL A   1      47.915  27.874  24.766  1.00  0.00     0.124 S 
ATOM     76  O   UNL A   1      46.739  28.653  24.392  1.00  0.00    -0.237 OA
ATOM     77  O   UNL A   1      48.967  28.611  25.460  1.00  0.00    -0.237 OA
ATOM     78  O   UNL A   1      48.381  26.915  23.768  1.00  0.00    -0.744 OA
ENDBRANCH  71  75
ENDBRANCH  54  68
BRANCH  55  79
ATOM     79  C   UNL A   1      38.429  34.558  32.894  1.00  0.00     0.023 A 
ATOM     80  C   UNL A   1      37.503  34.578  31.799  1.00  0.00     0.031 A 
ATOM     81  C   UNL A   1      37.958  34.066  34.124  1.00  0.00     0.131 A 
ATOM     82  C   UNL A   1      36.303  33.844  31.872  1.00  0.00     0.055 A 
ATOM     83  C   UNL A   1      36.745  33.357  34.192  1.00  0.00     0.041 A 
ATOM     84  F   UNL A   1      38.778  34.003  35.182  1.00  0.00    -0.206 F 
ATOM     85  C   UNL A   1      35.946  33.193  33.054  1.00  0.00     0.022 A 
BRANCH  82  86
ATOM     86  S   UNL A   1      35.374  33.443  30.341  1.00  0.00     0.124 S 
ATOM     87  O   UNL A   1      34.776  34.728  30.000  1.00  0.00    -0.237 OA
ATOM     88  O   UNL A   1      36.409  32.963  29.430  1.00  0.00    -0.237 OA
ATOM     89  O   UNL A   1      34.442  32.408  30.786  1.00  0.00    -0.744 OA
ENDBRANCH  82  86
ENDBRANCH  55  79
BRANCH  67  90
ATOM     90  C   UNL A   1      44.976  31.561  34.754  1.00  0.00     0.023 A 
ATOM     91  C   UNL A   1      44.994  30.486  35.653  1.00  0.00     0.031 A 
ATOM     92  C   UNL A   1      46.011  32.515  34.941  1.00  0.00     0.131 A 
ATOM     93  C   UNL A   1      45.873  30.458  36.748  1.00  0.00     0.055 A 
ATOM     94  C   UNL A   1      46.945  32.441  35.981  1.00  0.00     0.041 A 
ATOM     95  F   UNL A   1      46.187  33.560  34.119  1.00  0.00    -0.206 F 
ATOM     96  C   UNL A   1      46.868  31.416  36.907  1.00  0.00     0.022 A 
BRANCH  93  97
ATOM     97  S   UNL A   1      45.627  29.176  37.997  1.00  0.00     0.124 S 
ATOM     98  O   UNL A   1      46.892  29.233  38.726  1.00  0.00    -0.237 OA
ATOM     99  O   UNL A   1      44.457  29.659  38.724  1.00  0.00    -0.237 OA
ATOM    100  O   UNL A   1      45.412  27.966  37.208  1.00  0.00    -0.744 OA
ENDBRANCH  93  97
ENDBRANCH  67  90
ENDBRANCH  41  42
ENDBRANCH  34  36
ENDBRANCH  33  34
ENDBRANCH  32  33
ENDBRANCH  31  32
ENDBRANCH  30  31
ENDBRANCH   1  30
TORSDOF 21
ENDMDL
