MODEL 1
REMARK VINA RESULT:     -10.7      0.000      0.000
REMARK SMILES O=C(OCCOCCOC(=O)[C@H]1CC[C@@H](CNc2nncs2)CC1)c1ccc(-c2c3nc(c(-c4cc(S(=O)(=O)[O-])ccc4F)c4ccc([nH]4)c(-c4cc(S(=O)(=O)[O-])ccc4F)c4nc(c(-c5cc(S(=O)(=O)[O-])ccc5F)c5ccc2[nH]5)C=C4)C=C3)cc1
REMARK SMILES IDX 6 1 5 2 4 3 3 4 2 5 1 6 25 7 26 8 87 9 27 10 86 11 28 12
REMARK SMILES IDX 29 13 30 14 80 15 31 16 85 17 79 18 81 19 32 20 84 21 78 22
REMARK SMILES IDX 77 23 33 25 65 26 45 27 64 28 46 29 49 30 63 31 82 32 47 33
REMARK SMILES IDX 48 34 62 36 83 37 50 38 34 39 35 40 43 41 36 42 42 43 44 44
REMARK SMILES IDX 41 45 37 46 38 47 39 48 40 49 66 50 67 51 75 52 68 53 74 54
REMARK SMILES IDX 76 55 73 56 69 57 70 58 71 59 72 60 51 61 52 62 60 63 53 64
REMARK SMILES IDX 59 65 61 66 58 67 54 68 55 69 56 70 57 71 7 72 8 73 9 74
REMARK SMILES IDX 10 75 11 76 12 77 24 78 13 79 23 80 14 81 15 82 16 83 17 84
REMARK SMILES IDX 18 86 19 87 22 88 20 89 21 90
REMARK H PARENT 81 24 49 35 17 85
REMARK Flexibility Score: inf
ROOT
ATOM      1  O   UNL A   1      31.938  28.005  23.117  1.00  0.00    -0.374 OA
ENDROOT
BRANCH   1   2
ATOM      2  C   UNL A   1      31.788  28.555  24.422  1.00  0.00     0.202 C 
BRANCH   2   3
ATOM      3  C   UNL A   1      32.868  29.486  24.974  1.00  0.00     0.261 C 
BRANCH   3   4
ATOM      4  O   UNL A   1      32.493  29.961  26.280  1.00  0.00    -0.460 OA
BRANCH   4   5
ATOM      5  C   UNL A   1      33.011  31.041  26.915  1.00  0.00     0.338 C 
ATOM      6  O   UNL A   1      32.430  32.121  26.866  1.00  0.00    -0.246 OA
BRANCH   5   7
ATOM      7  C   UNL A   1      34.278  30.928  27.677  1.00  0.00     0.060 A 
ATOM      8  C   UNL A   1      34.712  29.716  28.203  1.00  0.00     0.016 A 
ATOM      9  C   UNL A   1      35.100  32.048  27.817  1.00  0.00     0.016 A 
ATOM     10  C   UNL A   1      35.852  29.597  28.944  1.00  0.00     0.010 A 
ATOM     11  C   UNL A   1      36.326  31.922  28.476  1.00  0.00     0.010 A 
ATOM     12  C   UNL A   1      36.696  30.686  29.025  1.00  0.00    -0.014 A 
BRANCH  12  13
ATOM     13  C   UNL A   1      37.948  30.438  29.734  1.00  0.00     0.031 A 
ATOM     14  C   UNL A   1      38.995  29.653  29.031  1.00  0.00     0.074 A 
ATOM     15  C   UNL A   1      38.159  31.088  30.894  1.00  0.00     0.049 A 
ATOM     16  N   UNL A   1      40.120  29.202  29.494  1.00  0.00    -0.248 NA
ATOM     17  C   UNL A   1      38.748  29.346  27.610  1.00  0.00     0.031 C 
ATOM     18  C   UNL A   1      37.232  32.054  31.506  1.00  0.00     0.029 A 
ATOM     19  N   UNL A   1      39.223  31.072  31.749  1.00  0.00    -0.354 N 
ATOM     20  C   UNL A   1      40.689  28.493  28.446  1.00  0.00     0.074 A 
ATOM     21  C   UNL A   1      39.805  28.609  27.309  1.00  0.00     0.031 C 
ATOM     22  C   UNL A   1      37.774  32.534  32.635  1.00  0.00     0.029 A 
ATOM     23  C   UNL A   1      39.014  31.819  32.888  1.00  0.00     0.049 A 
ATOM     24  H   UNL A   1      40.054  30.578  31.570  1.00  0.00     0.167 HD
ATOM     25  C   UNL A   1      41.835  27.780  28.482  1.00  0.00     0.034 A 
ATOM     26  C   UNL A   1      39.710  31.830  34.038  1.00  0.00     0.034 A 
ATOM     27  C   UNL A   1      42.654  27.720  29.663  1.00  0.00     0.049 A 
ATOM     28  C   UNL A   1      40.909  30.917  34.096  1.00  0.00     0.074 A 
ATOM     29  C   UNL A   1      43.814  27.004  29.876  1.00  0.00     0.029 A 
ATOM     30  N   UNL A   1      42.379  28.406  30.844  1.00  0.00    -0.354 N 
ATOM     31  N   UNL A   1      41.416  30.168  33.138  1.00  0.00    -0.248 NA
ATOM     32  C   UNL A   1      41.614  30.823  35.375  1.00  0.00     0.031 C 
ATOM     33  C   UNL A   1      44.190  27.191  31.209  1.00  0.00     0.029 A 
ATOM     34  C   UNL A   1      43.317  28.092  31.807  1.00  0.00     0.049 A 
ATOM     35  H   UNL A   1      41.625  29.026  30.973  1.00  0.00     0.167 HD
ATOM     36  C   UNL A   1      42.506  29.519  33.701  1.00  0.00     0.074 A 
ATOM     37  C   UNL A   1      42.601  29.994  35.070  1.00  0.00     0.031 C 
ATOM     38  C   UNL A   1      43.351  28.606  33.156  1.00  0.00     0.034 A 
BRANCH  25  39
ATOM     39  C   UNL A   1      42.151  26.923  27.290  1.00  0.00     0.023 A 
ATOM     40  C   UNL A   1      41.888  25.544  27.257  1.00  0.00     0.031 A 
ATOM     41  C   UNL A   1      42.804  27.500  26.186  1.00  0.00     0.131 A 
ATOM     42  C   UNL A   1      42.324  24.780  26.163  1.00  0.00     0.055 A 
ATOM     43  C   UNL A   1      43.169  26.748  25.070  1.00  0.00     0.041 A 
ATOM     44  F   UNL A   1      43.123  28.804  26.187  1.00  0.00    -0.206 F 
ATOM     45  C   UNL A   1      42.938  25.376  25.058  1.00  0.00     0.022 A 
BRANCH  42  46
ATOM     46  S   UNL A   1      42.194  22.972  26.255  1.00  0.00     0.124 S 
ATOM     47  O   UNL A   1      42.800  22.570  24.987  1.00  0.00    -0.237 OA
ATOM     48  O   UNL A   1      42.962  22.659  27.454  1.00  0.00    -0.237 OA
ATOM     49  O   UNL A   1      40.756  22.735  26.354  1.00  0.00    -0.744 OA
ENDBRANCH  42  46
ENDBRANCH  25  39
BRANCH  26  50
ATOM     50  C   UNL A   1      39.227  32.581  35.236  1.00  0.00     0.023 A 
ATOM     51  C   UNL A   1      39.627  33.904  35.473  1.00  0.00     0.031 A 
ATOM     52  C   UNL A   1      38.428  31.957  36.215  1.00  0.00     0.131 A 
ATOM     53  C   UNL A   1      39.288  34.534  36.682  1.00  0.00     0.055 A 
ATOM     54  C   UNL A   1      38.029  32.614  37.381  1.00  0.00     0.041 A 
ATOM     55  F   UNL A   1      38.022  30.686  36.061  1.00  0.00    -0.206 F 
ATOM     56  C   UNL A   1      38.479  33.904  37.631  1.00  0.00     0.022 A 
BRANCH  53  57
ATOM     57  S   UNL A   1      40.048  36.135  37.064  1.00  0.00     0.124 S 
ATOM     58  O   UNL A   1      39.882  36.849  35.803  1.00  0.00    -0.237 OA
ATOM     59  O   UNL A   1      39.228  36.600  38.178  1.00  0.00    -0.237 OA
ATOM     60  O   UNL A   1      41.425  35.785  37.407  1.00  0.00    -0.744 OA
ENDBRANCH  53  57
ENDBRANCH  26  50
BRANCH  38  61
ATOM     61  C   UNL A   1      44.452  28.106  34.046  1.00  0.00     0.023 A 
ATOM     62  C   UNL A   1      44.317  26.910  34.769  1.00  0.00     0.031 A 
ATOM     63  C   UNL A   1      45.658  28.818  34.140  1.00  0.00     0.131 A 
ATOM     64  C   UNL A   1      45.363  26.482  35.594  1.00  0.00     0.055 A 
ATOM     65  C   UNL A   1      46.721  28.351  34.908  1.00  0.00     0.041 A 
ATOM     66  F   UNL A   1      45.828  29.967  33.465  1.00  0.00    -0.206 F 
ATOM     67  C   UNL A   1      46.572  27.180  35.648  1.00  0.00     0.022 A 
BRANCH  64  68
ATOM     68  S   UNL A   1      45.094  25.033  36.647  1.00  0.00     0.124 S 
ATOM     69  O   UNL A   1      46.323  25.000  37.434  1.00  0.00    -0.237 OA
ATOM     70  O   UNL A   1      43.881  25.395  37.375  1.00  0.00    -0.237 OA
ATOM     71  O   UNL A   1      44.939  23.941  35.689  1.00  0.00    -0.744 OA
ENDBRANCH  64  68
ENDBRANCH  38  61
ENDBRANCH  12  13
ENDBRANCH   5   7
ENDBRANCH   4   5
ENDBRANCH   3   4
ENDBRANCH   2   3
ENDBRANCH   1   2
BRANCH   1  72
ATOM     72  C   UNL A   1      33.255  27.656  22.681  1.00  0.00     0.202 C 
BRANCH  72  73
ATOM     73  C   UNL A   1      33.186  26.301  21.976  1.00  0.00     0.261 C 
BRANCH  73  74
ATOM     74  O   UNL A   1      34.066  25.407  22.677  1.00  0.00    -0.463 OA
BRANCH  74  75
ATOM     75  C   UNL A   1      33.727  24.083  22.648  1.00  0.00     0.309 C 
ATOM     76  O   UNL A   1      33.648  23.383  21.658  1.00  0.00    -0.252 OA
BRANCH  75  77
ATOM     77  C   UNL A   1      33.546  23.567  24.070  1.00  0.00     0.099 C 
ATOM     78  C   UNL A   1      32.589  22.369  24.065  1.00  0.00     0.015 C 
ATOM     79  C   UNL A   1      34.908  23.246  24.686  1.00  0.00     0.015 C 
ATOM     80  C   UNL A   1      32.556  21.544  25.344  1.00  0.00     0.006 C 
ATOM     81  C   UNL A   1      34.768  22.457  25.980  1.00  0.00     0.006 C 
ATOM     82  C   UNL A   1      33.971  21.156  25.786  1.00  0.00     0.008 C 
BRANCH  82  83
ATOM     83  C   UNL A   1      34.607  20.151  24.789  1.00  0.00     0.119 C 
BRANCH  83  84
ATOM     84  N   UNL A   1      33.642  19.147  24.409  1.00  0.00    -0.360 N 
ATOM     85  H   UNL A   1      32.855  19.448  23.902  1.00  0.00     0.162 HD
BRANCH  84  86
ATOM     86  C   UNL A   1      33.727  17.830  24.689  1.00  0.00     0.205 A 
ATOM     87  N   UNL A   1      34.774  17.110  24.337  1.00  0.00    -0.121 NA
ATOM     88  S   UNL A   1      32.505  16.898  25.474  1.00  0.00    -0.083 S 
ATOM     89  N   UNL A   1      34.680  15.788  24.718  1.00  0.00    -0.145 NA
ATOM     90  C   UNL A   1      33.532  15.542  25.306  1.00  0.00     0.204 A 
ENDBRANCH  84  86
ENDBRANCH  83  84
ENDBRANCH  82  83
ENDBRANCH  75  77
ENDBRANCH  74  75
ENDBRANCH  73  74
ENDBRANCH  72  73
ENDBRANCH   1  72
TORSDOF 20
ENDMDL
MODEL 2
REMARK VINA RESULT:     -10.6      2.052      2.308
REMARK SMILES O=C(OCCOCCOC(=O)[C@H]1CC[C@@H](CNc2nncs2)CC1)c1ccc(-c2c3nc(c(-c4cc(S(=O)(=O)[O-])ccc4F)c4ccc([nH]4)c(-c4cc(S(=O)(=O)[O-])ccc4F)c4nc(c(-c5cc(S(=O)(=O)[O-])ccc5F)c5ccc2[nH]5)C=C4)C=C3)cc1
REMARK SMILES IDX 6 1 5 2 4 3 3 4 2 5 1 6 25 7 26 8 87 9 27 10 86 11 28 12
REMARK SMILES IDX 29 13 30 14 80 15 31 16 85 17 79 18 81 19 32 20 84 21 78 22
REMARK SMILES IDX 77 23 33 25 65 26 45 27 64 28 46 29 49 30 63 31 82 32 47 33
REMARK SMILES IDX 48 34 62 36 83 37 50 38 34 39 35 40 43 41 36 42 42 43 44 44
REMARK SMILES IDX 41 45 37 46 38 47 39 48 40 49 66 50 67 51 75 52 68 53 74 54
REMARK SMILES IDX 76 55 73 56 69 57 70 58 71 59 72 60 51 61 52 62 60 63 53 64
REMARK SMILES IDX 59 65 61 66 58 67 54 68 55 69 56 70 57 71 7 72 8 73 9 74
REMARK SMILES IDX 10 75 11 76 12 77 24 78 13 79 23 80 14 81 15 82 16 83 17 84
REMARK SMILES IDX 18 86 19 87 22 88 20 89 21 90
REMARK H PARENT 81 24 49 35 17 85
REMARK Flexibility Score: inf
ROOT
ATOM      1  O   UNL A   1      31.326  27.848  23.671  1.00  0.00    -0.374 OA
ENDROOT
BRANCH   1   2
ATOM      2  C   UNL A   1      32.067  29.039  23.916  1.00  0.00     0.202 C 
BRANCH   2   3
ATOM      3  C   UNL A   1      31.910  29.760  25.255  1.00  0.00     0.261 C 
BRANCH   3   4
ATOM      4  O   UNL A   1      33.198  29.953  25.869  1.00  0.00    -0.460 OA
BRANCH   4   5
ATOM      5  C   UNL A   1      33.483  30.820  26.871  1.00  0.00     0.338 C 
ATOM      6  O   UNL A   1      32.694  31.718  27.151  1.00  0.00    -0.246 OA
BRANCH   5   7
ATOM      7  C   UNL A   1      34.744  30.692  27.640  1.00  0.00     0.060 A 
ATOM      8  C   UNL A   1      35.139  29.484  28.205  1.00  0.00     0.016 A 
ATOM      9  C   UNL A   1      35.601  31.789  27.748  1.00  0.00     0.016 A 
ATOM     10  C   UNL A   1      36.273  29.353  28.953  1.00  0.00     0.010 A 
ATOM     11  C   UNL A   1      36.821  31.646  28.414  1.00  0.00     0.010 A 
ATOM     12  C   UNL A   1      37.151  30.417  29.002  1.00  0.00    -0.014 A 
BRANCH  12  13
ATOM     13  C   UNL A   1      38.392  30.152  29.723  1.00  0.00     0.031 A 
ATOM     14  C   UNL A   1      39.411  29.303  29.053  1.00  0.00     0.074 A 
ATOM     15  C   UNL A   1      38.627  30.839  30.856  1.00  0.00     0.049 A 
ATOM     16  N   UNL A   1      40.519  28.830  29.535  1.00  0.00    -0.248 NA
ATOM     17  C   UNL A   1      39.153  28.949  27.645  1.00  0.00     0.031 C 
ATOM     18  C   UNL A   1      37.736  31.861  31.428  1.00  0.00     0.029 A 
ATOM     19  N   UNL A   1      39.689  30.819  31.713  1.00  0.00    -0.354 N 
ATOM     20  C   UNL A   1      41.062  28.060  28.517  1.00  0.00     0.074 A 
ATOM     21  C   UNL A   1      40.183  28.163  27.375  1.00  0.00     0.031 C 
ATOM     22  C   UNL A   1      38.294  32.366  32.538  1.00  0.00     0.029 A 
ATOM     23  C   UNL A   1      39.507  31.617  32.821  1.00  0.00     0.049 A 
ATOM     24  H   UNL A   1      40.502  30.288  31.555  1.00  0.00     0.167 HD
ATOM     25  C   UNL A   1      42.181  27.308  28.583  1.00  0.00     0.034 A 
ATOM     26  C   UNL A   1      40.203  31.649  33.971  1.00  0.00     0.034 A 
ATOM     27  C   UNL A   1      42.998  27.266  29.767  1.00  0.00     0.049 A 
ATOM     28  C   UNL A   1      41.369  30.696  34.067  1.00  0.00     0.074 A 
ATOM     29  C   UNL A   1      44.131  26.517  30.010  1.00  0.00     0.029 A 
ATOM     30  N   UNL A   1      42.747  28.007  30.920  1.00  0.00    -0.354 N 
ATOM     31  N   UNL A   1      41.848  29.892  33.141  1.00  0.00    -0.248 NA
ATOM     32  C   UNL A   1      42.069  30.627  35.350  1.00  0.00     0.031 C 
ATOM     33  C   UNL A   1      44.514  26.743  31.335  1.00  0.00     0.029 A 
ATOM     34  C   UNL A   1      43.674  27.698  31.895  1.00  0.00     0.049 A 
ATOM     35  H   UNL A   1      42.016  28.659  31.023  1.00  0.00     0.167 HD
ATOM     36  C   UNL A   1      42.914  29.227  33.730  1.00  0.00     0.074 A 
ATOM     37  C   UNL A   1      43.026  29.752  35.080  1.00  0.00     0.031 C 
ATOM     38  C   UNL A   1      43.726  28.263  33.223  1.00  0.00     0.034 A 
BRANCH  25  39
ATOM     39  C   UNL A   1      42.466  26.393  27.427  1.00  0.00     0.023 A 
ATOM     40  C   UNL A   1      42.008  25.067  27.378  1.00  0.00     0.031 A 
ATOM     41  C   UNL A   1      43.287  26.851  26.378  1.00  0.00     0.131 A 
ATOM     42  C   UNL A   1      42.417  24.229  26.329  1.00  0.00     0.055 A 
ATOM     43  C   UNL A   1      43.630  26.034  25.302  1.00  0.00     0.041 A 
ATOM     44  F   UNL A   1      43.792  28.094  26.401  1.00  0.00    -0.206 F 
ATOM     45  C   UNL A   1      43.202  24.710  25.277  1.00  0.00     0.022 A 
BRANCH  42  46
ATOM     46  S   UNL A   1      42.017  22.461  26.418  1.00  0.00     0.124 S 
ATOM     47  O   UNL A   1      42.773  21.932  25.285  1.00  0.00    -0.237 OA
ATOM     48  O   UNL A   1      42.509  22.091  27.740  1.00  0.00    -0.237 OA
ATOM     49  O   UNL A   1      40.565  22.429  26.261  1.00  0.00    -0.744 OA
ENDBRANCH  42  46
ENDBRANCH  25  39
BRANCH  26  50
ATOM     50  C   UNL A   1      39.748  32.463  35.137  1.00  0.00     0.023 A 
ATOM     51  C   UNL A   1      39.066  31.875  36.212  1.00  0.00     0.031 A 
ATOM     52  C   UNL A   1      39.907  33.864  35.156  1.00  0.00     0.131 A 
ATOM     53  C   UNL A   1      38.512  32.684  37.219  1.00  0.00     0.055 A 
ATOM     54  C   UNL A   1      39.421  34.656  36.198  1.00  0.00     0.041 A 
ATOM     55  F   UNL A   1      40.535  34.495  34.151  1.00  0.00    -0.206 F 
ATOM     56  C   UNL A   1      38.698  34.067  37.229  1.00  0.00     0.022 A 
BRANCH  53  57
ATOM     57  S   UNL A   1      37.413  31.912  38.438  1.00  0.00     0.124 S 
ATOM     58  O   UNL A   1      38.170  32.089  39.672  1.00  0.00    -0.237 OA
ATOM     59  O   UNL A   1      36.204  32.717  38.305  1.00  0.00    -0.237 OA
ATOM     60  O   UNL A   1      37.299  30.533  37.968  1.00  0.00    -0.744 OA
ENDBRANCH  53  57
ENDBRANCH  26  50
BRANCH  38  61
ATOM     61  C   UNL A   1      44.808  27.759  34.134  1.00  0.00     0.023 A 
ATOM     62  C   UNL A   1      46.056  28.399  34.205  1.00  0.00     0.031 A 
ATOM     63  C   UNL A   1      44.571  26.650  34.961  1.00  0.00     0.131 A 
ATOM     64  C   UNL A   1      47.040  27.893  35.062  1.00  0.00     0.055 A 
ATOM     65  C   UNL A   1      45.530  26.194  35.860  1.00  0.00     0.041 A 
ATOM     66  F   UNL A   1      43.390  26.008  34.922  1.00  0.00    -0.206 F 
ATOM     67  C   UNL A   1      46.777  26.812  35.907  1.00  0.00     0.022 A 
BRANCH  64  68
ATOM     68  S   UNL A   1      48.694  28.630  35.004  1.00  0.00     0.124 S 
ATOM     69  O   UNL A   1      49.516  27.494  34.600  1.00  0.00    -0.237 OA
ATOM     70  O   UNL A   1      48.533  29.686  34.010  1.00  0.00    -0.237 OA
ATOM     71  O   UNL A   1      48.906  29.095  36.373  1.00  0.00    -0.744 OA
ENDBRANCH  64  68
ENDBRANCH  38  61
ENDBRANCH  12  13
ENDBRANCH   5   7
ENDBRANCH   4   5
ENDBRANCH   3   4
ENDBRANCH   2   3
ENDBRANCH   1   2
BRANCH   1  72
ATOM     72  C   UNL A   1      31.750  27.000  22.600  1.00  0.00     0.202 C 
BRANCH  72  73
ATOM     73  C   UNL A   1      33.274  26.888  22.647  1.00  0.00     0.261 C 
BRANCH  73  74
ATOM     74  O   UNL A   1      33.620  25.562  22.215  1.00  0.00    -0.463 OA
BRANCH  74  75
ATOM     75  C   UNL A   1      33.169  24.537  22.998  1.00  0.00     0.309 C 
ATOM     76  O   UNL A   1      32.226  23.809  22.756  1.00  0.00    -0.252 OA
BRANCH  75  77
ATOM     77  C   UNL A   1      34.088  24.365  24.201  1.00  0.00     0.099 C 
ATOM     78  C   UNL A   1      33.425  23.437  25.227  1.00  0.00     0.015 C 
ATOM     79  C   UNL A   1      35.461  23.871  23.743  1.00  0.00     0.015 C 
ATOM     80  C   UNL A   1      34.336  22.910  26.326  1.00  0.00     0.006 C 
ATOM     81  C   UNL A   1      36.311  23.405  24.916  1.00  0.00     0.006 C 
ATOM     82  C   UNL A   1      35.615  22.306  25.739  1.00  0.00     0.008 C 
BRANCH  82  83
ATOM     83  C   UNL A   1      35.304  21.007  24.949  1.00  0.00     0.119 C 
BRANCH  83  84
ATOM     84  N   UNL A   1      34.288  20.241  25.629  1.00  0.00    -0.360 N 
ATOM     85  H   UNL A   1      33.999  20.562  26.513  1.00  0.00     0.162 HD
BRANCH  84  86
ATOM     86  C   UNL A   1      33.702  19.121  25.158  1.00  0.00     0.205 A 
ATOM     87  N   UNL A   1      32.408  18.904  25.292  1.00  0.00    -0.121 NA
ATOM     88  S   UNL A   1      34.524  17.816  24.385  1.00  0.00    -0.083 S 
ATOM     89  N   UNL A   1      31.995  17.710  24.740  1.00  0.00    -0.145 NA
ATOM     90  C   UNL A   1      33.009  17.036  24.249  1.00  0.00     0.204 A 
ENDBRANCH  84  86
ENDBRANCH  83  84
ENDBRANCH  82  83
ENDBRANCH  75  77
ENDBRANCH  74  75
ENDBRANCH  73  74
ENDBRANCH  72  73
ENDBRANCH   1  72
TORSDOF 20
ENDMDL
MODEL 3
REMARK VINA RESULT:     -10.5      1.710      2.353
REMARK SMILES O=C(OCCOCCOC(=O)[C@H]1CC[C@@H](CNc2nncs2)CC1)c1ccc(-c2c3nc(c(-c4cc(S(=O)(=O)[O-])ccc4F)c4ccc([nH]4)c(-c4cc(S(=O)(=O)[O-])ccc4F)c4nc(c(-c5cc(S(=O)(=O)[O-])ccc5F)c5ccc2[nH]5)C=C4)C=C3)cc1
REMARK SMILES IDX 6 1 5 2 4 3 3 4 2 5 1 6 25 7 26 8 87 9 27 10 86 11 28 12
REMARK SMILES IDX 29 13 30 14 80 15 31 16 85 17 79 18 81 19 32 20 84 21 78 22
REMARK SMILES IDX 77 23 33 25 65 26 45 27 64 28 46 29 49 30 63 31 82 32 47 33
REMARK SMILES IDX 48 34 62 36 83 37 50 38 34 39 35 40 43 41 36 42 42 43 44 44
REMARK SMILES IDX 41 45 37 46 38 47 39 48 40 49 66 50 67 51 75 52 68 53 74 54
REMARK SMILES IDX 76 55 73 56 69 57 70 58 71 59 72 60 51 61 52 62 60 63 53 64
REMARK SMILES IDX 59 65 61 66 58 67 54 68 55 69 56 70 57 71 7 72 8 73 9 74
REMARK SMILES IDX 10 75 11 76 12 77 24 78 13 79 23 80 14 81 15 82 16 83 17 84
REMARK SMILES IDX 18 86 19 87 22 88 20 89 21 90
REMARK H PARENT 81 24 49 35 17 85
REMARK Flexibility Score: inf
ROOT
ATOM      1  O   UNL A   1      32.143  28.114  22.949  1.00  0.00    -0.374 OA
ENDROOT
BRANCH   1   2
ATOM      2  C   UNL A   1      31.945  28.850  24.152  1.00  0.00     0.202 C 
BRANCH   2   3
ATOM      3  C   UNL A   1      33.158  29.289  24.972  1.00  0.00     0.261 C 
BRANCH   3   4
ATOM      4  O   UNL A   1      32.733  29.810  26.245  1.00  0.00    -0.460 OA
BRANCH   4   5
ATOM      5  C   UNL A   1      33.270  30.875  26.890  1.00  0.00     0.338 C 
ATOM      6  O   UNL A   1      32.717  31.970  26.837  1.00  0.00    -0.246 OA
BRANCH   5   7
ATOM      7  C   UNL A   1      34.524  30.729  27.667  1.00  0.00     0.060 A 
ATOM      8  C   UNL A   1      34.878  29.526  28.268  1.00  0.00     0.016 A 
ATOM      9  C   UNL A   1      35.415  31.801  27.747  1.00  0.00     0.016 A 
ATOM     10  C   UNL A   1      36.005  29.380  29.024  1.00  0.00     0.010 A 
ATOM     11  C   UNL A   1      36.628  31.638  28.423  1.00  0.00     0.010 A 
ATOM     12  C   UNL A   1      36.916  30.416  29.047  1.00  0.00    -0.014 A 
BRANCH  12  13
ATOM     13  C   UNL A   1      38.147  30.133  29.780  1.00  0.00     0.031 A 
ATOM     14  C   UNL A   1      39.174  29.299  29.105  1.00  0.00     0.074 A 
ATOM     15  C   UNL A   1      38.365  30.792  30.933  1.00  0.00     0.049 A 
ATOM     16  N   UNL A   1      40.275  28.813  29.592  1.00  0.00    -0.248 NA
ATOM     17  C   UNL A   1      38.938  28.979  27.685  1.00  0.00     0.031 C 
ATOM     18  C   UNL A   1      37.465  31.801  31.516  1.00  0.00     0.029 A 
ATOM     19  N   UNL A   1      39.413  30.750  31.805  1.00  0.00    -0.354 N 
ATOM     20  C   UNL A   1      40.833  28.068  28.564  1.00  0.00     0.074 A 
ATOM     21  C   UNL A   1      39.972  28.199  27.412  1.00  0.00     0.031 C 
ATOM     22  C   UNL A   1      38.007  32.279  32.645  1.00  0.00     0.029 A 
ATOM     23  C   UNL A   1      39.215  31.522  32.928  1.00  0.00     0.049 A 
ATOM     24  H   UNL A   1      40.228  30.223  31.647  1.00  0.00     0.167 HD
ATOM     25  C   UNL A   1      41.951  27.313  28.629  1.00  0.00     0.034 A 
ATOM     26  C   UNL A   1      39.893  31.525  34.090  1.00  0.00     0.034 A 
ATOM     27  C   UNL A   1      42.749  27.241  29.824  1.00  0.00     0.049 A 
ATOM     28  C   UNL A   1      41.057  30.569  34.180  1.00  0.00     0.074 A 
ATOM     29  C   UNL A   1      43.877  26.486  30.066  1.00  0.00     0.029 A 
ATOM     30  N   UNL A   1      42.481  27.955  30.991  1.00  0.00    -0.354 N 
ATOM     31  N   UNL A   1      41.549  29.786  33.242  1.00  0.00    -0.248 NA
ATOM     32  C   UNL A   1      41.737  30.469  35.472  1.00  0.00     0.031 C 
ATOM     33  C   UNL A   1      44.240  26.679  31.403  1.00  0.00     0.029 A 
ATOM     34  C   UNL A   1      43.392  27.621  31.972  1.00  0.00     0.049 A 
ATOM     35  H   UNL A   1      41.749  28.605  31.098  1.00  0.00     0.167 HD
ATOM     36  C   UNL A   1      42.606  29.107  33.832  1.00  0.00     0.074 A 
ATOM     37  C   UNL A   1      42.697  29.599  35.195  1.00  0.00     0.031 C 
ATOM     38  C   UNL A   1      43.424  28.155  33.314  1.00  0.00     0.034 A 
BRANCH  25  39
ATOM     39  C   UNL A   1      42.252  26.426  27.456  1.00  0.00     0.023 A 
ATOM     40  C   UNL A   1      41.831  25.089  27.388  1.00  0.00     0.031 A 
ATOM     41  C   UNL A   1      43.052  26.924  26.410  1.00  0.00     0.131 A 
ATOM     42  C   UNL A   1      42.255  24.280  26.322  1.00  0.00     0.055 A 
ATOM     43  C   UNL A   1      43.410  26.135  25.317  1.00  0.00     0.041 A 
ATOM     44  F   UNL A   1      43.523  28.180  26.450  1.00  0.00    -0.206 F 
ATOM     45  C   UNL A   1      43.019  24.801  25.273  1.00  0.00     0.022 A 
BRANCH  42  46
ATOM     46  S   UNL A   1      41.906  22.500  26.384  1.00  0.00     0.124 S 
ATOM     47  O   UNL A   1      40.446  22.486  26.321  1.00  0.00    -0.237 OA
ATOM     48  O   UNL A   1      42.599  21.999  25.203  1.00  0.00    -0.237 OA
ATOM     49  O   UNL A   1      42.472  22.083  27.664  1.00  0.00    -0.744 OA
ENDBRANCH  42  46
ENDBRANCH  25  39
BRANCH  26  50
ATOM     50  C   UNL A   1      39.421  32.312  35.268  1.00  0.00     0.023 A 
ATOM     51  C   UNL A   1      39.875  33.618  35.499  1.00  0.00     0.031 A 
ATOM     52  C   UNL A   1      38.572  31.737  36.237  1.00  0.00     0.131 A 
ATOM     53  C   UNL A   1      39.540  34.277  36.694  1.00  0.00     0.055 A 
ATOM     54  C   UNL A   1      38.180  32.426  37.387  1.00  0.00     0.041 A 
ATOM     55  F   UNL A   1      38.112  30.485  36.088  1.00  0.00    -0.206 F 
ATOM     56  C   UNL A   1      38.684  33.697  37.631  1.00  0.00     0.022 A 
BRANCH  53  57
ATOM     57  S   UNL A   1      40.366  35.847  37.074  1.00  0.00     0.124 S 
ATOM     58  O   UNL A   1      39.725  36.754  36.128  1.00  0.00    -0.237 OA
ATOM     59  O   UNL A   1      40.021  36.035  38.479  1.00  0.00    -0.237 OA
ATOM     60  O   UNL A   1      41.774  35.562  36.810  1.00  0.00    -0.744 OA
ENDBRANCH  53  57
ENDBRANCH  26  50
BRANCH  38  61
ATOM     61  C   UNL A   1      44.492  27.627  34.229  1.00  0.00     0.023 A 
ATOM     62  C   UNL A   1      44.291  26.463  34.988  1.00  0.00     0.031 A 
ATOM     63  C   UNL A   1      45.732  28.281  34.312  1.00  0.00     0.131 A 
ATOM     64  C   UNL A   1      45.308  26.009  35.834  1.00  0.00     0.055 A 
ATOM     65  C   UNL A   1      46.764  27.785  35.104  1.00  0.00     0.041 A 
ATOM     66  F   UNL A   1      45.965  29.399  33.604  1.00  0.00    -0.206 F 
ATOM     67  C   UNL A   1      46.551  26.647  35.878  1.00  0.00     0.022 A 
BRANCH  64  68
ATOM     68  S   UNL A   1      44.958  24.609  36.929  1.00  0.00     0.124 S 
ATOM     69  O   UNL A   1      44.030  25.201  37.888  1.00  0.00    -0.237 OA
ATOM     70  O   UNL A   1      44.389  23.628  36.012  1.00  0.00    -0.237 OA
ATOM     71  O   UNL A   1      46.272  24.264  37.469  1.00  0.00    -0.744 OA
ENDBRANCH  64  68
ENDBRANCH  38  61
ENDBRANCH  12  13
ENDBRANCH   5   7
ENDBRANCH   4   5
ENDBRANCH   3   4
ENDBRANCH   2   3
ENDBRANCH   1   2
BRANCH   1  72
ATOM     72  C   UNL A   1      33.483  27.779  22.577  1.00  0.00     0.202 C 
BRANCH  72  73
ATOM     73  C   UNL A   1      33.471  26.401  21.916  1.00  0.00     0.261 C 
BRANCH  73  74
ATOM     74  O   UNL A   1      34.164  25.497  22.794  1.00  0.00    -0.463 OA
BRANCH  74  75
ATOM     75  C   UNL A   1      33.781  24.187  22.733  1.00  0.00     0.309 C 
ATOM     76  O   UNL A   1      32.855  23.738  22.085  1.00  0.00    -0.252 OA
BRANCH  75  77
ATOM     77  C   UNL A   1      34.752  23.328  23.534  1.00  0.00     0.099 C 
ATOM     78  C   UNL A   1      35.461  24.194  24.582  1.00  0.00     0.015 C 
ATOM     79  C   UNL A   1      34.015  22.134  24.140  1.00  0.00     0.015 C 
ATOM     80  C   UNL A   1      36.214  23.436  25.666  1.00  0.00     0.006 C 
ATOM     81  C   UNL A   1      34.864  21.418  25.180  1.00  0.00     0.006 C 
ATOM     82  C   UNL A   1      35.328  22.361  26.303  1.00  0.00     0.008 C 
BRANCH  82  83
ATOM     83  C   UNL A   1      34.178  23.005  27.122  1.00  0.00     0.119 C 
BRANCH  83  84
ATOM     84  N   UNL A   1      32.899  22.633  26.566  1.00  0.00    -0.360 N 
ATOM     85  H   UNL A   1      32.826  21.737  26.167  1.00  0.00     0.162 HD
BRANCH  84  86
ATOM     86  C   UNL A   1      31.797  23.409  26.545  1.00  0.00     0.205 A 
ATOM     87  N   UNL A   1      30.731  23.124  27.269  1.00  0.00    -0.121 NA
ATOM     88  S   UNL A   1      31.585  24.815  25.567  1.00  0.00    -0.083 S 
ATOM     89  N   UNL A   1      29.710  24.037  27.120  1.00  0.00    -0.145 NA
ATOM     90  C   UNL A   1      30.022  24.963  26.242  1.00  0.00     0.204 A 
ENDBRANCH  84  86
ENDBRANCH  83  84
ENDBRANCH  82  83
ENDBRANCH  75  77
ENDBRANCH  74  75
ENDBRANCH  73  74
ENDBRANCH  72  73
ENDBRANCH   1  72
TORSDOF 20
ENDMDL
