MODEL 1
REMARK VINA RESULT:     -12.1      0.000      0.000
REMARK SMILES Cc1c(CC(=O)OCCOCCOC(=O)c2ccc(-c3c4nc(c(-c5cc(S(=O)(=O)[O-])ccc5F)c5ccc([nH]5)c(-c5cc(S(=O)(=O)[O-])ccc5F)c5nc(c(-c6cc(S(=O)(=O)[O-])ccc6F)c6ccc3[nH]6)C=C5)C=C4)cc2)cccc1-c1ccn(C(F)F)c(=O)c1
REMARK SMILES IDX 10 1 9 2 8 3 7 4 5 5 6 6 4 7 3 8 1 9 2 10 82 11 79 12 81 13
REMARK SMILES IDX 80 14 83 15 84 16 92 17 85 18 90 19 86 20 91 21 87 22 88 23
REMARK SMILES IDX 89 24 11 25 12 26 13 27 14 28 15 29 16 30 17 31 78 32 18 33
REMARK SMILES IDX 77 34 19 35 20 36 21 37 71 38 22 39 76 40 70 41 72 42 23 43
REMARK SMILES IDX 75 44 69 45 68 46 24 48 56 49 36 50 55 51 37 52 40 53 54 54
REMARK SMILES IDX 73 55 38 56 39 57 53 59 74 60 41 61 25 62 26 63 34 64 27 65
REMARK SMILES IDX 33 66 35 67 32 68 28 69 29 70 30 71 31 72 57 73 58 74 66 75
REMARK SMILES IDX 59 76 65 77 67 78 64 79 60 80 61 81 62 82 63 83 42 84 43 85
REMARK SMILES IDX 51 86 44 87 50 88 52 89 49 90 45 91 46 92 47 93 48 94
REMARK H PARENT 72 47 40 58
REMARK Flexibility Score: inf
ROOT
ATOM      1  O   UNL A   1      31.792  30.482  25.482  1.00  0.00    -0.374 OA
ENDROOT
BRANCH   1   2
ATOM      2  C   UNL A   1      32.285  29.185  25.142  1.00  0.00     0.202 C 
BRANCH   2   3
ATOM      3  C   UNL A   1      31.468  28.686  23.996  1.00  0.00     0.261 C 
BRANCH   3   4
ATOM      4  O   UNL A   1      32.240  28.129  22.935  1.00  0.00    -0.463 OA
BRANCH   4   5
ATOM      5  C   UNL A   1      32.164  26.786  22.706  1.00  0.00     0.310 C 
ATOM      6  O   UNL A   1      31.163  26.145  22.461  1.00  0.00    -0.252 OA
BRANCH   5   7
ATOM      7  C   UNL A   1      33.565  26.198  22.773  1.00  0.00     0.158 C 
BRANCH   7   8
ATOM      8  C   UNL A   1      33.646  25.152  23.876  1.00  0.00    -0.033 A 
ATOM      9  C   UNL A   1      33.590  23.291  22.157  1.00  0.00     0.045 C 
ATOM     10  C   UNL A   1      33.612  23.763  23.596  1.00  0.00    -0.039 A 
ATOM     11  C   UNL A   1      33.469  22.848  24.669  1.00  0.00    -0.015 A 
ATOM     12  C   UNL A   1      33.471  25.601  25.199  1.00  0.00     0.004 A 
ATOM     13  C   UNL A   1      33.244  23.329  25.968  1.00  0.00     0.009 A 
ATOM     14  C   UNL A   1      33.237  24.698  26.230  1.00  0.00     0.001 A 
BRANCH  11  15
ATOM     15  C   UNL A   1      33.630  21.391  24.456  1.00  0.00    -0.011 A 
ATOM     16  C   UNL A   1      32.502  20.606  23.990  1.00  0.00     0.027 A 
ATOM     17  C   UNL A   1      34.787  20.767  24.745  1.00  0.00     0.080 A 
ATOM     18  C   UNL A   1      32.565  19.274  23.960  1.00  0.00     0.095 A 
ATOM     19  C   UNL A   1      34.898  19.282  24.631  1.00  0.00     0.255 A 
ATOM     20  N   UNL A   1      33.727  18.612  24.301  1.00  0.00    -0.258 N 
ATOM     21  O   UNL A   1      35.977  18.727  24.814  1.00  0.00    -0.269 OA
BRANCH  20  22
ATOM     22  C   UNL A   1      33.768  17.178  24.307  1.00  0.00     0.451 C 
ATOM     23  F   UNL A   1      32.575  16.642  24.668  1.00  0.00    -0.185 F 
ATOM     24  F   UNL A   1      34.108  16.675  23.096  1.00  0.00    -0.185 F 
ENDBRANCH  20  22
ENDBRANCH  11  15
ENDBRANCH   7   8
ENDBRANCH   5   7
ENDBRANCH   4   5
ENDBRANCH   3   4
ENDBRANCH   2   3
ENDBRANCH   1   2
BRANCH   1  25
ATOM     25  C   UNL A   1      32.044  30.854  26.827  1.00  0.00     0.202 C 
BRANCH  25  26
ATOM     26  C   UNL A   1      33.327  30.261  27.441  1.00  0.00     0.261 C 
BRANCH  26  27
ATOM     27  O   UNL A   1      34.331  31.287  27.591  1.00  0.00    -0.460 OA
BRANCH  27  28
ATOM     28  C   UNL A   1      34.971  31.318  28.791  1.00  0.00     0.338 C 
ATOM     29  O   UNL A   1      34.735  32.118  29.690  1.00  0.00    -0.246 OA
BRANCH  28  30
ATOM     30  C   UNL A   1      36.058  30.304  28.810  1.00  0.00     0.060 A 
ATOM     31  C   UNL A   1      36.517  29.755  30.022  1.00  0.00     0.016 A 
ATOM     32  C   UNL A   1      36.781  30.096  27.638  1.00  0.00     0.016 A 
ATOM     33  C   UNL A   1      37.772  29.128  30.079  1.00  0.00     0.010 A 
ATOM     34  C   UNL A   1      38.054  29.577  27.723  1.00  0.00     0.010 A 
ATOM     35  C   UNL A   1      38.575  29.113  28.940  1.00  0.00    -0.014 A 
BRANCH  35  36
ATOM     36  C   UNL A   1      39.993  28.733  28.890  1.00  0.00     0.031 A 
ATOM     37  C   UNL A   1      40.321  27.348  28.489  1.00  0.00     0.074 A 
ATOM     38  C   UNL A   1      40.989  29.649  28.994  1.00  0.00     0.049 A 
ATOM     39  N   UNL A   1      41.416  26.747  28.798  1.00  0.00    -0.248 NA
ATOM     40  C   UNL A   1      39.407  26.494  27.733  1.00  0.00     0.031 C 
ATOM     41  C   UNL A   1      42.394  29.524  28.603  1.00  0.00     0.029 A 
ATOM     42  N   UNL A   1      40.943  30.931  29.550  1.00  0.00    -0.354 N 
ATOM     43  C   UNL A   1      41.495  25.606  28.028  1.00  0.00     0.074 A 
ATOM     44  C   UNL A   1      40.179  25.440  27.472  1.00  0.00     0.031 C 
ATOM     45  C   UNL A   1      43.106  30.508  29.187  1.00  0.00     0.029 A 
ATOM     46  C   UNL A   1      42.205  31.225  30.078  1.00  0.00     0.049 A 
ATOM     47  H   UNL A   1      40.158  31.525  29.567  1.00  0.00     0.167 HD
ATOM     48  C   UNL A   1      42.712  25.029  27.825  1.00  0.00     0.034 A 
ATOM     49  C   UNL A   1      42.352  31.510  31.401  1.00  0.00     0.034 A 
ATOM     50  C   UNL A   1      43.760  25.795  28.515  1.00  0.00     0.049 A 
ATOM     51  C   UNL A   1      43.222  30.447  32.003  1.00  0.00     0.074 A 
ATOM     52  C   UNL A   1      44.684  26.722  28.060  1.00  0.00     0.029 A 
ATOM     53  N   UNL A   1      43.728  25.924  29.902  1.00  0.00    -0.354 N 
ATOM     54  N   UNL A   1      43.402  29.290  31.424  1.00  0.00    -0.248 NA
ATOM     55  C   UNL A   1      43.998  30.591  33.227  1.00  0.00     0.031 C 
ATOM     56  C   UNL A   1      45.137  27.471  29.182  1.00  0.00     0.029 A 
ATOM     57  C   UNL A   1      44.523  26.975  30.321  1.00  0.00     0.049 A 
ATOM     58  H   UNL A   1      43.208  25.344  30.504  1.00  0.00     0.167 HD
ATOM     59  C   UNL A   1      44.297  28.557  32.129  1.00  0.00     0.074 A 
ATOM     60  C   UNL A   1      44.641  29.409  33.259  1.00  0.00     0.031 C 
ATOM     61  C   UNL A   1      44.652  27.300  31.737  1.00  0.00     0.034 A 
BRANCH  48  62
ATOM     62  C   UNL A   1      43.012  23.980  26.770  1.00  0.00     0.023 A 
ATOM     63  C   UNL A   1      42.445  22.697  26.918  1.00  0.00     0.031 A 
ATOM     64  C   UNL A   1      43.833  24.135  25.633  1.00  0.00     0.131 A 
ATOM     65  C   UNL A   1      42.758  21.642  26.040  1.00  0.00     0.055 A 
ATOM     66  C   UNL A   1      44.192  23.073  24.790  1.00  0.00     0.041 A 
ATOM     67  F   UNL A   1      44.277  25.329  25.227  1.00  0.00    -0.206 F 
ATOM     68  C   UNL A   1      43.657  21.813  24.994  1.00  0.00     0.022 A 
BRANCH  65  69
ATOM     69  S   UNL A   1      41.943  20.040  26.269  1.00  0.00     0.124 S 
ATOM     70  O   UNL A   1      42.339  19.685  27.627  1.00  0.00    -0.237 OA
ATOM     71  O   UNL A   1      40.537  20.377  26.070  1.00  0.00    -0.237 OA
ATOM     72  O   UNL A   1      42.527  19.210  25.217  1.00  0.00    -0.744 OA
ENDBRANCH  65  69
ENDBRANCH  48  62
BRANCH  49  73
ATOM     73  C   UNL A   1      41.128  32.152  31.992  1.00  0.00     0.023 A 
ATOM     74  C   UNL A   1      40.219  31.315  32.687  1.00  0.00     0.031 A 
ATOM     75  C   UNL A   1      41.082  33.525  32.274  1.00  0.00     0.131 A 
ATOM     76  C   UNL A   1      39.429  31.827  33.735  1.00  0.00     0.055 A 
ATOM     77  C   UNL A   1      40.260  34.036  33.292  1.00  0.00     0.041 A 
ATOM     78  F   UNL A   1      41.925  34.375  31.672  1.00  0.00    -0.206 F 
ATOM     79  C   UNL A   1      39.469  33.182  34.060  1.00  0.00     0.022 A 
BRANCH  76  80
ATOM     80  S   UNL A   1      38.607  30.678  34.888  1.00  0.00     0.124 S 
ATOM     81  O   UNL A   1      38.105  29.639  34.002  1.00  0.00    -0.237 OA
ATOM     82  O   UNL A   1      39.695  30.285  35.777  1.00  0.00    -0.237 OA
ATOM     83  O   UNL A   1      37.589  31.509  35.531  1.00  0.00    -0.744 OA
ENDBRANCH  76  80
ENDBRANCH  49  73
BRANCH  61  84
ATOM     84  C   UNL A   1      45.230  26.309  32.695  1.00  0.00     0.023 A 
ATOM     85  C   UNL A   1      44.406  25.433  33.409  1.00  0.00     0.031 A 
ATOM     86  C   UNL A   1      46.619  26.135  32.855  1.00  0.00     0.131 A 
ATOM     87  C   UNL A   1      44.935  24.561  34.359  1.00  0.00     0.055 A 
ATOM     88  C   UNL A   1      47.153  25.169  33.709  1.00  0.00     0.041 A 
ATOM     89  F   UNL A   1      47.506  26.886  32.186  1.00  0.00    -0.206 F 
ATOM     90  C   UNL A   1      46.309  24.397  34.496  1.00  0.00     0.022 A 
BRANCH  87  91
ATOM     91  S   UNL A   1      43.767  23.783  35.497  1.00  0.00     0.124 S 
ATOM     92  O   UNL A   1      44.659  22.977  36.327  1.00  0.00    -0.237 OA
ATOM     93  O   UNL A   1      43.156  24.931  36.159  1.00  0.00    -0.237 OA
ATOM     94  O   UNL A   1      42.884  23.026  34.615  1.00  0.00    -0.744 OA
ENDBRANCH  87  91
ENDBRANCH  61  84
ENDBRANCH  35  36
ENDBRANCH  28  30
ENDBRANCH  27  28
ENDBRANCH  26  27
ENDBRANCH  25  26
ENDBRANCH   1  25
TORSDOF 20
ENDMDL
MODEL 2
REMARK VINA RESULT:     -11.8      5.053     10.213
REMARK SMILES Cc1c(CC(=O)OCCOCCOC(=O)c2ccc(-c3c4nc(c(-c5cc(S(=O)(=O)[O-])ccc5F)c5ccc([nH]5)c(-c5cc(S(=O)(=O)[O-])ccc5F)c5nc(c(-c6cc(S(=O)(=O)[O-])ccc6F)c6ccc3[nH]6)C=C5)C=C4)cc2)cccc1-c1ccn(C(F)F)c(=O)c1
REMARK SMILES IDX 10 1 9 2 8 3 7 4 5 5 6 6 4 7 3 8 1 9 2 10 82 11 79 12 81 13
REMARK SMILES IDX 80 14 83 15 84 16 92 17 85 18 90 19 86 20 91 21 87 22 88 23
REMARK SMILES IDX 89 24 11 25 12 26 13 27 14 28 15 29 16 30 17 31 78 32 18 33
REMARK SMILES IDX 77 34 19 35 20 36 21 37 71 38 22 39 76 40 70 41 72 42 23 43
REMARK SMILES IDX 75 44 69 45 68 46 24 48 56 49 36 50 55 51 37 52 40 53 54 54
REMARK SMILES IDX 73 55 38 56 39 57 53 59 74 60 41 61 25 62 26 63 34 64 27 65
REMARK SMILES IDX 33 66 35 67 32 68 28 69 29 70 30 71 31 72 57 73 58 74 66 75
REMARK SMILES IDX 59 76 65 77 67 78 64 79 60 80 61 81 62 82 63 83 42 84 43 85
REMARK SMILES IDX 51 86 44 87 50 88 52 89 49 90 45 91 46 92 47 93 48 94
REMARK H PARENT 72 47 40 58
REMARK Flexibility Score: inf
ROOT
ATOM      1  O   UNL A   1      37.093  22.111  25.554  1.00  0.00    -0.374 OA
ENDROOT
BRANCH   1   2
ATOM      2  C   UNL A   1      35.900  21.364  25.788  1.00  0.00     0.202 C 
BRANCH   2   3
ATOM      3  C   UNL A   1      34.753  22.202  25.324  1.00  0.00     0.261 C 
BRANCH   3   4
ATOM      4  O   UNL A   1      34.345  21.933  23.986  1.00  0.00    -0.463 OA
BRANCH   4   5
ATOM      5  C   UNL A   1      33.933  22.974  23.206  1.00  0.00     0.310 C 
ATOM      6  O   UNL A   1      34.603  23.915  22.836  1.00  0.00    -0.252 OA
BRANCH   5   7
ATOM      7  C   UNL A   1      32.476  22.757  22.830  1.00  0.00     0.158 C 
BRANCH   7   8
ATOM      8  C   UNL A   1      31.575  23.645  23.678  1.00  0.00    -0.033 A 
ATOM      9  C   UNL A   1      31.776  25.519  21.983  1.00  0.00     0.045 C 
ATOM     10  C   UNL A   1      31.272  24.979  23.305  1.00  0.00    -0.039 A 
ATOM     11  C   UNL A   1      30.615  25.821  24.237  1.00  0.00    -0.015 A 
ATOM     12  C   UNL A   1      31.280  23.201  24.980  1.00  0.00     0.004 A 
ATOM     13  C   UNL A   1      30.382  25.364  25.544  1.00  0.00     0.009 A 
ATOM     14  C   UNL A   1      30.721  24.065  25.916  1.00  0.00     0.001 A 
BRANCH  11  15
ATOM     15  C   UNL A   1      30.097  27.148  23.833  1.00  0.00    -0.011 A 
ATOM     16  C   UNL A   1      30.957  28.313  23.931  1.00  0.00     0.027 A 
ATOM     17  C   UNL A   1      28.822  27.309  23.433  1.00  0.00     0.080 A 
ATOM     18  C   UNL A   1      30.468  29.540  23.746  1.00  0.00     0.095 A 
ATOM     19  C   UNL A   1      28.284  28.670  23.137  1.00  0.00     0.255 A 
ATOM     20  N   UNL A   1      29.150  29.729  23.384  1.00  0.00    -0.258 N 
ATOM     21  O   UNL A   1      27.148  28.803  22.692  1.00  0.00    -0.269 OA
BRANCH  20  22
ATOM     22  C   UNL A   1      28.624  31.055  23.231  1.00  0.00     0.451 C 
ATOM     23  F   UNL A   1      28.858  31.818  24.328  1.00  0.00    -0.185 F 
ATOM     24  F   UNL A   1      29.149  31.688  22.154  1.00  0.00    -0.185 F 
ENDBRANCH  20  22
ENDBRANCH  11  15
ENDBRANCH   7   8
ENDBRANCH   5   7
ENDBRANCH   4   5
ENDBRANCH   3   4
ENDBRANCH   2   3
ENDBRANCH   1   2
BRANCH   1  25
ATOM     25  C   UNL A   1      38.250  21.305  25.396  1.00  0.00     0.202 C 
BRANCH  25  26
ATOM     26  C   UNL A   1      39.494  21.787  26.166  1.00  0.00     0.261 C 
BRANCH  26  27
ATOM     27  O   UNL A   1      39.293  23.130  26.652  1.00  0.00    -0.460 OA
BRANCH  27  28
ATOM     28  C   UNL A   1      40.419  23.879  26.803  1.00  0.00     0.338 C 
ATOM     29  O   UNL A   1      41.564  23.444  26.735  1.00  0.00    -0.246 OA
BRANCH  28  30
ATOM     30  C   UNL A   1      40.054  25.276  27.157  1.00  0.00     0.060 A 
ATOM     31  C   UNL A   1      40.609  26.369  26.466  1.00  0.00     0.016 A 
ATOM     32  C   UNL A   1      39.351  25.490  28.340  1.00  0.00     0.016 A 
ATOM     33  C   UNL A   1      40.585  27.649  27.041  1.00  0.00     0.010 A 
ATOM     34  C   UNL A   1      39.426  26.724  28.946  1.00  0.00     0.010 A 
ATOM     35  C   UNL A   1      40.061  27.808  28.323  1.00  0.00    -0.014 A 
BRANCH  35  36
ATOM     36  C   UNL A   1      40.186  29.007  29.163  1.00  0.00     0.031 A 
ATOM     37  C   UNL A   1      39.093  30.001  29.109  1.00  0.00     0.074 A 
ATOM     38  C   UNL A   1      41.146  29.124  30.115  1.00  0.00     0.049 A 
ATOM     39  N   UNL A   1      39.230  31.242  29.421  1.00  0.00    -0.248 NA
ATOM     40  C   UNL A   1      37.743  29.684  28.650  1.00  0.00     0.031 C 
ATOM     41  C   UNL A   1      41.196  30.034  31.259  1.00  0.00     0.029 A 
ATOM     42  N   UNL A   1      42.361  28.440  30.220  1.00  0.00    -0.354 N 
ATOM     43  C   UNL A   1      37.968  31.785  29.528  1.00  0.00     0.074 A 
ATOM     44  C   UNL A   1      37.092  30.812  28.933  1.00  0.00     0.031 C 
ATOM     45  C   UNL A   1      42.454  30.071  31.742  1.00  0.00     0.029 A 
ATOM     46  C   UNL A   1      43.287  29.283  30.843  1.00  0.00     0.049 A 
ATOM     47  H   UNL A   1      42.536  27.523  29.907  1.00  0.00     0.167 HD
ATOM     48  C   UNL A   1      37.798  32.924  30.255  1.00  0.00     0.034 A 
ATOM     49  C   UNL A   1      44.439  29.635  30.212  1.00  0.00     0.034 A 
ATOM     50  C   UNL A   1      39.084  33.368  30.812  1.00  0.00     0.049 A 
ATOM     51  C   UNL A   1      44.413  31.122  30.009  1.00  0.00     0.074 A 
ATOM     52  C   UNL A   1      39.640  33.244  32.076  1.00  0.00     0.029 A 
ATOM     53  N   UNL A   1      40.127  33.721  29.959  1.00  0.00    -0.354 N 
ATOM     54  N   UNL A   1      43.303  31.808  30.056  1.00  0.00    -0.248 NA
ATOM     55  C   UNL A   1      45.585  31.961  29.808  1.00  0.00     0.031 C 
ATOM     56  C   UNL A   1      41.045  33.435  31.953  1.00  0.00     0.029 A 
ATOM     57  C   UNL A   1      41.338  33.717  30.628  1.00  0.00     0.049 A 
ATOM     58  H   UNL A   1      40.017  33.944  29.007  1.00  0.00     0.167 HD
ATOM     59  C   UNL A   1      43.572  33.129  29.931  1.00  0.00     0.074 A 
ATOM     60  C   UNL A   1      45.019  33.181  29.769  1.00  0.00     0.031 C 
ATOM     61  C   UNL A   1      42.577  34.061  29.940  1.00  0.00     0.034 A 
BRANCH  48  62
ATOM     62  C   UNL A   1      36.461  33.465  30.727  1.00  0.00     0.023 A 
ATOM     63  C   UNL A   1      35.609  34.072  29.780  1.00  0.00     0.031 A 
ATOM     64  C   UNL A   1      35.960  33.448  32.045  1.00  0.00     0.131 A 
ATOM     65  C   UNL A   1      34.401  34.688  30.157  1.00  0.00     0.055 A 
ATOM     66  C   UNL A   1      34.785  34.109  32.433  1.00  0.00     0.041 A 
ATOM     67  F   UNL A   1      36.532  32.733  33.020  1.00  0.00    -0.206 F 
ATOM     68  C   UNL A   1      33.999  34.741  31.486  1.00  0.00     0.022 A 
BRANCH  65  69
ATOM     69  S   UNL A   1      33.341  35.397  28.870  1.00  0.00     0.124 S 
ATOM     70  O   UNL A   1      34.304  36.102  28.031  1.00  0.00    -0.237 OA
ATOM     71  O   UNL A   1      32.721  34.210  28.290  1.00  0.00    -0.237 OA
ATOM     72  O   UNL A   1      32.428  36.259  29.620  1.00  0.00    -0.744 OA
ENDBRANCH  65  69
ENDBRANCH  48  62
BRANCH  49  73
ATOM     73  C   UNL A   1      44.920  28.577  29.259  1.00  0.00     0.023 A 
ATOM     74  C   UNL A   1      45.092  28.947  27.900  1.00  0.00     0.031 A 
ATOM     75  C   UNL A   1      45.610  27.442  29.707  1.00  0.00     0.131 A 
ATOM     76  C   UNL A   1      46.047  28.297  27.094  1.00  0.00     0.055 A 
ATOM     77  C   UNL A   1      46.531  26.772  28.885  1.00  0.00     0.041 A 
ATOM     78  F   UNL A   1      45.514  27.045  30.984  1.00  0.00    -0.206 F 
ATOM     79  C   UNL A   1      46.790  27.228  27.593  1.00  0.00     0.022 A 
BRANCH  76  80
ATOM     80  S   UNL A   1      46.561  29.054  25.517  1.00  0.00     0.124 S 
ATOM     81  O   UNL A   1      45.763  28.329  24.539  1.00  0.00    -0.237 OA
ATOM     82  O   UNL A   1      46.211  30.457  25.706  1.00  0.00    -0.237 OA
ATOM     83  O   UNL A   1      48.001  28.803  25.470  1.00  0.00    -0.744 OA
ENDBRANCH  76  80
ENDBRANCH  49  73
BRANCH  61  84
ATOM     84  C   UNL A   1      42.763  35.419  29.342  1.00  0.00     0.023 A 
ATOM     85  C   UNL A   1      43.496  36.404  30.010  1.00  0.00     0.031 A 
ATOM     86  C   UNL A   1      42.304  35.744  28.051  1.00  0.00     0.131 A 
ATOM     87  C   UNL A   1      43.606  37.694  29.492  1.00  0.00     0.055 A 
ATOM     88  C   UNL A   1      42.530  36.995  27.475  1.00  0.00     0.041 A 
ATOM     89  F   UNL A   1      41.630  34.862  27.298  1.00  0.00    -0.206 F 
ATOM     90  C   UNL A   1      43.155  37.994  28.211  1.00  0.00     0.022 A 
BRANCH  87  91
ATOM     91  S   UNL A   1      44.211  38.977  30.610  1.00  0.00     0.124 S 
ATOM     92  O   UNL A   1      45.397  39.450  29.899  1.00  0.00    -0.237 OA
ATOM     93  O   UNL A   1      43.091  39.911  30.658  1.00  0.00    -0.237 OA
ATOM     94  O   UNL A   1      44.476  38.253  31.849  1.00  0.00    -0.744 OA
ENDBRANCH  87  91
ENDBRANCH  61  84
ENDBRANCH  35  36
ENDBRANCH  28  30
ENDBRANCH  27  28
ENDBRANCH  26  27
ENDBRANCH  25  26
ENDBRANCH   1  25
TORSDOF 20
ENDMDL
MODEL 3
REMARK VINA RESULT:     -11.8      2.242      2.823
REMARK SMILES Cc1c(CC(=O)OCCOCCOC(=O)c2ccc(-c3c4nc(c(-c5cc(S(=O)(=O)[O-])ccc5F)c5ccc([nH]5)c(-c5cc(S(=O)(=O)[O-])ccc5F)c5nc(c(-c6cc(S(=O)(=O)[O-])ccc6F)c6ccc3[nH]6)C=C5)C=C4)cc2)cccc1-c1ccn(C(F)F)c(=O)c1
REMARK SMILES IDX 10 1 9 2 8 3 7 4 5 5 6 6 4 7 3 8 1 9 2 10 82 11 79 12 81 13
REMARK SMILES IDX 80 14 83 15 84 16 92 17 85 18 90 19 86 20 91 21 87 22 88 23
REMARK SMILES IDX 89 24 11 25 12 26 13 27 14 28 15 29 16 30 17 31 78 32 18 33
REMARK SMILES IDX 77 34 19 35 20 36 21 37 71 38 22 39 76 40 70 41 72 42 23 43
REMARK SMILES IDX 75 44 69 45 68 46 24 48 56 49 36 50 55 51 37 52 40 53 54 54
REMARK SMILES IDX 73 55 38 56 39 57 53 59 74 60 41 61 25 62 26 63 34 64 27 65
REMARK SMILES IDX 33 66 35 67 32 68 28 69 29 70 30 71 31 72 57 73 58 74 66 75
REMARK SMILES IDX 59 76 65 77 67 78 64 79 60 80 61 81 62 82 63 83 42 84 43 85
REMARK SMILES IDX 51 86 44 87 50 88 52 89 49 90 45 91 46 92 47 93 48 94
REMARK H PARENT 72 47 40 58
REMARK Flexibility Score: inf
ROOT
ATOM      1  O   UNL A   1      32.201  30.620  26.707  1.00  0.00    -0.374 OA
ENDROOT
BRANCH   1   2
ATOM      2  C   UNL A   1      32.566  29.445  25.983  1.00  0.00     0.202 C 
BRANCH   2   3
ATOM      3  C   UNL A   1      31.760  28.315  26.536  1.00  0.00     0.261 C 
BRANCH   3   4
ATOM      4  O   UNL A   1      31.136  27.509  25.540  1.00  0.00    -0.463 OA
BRANCH   4   5
ATOM      5  C   UNL A   1      30.863  26.204  25.830  1.00  0.00     0.310 C 
ATOM      6  O   UNL A   1      29.820  25.618  25.634  1.00  0.00    -0.252 OA
BRANCH   5   7
ATOM      7  C   UNL A   1      32.108  25.565  26.425  1.00  0.00     0.158 C 
BRANCH   7   8
ATOM      8  C   UNL A   1      32.814  24.712  25.380  1.00  0.00    -0.033 A 
ATOM      9  C   UNL A   1      32.359  22.620  26.737  1.00  0.00     0.045 C 
ATOM     10  C   UNL A   1      32.979  23.313  25.542  1.00  0.00    -0.039 A 
ATOM     11  C   UNL A   1      33.829  22.613  24.650  1.00  0.00    -0.015 A 
ATOM     12  C   UNL A   1      33.543  25.389  24.386  1.00  0.00     0.004 A 
ATOM     13  C   UNL A   1      34.582  23.326  23.703  1.00  0.00     0.009 A 
ATOM     14  C   UNL A   1      34.447  24.707  23.578  1.00  0.00     0.001 A 
BRANCH  11  15
ATOM     15  C   UNL A   1      33.879  21.133  24.645  1.00  0.00    -0.011 A 
ATOM     16  C   UNL A   1      35.133  20.458  24.924  1.00  0.00     0.027 A 
ATOM     17  C   UNL A   1      32.797  20.398  24.329  1.00  0.00     0.080 A 
ATOM     18  C   UNL A   1      35.251  19.140  24.753  1.00  0.00     0.095 A 
ATOM     19  C   UNL A   1      32.893  18.912  24.221  1.00  0.00     0.255 A 
ATOM     20  N   UNL A   1      34.164  18.376  24.380  1.00  0.00    -0.258 N 
ATOM     21  O   UNL A   1      31.886  18.240  24.015  1.00  0.00    -0.269 OA
BRANCH  20  22
ATOM     22  C   UNL A   1      34.314  16.966  24.156  1.00  0.00     0.451 C 
ATOM     23  F   UNL A   1      34.478  16.680  22.840  1.00  0.00    -0.185 F 
ATOM     24  F   UNL A   1      35.368  16.454  24.836  1.00  0.00    -0.185 F 
ENDBRANCH  20  22
ENDBRANCH  11  15
ENDBRANCH   7   8
ENDBRANCH   5   7
ENDBRANCH   4   5
ENDBRANCH   3   4
ENDBRANCH   2   3
ENDBRANCH   1   2
BRANCH   1  25
ATOM     25  C   UNL A   1      33.248  31.147  27.506  1.00  0.00     0.202 C 
BRANCH  25  26
ATOM     26  C   UNL A   1      34.505  30.262  27.605  1.00  0.00     0.261 C 
BRANCH  26  27
ATOM     27  O   UNL A   1      35.685  31.081  27.743  1.00  0.00    -0.460 OA
BRANCH  27  28
ATOM     28  C   UNL A   1      36.334  30.987  28.935  1.00  0.00     0.338 C 
ATOM     29  O   UNL A   1      36.219  31.785  29.859  1.00  0.00    -0.246 OA
BRANCH  28  30
ATOM     30  C   UNL A   1      37.272  29.834  28.910  1.00  0.00     0.060 A 
ATOM     31  C   UNL A   1      37.452  29.021  30.045  1.00  0.00     0.016 A 
ATOM     32  C   UNL A   1      38.149  29.724  27.834  1.00  0.00     0.016 A 
ATOM     33  C   UNL A   1      38.594  28.212  30.156  1.00  0.00     0.010 A 
ATOM     34  C   UNL A   1      39.317  29.013  27.996  1.00  0.00     0.010 A 
ATOM     35  C   UNL A   1      39.568  28.273  29.161  1.00  0.00    -0.014 A 
BRANCH  35  36
ATOM     36  C   UNL A   1      40.918  27.698  29.239  1.00  0.00     0.031 A 
ATOM     37  C   UNL A   1      41.122  26.343  28.685  1.00  0.00     0.074 A 
ATOM     38  C   UNL A   1      41.996  28.437  29.604  1.00  0.00     0.049 A 
ATOM     39  N   UNL A   1      42.073  25.553  29.041  1.00  0.00    -0.248 NA
ATOM     40  C   UNL A   1      40.229  25.736  27.701  1.00  0.00     0.031 C 
ATOM     41  C   UNL A   1      43.415  28.158  29.384  1.00  0.00     0.029 A 
ATOM     42  N   UNL A   1      42.032  29.631  30.331  1.00  0.00    -0.354 N 
ATOM     43  C   UNL A   1      42.119  24.520  28.129  1.00  0.00     0.074 A 
ATOM     44  C   UNL A   1      40.890  24.621  27.390  1.00  0.00     0.031 C 
ATOM     45  C   UNL A   1      44.153  28.945  30.193  1.00  0.00     0.029 A 
ATOM     46  C   UNL A   1      43.228  29.667  31.056  1.00  0.00     0.049 A 
ATOM     47  H   UNL A   1      41.336  30.326  30.334  1.00  0.00     0.167 HD
ATOM     48  C   UNL A   1      43.270  23.802  28.002  1.00  0.00     0.034 A 
ATOM     49  C   UNL A   1      43.214  29.757  32.413  1.00  0.00     0.034 A 
ATOM     50  C   UNL A   1      44.292  24.311  28.926  1.00  0.00     0.049 A 
ATOM     51  C   UNL A   1      43.842  28.509  32.960  1.00  0.00     0.074 A 
ATOM     52  C   UNL A   1      45.385  25.143  28.735  1.00  0.00     0.029 A 
ATOM     53  N   UNL A   1      44.072  24.266  30.302  1.00  0.00    -0.354 N 
ATOM     54  N   UNL A   1      43.957  27.421  32.246  1.00  0.00    -0.248 NA
ATOM     55  C   UNL A   1      44.440  28.380  34.282  1.00  0.00     0.031 C 
ATOM     56  C   UNL A   1      45.758  25.668  30.004  1.00  0.00     0.029 A 
ATOM     57  C   UNL A   1      44.924  25.127  30.969  1.00  0.00     0.049 A 
ATOM     58  H   UNL A   1      43.399  23.696  30.739  1.00  0.00     0.167 HD
ATOM     59  C   UNL A   1      44.637  26.481  32.945  1.00  0.00     0.074 A 
ATOM     60  C   UNL A   1      44.915  27.123  34.223  1.00  0.00     0.031 C 
ATOM     61  C   UNL A   1      44.882  25.246  32.422  1.00  0.00     0.034 A 
BRANCH  48  62
ATOM     62  C   UNL A   1      43.586  22.863  26.853  1.00  0.00     0.023 A 
ATOM     63  C   UNL A   1      43.054  21.557  26.885  1.00  0.00     0.031 A 
ATOM     64  C   UNL A   1      44.391  23.144  25.728  1.00  0.00     0.131 A 
ATOM     65  C   UNL A   1      43.386  20.596  25.911  1.00  0.00     0.055 A 
ATOM     66  C   UNL A   1      44.768  22.174  24.788  1.00  0.00     0.041 A 
ATOM     67  F   UNL A   1      44.798  24.383  25.431  1.00  0.00    -0.206 F 
ATOM     68  C   UNL A   1      44.269  20.888  24.879  1.00  0.00     0.022 A 
BRANCH  65  69
ATOM     69  S   UNL A   1      42.615  18.959  25.998  1.00  0.00     0.124 S 
ATOM     70  O   UNL A   1      41.283  19.217  25.462  1.00  0.00    -0.237 OA
ATOM     71  O   UNL A   1      43.503  18.153  25.166  1.00  0.00    -0.237 OA
ATOM     72  O   UNL A   1      42.657  18.640  27.424  1.00  0.00    -0.744 OA
ENDBRANCH  65  69
ENDBRANCH  48  62
BRANCH  49  73
ATOM     73  C   UNL A   1      42.008  30.490  32.929  1.00  0.00     0.023 A 
ATOM     74  C   UNL A   1      42.019  31.907  32.855  1.00  0.00     0.031 A 
ATOM     75  C   UNL A   1      40.758  29.864  33.042  1.00  0.00     0.131 A 
ATOM     76  C   UNL A   1      40.817  32.629  32.727  1.00  0.00     0.055 A 
ATOM     77  C   UNL A   1      39.562  30.595  32.957  1.00  0.00     0.041 A 
ATOM     78  F   UNL A   1      40.667  28.528  33.095  1.00  0.00    -0.206 F 
ATOM     79  C   UNL A   1      39.587  31.973  32.748  1.00  0.00     0.022 A 
BRANCH  76  80
ATOM     80  S   UNL A   1      40.865  34.374  32.200  1.00  0.00     0.124 S 
ATOM     81  O   UNL A   1      39.455  34.711  32.080  1.00  0.00    -0.237 OA
ATOM     82  O   UNL A   1      41.582  35.020  33.294  1.00  0.00    -0.237 OA
ATOM     83  O   UNL A   1      41.615  34.331  30.945  1.00  0.00    -0.744 OA
ENDBRANCH  76  80
ENDBRANCH  49  73
BRANCH  61  84
ATOM     84  C   UNL A   1      45.181  24.067  33.291  1.00  0.00     0.023 A 
ATOM     85  C   UNL A   1      46.426  23.928  33.913  1.00  0.00     0.031 A 
ATOM     86  C   UNL A   1      44.209  23.098  33.608  1.00  0.00     0.131 A 
ATOM     87  C   UNL A   1      46.734  22.792  34.660  1.00  0.00     0.055 A 
ATOM     88  C   UNL A   1      44.477  22.030  34.466  1.00  0.00     0.041 A 
ATOM     89  F   UNL A   1      42.966  23.154  33.108  1.00  0.00    -0.206 F 
ATOM     90  C   UNL A   1      45.759  21.851  34.971  1.00  0.00     0.022 A 
BRANCH  87  91
ATOM     91  S   UNL A   1      48.474  22.527  35.067  1.00  0.00     0.124 S 
ATOM     92  O   UNL A   1      48.536  23.035  36.436  1.00  0.00    -0.237 OA
ATOM     93  O   UNL A   1      48.616  21.082  34.925  1.00  0.00    -0.237 OA
ATOM     94  O   UNL A   1      49.183  23.327  34.073  1.00  0.00    -0.744 OA
ENDBRANCH  87  91
ENDBRANCH  61  84
ENDBRANCH  35  36
ENDBRANCH  28  30
ENDBRANCH  27  28
ENDBRANCH  26  27
ENDBRANCH  25  26
ENDBRANCH   1  25
TORSDOF 20
ENDMDL
