MODEL 1
REMARK VINA RESULT:     -11.7      0.000      0.000
REMARK SMILES Cc1cc2c(c(C)c1Cl)C=C(C(=O)OCCOCCOC(=O)c1ccc(-c3c4nc(c(-c5cc(S(=O)(=O)[O-])ccc5F)c5ccc([nH]5)c(-c5cc(S(=O)(=O)[O-])ccc5F)c5nc(c(-c6cc(S(=O)(=O)[O-])ccc6F)c6ccc3[nH]6)C=C5)C=C4)cc1)[C@@H](C(F)(F)F)O2
REMARK SMILES IDX 18 1 17 2 16 3 15 4 14 5 12 6 13 7 11 8 1 9 2 10 3 11 8 12
REMARK SMILES IDX 4 13 6 14 9 15 5 16 91 17 7 18 10 19 86 20 87 21 88 22 89 23
REMARK SMILES IDX 90 24 19 25 20 26 21 27 22 28 23 29 24 30 85 31 25 32 84 33
REMARK SMILES IDX 26 34 27 35 28 36 78 37 29 38 83 39 77 40 79 41 30 42 82 43
REMARK SMILES IDX 76 44 75 45 31 47 63 48 43 49 62 50 44 51 47 52 61 53 80 54
REMARK SMILES IDX 45 55 46 56 60 58 81 59 48 60 32 61 33 62 41 63 34 64 40 65
REMARK SMILES IDX 42 66 39 67 35 68 36 69 37 70 38 71 64 72 65 73 73 74 66 75
REMARK SMILES IDX 72 76 74 77 71 78 67 79 68 80 69 81 70 82 49 83 50 84 58 85
REMARK SMILES IDX 51 86 57 87 59 88 56 89 52 90 53 91 54 92 55 93
REMARK H PARENT 79 46 47 57
REMARK Flexibility Score: inf
ROOT
ATOM      1  C   UNL A   1      37.131  20.047  25.019  1.00  0.00     0.202 C 
ENDROOT
BRANCH   1   2
ATOM      2  O   UNL A   1      36.870  21.429  25.274  1.00  0.00    -0.374 OA
BRANCH   2   3
ATOM      3  C   UNL A   1      37.016  22.348  24.194  1.00  0.00     0.202 C 
BRANCH   3   4
ATOM      4  C   UNL A   1      35.850  23.305  23.927  1.00  0.00     0.261 C 
BRANCH   4   5
ATOM      5  O   UNL A   1      34.587  22.743  24.313  1.00  0.00    -0.460 OA
BRANCH   5   6
ATOM      6  C   UNL A   1      33.940  23.433  25.279  1.00  0.00     0.338 C 
ATOM      7  O   UNL A   1      33.996  23.242  26.485  1.00  0.00    -0.246 OA
BRANCH   6   8
ATOM      8  C   UNL A   1      33.232  24.583  24.686  1.00  0.00     0.087 C 
ATOM      9  C   UNL A   1      29.833  30.006  23.775  1.00  0.00     0.046 C 
ATOM     10  C   UNL A   1      30.850  28.966  24.160  1.00  0.00    -0.028 A 
ATOM     11  C   UNL A   1      30.896  27.768  23.435  1.00  0.00     0.052 A 
ATOM     12  C   UNL A   1      31.764  29.161  25.214  1.00  0.00     0.047 A 
ATOM     13  C   UNL A   1      31.767  26.745  23.802  1.00  0.00     0.128 A 
ATOM     14  C   UNL A   1      32.668  28.140  25.591  1.00  0.00    -0.021 A 
ATOM     15  Cl  UNL A   1      31.746  30.682  26.057  1.00  0.00    -0.084 Cl
ATOM     16  C   UNL A   1      32.622  26.904  24.896  1.00  0.00     0.022 A 
ATOM     17  O   UNL A   1      31.711  25.623  23.023  1.00  0.00    -0.475 OA
ATOM     18  C   UNL A   1      33.668  28.329  26.709  1.00  0.00     0.047 C 
ATOM     19  C   UNL A   1      33.396  25.746  25.328  1.00  0.00     0.027 C 
ATOM     20  C   UNL A   1      32.376  24.409  23.468  1.00  0.00     0.316 C 
BRANCH  20  21
ATOM     21  C   UNL A   1      31.314  23.314  23.638  1.00  0.00     0.430 C 
ATOM     22  F   UNL A   1      30.186  23.617  22.950  1.00  0.00    -0.167 F 
ATOM     23  F   UNL A   1      31.745  22.118  23.177  1.00  0.00    -0.167 F 
ATOM     24  F   UNL A   1      30.965  23.150  24.934  1.00  0.00    -0.167 F 
ENDBRANCH  20  21
ENDBRANCH   6   8
ENDBRANCH   5   6
ENDBRANCH   4   5
ENDBRANCH   3   4
ENDBRANCH   2   3
ENDBRANCH   1   2
BRANCH   1  25
ATOM     25  C   UNL A   1      38.591  19.580  25.013  1.00  0.00     0.261 C 
BRANCH  25  26
ATOM     26  O   UNL A   1      39.193  19.665  26.318  1.00  0.00    -0.460 OA
BRANCH  26  27
ATOM     27  C   UNL A   1      40.514  19.975  26.314  1.00  0.00     0.338 C 
ATOM     28  O   UNL A   1      41.417  19.338  25.793  1.00  0.00    -0.246 OA
BRANCH  27  29
ATOM     29  C   UNL A   1      40.708  21.325  26.867  1.00  0.00     0.060 A 
ATOM     30  C   UNL A   1      40.163  22.405  26.161  1.00  0.00     0.016 A 
ATOM     31  C   UNL A   1      41.486  21.536  28.007  1.00  0.00     0.016 A 
ATOM     32  C   UNL A   1      40.424  23.709  26.576  1.00  0.00     0.010 A 
ATOM     33  C   UNL A   1      41.760  22.847  28.412  1.00  0.00     0.010 A 
ATOM     34  C   UNL A   1      41.256  23.937  27.679  1.00  0.00    -0.014 A 
BRANCH  34  35
ATOM     35  C   UNL A   1      41.733  25.317  27.941  1.00  0.00     0.031 A 
ATOM     36  C   UNL A   1      43.110  25.704  27.476  1.00  0.00     0.074 A 
ATOM     37  C   UNL A   1      40.925  26.229  28.510  1.00  0.00     0.049 A 
ATOM     38  N   UNL A   1      43.724  26.854  27.573  1.00  0.00    -0.248 NA
ATOM     39  C   UNL A   1      43.896  24.656  26.804  1.00  0.00     0.031 C 
ATOM     40  C   UNL A   1      39.549  25.983  28.943  1.00  0.00     0.029 A 
ATOM     41  N   UNL A   1      41.138  27.551  28.806  1.00  0.00    -0.354 N 
ATOM     42  C   UNL A   1      44.960  26.674  26.966  1.00  0.00     0.074 A 
ATOM     43  C   UNL A   1      45.029  25.292  26.543  1.00  0.00     0.031 C 
ATOM     44  C   UNL A   1      39.038  27.124  29.437  1.00  0.00     0.029 A 
ATOM     45  C   UNL A   1      40.057  28.171  29.387  1.00  0.00     0.049 A 
ATOM     46  H   UNL A   1      41.987  28.014  28.620  1.00  0.00     0.167 HD
ATOM     47  C   UNL A   1      45.943  27.583  26.762  1.00  0.00     0.034 A 
ATOM     48  C   UNL A   1      39.913  29.434  29.839  1.00  0.00     0.034 A 
ATOM     49  C   UNL A   1      45.867  28.957  27.186  1.00  0.00     0.049 A 
ATOM     50  C   UNL A   1      41.070  30.394  29.715  1.00  0.00     0.074 A 
ATOM     51  C   UNL A   1      46.802  29.962  27.017  1.00  0.00     0.029 A 
ATOM     52  N   UNL A   1      44.798  29.514  27.872  1.00  0.00    -0.354 N 
ATOM     53  N   UNL A   1      42.239  30.206  29.148  1.00  0.00    -0.248 NA
ATOM     54  C   UNL A   1      40.894  31.731  30.301  1.00  0.00     0.031 C 
ATOM     55  C   UNL A   1      46.328  31.110  27.657  1.00  0.00     0.029 A 
ATOM     56  C   UNL A   1      45.070  30.838  28.173  1.00  0.00     0.049 A 
ATOM     57  H   UNL A   1      43.970  29.040  28.110  1.00  0.00     0.167 HD
ATOM     58  C   UNL A   1      42.933  31.403  29.301  1.00  0.00     0.074 A 
ATOM     59  C   UNL A   1      42.050  32.311  30.003  1.00  0.00     0.031 C 
ATOM     60  C   UNL A   1      44.187  31.721  28.895  1.00  0.00     0.034 A 
BRANCH  47  61
ATOM     61  C   UNL A   1      47.195  27.113  26.072  1.00  0.00     0.023 A 
ATOM     62  C   UNL A   1      48.209  26.440  26.774  1.00  0.00     0.031 A 
ATOM     63  C   UNL A   1      47.369  27.329  24.694  1.00  0.00     0.131 A 
ATOM     64  C   UNL A   1      49.374  26.043  26.103  1.00  0.00     0.055 A 
ATOM     65  C   UNL A   1      48.504  26.877  24.020  1.00  0.00     0.041 A 
ATOM     66  F   UNL A   1      46.439  27.984  23.983  1.00  0.00    -0.206 F 
ATOM     67  C   UNL A   1      49.519  26.236  24.727  1.00  0.00     0.022 A 
BRANCH  64  68
ATOM     68  S   UNL A   1      50.737  25.340  27.070  1.00  0.00     0.124 S 
ATOM     69  O   UNL A   1      50.052  24.292  27.823  1.00  0.00    -0.237 OA
ATOM     70  O   UNL A   1      51.658  24.884  26.035  1.00  0.00    -0.237 OA
ATOM     71  O   UNL A   1      51.207  26.469  27.870  1.00  0.00    -0.744 OA
ENDBRANCH  64  68
ENDBRANCH  47  61
BRANCH  48  72
ATOM     72  C   UNL A   1      38.641  29.857  30.486  1.00  0.00     0.023 A 
ATOM     73  C   UNL A   1      37.684  30.607  29.784  1.00  0.00     0.031 A 
ATOM     74  C   UNL A   1      38.372  29.530  31.828  1.00  0.00     0.131 A 
ATOM     75  C   UNL A   1      36.512  31.024  30.433  1.00  0.00     0.055 A 
ATOM     76  C   UNL A   1      37.188  29.915  32.457  1.00  0.00     0.041 A 
ATOM     77  F   UNL A   1      39.257  28.816  32.542  1.00  0.00    -0.206 F 
ATOM     78  C   UNL A   1      36.251  30.671  31.761  1.00  0.00     0.022 A 
BRANCH  75  79
ATOM     79  S   UNL A   1      35.336  32.065  29.526  1.00  0.00     0.124 S 
ATOM     80  O   UNL A   1      34.454  32.516  30.596  1.00  0.00    -0.237 OA
ATOM     81  O   UNL A   1      36.211  33.078  28.946  1.00  0.00    -0.237 OA
ATOM     82  O   UNL A   1      34.734  31.143  28.566  1.00  0.00    -0.744 OA
ENDBRANCH  75  79
ENDBRANCH  48  72
BRANCH  60  83
ATOM     83  C   UNL A   1      44.693  33.104  29.203  1.00  0.00     0.023 A 
ATOM     84  C   UNL A   1      44.434  34.179  28.336  1.00  0.00     0.031 A 
ATOM     85  C   UNL A   1      45.365  33.365  30.409  1.00  0.00     0.131 A 
ATOM     86  C   UNL A   1      44.856  35.470  28.685  1.00  0.00     0.055 A 
ATOM     87  C   UNL A   1      45.746  34.658  30.770  1.00  0.00     0.041 A 
ATOM     88  F   UNL A   1      45.628  32.371  31.273  1.00  0.00    -0.206 F 
ATOM     89  C   UNL A   1      45.493  35.719  29.904  1.00  0.00     0.022 A 
BRANCH  86  90
ATOM     90  S   UNL A   1      44.564  36.827  27.519  1.00  0.00     0.124 S 
ATOM     91  O   UNL A   1      43.401  36.347  26.781  1.00  0.00    -0.237 OA
ATOM     92  O   UNL A   1      44.332  37.964  28.405  1.00  0.00    -0.237 OA
ATOM     93  O   UNL A   1      45.805  36.890  26.748  1.00  0.00    -0.744 OA
ENDBRANCH  86  90
ENDBRANCH  60  83
ENDBRANCH  34  35
ENDBRANCH  27  29
ENDBRANCH  26  27
ENDBRANCH  25  26
ENDBRANCH   1  25
TORSDOF 18
ENDMDL
MODEL 2
REMARK VINA RESULT:     -11.5      1.677      2.104
REMARK SMILES Cc1cc2c(c(C)c1Cl)C=C(C(=O)OCCOCCOC(=O)c1ccc(-c3c4nc(c(-c5cc(S(=O)(=O)[O-])ccc5F)c5ccc([nH]5)c(-c5cc(S(=O)(=O)[O-])ccc5F)c5nc(c(-c6cc(S(=O)(=O)[O-])ccc6F)c6ccc3[nH]6)C=C5)C=C4)cc1)[C@@H](C(F)(F)F)O2
REMARK SMILES IDX 18 1 17 2 16 3 15 4 14 5 12 6 13 7 11 8 1 9 2 10 3 11 8 12
REMARK SMILES IDX 4 13 6 14 9 15 5 16 91 17 7 18 10 19 86 20 87 21 88 22 89 23
REMARK SMILES IDX 90 24 19 25 20 26 21 27 22 28 23 29 24 30 85 31 25 32 84 33
REMARK SMILES IDX 26 34 27 35 28 36 78 37 29 38 83 39 77 40 79 41 30 42 82 43
REMARK SMILES IDX 76 44 75 45 31 47 63 48 43 49 62 50 44 51 47 52 61 53 80 54
REMARK SMILES IDX 45 55 46 56 60 58 81 59 48 60 32 61 33 62 41 63 34 64 40 65
REMARK SMILES IDX 42 66 39 67 35 68 36 69 37 70 38 71 64 72 65 73 73 74 66 75
REMARK SMILES IDX 72 76 74 77 71 78 67 79 68 80 69 81 70 82 49 83 50 84 58 85
REMARK SMILES IDX 51 86 57 87 59 88 56 89 52 90 53 91 54 92 55 93
REMARK H PARENT 79 46 47 57
REMARK Flexibility Score: inf
ROOT
ATOM      1  C   UNL A   1      36.224  20.661  25.122  1.00  0.00     0.202 C 
ENDROOT
BRANCH   1   2
ATOM      2  O   UNL A   1      35.784  21.427  26.246  1.00  0.00    -0.374 OA
BRANCH   2   3
ATOM      3  C   UNL A   1      34.383  21.500  26.499  1.00  0.00     0.202 C 
BRANCH   3   4
ATOM      4  C   UNL A   1      33.589  22.568  25.739  1.00  0.00     0.261 C 
BRANCH   4   5
ATOM      5  O   UNL A   1      34.171  23.873  25.872  1.00  0.00    -0.460 OA
BRANCH   5   6
ATOM      6  C   UNL A   1      34.672  24.380  24.723  1.00  0.00     0.338 C 
ATOM      7  O   UNL A   1      35.540  23.889  24.016  1.00  0.00    -0.246 OA
BRANCH   6   8
ATOM      8  C   UNL A   1      33.916  25.585  24.335  1.00  0.00     0.087 C 
ATOM      9  C   UNL A   1      30.104  30.807  24.317  1.00  0.00     0.046 C 
ATOM     10  C   UNL A   1      31.176  29.781  24.567  1.00  0.00    -0.028 A 
ATOM     11  C   UNL A   1      31.412  28.802  23.592  1.00  0.00     0.052 A 
ATOM     12  C   UNL A   1      31.958  29.779  25.739  1.00  0.00     0.047 A 
ATOM     13  C   UNL A   1      32.339  27.786  23.812  1.00  0.00     0.128 A 
ATOM     14  C   UNL A   1      32.916  28.765  25.972  1.00  0.00    -0.021 A 
ATOM     15  Cl  UNL A   1      31.707  31.043  26.906  1.00  0.00    -0.084 Cl
ATOM     16  C   UNL A   1      33.061  27.736  25.007  1.00  0.00     0.022 A 
ATOM     17  O   UNL A   1      32.472  26.886  22.791  1.00  0.00    -0.475 OA
ATOM     18  C   UNL A   1      33.777  28.749  27.214  1.00  0.00     0.047 C 
ATOM     19  C   UNL A   1      33.900  26.566  25.246  1.00  0.00     0.027 C 
ATOM     20  C   UNL A   1      33.206  25.652  23.016  1.00  0.00     0.316 C 
BRANCH  20  21
ATOM     21  C   UNL A   1      32.246  24.474  22.797  1.00  0.00     0.430 C 
ATOM     22  F   UNL A   1      32.910  23.380  22.352  1.00  0.00    -0.167 F 
ATOM     23  F   UNL A   1      31.620  24.115  23.940  1.00  0.00    -0.167 F 
ATOM     24  F   UNL A   1      31.292  24.768  21.884  1.00  0.00    -0.167 F 
ENDBRANCH  20  21
ENDBRANCH   6   8
ENDBRANCH   5   6
ENDBRANCH   4   5
ENDBRANCH   3   4
ENDBRANCH   2   3
ENDBRANCH   1   2
BRANCH   1  25
ATOM     25  C   UNL A   1      37.727  20.394  24.977  1.00  0.00     0.261 C 
BRANCH  25  26
ATOM     26  O   UNL A   1      38.516  21.558  25.286  1.00  0.00    -0.460 OA
BRANCH  26  27
ATOM     27  C   UNL A   1      39.540  21.336  26.148  1.00  0.00     0.338 C 
ATOM     28  O   UNL A   1      40.213  20.321  26.244  1.00  0.00    -0.246 OA
BRANCH  27  29
ATOM     29  C   UNL A   1      39.880  22.586  26.846  1.00  0.00     0.060 A 
ATOM     30  C   UNL A   1      39.209  23.754  26.459  1.00  0.00     0.016 A 
ATOM     31  C   UNL A   1      40.901  22.631  27.797  1.00  0.00     0.016 A 
ATOM     32  C   UNL A   1      39.582  24.981  27.001  1.00  0.00     0.010 A 
ATOM     33  C   UNL A   1      41.285  23.868  28.327  1.00  0.00     0.010 A 
ATOM     34  C   UNL A   1      40.648  25.050  27.906  1.00  0.00    -0.014 A 
BRANCH  34  35
ATOM     35  C   UNL A   1      41.198  26.380  28.264  1.00  0.00     0.031 A 
ATOM     36  C   UNL A   1      42.618  26.698  27.884  1.00  0.00     0.074 A 
ATOM     37  C   UNL A   1      40.422  27.314  28.845  1.00  0.00     0.049 A 
ATOM     38  N   UNL A   1      43.298  27.799  28.071  1.00  0.00    -0.248 NA
ATOM     39  C   UNL A   1      43.368  25.637  27.194  1.00  0.00     0.031 C 
ATOM     40  C   UNL A   1      39.014  27.137  29.200  1.00  0.00     0.029 A 
ATOM     41  N   UNL A   1      40.704  28.601  29.221  1.00  0.00    -0.354 N 
ATOM     42  C   UNL A   1      44.549  27.569  27.513  1.00  0.00     0.074 A 
ATOM     43  C   UNL A   1      44.551  26.209  27.019  1.00  0.00     0.031 C 
ATOM     44  C   UNL A   1      38.552  28.282  29.731  1.00  0.00     0.029 A 
ATOM     45  C   UNL A   1      39.638  29.261  29.784  1.00  0.00     0.049 A 
ATOM     46  H   UNL A   1      41.589  29.017  29.099  1.00  0.00     0.167 HD
ATOM     47  C   UNL A   1      45.597  28.421  27.403  1.00  0.00     0.034 A 
ATOM     48  C   UNL A   1      39.552  30.506  30.296  1.00  0.00     0.034 A 
ATOM     49  C   UNL A   1      45.587  29.773  27.897  1.00  0.00     0.049 A 
ATOM     50  C   UNL A   1      40.772  31.393  30.277  1.00  0.00     0.074 A 
ATOM     51  C   UNL A   1      46.591  30.721  27.826  1.00  0.00     0.029 A 
ATOM     52  N   UNL A   1      44.523  30.364  28.562  1.00  0.00    -0.354 N 
ATOM     53  N   UNL A   1      41.953  31.157  29.755  1.00  0.00    -0.248 NA
ATOM     54  C   UNL A   1      40.653  32.707  30.925  1.00  0.00     0.031 C 
ATOM     55  C   UNL A   1      46.159  31.864  28.504  1.00  0.00     0.029 A 
ATOM     56  C   UNL A   1      44.864  31.650  28.947  1.00  0.00     0.049 A 
ATOM     57  H   UNL A   1      43.656  29.934  28.736  1.00  0.00     0.167 HD
ATOM     58  C   UNL A   1      42.714  32.297  30.004  1.00  0.00     0.074 A 
ATOM     59  C   UNL A   1      41.857  33.224  30.713  1.00  0.00     0.031 C 
ATOM     60  C   UNL A   1      44.004  32.551  29.674  1.00  0.00     0.034 A 
BRANCH  47  61
ATOM     61  C   UNL A   1      46.848  27.904  26.747  1.00  0.00     0.023 A 
ATOM     62  C   UNL A   1      47.043  28.005  25.360  1.00  0.00     0.031 A 
ATOM     63  C   UNL A   1      47.863  27.317  27.522  1.00  0.00     0.131 A 
ATOM     64  C   UNL A   1      48.211  27.486  24.781  1.00  0.00     0.055 A 
ATOM     65  C   UNL A   1      49.050  26.857  26.948  1.00  0.00     0.041 A 
ATOM     66  F   UNL A   1      47.717  27.179  28.849  1.00  0.00    -0.206 F 
ATOM     67  C   UNL A   1      49.225  26.934  25.568  1.00  0.00     0.022 A 
BRANCH  64  68
ATOM     68  S   UNL A   1      48.351  27.471  22.974  1.00  0.00     0.124 S 
ATOM     69  O   UNL A   1      49.640  28.128  22.775  1.00  0.00    -0.237 OA
ATOM     70  O   UNL A   1      48.306  26.046  22.665  1.00  0.00    -0.237 OA
ATOM     71  O   UNL A   1      47.190  28.241  22.534  1.00  0.00    -0.744 OA
ENDBRANCH  64  68
ENDBRANCH  47  61
BRANCH  48  72
ATOM     72  C   UNL A   1      38.279  30.979  30.906  1.00  0.00     0.023 A 
ATOM     73  C   UNL A   1      37.309  31.641  30.138  1.00  0.00     0.031 A 
ATOM     74  C   UNL A   1      38.023  30.789  32.277  1.00  0.00     0.131 A 
ATOM     75  C   UNL A   1      36.135  32.109  30.750  1.00  0.00     0.055 A 
ATOM     76  C   UNL A   1      36.838  31.223  32.872  1.00  0.00     0.041 A 
ATOM     77  F   UNL A   1      38.922  30.163  33.054  1.00  0.00    -0.206 F 
ATOM     78  C   UNL A   1      35.888  31.892  32.109  1.00  0.00     0.022 A 
BRANCH  75  79
ATOM     79  S   UNL A   1      34.940  33.037  29.750  1.00  0.00     0.124 S 
ATOM     80  O   UNL A   1      34.377  31.986  28.911  1.00  0.00    -0.237 OA
ATOM     81  O   UNL A   1      34.054  33.589  30.770  1.00  0.00    -0.237 OA
ATOM     82  O   UNL A   1      35.769  34.018  29.054  1.00  0.00    -0.744 OA
ENDBRANCH  75  79
ENDBRANCH  48  72
BRANCH  60  83
ATOM     83  C   UNL A   1      44.581  33.880  30.078  1.00  0.00     0.023 A 
ATOM     84  C   UNL A   1      44.382  35.026  29.290  1.00  0.00     0.031 A 
ATOM     85  C   UNL A   1      45.260  34.020  31.301  1.00  0.00     0.131 A 
ATOM     86  C   UNL A   1      44.870  36.265  29.729  1.00  0.00     0.055 A 
ATOM     87  C   UNL A   1      45.707  35.262  31.752  1.00  0.00     0.041 A 
ATOM     88  F   UNL A   1      45.467  32.955  32.093  1.00  0.00    -0.206 F 
ATOM     89  C   UNL A   1      45.515  36.394  30.963  1.00  0.00     0.022 A 
BRANCH  86  90
ATOM     90  S   UNL A   1      44.656  37.714  28.662  1.00  0.00     0.124 S 
ATOM     91  O   UNL A   1      45.670  37.488  27.637  1.00  0.00    -0.237 OA
ATOM     92  O   UNL A   1      43.269  37.585  28.225  1.00  0.00    -0.237 OA
ATOM     93  O   UNL A   1      44.918  38.841  29.556  1.00  0.00    -0.744 OA
ENDBRANCH  86  90
ENDBRANCH  60  83
ENDBRANCH  34  35
ENDBRANCH  27  29
ENDBRANCH  26  27
ENDBRANCH  25  26
ENDBRANCH   1  25
TORSDOF 18
ENDMDL
MODEL 3
REMARK VINA RESULT:     -11.4      5.045      8.049
REMARK SMILES Cc1cc2c(c(C)c1Cl)C=C(C(=O)OCCOCCOC(=O)c1ccc(-c3c4nc(c(-c5cc(S(=O)(=O)[O-])ccc5F)c5ccc([nH]5)c(-c5cc(S(=O)(=O)[O-])ccc5F)c5nc(c(-c6cc(S(=O)(=O)[O-])ccc6F)c6ccc3[nH]6)C=C5)C=C4)cc1)[C@@H](C(F)(F)F)O2
REMARK SMILES IDX 18 1 17 2 16 3 15 4 14 5 12 6 13 7 11 8 1 9 2 10 3 11 8 12
REMARK SMILES IDX 4 13 6 14 9 15 5 16 91 17 7 18 10 19 86 20 87 21 88 22 89 23
REMARK SMILES IDX 90 24 19 25 20 26 21 27 22 28 23 29 24 30 85 31 25 32 84 33
REMARK SMILES IDX 26 34 27 35 28 36 78 37 29 38 83 39 77 40 79 41 30 42 82 43
REMARK SMILES IDX 76 44 75 45 31 47 63 48 43 49 62 50 44 51 47 52 61 53 80 54
REMARK SMILES IDX 45 55 46 56 60 58 81 59 48 60 32 61 33 62 41 63 34 64 40 65
REMARK SMILES IDX 42 66 39 67 35 68 36 69 37 70 38 71 64 72 65 73 73 74 66 75
REMARK SMILES IDX 72 76 74 77 71 78 67 79 68 80 69 81 70 82 49 83 50 84 58 85
REMARK SMILES IDX 51 86 57 87 59 88 56 89 52 90 53 91 54 92 55 93
REMARK H PARENT 79 46 47 57
REMARK Flexibility Score: inf
ROOT
ATOM      1  C   UNL A   1      31.196  30.201  25.345  1.00  0.00     0.202 C 
ENDROOT
BRANCH   1   2
ATOM      2  O   UNL A   1      30.998  28.985  24.621  1.00  0.00    -0.374 OA
BRANCH   2   3
ATOM      3  C   UNL A   1      31.253  28.992  23.218  1.00  0.00     0.202 C 
BRANCH   3   4
ATOM      4  C   UNL A   1      32.681  28.672  22.765  1.00  0.00     0.261 C 
BRANCH   4   5
ATOM      5  O   UNL A   1      33.246  27.570  23.489  1.00  0.00    -0.460 OA
BRANCH   5   6
ATOM      6  C   UNL A   1      33.493  26.474  22.736  1.00  0.00     0.338 C 
ATOM      7  O   UNL A   1      33.965  26.446  21.608  1.00  0.00    -0.246 OA
BRANCH   6   8
ATOM      8  C   UNL A   1      33.239  25.255  23.524  1.00  0.00     0.087 C 
ATOM      9  C   UNL A   1      33.052  19.165  25.687  1.00  0.00     0.046 C 
ATOM     10  C   UNL A   1      33.452  20.540  25.224  1.00  0.00    -0.028 A 
ATOM     11  C   UNL A   1      32.501  21.568  25.265  1.00  0.00     0.052 A 
ATOM     12  C   UNL A   1      34.751  20.831  24.763  1.00  0.00     0.047 A 
ATOM     13  C   UNL A   1      32.800  22.836  24.775  1.00  0.00     0.128 A 
ATOM     14  C   UNL A   1      35.079  22.118  24.277  1.00  0.00    -0.021 A 
ATOM     15  Cl  UNL A   1      35.943  19.565  24.788  1.00  0.00    -0.084 Cl
ATOM     16  C   UNL A   1      34.065  23.108  24.244  1.00  0.00     0.022 A 
ATOM     17  O   UNL A   1      31.787  23.750  24.861  1.00  0.00    -0.475 OA
ATOM     18  C   UNL A   1      36.469  22.459  23.791  1.00  0.00     0.047 C 
ATOM     19  C   UNL A   1      34.269  24.403  23.605  1.00  0.00     0.027 C 
ATOM     20  C   UNL A   1      31.898  25.012  24.148  1.00  0.00     0.316 C 
BRANCH  20  21
ATOM     21  C   UNL A   1      30.747  25.096  23.136  1.00  0.00     0.430 C 
ATOM     22  F   UNL A   1      30.113  23.904  23.018  1.00  0.00    -0.167 F 
ATOM     23  F   UNL A   1      29.814  26.001  23.507  1.00  0.00    -0.167 F 
ATOM     24  F   UNL A   1      31.185  25.444  21.905  1.00  0.00    -0.167 F 
ENDBRANCH  20  21
ENDBRANCH   6   8
ENDBRANCH   5   6
ENDBRANCH   4   5
ENDBRANCH   3   4
ENDBRANCH   2   3
ENDBRANCH   1   2
BRANCH   1  25
ATOM     25  C   UNL A   1      31.986  30.137  26.657  1.00  0.00     0.261 C 
BRANCH  25  26
ATOM     26  O   UNL A   1      33.377  30.461  26.469  1.00  0.00    -0.460 OA
BRANCH  26  27
ATOM     27  C   UNL A   1      33.839  31.460  27.262  1.00  0.00     0.338 C 
ATOM     28  O   UNL A   1      33.240  32.471  27.596  1.00  0.00    -0.246 OA
BRANCH  27  29
ATOM     29  C   UNL A   1      35.128  31.067  27.853  1.00  0.00     0.060 A 
ATOM     30  C   UNL A   1      35.271  29.743  28.289  1.00  0.00     0.016 A 
ATOM     31  C   UNL A   1      36.146  32.001  28.058  1.00  0.00     0.016 A 
ATOM     32  C   UNL A   1      36.425  29.356  28.964  1.00  0.00     0.010 A 
ATOM     33  C   UNL A   1      37.297  31.612  28.752  1.00  0.00     0.010 A 
ATOM     34  C   UNL A   1      37.426  30.297  29.236  1.00  0.00    -0.014 A 
BRANCH  34  35
ATOM     35  C   UNL A   1      38.513  29.934  30.178  1.00  0.00     0.031 A 
ATOM     36  C   UNL A   1      39.608  29.023  29.696  1.00  0.00     0.074 A 
ATOM     37  C   UNL A   1      38.565  30.470  31.411  1.00  0.00     0.049 A 
ATOM     38  N   UNL A   1      40.666  28.592  30.331  1.00  0.00    -0.248 NA
ATOM     39  C   UNL A   1      39.499  28.538  28.310  1.00  0.00     0.031 C 
ATOM     40  C   UNL A   1      37.593  31.414  31.961  1.00  0.00     0.029 A 
ATOM     41  N   UNL A   1      39.484  30.310  32.416  1.00  0.00    -0.354 N 
ATOM     42  C   UNL A   1      41.355  27.799  29.422  1.00  0.00     0.074 A 
ATOM     43  C   UNL A   1      40.573  27.770  28.206  1.00  0.00     0.031 C 
ATOM     44  C   UNL A   1      37.976  31.759  33.202  1.00  0.00     0.029 A 
ATOM     45  C   UNL A   1      39.200  31.037  33.547  1.00  0.00     0.049 A 
ATOM     46  H   UNL A   1      40.274  29.727  32.336  1.00  0.00     0.167 HD
ATOM     47  C   UNL A   1      42.542  27.166  29.581  1.00  0.00     0.034 A 
ATOM     48  C   UNL A   1      39.847  31.102  34.729  1.00  0.00     0.034 A 
ATOM     49  C   UNL A   1      43.314  27.201  30.796  1.00  0.00     0.049 A 
ATOM     50  C   UNL A   1      41.101  30.288  34.925  1.00  0.00     0.074 A 
ATOM     51  C   UNL A   1      44.534  26.604  31.056  1.00  0.00     0.029 A 
ATOM     52  N   UNL A   1      42.934  27.858  31.956  1.00  0.00    -0.354 N 
ATOM     53  N   UNL A   1      41.736  29.532  34.059  1.00  0.00    -0.248 NA
ATOM     54  C   UNL A   1      41.720  30.324  36.258  1.00  0.00     0.031 C 
ATOM     55  C   UNL A   1      44.862  26.847  32.393  1.00  0.00     0.029 A 
ATOM     56  C   UNL A   1      43.875  27.645  32.949  1.00  0.00     0.049 A 
ATOM     57  H   UNL A   1      42.116  28.397  32.059  1.00  0.00     0.167 HD
ATOM     58  C   UNL A   1      42.832  29.011  34.740  1.00  0.00     0.074 A 
ATOM     59  C   UNL A   1      42.782  29.546  36.084  1.00  0.00     0.031 C 
ATOM     60  C   UNL A   1      43.795  28.168  34.291  1.00  0.00     0.034 A 
BRANCH  47  61
ATOM     61  C   UNL A   1      43.064  26.363  28.421  1.00  0.00     0.023 A 
ATOM     62  C   UNL A   1      44.106  26.841  27.609  1.00  0.00     0.031 A 
ATOM     63  C   UNL A   1      42.521  25.099  28.133  1.00  0.00     0.131 A 
ATOM     64  C   UNL A   1      44.546  26.076  26.519  1.00  0.00     0.055 A 
ATOM     65  C   UNL A   1      43.004  24.316  27.084  1.00  0.00     0.041 A 
ATOM     66  F   UNL A   1      41.511  24.606  28.867  1.00  0.00    -0.206 F 
ATOM     67  C   UNL A   1      44.018  24.807  26.265  1.00  0.00     0.022 A 
BRANCH  64  68
ATOM     68  S   UNL A   1      45.764  26.797  25.387  1.00  0.00     0.124 S 
ATOM     69  O   UNL A   1      46.183  25.626  24.622  1.00  0.00    -0.237 OA
ATOM     70  O   UNL A   1      44.976  27.787  24.661  1.00  0.00    -0.237 OA
ATOM     71  O   UNL A   1      46.780  27.346  26.284  1.00  0.00    -0.744 OA
ENDBRANCH  64  68
ENDBRANCH  47  61
BRANCH  48  72
ATOM     72  C   UNL A   1      39.304  31.938  35.835  1.00  0.00     0.023 A 
ATOM     73  C   UNL A   1      38.485  31.382  36.829  1.00  0.00     0.031 A 
ATOM     74  C   UNL A   1      39.586  33.315  35.902  1.00  0.00     0.131 A 
ATOM     75  C   UNL A   1      37.957  32.204  37.837  1.00  0.00     0.055 A 
ATOM     76  C   UNL A   1      39.089  34.120  36.928  1.00  0.00     0.041 A 
ATOM     77  F   UNL A   1      40.364  33.894  34.973  1.00  0.00    -0.206 F 
ATOM     78  C   UNL A   1      38.265  33.566  37.901  1.00  0.00     0.022 A 
BRANCH  75  79
ATOM     79  S   UNL A   1      36.830  31.473  39.058  1.00  0.00     0.124 S 
ATOM     80  O   UNL A   1      37.664  31.450  40.253  1.00  0.00    -0.237 OA
ATOM     81  O   UNL A   1      35.727  32.428  39.062  1.00  0.00    -0.237 OA
ATOM     82  O   UNL A   1      36.514  30.165  38.489  1.00  0.00    -0.744 OA
ENDBRANCH  75  79
ENDBRANCH  48  72
BRANCH  60  83
ATOM     83  C   UNL A   1      44.872  27.757  35.258  1.00  0.00     0.023 A 
ATOM     84  C   UNL A   1      44.776  26.557  35.981  1.00  0.00     0.031 A 
ATOM     85  C   UNL A   1      46.040  28.527  35.392  1.00  0.00     0.131 A 
ATOM     86  C   UNL A   1      45.830  26.165  36.820  1.00  0.00     0.055 A 
ATOM     87  C   UNL A   1      47.102  28.113  36.196  1.00  0.00     0.041 A 
ATOM     88  F   UNL A   1      46.181  29.679  34.715  1.00  0.00    -0.206 F 
ATOM     89  C   UNL A   1      46.999  26.925  36.918  1.00  0.00     0.022 A 
BRANCH  86  90
ATOM     90  S   UNL A   1      45.652  24.644  37.790  1.00  0.00     0.124 S 
ATOM     91  O   UNL A   1      45.065  23.731  36.816  1.00  0.00    -0.237 OA
ATOM     92  O   UNL A   1      47.028  24.357  38.186  1.00  0.00    -0.237 OA
ATOM     93  O   UNL A   1      44.766  25.037  38.884  1.00  0.00    -0.744 OA
ENDBRANCH  86  90
ENDBRANCH  60  83
ENDBRANCH  34  35
ENDBRANCH  27  29
ENDBRANCH  26  27
ENDBRANCH  25  26
ENDBRANCH   1  25
TORSDOF 18
ENDMDL
