MODEL 1
REMARK VINA RESULT:     -11.2      0.000      0.000
REMARK SMILES CCOc1ccc(-c2cc(Cl)cc3c2O[C@@H](C(F)(F)F)C(C(=O)OCCOCCOC(=O)c2ccc(-c4c5nc(c(-c6cc(S(=O)(=O)[O-])ccc6F)c6ccc([nH]6)c(-c6cc(S(=O)(=O)[O-])ccc6F)c6nc(c(-c7cc(S(=O)(=O)[O-])ccc7F)c7ccc4[nH]7)C=C6)C=C5)cc2)=C3)cc1
REMARK SMILES IDX 27 1 26 2 25 3 24 4 22 5 23 6 21 7 8 8 9 9 14 10 10 11 13 12
REMARK SMILES IDX 15 13 11 14 12 15 96 16 16 17 7 18 4 19 5 20 98 21 6 22
REMARK SMILES IDX 97 23 3 24 2 25 1 26 17 27 18 28 19 29 20 30 28 31 29 32
REMARK SMILES IDX 30 33 31 34 32 35 33 36 34 37 95 38 35 39 94 40 36 41 37 42
REMARK SMILES IDX 38 43 88 44 39 45 93 46 87 47 89 48 40 49 92 50 86 51 85 52
REMARK SMILES IDX 41 54 73 55 53 56 72 57 54 58 57 59 71 60 90 61 55 62 56 63
REMARK SMILES IDX 70 65 91 66 58 67 42 68 43 69 51 70 44 71 50 72 52 73 49 74
REMARK SMILES IDX 45 75 46 76 47 77 48 78 74 79 75 80 83 81 76 82 82 83 84 84
REMARK SMILES IDX 81 85 77 86 78 87 79 88 80 89 59 90 60 91 68 92 61 93 67 94
REMARK SMILES IDX 69 95 66 96 62 97 63 98 64 99 65 100
REMARK H PARENT 89 53 57 64
REMARK Flexibility Score: inf
ROOT
ATOM      1  O   UNL A   1      32.759  27.231  26.205  1.00  0.00    -0.374 OA
ENDROOT
BRANCH   1   2
ATOM      2  C   UNL A   1      32.799  26.274  25.152  1.00  0.00     0.202 C 
BRANCH   2   3
ATOM      3  C   UNL A   1      34.166  25.873  24.578  1.00  0.00     0.261 C 
BRANCH   3   4
ATOM      4  O   UNL A   1      34.228  24.496  24.172  1.00  0.00    -0.460 OA
BRANCH   4   5
ATOM      5  C   UNL A   1      34.826  23.654  25.035  1.00  0.00     0.338 C 
ATOM      6  O   UNL A   1      34.586  23.577  26.233  1.00  0.00    -0.246 OA
BRANCH   5   7
ATOM      7  C   UNL A   1      35.708  22.673  24.356  1.00  0.00     0.087 C 
ATOM      8  C   UNL A   1      39.214  21.665  26.354  1.00  0.00     0.026 A 
ATOM      9  C   UNL A   1      39.423  22.736  27.251  1.00  0.00     0.033 A 
ATOM     10  C   UNL A   1      38.118  21.831  25.478  1.00  0.00     0.135 A 
ATOM     11  C   UNL A   1      38.874  23.993  26.999  1.00  0.00     0.042 A 
ATOM     12  C   UNL A   1      37.779  23.127  25.061  1.00  0.00     0.019 A 
ATOM     13  O   UNL A   1      37.081  20.872  25.468  1.00  0.00    -0.475 OA
ATOM     14  Cl  UNL A   1      39.221  25.299  28.061  1.00  0.00    -0.084 Cl
ATOM     15  C   UNL A   1      38.138  24.216  25.845  1.00  0.00     0.032 A 
ATOM     16  C   UNL A   1      36.830  23.283  23.939  1.00  0.00     0.027 C 
ATOM     17  C   UNL A   1      35.873  21.198  24.657  1.00  0.00     0.316 C 
BRANCH   8  18
ATOM     18  C   UNL A   1      40.505  20.976  25.957  1.00  0.00    -0.014 A 
ATOM     19  C   UNL A   1      43.065  19.674  25.926  1.00  0.00     0.119 A 
ATOM     20  C   UNL A   1      41.888  18.930  25.967  1.00  0.00     0.047 A 
ATOM     21  C   UNL A   1      42.975  21.058  25.840  1.00  0.00     0.047 A 
ATOM     22  C   UNL A   1      40.632  19.570  25.978  1.00  0.00     0.013 A 
ATOM     23  C   UNL A   1      41.716  21.698  25.856  1.00  0.00     0.013 A 
BRANCH  19  24
ATOM     24  O   UNL A   1      44.242  18.988  25.809  1.00  0.00    -0.494 OA
BRANCH  24  25
ATOM     25  C   UNL A   1      44.986  19.188  24.601  1.00  0.00     0.226 C 
ATOM     26  C   UNL A   1      46.306  19.900  24.855  1.00  0.00     0.049 C 
ENDBRANCH  24  25
ENDBRANCH  19  24
ENDBRANCH   8  18
BRANCH  17  27
ATOM     27  C   UNL A   1      34.565  20.451  25.010  1.00  0.00     0.430 C 
ATOM     28  F   UNL A   1      33.569  20.891  24.190  1.00  0.00    -0.167 F 
ATOM     29  F   UNL A   1      34.674  19.119  24.793  1.00  0.00    -0.167 F 
ATOM     30  F   UNL A   1      34.129  20.615  26.271  1.00  0.00    -0.167 F 
ENDBRANCH  17  27
ENDBRANCH   5   7
ENDBRANCH   4   5
ENDBRANCH   3   4
ENDBRANCH   2   3
ENDBRANCH   1   2
BRANCH   1  31
ATOM     31  C   UNL A   1      31.979  28.407  26.016  1.00  0.00     0.202 C 
BRANCH  31  32
ATOM     32  C   UNL A   1      32.327  29.671  26.808  1.00  0.00     0.261 C 
BRANCH  32  33
ATOM     33  O   UNL A   1      33.632  30.193  26.523  1.00  0.00    -0.460 OA
BRANCH  33  34
ATOM     34  C   UNL A   1      34.003  31.231  27.310  1.00  0.00     0.338 C 
ATOM     35  O   UNL A   1      33.327  32.207  27.615  1.00  0.00    -0.246 OA
BRANCH  34  36
ATOM     36  C   UNL A   1      35.315  30.959  27.915  1.00  0.00     0.060 A 
ATOM     37  C   UNL A   1      35.588  29.653  28.338  1.00  0.00     0.016 A 
ATOM     38  C   UNL A   1      36.224  31.992  28.150  1.00  0.00     0.016 A 
ATOM     39  C   UNL A   1      36.761  29.380  29.036  1.00  0.00     0.010 A 
ATOM     40  C   UNL A   1      37.398  31.716  28.857  1.00  0.00     0.010 A 
ATOM     41  C   UNL A   1      37.656  30.416  29.329  1.00  0.00    -0.014 A 
BRANCH  41  42
ATOM     42  C   UNL A   1      38.794  30.167  30.247  1.00  0.00     0.031 A 
ATOM     43  C   UNL A   1      39.921  29.285  29.785  1.00  0.00     0.074 A 
ATOM     44  C   UNL A   1      38.827  30.738  31.463  1.00  0.00     0.049 A 
ATOM     45  N   UNL A   1      40.980  28.880  30.437  1.00  0.00    -0.248 NA
ATOM     46  C   UNL A   1      39.838  28.788  28.403  1.00  0.00     0.031 C 
ATOM     47  C   UNL A   1      37.811  31.649  31.992  1.00  0.00     0.029 A 
ATOM     48  N   UNL A   1      39.746  30.633  32.476  1.00  0.00    -0.354 N 
ATOM     49  C   UNL A   1      41.688  28.075  29.550  1.00  0.00     0.074 A 
ATOM     50  C   UNL A   1      40.912  28.019  28.328  1.00  0.00     0.031 C 
ATOM     51  C   UNL A   1      38.161  32.014  33.237  1.00  0.00     0.029 A 
ATOM     52  C   UNL A   1      39.396  31.328  33.610  1.00  0.00     0.049 A 
ATOM     53  H   UNL A   1      40.576  30.110  32.399  1.00  0.00     0.167 HD
ATOM     54  C   UNL A   1      42.876  27.450  29.738  1.00  0.00     0.034 A 
ATOM     55  C   UNL A   1      39.989  31.377  34.820  1.00  0.00     0.034 A 
ATOM     56  C   UNL A   1      43.623  27.512  30.971  1.00  0.00     0.049 A 
ATOM     57  C   UNL A   1      41.264  30.596  35.036  1.00  0.00     0.074 A 
ATOM     58  C   UNL A   1      44.843  26.930  31.270  1.00  0.00     0.029 A 
ATOM     59  N   UNL A   1      43.216  28.187  32.116  1.00  0.00    -0.354 N 
ATOM     60  N   UNL A   1      41.926  29.842  34.190  1.00  0.00    -0.248 NA
ATOM     61  C   UNL A   1      41.874  30.681  36.370  1.00  0.00     0.031 C 
ATOM     62  C   UNL A   1      45.131  27.181  32.615  1.00  0.00     0.029 A 
ATOM     63  C   UNL A   1      44.141  28.002  33.133  1.00  0.00     0.049 A 
ATOM     64  H   UNL A   1      42.391  28.719  32.194  1.00  0.00     0.167 HD
ATOM     65  C   UNL A   1      43.050  29.392  34.879  1.00  0.00     0.074 A 
ATOM     66  C   UNL A   1      42.981  29.972  36.204  1.00  0.00     0.031 C 
ATOM     67  C   UNL A   1      44.053  28.579  34.455  1.00  0.00     0.034 A 
BRANCH  54  68
ATOM     68  C   UNL A   1      43.405  26.603  28.604  1.00  0.00     0.023 A 
ATOM     69  C   UNL A   1      44.363  27.087  27.697  1.00  0.00     0.031 A 
ATOM     70  C   UNL A   1      42.922  25.295  28.412  1.00  0.00     0.131 A 
ATOM     71  C   UNL A   1      44.754  26.300  26.603  1.00  0.00     0.055 A 
ATOM     72  C   UNL A   1      43.378  24.486  27.370  1.00  0.00     0.041 A 
ATOM     73  F   UNL A   1      41.987  24.785  29.229  1.00  0.00    -0.206 F 
ATOM     74  C   UNL A   1      44.288  24.992  26.449  1.00  0.00     0.022 A 
BRANCH  71  75
ATOM     75  S   UNL A   1      45.763  27.062  25.301  1.00  0.00     0.124 S 
ATOM     76  O   UNL A   1      46.763  27.781  26.087  1.00  0.00    -0.237 OA
ATOM     77  O   UNL A   1      46.246  25.903  24.558  1.00  0.00    -0.237 OA
ATOM     78  O   UNL A   1      44.814  27.912  24.585  1.00  0.00    -0.744 OA
ENDBRANCH  71  75
ENDBRANCH  54  68
BRANCH  55  79
ATOM     79  C   UNL A   1      39.374  32.156  35.934  1.00  0.00     0.023 A 
ATOM     80  C   UNL A   1      38.612  31.524  36.929  1.00  0.00     0.031 A 
ATOM     81  C   UNL A   1      39.495  33.557  35.988  1.00  0.00     0.131 A 
ATOM     82  C   UNL A   1      37.960  32.293  37.905  1.00  0.00     0.055 A 
ATOM     83  C   UNL A   1      38.895  34.312  36.997  1.00  0.00     0.041 A 
ATOM     84  F   UNL A   1      40.208  34.213  35.060  1.00  0.00    -0.206 F 
ATOM     85  C   UNL A   1      38.110  33.681  37.956  1.00  0.00     0.022 A 
BRANCH  82  86
ATOM     86  S   UNL A   1      36.828  31.462  39.053  1.00  0.00     0.124 S 
ATOM     87  O   UNL A   1      36.754  30.123  38.477  1.00  0.00    -0.237 OA
ATOM     88  O   UNL A   1      37.543  31.577  40.320  1.00  0.00    -0.237 OA
ATOM     89  O   UNL A   1      35.603  32.252  38.955  1.00  0.00    -0.744 OA
ENDBRANCH  82  86
ENDBRANCH  55  79
BRANCH  67  90
ATOM     90  C   UNL A   1      45.183  28.314  35.424  1.00  0.00     0.023 A 
ATOM     91  C   UNL A   1      45.152  27.238  36.327  1.00  0.00     0.031 A 
ATOM     92  C   UNL A   1      46.305  29.162  35.446  1.00  0.00     0.131 A 
ATOM     93  C   UNL A   1      46.192  27.074  37.255  1.00  0.00     0.055 A 
ATOM     94  C   UNL A   1      47.369  28.953  36.323  1.00  0.00     0.041 A 
ATOM     95  F   UNL A   1      46.388  30.209  34.609  1.00  0.00    -0.206 F 
ATOM     96  C   UNL A   1      47.310  27.912  37.245  1.00  0.00     0.022 A 
BRANCH  93  97
ATOM     97  S   UNL A   1      46.016  25.815  38.548  1.00  0.00     0.124 S 
ATOM     98  O   UNL A   1      44.764  25.168  38.173  1.00  0.00    -0.237 OA
ATOM     99  O   UNL A   1      47.225  25.017  38.373  1.00  0.00    -0.237 OA
ATOM    100  O   UNL A   1      45.964  26.596  39.783  1.00  0.00    -0.744 OA
ENDBRANCH  93  97
ENDBRANCH  67  90
ENDBRANCH  41  42
ENDBRANCH  34  36
ENDBRANCH  33  34
ENDBRANCH  32  33
ENDBRANCH  31  32
ENDBRANCH   1  31
TORSDOF 21
ENDMDL
MODEL 2
REMARK VINA RESULT:     -10.8      1.803      2.105
REMARK SMILES CCOc1ccc(-c2cc(Cl)cc3c2O[C@@H](C(F)(F)F)C(C(=O)OCCOCCOC(=O)c2ccc(-c4c5nc(c(-c6cc(S(=O)(=O)[O-])ccc6F)c6ccc([nH]6)c(-c6cc(S(=O)(=O)[O-])ccc6F)c6nc(c(-c7cc(S(=O)(=O)[O-])ccc7F)c7ccc4[nH]7)C=C6)C=C5)cc2)=C3)cc1
REMARK SMILES IDX 27 1 26 2 25 3 24 4 22 5 23 6 21 7 8 8 9 9 14 10 10 11 13 12
REMARK SMILES IDX 15 13 11 14 12 15 96 16 16 17 7 18 4 19 5 20 98 21 6 22
REMARK SMILES IDX 97 23 3 24 2 25 1 26 17 27 18 28 19 29 20 30 28 31 29 32
REMARK SMILES IDX 30 33 31 34 32 35 33 36 34 37 95 38 35 39 94 40 36 41 37 42
REMARK SMILES IDX 38 43 88 44 39 45 93 46 87 47 89 48 40 49 92 50 86 51 85 52
REMARK SMILES IDX 41 54 73 55 53 56 72 57 54 58 57 59 71 60 90 61 55 62 56 63
REMARK SMILES IDX 70 65 91 66 58 67 42 68 43 69 51 70 44 71 50 72 52 73 49 74
REMARK SMILES IDX 45 75 46 76 47 77 48 78 74 79 75 80 83 81 76 82 82 83 84 84
REMARK SMILES IDX 81 85 77 86 78 87 79 88 80 89 59 90 60 91 68 92 61 93 67 94
REMARK SMILES IDX 69 95 66 96 62 97 63 98 64 99 65 100
REMARK H PARENT 89 53 57 64
REMARK Flexibility Score: inf
ROOT
ATOM      1  O   UNL A   1      32.750  27.293  26.515  1.00  0.00    -0.374 OA
ENDROOT
BRANCH   1   2
ATOM      2  C   UNL A   1      32.728  26.156  25.661  1.00  0.00     0.202 C 
BRANCH   2   3
ATOM      3  C   UNL A   1      33.967  25.860  24.802  1.00  0.00     0.261 C 
BRANCH   3   4
ATOM      4  O   UNL A   1      34.085  24.476  24.436  1.00  0.00    -0.460 OA
BRANCH   4   5
ATOM      5  C   UNL A   1      34.845  23.715  25.246  1.00  0.00     0.338 C 
ATOM      6  O   UNL A   1      34.741  23.653  26.464  1.00  0.00    -0.246 OA
BRANCH   5   7
ATOM      7  C   UNL A   1      35.736  22.796  24.496  1.00  0.00     0.087 C 
ATOM      8  C   UNL A   1      39.274  21.712  26.394  1.00  0.00     0.026 A 
ATOM      9  C   UNL A   1      39.475  22.724  27.358  1.00  0.00     0.033 A 
ATOM     10  C   UNL A   1      38.168  21.919  25.539  1.00  0.00     0.135 A 
ATOM     11  C   UNL A   1      38.905  23.987  27.196  1.00  0.00     0.042 A 
ATOM     12  C   UNL A   1      37.805  23.235  25.213  1.00  0.00     0.019 A 
ATOM     13  O   UNL A   1      37.146  20.946  25.473  1.00  0.00    -0.475 OA
ATOM     14  Cl  UNL A   1      39.241  25.223  28.340  1.00  0.00    -0.084 Cl
ATOM     15  C   UNL A   1      38.155  24.275  26.065  1.00  0.00     0.032 A 
ATOM     16  C   UNL A   1      36.844  23.451  24.111  1.00  0.00     0.027 C 
ATOM     17  C   UNL A   1      35.925  21.308  24.696  1.00  0.00     0.316 C 
BRANCH   8  18
ATOM     18  C   UNL A   1      40.573  21.072  25.941  1.00  0.00    -0.014 A 
ATOM     19  C   UNL A   1      43.178  19.873  25.797  1.00  0.00     0.119 A 
ATOM     20  C   UNL A   1      42.036  19.084  25.900  1.00  0.00     0.047 A 
ATOM     21  C   UNL A   1      43.029  21.252  25.706  1.00  0.00     0.047 A 
ATOM     22  C   UNL A   1      40.757  19.672  25.966  1.00  0.00     0.013 A 
ATOM     23  C   UNL A   1      41.746  21.841  25.777  1.00  0.00     0.013 A 
BRANCH  19  24
ATOM     24  O   UNL A   1      44.375  19.234  25.630  1.00  0.00    -0.494 OA
BRANCH  24  25
ATOM     25  C   UNL A   1      45.227  19.727  24.588  1.00  0.00     0.226 C 
ATOM     26  C   UNL A   1      46.695  19.686  24.984  1.00  0.00     0.049 C 
ENDBRANCH  24  25
ENDBRANCH  19  24
ENDBRANCH   8  18
BRANCH  17  27
ATOM     27  C   UNL A   1      34.633  20.517  25.008  1.00  0.00     0.430 C 
ATOM     28  F   UNL A   1      34.878  19.186  24.843  1.00  0.00    -0.167 F 
ATOM     29  F   UNL A   1      34.246  20.675  26.296  1.00  0.00    -0.167 F 
ATOM     30  F   UNL A   1      33.574  20.814  24.235  1.00  0.00    -0.167 F 
ENDBRANCH  17  27
ENDBRANCH   5   7
ENDBRANCH   4   5
ENDBRANCH   3   4
ENDBRANCH   2   3
ENDBRANCH   1   2
BRANCH   1  31
ATOM     31  C   UNL A   1      32.157  28.500  26.043  1.00  0.00     0.202 C 
BRANCH  31  32
ATOM     32  C   UNL A   1      32.394  29.802  26.816  1.00  0.00     0.261 C 
BRANCH  32  33
ATOM     33  O   UNL A   1      33.645  30.435  26.515  1.00  0.00    -0.460 OA
BRANCH  33  34
ATOM     34  C   UNL A   1      33.998  31.416  27.380  1.00  0.00     0.338 C 
ATOM     35  O   UNL A   1      33.313  32.366  27.740  1.00  0.00    -0.246 OA
BRANCH  34  36
ATOM     36  C   UNL A   1      35.298  31.103  27.990  1.00  0.00     0.060 A 
ATOM     37  C   UNL A   1      35.471  29.837  28.563  1.00  0.00     0.016 A 
ATOM     38  C   UNL A   1      36.298  32.073  28.083  1.00  0.00     0.016 A 
ATOM     39  C   UNL A   1      36.636  29.547  29.267  1.00  0.00     0.010 A 
ATOM     40  C   UNL A   1      37.463  31.781  28.797  1.00  0.00     0.010 A 
ATOM     41  C   UNL A   1      37.624  30.529  29.417  1.00  0.00    -0.014 A 
BRANCH  41  42
ATOM     42  C   UNL A   1      38.762  30.291  30.339  1.00  0.00     0.031 A 
ATOM     43  C   UNL A   1      39.889  29.403  29.889  1.00  0.00     0.074 A 
ATOM     44  C   UNL A   1      38.794  30.879  31.547  1.00  0.00     0.049 A 
ATOM     45  N   UNL A   1      40.947  29.007  30.545  1.00  0.00    -0.248 NA
ATOM     46  C   UNL A   1      39.805  28.888  28.513  1.00  0.00     0.031 C 
ATOM     47  C   UNL A   1      37.780  31.796  32.064  1.00  0.00     0.029 A 
ATOM     48  N   UNL A   1      39.714  30.786  32.561  1.00  0.00    -0.354 N 
ATOM     49  C   UNL A   1      41.655  28.190  29.669  1.00  0.00     0.074 A 
ATOM     50  C   UNL A   1      40.879  28.117  28.447  1.00  0.00     0.031 C 
ATOM     51  C   UNL A   1      38.129  32.178  33.304  1.00  0.00     0.029 A 
ATOM     52  C   UNL A   1      39.365  31.496  33.686  1.00  0.00     0.049 A 
ATOM     53  H   UNL A   1      40.544  30.262  32.491  1.00  0.00     0.167 HD
ATOM     54  C   UNL A   1      42.843  27.566  29.865  1.00  0.00     0.034 A 
ATOM     55  C   UNL A   1      39.957  31.562  34.895  1.00  0.00     0.034 A 
ATOM     56  C   UNL A   1      43.590  27.645  31.097  1.00  0.00     0.049 A 
ATOM     57  C   UNL A   1      41.233  30.783  35.121  1.00  0.00     0.074 A 
ATOM     58  C   UNL A   1      44.810  27.066  31.403  1.00  0.00     0.029 A 
ATOM     59  N   UNL A   1      43.183  28.335  32.233  1.00  0.00    -0.354 N 
ATOM     60  N   UNL A   1      41.894  30.017  34.285  1.00  0.00    -0.248 NA
ATOM     61  C   UNL A   1      41.843  30.885  36.453  1.00  0.00     0.031 C 
ATOM     62  C   UNL A   1      45.098  27.335  32.745  1.00  0.00     0.029 A 
ATOM     63  C   UNL A   1      44.108  28.163  33.252  1.00  0.00     0.049 A 
ATOM     64  H   UNL A   1      42.359  28.868  32.304  1.00  0.00     0.167 HD
ATOM     65  C   UNL A   1      43.018  29.576  34.980  1.00  0.00     0.074 A 
ATOM     66  C   UNL A   1      42.949  30.174  36.297  1.00  0.00     0.031 C 
ATOM     67  C   UNL A   1      44.021  28.757  34.567  1.00  0.00     0.034 A 
BRANCH  54  68
ATOM     68  C   UNL A   1      43.371  26.705  28.743  1.00  0.00     0.023 A 
ATOM     69  C   UNL A   1      44.278  27.198  27.788  1.00  0.00     0.031 A 
ATOM     70  C   UNL A   1      42.940  25.371  28.610  1.00  0.00     0.131 A 
ATOM     71  C   UNL A   1      44.667  26.391  26.708  1.00  0.00     0.055 A 
ATOM     72  C   UNL A   1      43.397  24.547  27.580  1.00  0.00     0.041 A 
ATOM     73  F   UNL A   1      42.055  24.850  29.474  1.00  0.00    -0.206 F 
ATOM     74  C   UNL A   1      44.254  25.060  26.612  1.00  0.00     0.022 A 
BRANCH  71  75
ATOM     75  S   UNL A   1      45.599  27.150  25.349  1.00  0.00     0.124 S 
ATOM     76  O   UNL A   1      44.549  27.878  24.641  1.00  0.00    -0.237 OA
ATOM     77  O   UNL A   1      46.578  27.967  26.056  1.00  0.00    -0.237 OA
ATOM     78  O   UNL A   1      46.148  26.003  24.627  1.00  0.00    -0.744 OA
ENDBRANCH  71  75
ENDBRANCH  54  68
BRANCH  55  79
ATOM     79  C   UNL A   1      39.342  32.355  35.999  1.00  0.00     0.023 A 
ATOM     80  C   UNL A   1      39.732  33.680  36.247  1.00  0.00     0.031 A 
ATOM     81  C   UNL A   1      38.391  31.776  36.859  1.00  0.00     0.131 A 
ATOM     82  C   UNL A   1      39.211  34.366  37.355  1.00  0.00     0.055 A 
ATOM     83  C   UNL A   1      37.830  32.484  37.923  1.00  0.00     0.041 A 
ATOM     84  F   UNL A   1      37.985  30.511  36.671  1.00  0.00    -0.206 F 
ATOM     85  C   UNL A   1      38.251  33.783  38.185  1.00  0.00     0.022 A 
BRANCH  82  86
ATOM     86  S   UNL A   1      39.884  36.002  37.757  1.00  0.00     0.124 S 
ATOM     87  O   UNL A   1      41.229  35.666  38.210  1.00  0.00    -0.237 OA
ATOM     88  O   UNL A   1      39.792  36.691  36.474  1.00  0.00    -0.237 OA
ATOM     89  O   UNL A   1      38.981  36.496  38.795  1.00  0.00    -0.744 OA
ENDBRANCH  82  86
ENDBRANCH  55  79
BRANCH  67  90
ATOM     90  C   UNL A   1      45.151  28.505  35.538  1.00  0.00     0.023 A 
ATOM     91  C   UNL A   1      46.300  29.314  35.569  1.00  0.00     0.031 A 
ATOM     92  C   UNL A   1      45.076  27.430  36.442  1.00  0.00     0.131 A 
ATOM     93  C   UNL A   1      47.354  28.998  36.440  1.00  0.00     0.055 A 
ATOM     94  C   UNL A   1      46.097  27.164  37.356  1.00  0.00     0.041 A 
ATOM     95  F   UNL A   1      44.005  26.622  36.456  1.00  0.00    -0.206 F 
ATOM     96  C   UNL A   1      47.251  27.941  37.349  1.00  0.00     0.022 A 
BRANCH  93  97
ATOM     97  S   UNL A   1      48.908  29.923  36.300  1.00  0.00     0.124 S 
ATOM     98  O   UNL A   1      49.896  28.908  36.647  1.00  0.00    -0.237 OA
ATOM     99  O   UNL A   1      48.893  30.347  34.904  1.00  0.00    -0.237 OA
ATOM    100  O   UNL A   1      48.756  31.000  37.276  1.00  0.00    -0.744 OA
ENDBRANCH  93  97
ENDBRANCH  67  90
ENDBRANCH  41  42
ENDBRANCH  34  36
ENDBRANCH  33  34
ENDBRANCH  32  33
ENDBRANCH  31  32
ENDBRANCH   1  31
TORSDOF 21
ENDMDL
MODEL 3
REMARK VINA RESULT:     -10.0      2.303      7.632
REMARK SMILES CCOc1ccc(-c2cc(Cl)cc3c2O[C@@H](C(F)(F)F)C(C(=O)OCCOCCOC(=O)c2ccc(-c4c5nc(c(-c6cc(S(=O)(=O)[O-])ccc6F)c6ccc([nH]6)c(-c6cc(S(=O)(=O)[O-])ccc6F)c6nc(c(-c7cc(S(=O)(=O)[O-])ccc7F)c7ccc4[nH]7)C=C6)C=C5)cc2)=C3)cc1
REMARK SMILES IDX 27 1 26 2 25 3 24 4 22 5 23 6 21 7 8 8 9 9 14 10 10 11 13 12
REMARK SMILES IDX 15 13 11 14 12 15 96 16 16 17 7 18 4 19 5 20 98 21 6 22
REMARK SMILES IDX 97 23 3 24 2 25 1 26 17 27 18 28 19 29 20 30 28 31 29 32
REMARK SMILES IDX 30 33 31 34 32 35 33 36 34 37 95 38 35 39 94 40 36 41 37 42
REMARK SMILES IDX 38 43 88 44 39 45 93 46 87 47 89 48 40 49 92 50 86 51 85 52
REMARK SMILES IDX 41 54 73 55 53 56 72 57 54 58 57 59 71 60 90 61 55 62 56 63
REMARK SMILES IDX 70 65 91 66 58 67 42 68 43 69 51 70 44 71 50 72 52 73 49 74
REMARK SMILES IDX 45 75 46 76 47 77 48 78 74 79 75 80 83 81 76 82 82 83 84 84
REMARK SMILES IDX 81 85 77 86 78 87 79 88 80 89 59 90 60 91 68 92 61 93 67 94
REMARK SMILES IDX 69 95 66 96 62 97 63 98 64 99 65 100
REMARK H PARENT 89 53 57 64
REMARK Flexibility Score: inf
ROOT
ATOM      1  O   UNL A   1      32.799  26.785  25.242  1.00  0.00    -0.374 OA
ENDROOT
BRANCH   1   2
ATOM      2  C   UNL A   1      32.829  26.301  23.905  1.00  0.00     0.202 C 
BRANCH   2   3
ATOM      3  C   UNL A   1      34.002  25.406  23.475  1.00  0.00     0.261 C 
BRANCH   3   4
ATOM      4  O   UNL A   1      33.814  24.023  23.816  1.00  0.00    -0.460 OA
BRANCH   4   5
ATOM      5  C   UNL A   1      34.660  23.522  24.734  1.00  0.00     0.338 C 
ATOM      6  O   UNL A   1      34.643  23.780  25.931  1.00  0.00    -0.246 OA
BRANCH   5   7
ATOM      7  C   UNL A   1      35.537  22.460  24.183  1.00  0.00     0.087 C 
ATOM      8  C   UNL A   1      39.040  21.693  26.289  1.00  0.00     0.026 A 
ATOM      9  C   UNL A   1      39.256  22.867  27.044  1.00  0.00     0.033 A 
ATOM     10  C   UNL A   1      37.944  21.753  25.400  1.00  0.00     0.135 A 
ATOM     11  C   UNL A   1      38.712  24.086  26.638  1.00  0.00     0.042 A 
ATOM     12  C   UNL A   1      37.610  22.989  24.824  1.00  0.00     0.019 A 
ATOM     13  O   UNL A   1      36.903  20.805  25.510  1.00  0.00    -0.475 OA
ATOM     14  Cl  UNL A   1      39.066  25.512  27.528  1.00  0.00    -0.084 Cl
ATOM     15  C   UNL A   1      37.976  24.166  25.465  1.00  0.00     0.032 A 
ATOM     16  C   UNL A   1      36.661  23.008  23.692  1.00  0.00     0.027 C 
ATOM     17  C   UNL A   1      35.695  21.034  24.666  1.00  0.00     0.316 C 
BRANCH   8  18
ATOM     18  C   UNL A   1      40.329  20.954  25.981  1.00  0.00    -0.014 A 
ATOM     19  C   UNL A   1      42.801  19.501  26.123  1.00  0.00     0.119 A 
ATOM     20  C   UNL A   1      41.589  18.831  25.984  1.00  0.00     0.047 A 
ATOM     21  C   UNL A   1      42.797  20.890  26.132  1.00  0.00     0.047 A 
ATOM     22  C   UNL A   1      40.375  19.545  25.909  1.00  0.00     0.013 A 
ATOM     23  C   UNL A   1      41.580  21.604  26.063  1.00  0.00     0.013 A 
BRANCH  19  24
ATOM     24  O   UNL A   1      43.945  18.753  26.081  1.00  0.00    -0.494 OA
BRANCH  24  25
ATOM     25  C   UNL A   1      44.704  18.805  24.865  1.00  0.00     0.226 C 
ATOM     26  C   UNL A   1      46.032  19.521  25.053  1.00  0.00     0.049 C 
ENDBRANCH  24  25
ENDBRANCH  19  24
ENDBRANCH   8  18
BRANCH  17  27
ATOM     27  C   UNL A   1      34.385  20.342  25.110  1.00  0.00     0.430 C 
ATOM     28  F   UNL A   1      33.374  20.740  24.287  1.00  0.00    -0.167 F 
ATOM     29  F   UNL A   1      34.463  18.996  24.992  1.00  0.00    -0.167 F 
ATOM     30  F   UNL A   1      33.989  20.610  26.367  1.00  0.00    -0.167 F 
ENDBRANCH  17  27
ENDBRANCH   5   7
ENDBRANCH   4   5
ENDBRANCH   3   4
ENDBRANCH   2   3
ENDBRANCH   1   2
BRANCH   1  31
ATOM     31  C   UNL A   1      32.416  28.140  25.458  1.00  0.00     0.202 C 
BRANCH  31  32
ATOM     32  C   UNL A   1      32.906  28.864  26.716  1.00  0.00     0.261 C 
BRANCH  32  33
ATOM     33  O   UNL A   1      34.057  29.692  26.497  1.00  0.00    -0.460 OA
BRANCH  33  34
ATOM     34  C   UNL A   1      34.080  30.825  27.239  1.00  0.00     0.338 C 
ATOM     35  O   UNL A   1      33.232  31.709  27.265  1.00  0.00    -0.246 OA
BRANCH  34  36
ATOM     36  C   UNL A   1      35.214  30.790  28.173  1.00  0.00     0.060 A 
ATOM     37  C   UNL A   1      36.086  31.886  28.192  1.00  0.00     0.016 A 
ATOM     38  C   UNL A   1      35.472  29.658  28.947  1.00  0.00     0.016 A 
ATOM     39  C   UNL A   1      37.245  31.837  28.962  1.00  0.00     0.010 A 
ATOM     40  C   UNL A   1      36.640  29.609  29.712  1.00  0.00     0.010 A 
ATOM     41  C   UNL A   1      37.546  30.685  29.699  1.00  0.00    -0.014 A 
BRANCH  41  42
ATOM     42  C   UNL A   1      38.874  30.552  30.346  1.00  0.00     0.031 A 
ATOM     43  C   UNL A   1      39.071  31.119  31.725  1.00  0.00     0.074 A 
ATOM     44  C   UNL A   1      39.877  29.915  29.718  1.00  0.00     0.049 A 
ATOM     45  N   UNL A   1      40.155  31.175  32.453  1.00  0.00    -0.248 NA
ATOM     46  C   UNL A   1      37.885  31.709  32.364  1.00  0.00     0.031 C 
ATOM     47  C   UNL A   1      39.780  29.285  28.402  1.00  0.00     0.029 A 
ATOM     48  N   UNL A   1      41.177  29.698  30.102  1.00  0.00    -0.354 N 
ATOM     49  C   UNL A   1      39.787  31.811  33.634  1.00  0.00     0.074 A 
ATOM     50  C   UNL A   1      38.387  32.158  33.503  1.00  0.00     0.031 C 
ATOM     51  C   UNL A   1      40.974  28.757  28.084  1.00  0.00     0.029 A 
ATOM     52  C   UNL A   1      41.930  29.052  29.149  1.00  0.00     0.049 A 
ATOM     53  H   UNL A   1      41.535  29.977  30.975  1.00  0.00     0.167 HD
ATOM     54  C   UNL A   1      40.547  32.073  34.726  1.00  0.00     0.034 A 
ATOM     55  C   UNL A   1      43.247  28.763  29.128  1.00  0.00     0.034 A 
ATOM     56  C   UNL A   1      41.945  31.727  34.827  1.00  0.00     0.049 A 
ATOM     57  C   UNL A   1      44.094  29.148  30.318  1.00  0.00     0.074 A 
ATOM     58  C   UNL A   1      42.809  31.932  35.889  1.00  0.00     0.029 A 
ATOM     59  N   UNL A   1      42.688  31.117  33.824  1.00  0.00    -0.354 N 
ATOM     60  N   UNL A   1      43.735  29.747  31.431  1.00  0.00    -0.248 NA
ATOM     61  C   UNL A   1      45.522  28.812  30.250  1.00  0.00     0.031 C 
ATOM     62  C   UNL A   1      44.088  31.524  35.498  1.00  0.00     0.029 A 
ATOM     63  C   UNL A   1      44.008  30.974  34.228  1.00  0.00     0.049 A 
ATOM     64  H   UNL A   1      42.331  30.827  32.954  1.00  0.00     0.167 HD
ATOM     65  C   UNL A   1      44.888  29.825  32.209  1.00  0.00     0.074 A 
ATOM     66  C   UNL A   1      45.947  29.200  31.443  1.00  0.00     0.031 C 
ATOM     67  C   UNL A   1      45.057  30.358  33.448  1.00  0.00     0.034 A 
BRANCH  54  68
ATOM     68  C   UNL A   1      39.893  32.815  35.868  1.00  0.00     0.023 A 
ATOM     69  C   UNL A   1      39.108  32.158  36.831  1.00  0.00     0.031 A 
ATOM     70  C   UNL A   1      40.038  34.210  35.982  1.00  0.00     0.131 A 
ATOM     71  C   UNL A   1      38.441  32.900  37.818  1.00  0.00     0.055 A 
ATOM     72  C   UNL A   1      39.440  34.932  37.016  1.00  0.00     0.041 A 
ATOM     73  F   UNL A   1      40.754  34.899  35.079  1.00  0.00    -0.206 F 
ATOM     74  C   UNL A   1      38.623  34.280  37.933  1.00  0.00     0.022 A 
BRANCH  71  75
ATOM     75  S   UNL A   1      37.213  32.059  38.856  1.00  0.00     0.124 S 
ATOM     76  O   UNL A   1      37.773  32.252  40.191  1.00  0.00    -0.237 OA
ATOM     77  O   UNL A   1      35.991  32.799  38.562  1.00  0.00    -0.237 OA
ATOM     78  O   UNL A   1      37.239  30.681  38.369  1.00  0.00    -0.744 OA
ENDBRANCH  71  75
ENDBRANCH  54  68
BRANCH  55  79
ATOM     79  C   UNL A   1      43.860  28.112  27.934  1.00  0.00     0.023 A 
ATOM     80  C   UNL A   1      43.897  26.715  27.806  1.00  0.00     0.031 A 
ATOM     81  C   UNL A   1      44.469  28.882  26.926  1.00  0.00     0.131 A 
ATOM     82  C   UNL A   1      44.572  26.129  26.723  1.00  0.00     0.055 A 
ATOM     83  C   UNL A   1      45.085  28.295  25.819  1.00  0.00     0.041 A 
ATOM     84  F   UNL A   1      44.467  30.222  27.000  1.00  0.00    -0.206 F 
ATOM     85  C   UNL A   1      45.151  26.910  25.720  1.00  0.00     0.022 A 
BRANCH  82  86
ATOM     86  S   UNL A   1      44.768  24.327  26.695  1.00  0.00     0.124 S 
ATOM     87  O   UNL A   1      46.203  24.182  26.915  1.00  0.00    -0.237 OA
ATOM     88  O   UNL A   1      43.905  23.911  27.796  1.00  0.00    -0.237 OA
ATOM     89  O   UNL A   1      44.300  23.953  25.362  1.00  0.00    -0.744 OA
ENDBRANCH  82  86
ENDBRANCH  55  79
BRANCH  67  90
ATOM     90  C   UNL A   1      46.429  30.238  34.069  1.00  0.00     0.023 A 
ATOM     91  C   UNL A   1      47.414  31.227  33.895  1.00  0.00     0.031 A 
ATOM     92  C   UNL A   1      46.757  29.109  34.842  1.00  0.00     0.131 A 
ATOM     93  C   UNL A   1      48.696  31.038  34.433  1.00  0.00     0.055 A 
ATOM     94  C   UNL A   1      48.012  28.961  35.434  1.00  0.00     0.041 A 
ATOM     95  F   UNL A   1      45.859  28.131  35.039  1.00  0.00    -0.206 F 
ATOM     96  C   UNL A   1      48.995  29.922  35.219  1.00  0.00     0.022 A 
BRANCH  93  97
ATOM     97  S   UNL A   1      50.003  32.219  34.004  1.00  0.00     0.124 S 
ATOM     98  O   UNL A   1      50.059  32.096  32.552  1.00  0.00    -0.237 OA
ATOM     99  O   UNL A   1      49.469  33.476  34.518  1.00  0.00    -0.237 OA
ATOM    100  O   UNL A   1      51.174  31.709  34.715  1.00  0.00    -0.744 OA
ENDBRANCH  93  97
ENDBRANCH  67  90
ENDBRANCH  41  42
ENDBRANCH  34  36
ENDBRANCH  33  34
ENDBRANCH  32  33
ENDBRANCH  31  32
ENDBRANCH   1  31
TORSDOF 21
ENDMDL
