MODEL 1
REMARK VINA RESULT:     -11.6      0.000      0.000
REMARK SMILES O=C(OCCOCCOC(=O)c1ccc(F)cc1-c1ccc(F)c(Cl)c1)c1ccc(-c2c3nc(c(-c4cc(S(=O)(=O)[O-])ccc4F)c4ccc([nH]4)c(-c4cc(S(=O)(=O)[O-])ccc4F)c4nc(c(-c5cc(S(=O)(=O)[O-])ccc5F)c5ccc2[nH]5)C=C4)C=C3)cc1
REMARK SMILES IDX 5 1 4 2 3 3 2 4 1 5 27 6 28 7 89 8 29 9 88 10 30 11 31 12
REMARK SMILES IDX 32 13 82 14 33 15 87 16 81 17 83 18 34 19 86 20 80 21 79 22
REMARK SMILES IDX 35 24 67 25 47 26 66 27 48 28 51 29 65 30 84 31 49 32 50 33
REMARK SMILES IDX 64 35 85 36 52 37 36 38 37 39 45 40 38 41 44 42 46 43 43 44
REMARK SMILES IDX 39 45 40 46 41 47 42 48 68 49 69 50 77 51 70 52 76 53 78 54
REMARK SMILES IDX 75 55 71 56 72 57 73 58 74 59 53 60 54 61 62 62 55 63 61 64
REMARK SMILES IDX 63 65 60 66 56 67 57 68 58 69 59 70 6 71 7 72 8 73 9 74
REMARK SMILES IDX 10 75 11 76 12 77 13 78 18 79 14 80 17 81 15 82 16 83 19 84
REMARK SMILES IDX 20 85 26 86 21 87 24 88 22 89 25 90 23 91
REMARK H PARENT 83 23 51 34
REMARK Flexibility Score: inf
ROOT
ATOM      1  C   UNL A   1      35.101  21.768  25.857  1.00  0.00     0.202 C 
ENDROOT
BRANCH   1   2
ATOM      2  C   UNL A   1      36.093  20.829  25.176  1.00  0.00     0.261 C 
BRANCH   2   3
ATOM      3  O   UNL A   1      37.340  21.483  24.899  1.00  0.00    -0.460 OA
BRANCH   3   4
ATOM      4  C   UNL A   1      38.446  21.373  25.679  1.00  0.00     0.338 C 
ATOM      5  O   UNL A   1      38.941  20.270  25.888  1.00  0.00    -0.246 OA
BRANCH   4   6
ATOM      6  C   UNL A   1      39.082  22.577  26.280  1.00  0.00     0.060 A 
ATOM      7  C   UNL A   1      40.237  22.496  27.050  1.00  0.00     0.016 A 
ATOM      8  C   UNL A   1      38.583  23.843  25.983  1.00  0.00     0.016 A 
ATOM      9  C   UNL A   1      40.847  23.590  27.609  1.00  0.00     0.010 A 
ATOM     10  C   UNL A   1      39.274  24.978  26.423  1.00  0.00     0.010 A 
ATOM     11  C   UNL A   1      40.426  24.842  27.215  1.00  0.00    -0.014 A 
BRANCH  11  12
ATOM     12  C   UNL A   1      41.240  25.982  27.648  1.00  0.00     0.031 A 
ATOM     13  C   UNL A   1      40.605  26.983  28.546  1.00  0.00     0.074 A 
ATOM     14  C   UNL A   1      42.542  26.037  27.303  1.00  0.00     0.049 A 
ATOM     15  N   UNL A   1      41.009  28.180  28.845  1.00  0.00    -0.248 NA
ATOM     16  C   UNL A   1      39.338  26.584  29.185  1.00  0.00     0.031 C 
ATOM     17  C   UNL A   1      43.283  24.992  26.579  1.00  0.00     0.029 A 
ATOM     18  N   UNL A   1      43.488  26.997  27.534  1.00  0.00    -0.354 N 
ATOM     19  C   UNL A   1      40.027  28.701  29.672  1.00  0.00     0.074 A 
ATOM     20  C   UNL A   1      39.003  27.694  29.827  1.00  0.00     0.031 C 
ATOM     21  C   UNL A   1      44.568  25.359  26.454  1.00  0.00     0.029 A 
ATOM     22  C   UNL A   1      44.715  26.708  26.977  1.00  0.00     0.049 A 
ATOM     23  H   UNL A   1      43.311  27.816  28.051  1.00  0.00     0.167 HD
ATOM     24  C   UNL A   1      40.007  29.927  30.236  1.00  0.00     0.034 A 
ATOM     25  C   UNL A   1      45.805  27.486  26.850  1.00  0.00     0.034 A 
ATOM     26  C   UNL A   1      41.072  30.874  30.058  1.00  0.00     0.049 A 
ATOM     27  C   UNL A   1      45.692  28.896  27.365  1.00  0.00     0.074 A 
ATOM     28  C   UNL A   1      41.145  32.185  30.486  1.00  0.00     0.029 A 
ATOM     29  N   UNL A   1      42.269  30.591  29.409  1.00  0.00    -0.354 N 
ATOM     30  N   UNL A   1      44.689  29.462  28.000  1.00  0.00    -0.248 NA
ATOM     31  C   UNL A   1      46.835  29.782  27.124  1.00  0.00     0.031 C 
ATOM     32  C   UNL A   1      42.368  32.707  30.056  1.00  0.00     0.029 A 
ATOM     33  C   UNL A   1      43.086  31.704  29.420  1.00  0.00     0.049 A 
ATOM     34  H   UNL A   1      42.499  29.725  29.002  1.00  0.00     0.167 HD
ATOM     35  C   UNL A   1      45.092  30.765  28.259  1.00  0.00     0.074 A 
ATOM     36  C   UNL A   1      46.435  30.894  27.723  1.00  0.00     0.031 C 
ATOM     37  C   UNL A   1      44.421  31.770  28.877  1.00  0.00     0.034 A 
BRANCH  24  38
ATOM     38  C   UNL A   1      38.786  30.307  31.018  1.00  0.00     0.023 A 
ATOM     39  C   UNL A   1      37.733  31.028  30.433  1.00  0.00     0.031 A 
ATOM     40  C   UNL A   1      38.685  29.960  32.375  1.00  0.00     0.131 A 
ATOM     41  C   UNL A   1      36.630  31.403  31.214  1.00  0.00     0.055 A 
ATOM     42  C   UNL A   1      37.561  30.287  33.133  1.00  0.00     0.041 A 
ATOM     43  F   UNL A   1      39.685  29.307  32.989  1.00  0.00    -0.206 F 
ATOM     44  C   UNL A   1      36.526  31.015  32.553  1.00  0.00     0.022 A 
BRANCH  41  45
ATOM     45  S   UNL A   1      35.355  32.459  30.478  1.00  0.00     0.124 S 
ATOM     46  O   UNL A   1      34.377  32.535  31.560  1.00  0.00    -0.237 OA
ATOM     47  O   UNL A   1      36.085  33.689  30.188  1.00  0.00    -0.237 OA
ATOM     48  O   UNL A   1      34.922  31.703  29.304  1.00  0.00    -0.744 OA
ENDBRANCH  41  45
ENDBRANCH  24  38
BRANCH  25  49
ATOM     49  C   UNL A   1      47.034  27.006  26.151  1.00  0.00     0.023 A 
ATOM     50  C   UNL A   1      48.083  26.414  26.873  1.00  0.00     0.031 A 
ATOM     51  C   UNL A   1      47.212  27.182  24.766  1.00  0.00     0.131 A 
ATOM     52  C   UNL A   1      49.276  26.065  26.220  1.00  0.00     0.055 A 
ATOM     53  C   UNL A   1      48.379  26.782  24.111  1.00  0.00     0.041 A 
ATOM     54  F   UNL A   1      46.246  27.744  24.020  1.00  0.00    -0.206 F 
ATOM     55  C   UNL A   1      49.427  26.234  24.842  1.00  0.00     0.022 A 
BRANCH  52  56
ATOM     56  S   UNL A   1      50.667  25.463  27.217  1.00  0.00     0.124 S 
ATOM     57  O   UNL A   1      51.707  25.304  26.207  1.00  0.00    -0.237 OA
ATOM     58  O   UNL A   1      50.854  26.554  28.168  1.00  0.00    -0.237 OA
ATOM     59  O   UNL A   1      50.159  24.219  27.793  1.00  0.00    -0.744 OA
ENDBRANCH  52  56
ENDBRANCH  25  49
BRANCH  37  60
ATOM     60  C   UNL A   1      45.160  33.067  29.043  1.00  0.00     0.023 A 
ATOM     61  C   UNL A   1      45.172  34.035  28.029  1.00  0.00     0.031 A 
ATOM     62  C   UNL A   1      45.830  33.342  30.248  1.00  0.00     0.131 A 
ATOM     63  C   UNL A   1      45.881  35.225  28.220  1.00  0.00     0.055 A 
ATOM     64  C   UNL A   1      46.481  34.554  30.456  1.00  0.00     0.041 A 
ATOM     65  F   UNL A   1      45.840  32.443  31.246  1.00  0.00    -0.206 F 
ATOM     66  C   UNL A   1      46.518  35.501  29.434  1.00  0.00     0.022 A 
BRANCH  63  67
ATOM     67  S   UNL A   1      46.012  36.383  26.835  1.00  0.00     0.124 S 
ATOM     68  O   UNL A   1      44.814  37.198  27.009  1.00  0.00    -0.237 OA
ATOM     69  O   UNL A   1      47.281  37.051  27.101  1.00  0.00    -0.237 OA
ATOM     70  O   UNL A   1      46.006  35.512  25.660  1.00  0.00    -0.744 OA
ENDBRANCH  63  67
ENDBRANCH  37  60
ENDBRANCH  11  12
ENDBRANCH   4   6
ENDBRANCH   3   4
ENDBRANCH   2   3
ENDBRANCH   1   2
BRANCH   1  71
ATOM     71  O   UNL A   1      34.048  21.161  26.580  1.00  0.00    -0.374 OA
BRANCH  71  72
ATOM     72  C   UNL A   1      33.649  21.765  27.793  1.00  0.00     0.202 C 
BRANCH  72  73
ATOM     73  C   UNL A   1      33.045  23.118  27.442  1.00  0.00     0.261 C 
BRANCH  73  74
ATOM     74  O   UNL A   1      31.633  22.942  27.215  1.00  0.00    -0.460 OA
BRANCH  74  75
ATOM     75  C   UNL A   1      31.001  23.842  26.411  1.00  0.00     0.338 C 
ATOM     76  O   UNL A   1      30.106  24.613  26.712  1.00  0.00    -0.246 OA
BRANCH  75  77
ATOM     77  C   UNL A   1      31.629  23.754  25.066  1.00  0.00     0.068 A 
ATOM     78  C   UNL A   1      31.617  22.471  24.474  1.00  0.00     0.019 A 
ATOM     79  C   UNL A   1      32.241  24.844  24.393  1.00  0.00    -0.001 A 
ATOM     80  C   UNL A   1      32.186  22.253  23.227  1.00  0.00     0.040 A 
ATOM     81  C   UNL A   1      32.770  24.594  23.109  1.00  0.00     0.048 A 
ATOM     82  C   UNL A   1      32.741  23.322  22.547  1.00  0.00     0.123 A 
ATOM     83  F   UNL A   1      33.280  23.125  21.339  1.00  0.00    -0.207 F 
BRANCH  79  84
ATOM     84  C   UNL A   1      32.487  26.198  24.940  1.00  0.00    -0.016 A 
ATOM     85  C   UNL A   1      33.658  26.437  25.701  1.00  0.00     0.012 A 
ATOM     86  C   UNL A   1      31.654  27.294  24.666  1.00  0.00     0.032 A 
ATOM     87  C   UNL A   1      33.945  27.701  26.228  1.00  0.00     0.041 A 
ATOM     88  C   UNL A   1      31.963  28.570  25.162  1.00  0.00     0.077 A 
ATOM     89  C   UNL A   1      33.093  28.761  25.955  1.00  0.00     0.141 A 
ATOM     90  Cl  UNL A   1      30.956  29.905  24.754  1.00  0.00    -0.081 Cl
ATOM     91  F   UNL A   1      33.389  29.966  26.462  1.00  0.00    -0.205 F 
ENDBRANCH  79  84
ENDBRANCH  75  77
ENDBRANCH  74  75
ENDBRANCH  73  74
ENDBRANCH  72  73
ENDBRANCH  71  72
ENDBRANCH   1  71
TORSDOF 18
ENDMDL
MODEL 2
REMARK VINA RESULT:     -11.3      4.717      9.644
REMARK SMILES O=C(OCCOCCOC(=O)c1ccc(F)cc1-c1ccc(F)c(Cl)c1)c1ccc(-c2c3nc(c(-c4cc(S(=O)(=O)[O-])ccc4F)c4ccc([nH]4)c(-c4cc(S(=O)(=O)[O-])ccc4F)c4nc(c(-c5cc(S(=O)(=O)[O-])ccc5F)c5ccc2[nH]5)C=C4)C=C3)cc1
REMARK SMILES IDX 5 1 4 2 3 3 2 4 1 5 27 6 28 7 89 8 29 9 88 10 30 11 31 12
REMARK SMILES IDX 32 13 82 14 33 15 87 16 81 17 83 18 34 19 86 20 80 21 79 22
REMARK SMILES IDX 35 24 67 25 47 26 66 27 48 28 51 29 65 30 84 31 49 32 50 33
REMARK SMILES IDX 64 35 85 36 52 37 36 38 37 39 45 40 38 41 44 42 46 43 43 44
REMARK SMILES IDX 39 45 40 46 41 47 42 48 68 49 69 50 77 51 70 52 76 53 78 54
REMARK SMILES IDX 75 55 71 56 72 57 73 58 74 59 53 60 54 61 62 62 55 63 61 64
REMARK SMILES IDX 63 65 60 66 56 67 57 68 58 69 59 70 6 71 7 72 8 73 9 74
REMARK SMILES IDX 10 75 11 76 12 77 13 78 18 79 14 80 17 81 15 82 16 83 19 84
REMARK SMILES IDX 20 85 26 86 21 87 24 88 22 89 25 90 23 91
REMARK H PARENT 83 23 51 34
REMARK Flexibility Score: inf
ROOT
ATOM      1  C   UNL A   1      31.473  28.359  26.275  1.00  0.00     0.202 C 
ENDROOT
BRANCH   1   2
ATOM      2  C   UNL A   1      31.960  29.260  25.144  1.00  0.00     0.261 C 
BRANCH   2   3
ATOM      3  O   UNL A   1      33.132  29.999  25.519  1.00  0.00    -0.460 OA
BRANCH   3   4
ATOM      4  C   UNL A   1      33.206  30.803  26.611  1.00  0.00     0.338 C 
ATOM      5  O   UNL A   1      32.313  31.613  26.837  1.00  0.00    -0.246 OA
BRANCH   4   6
ATOM      6  C   UNL A   1      34.356  30.713  27.551  1.00  0.00     0.060 A 
ATOM      7  C   UNL A   1      34.786  29.499  28.079  1.00  0.00     0.016 A 
ATOM      8  C   UNL A   1      35.105  31.851  27.840  1.00  0.00     0.016 A 
ATOM      9  C   UNL A   1      35.846  29.387  28.941  1.00  0.00     0.010 A 
ATOM     10  C   UNL A   1      36.274  31.734  28.600  1.00  0.00     0.010 A 
ATOM     11  C   UNL A   1      36.654  30.488  29.126  1.00  0.00    -0.014 A 
BRANCH  11  12
ATOM     12  C   UNL A   1      37.902  30.279  29.867  1.00  0.00     0.031 A 
ATOM     13  C   UNL A   1      38.970  29.481  29.209  1.00  0.00     0.074 A 
ATOM     14  C   UNL A   1      38.076  30.886  31.058  1.00  0.00     0.049 A 
ATOM     15  N   UNL A   1      40.027  28.944  29.739  1.00  0.00    -0.248 NA
ATOM     16  C   UNL A   1      38.822  29.248  27.761  1.00  0.00     0.031 C 
ATOM     17  C   UNL A   1      37.144  31.839  31.680  1.00  0.00     0.029 A 
ATOM     18  N   UNL A   1      39.107  30.818  31.953  1.00  0.00    -0.354 N 
ATOM     19  C   UNL A   1      40.652  28.268  28.703  1.00  0.00     0.074 A 
ATOM     20  C   UNL A   1      39.856  28.458  27.512  1.00  0.00     0.031 C 
ATOM     21  C   UNL A   1      37.662  32.282  32.836  1.00  0.00     0.029 A 
ATOM     22  C   UNL A   1      38.896  31.559  33.096  1.00  0.00     0.049 A 
ATOM     23  H   UNL A   1      39.924  30.291  31.797  1.00  0.00     0.167 HD
ATOM     24  C   UNL A   1      41.793  27.551  28.772  1.00  0.00     0.034 A 
ATOM     25  C   UNL A   1      39.597  31.587  34.244  1.00  0.00     0.034 A 
ATOM     26  C   UNL A   1      42.549  27.422  29.987  1.00  0.00     0.049 A 
ATOM     27  C   UNL A   1      40.783  30.663  34.333  1.00  0.00     0.074 A 
ATOM     28  C   UNL A   1      43.667  26.651  30.232  1.00  0.00     0.029 A 
ATOM     29  N   UNL A   1      42.263  28.110  31.162  1.00  0.00    -0.354 N 
ATOM     30  N   UNL A   1      41.285  29.877  33.406  1.00  0.00    -0.248 NA
ATOM     31  C   UNL A   1      41.478  30.603  35.621  1.00  0.00     0.031 C 
ATOM     32  C   UNL A   1      44.031  26.839  31.569  1.00  0.00     0.029 A 
ATOM     33  C   UNL A   1      43.182  27.778  32.137  1.00  0.00     0.049 A 
ATOM     34  H   UNL A   1      41.516  28.741  31.279  1.00  0.00     0.167 HD
ATOM     35  C   UNL A   1      42.374  29.248  33.993  1.00  0.00     0.074 A 
ATOM     36  C   UNL A   1      42.462  29.758  35.348  1.00  0.00     0.031 C 
ATOM     37  C   UNL A   1      43.225  28.329  33.471  1.00  0.00     0.034 A 
BRANCH  24  38
ATOM     38  C   UNL A   1      42.227  26.823  27.536  1.00  0.00     0.023 A 
ATOM     39  C   UNL A   1      42.016  25.444  27.383  1.00  0.00     0.031 A 
ATOM     40  C   UNL A   1      42.881  27.518  26.505  1.00  0.00     0.131 A 
ATOM     41  C   UNL A   1      42.480  24.795  26.229  1.00  0.00     0.055 A 
ATOM     42  C   UNL A   1      43.290  26.878  25.336  1.00  0.00     0.041 A 
ATOM     43  F   UNL A   1      43.142  28.829  26.624  1.00  0.00    -0.206 F 
ATOM     44  C   UNL A   1      43.093  25.507  25.194  1.00  0.00     0.022 A 
BRANCH  41  45
ATOM     45  S   UNL A   1      42.330  22.992  26.120  1.00  0.00     0.124 S 
ATOM     46  O   UNL A   1      40.886  22.810  26.246  1.00  0.00    -0.237 OA
ATOM     47  O   UNL A   1      42.898  22.702  24.808  1.00  0.00    -0.237 OA
ATOM     48  O   UNL A   1      43.116  22.515  27.256  1.00  0.00    -0.744 OA
ENDBRANCH  41  45
ENDBRANCH  24  38
BRANCH  25  49
ATOM     49  C   UNL A   1      39.167  32.421  35.405  1.00  0.00     0.023 A 
ATOM     50  C   UNL A   1      39.649  33.730  35.562  1.00  0.00     0.031 A 
ATOM     51  C   UNL A   1      38.322  31.911  36.407  1.00  0.00     0.131 A 
ATOM     52  C   UNL A   1      39.323  34.465  36.714  1.00  0.00     0.055 A 
ATOM     53  C   UNL A   1      37.954  32.666  37.524  1.00  0.00     0.041 A 
ATOM     54  F   UNL A   1      37.830  30.664  36.317  1.00  0.00    -0.206 F 
ATOM     55  C   UNL A   1      38.469  33.947  37.689  1.00  0.00     0.022 A 
BRANCH  52  56
ATOM     56  S   UNL A   1      40.103  36.084  36.959  1.00  0.00     0.124 S 
ATOM     57  O   UNL A   1      39.366  36.596  38.108  1.00  0.00    -0.237 OA
ATOM     58  O   UNL A   1      41.495  35.719  37.197  1.00  0.00    -0.237 OA
ATOM     59  O   UNL A   1      39.850  36.778  35.697  1.00  0.00    -0.744 OA
ENDBRANCH  52  56
ENDBRANCH  25  49
BRANCH  37  60
ATOM     60  C   UNL A   1      44.345  27.870  34.360  1.00  0.00     0.023 A 
ATOM     61  C   UNL A   1      44.224  26.716  35.147  1.00  0.00     0.031 A 
ATOM     62  C   UNL A   1      45.555  28.584  34.388  1.00  0.00     0.131 A 
ATOM     63  C   UNL A   1      45.287  26.328  35.970  1.00  0.00     0.055 A 
ATOM     64  C   UNL A   1      46.631  28.158  35.161  1.00  0.00     0.041 A 
ATOM     65  F   UNL A   1      45.713  29.692  33.647  1.00  0.00    -0.206 F 
ATOM     66  C   UNL A   1      46.498  27.029  35.967  1.00  0.00     0.022 A 
BRANCH  63  67
ATOM     67  S   UNL A   1      45.043  24.929  37.093  1.00  0.00     0.124 S 
ATOM     68  O   UNL A   1      44.275  24.007  36.263  1.00  0.00    -0.237 OA
ATOM     69  O   UNL A   1      46.412  24.525  37.396  1.00  0.00    -0.237 OA
ATOM     70  O   UNL A   1      44.309  25.516  38.214  1.00  0.00    -0.744 OA
ENDBRANCH  63  67
ENDBRANCH  37  60
ENDBRANCH  11  12
ENDBRANCH   4   6
ENDBRANCH   3   4
ENDBRANCH   2   3
ENDBRANCH   1   2
BRANCH   1  71
ATOM     71  O   UNL A   1      31.506  26.966  26.034  1.00  0.00    -0.374 OA
BRANCH  71  72
ATOM     72  C   UNL A   1      30.606  26.441  25.080  1.00  0.00     0.202 C 
BRANCH  72  73
ATOM     73  C   UNL A   1      29.906  25.255  25.730  1.00  0.00     0.261 C 
BRANCH  73  74
ATOM     74  O   UNL A   1      30.692  24.072  25.487  1.00  0.00    -0.460 OA
BRANCH  74  75
ATOM     75  C   UNL A   1      31.613  23.718  26.426  1.00  0.00     0.338 C 
ATOM     76  O   UNL A   1      31.689  24.102  27.580  1.00  0.00    -0.246 OA
BRANCH  75  77
ATOM     77  C   UNL A   1      32.524  22.723  25.801  1.00  0.00     0.068 A 
ATOM     78  C   UNL A   1      32.686  21.515  26.517  1.00  0.00     0.019 A 
ATOM     79  C   UNL A   1      33.231  22.933  24.588  1.00  0.00    -0.001 A 
ATOM     80  C   UNL A   1      33.523  20.512  26.047  1.00  0.00     0.040 A 
ATOM     81  C   UNL A   1      34.038  21.875  24.121  1.00  0.00     0.048 A 
ATOM     82  C   UNL A   1      34.177  20.694  24.842  1.00  0.00     0.123 A 
ATOM     83  F   UNL A   1      34.975  19.728  24.374  1.00  0.00    -0.207 F 
BRANCH  79  84
ATOM     84  C   UNL A   1      33.305  24.193  23.812  1.00  0.00    -0.016 A 
ATOM     85  C   UNL A   1      33.937  25.325  24.385  1.00  0.00     0.012 A 
ATOM     86  C   UNL A   1      32.854  24.299  22.487  1.00  0.00     0.032 A 
ATOM     87  C   UNL A   1      34.046  26.534  23.688  1.00  0.00     0.041 A 
ATOM     88  C   UNL A   1      32.999  25.501  21.776  1.00  0.00     0.077 A 
ATOM     89  C   UNL A   1      33.574  26.614  22.386  1.00  0.00     0.141 A 
ATOM     90  Cl  UNL A   1      32.495  25.578  20.132  1.00  0.00    -0.081 Cl
ATOM     91  F   UNL A   1      33.695  27.778  21.733  1.00  0.00    -0.205 F 
ENDBRANCH  79  84
ENDBRANCH  75  77
ENDBRANCH  74  75
ENDBRANCH  73  74
ENDBRANCH  72  73
ENDBRANCH  71  72
ENDBRANCH   1  71
TORSDOF 18
ENDMDL
MODEL 3
REMARK VINA RESULT:     -11.2      2.604      8.394
REMARK SMILES O=C(OCCOCCOC(=O)c1ccc(F)cc1-c1ccc(F)c(Cl)c1)c1ccc(-c2c3nc(c(-c4cc(S(=O)(=O)[O-])ccc4F)c4ccc([nH]4)c(-c4cc(S(=O)(=O)[O-])ccc4F)c4nc(c(-c5cc(S(=O)(=O)[O-])ccc5F)c5ccc2[nH]5)C=C4)C=C3)cc1
REMARK SMILES IDX 5 1 4 2 3 3 2 4 1 5 27 6 28 7 89 8 29 9 88 10 30 11 31 12
REMARK SMILES IDX 32 13 82 14 33 15 87 16 81 17 83 18 34 19 86 20 80 21 79 22
REMARK SMILES IDX 35 24 67 25 47 26 66 27 48 28 51 29 65 30 84 31 49 32 50 33
REMARK SMILES IDX 64 35 85 36 52 37 36 38 37 39 45 40 38 41 44 42 46 43 43 44
REMARK SMILES IDX 39 45 40 46 41 47 42 48 68 49 69 50 77 51 70 52 76 53 78 54
REMARK SMILES IDX 75 55 71 56 72 57 73 58 74 59 53 60 54 61 62 62 55 63 61 64
REMARK SMILES IDX 63 65 60 66 56 67 57 68 58 69 59 70 6 71 7 72 8 73 9 74
REMARK SMILES IDX 10 75 11 76 12 77 13 78 18 79 14 80 17 81 15 82 16 83 19 84
REMARK SMILES IDX 20 85 26 86 21 87 24 88 22 89 25 90 23 91
REMARK H PARENT 83 23 51 34
REMARK Flexibility Score: inf
ROOT
ATOM      1  C   UNL A   1      38.461  20.169  25.137  1.00  0.00     0.202 C 
ENDROOT
BRANCH   1   2
ATOM      2  C   UNL A   1      39.569  19.252  25.648  1.00  0.00     0.261 C 
BRANCH   2   3
ATOM      3  O   UNL A   1      39.950  19.578  26.993  1.00  0.00    -0.460 OA
BRANCH   3   4
ATOM      4  C   UNL A   1      41.134  20.149  27.331  1.00  0.00     0.338 C 
ATOM      5  O   UNL A   1      42.133  19.451  27.472  1.00  0.00    -0.246 OA
BRANCH   4   6
ATOM      6  C   UNL A   1      41.247  21.620  27.525  1.00  0.00     0.060 A 
ATOM      7  C   UNL A   1      42.157  22.180  28.416  1.00  0.00     0.016 A 
ATOM      8  C   UNL A   1      40.505  22.483  26.722  1.00  0.00     0.016 A 
ATOM      9  C   UNL A   1      42.287  23.532  28.608  1.00  0.00     0.010 A 
ATOM     10  C   UNL A   1      40.728  23.862  26.801  1.00  0.00     0.010 A 
ATOM     11  C   UNL A   1      41.644  24.379  27.731  1.00  0.00    -0.014 A 
BRANCH  11  12
ATOM     12  C   UNL A   1      41.981  25.803  27.817  1.00  0.00     0.031 A 
ATOM     13  C   UNL A   1      43.239  26.256  27.168  1.00  0.00     0.074 A 
ATOM     14  C   UNL A   1      41.108  26.658  28.387  1.00  0.00     0.049 A 
ATOM     15  N   UNL A   1      43.878  27.377  27.324  1.00  0.00    -0.248 NA
ATOM     16  C   UNL A   1      43.870  25.315  26.224  1.00  0.00     0.031 C 
ATOM     17  C   UNL A   1      39.764  26.313  28.878  1.00  0.00     0.029 A 
ATOM     18  N   UNL A   1      41.201  28.001  28.630  1.00  0.00    -0.354 N 
ATOM     19  C   UNL A   1      45.011  27.264  26.534  1.00  0.00     0.074 A 
ATOM     20  C   UNL A   1      44.978  25.966  25.902  1.00  0.00     0.031 C 
ATOM     21  C   UNL A   1      39.157  27.419  29.334  1.00  0.00     0.029 A 
ATOM     22  C   UNL A   1      40.103  28.521  29.281  1.00  0.00     0.049 A 
ATOM     23  H   UNL A   1      41.977  28.545  28.364  1.00  0.00     0.167 HD
ATOM     24  C   UNL A   1      45.985  28.184  26.375  1.00  0.00     0.034 A 
ATOM     25  C   UNL A   1      39.926  29.736  29.830  1.00  0.00     0.034 A 
ATOM     26  C   UNL A   1      45.944  29.468  27.019  1.00  0.00     0.049 A 
ATOM     27  C   UNL A   1      41.093  30.686  29.757  1.00  0.00     0.074 A 
ATOM     28  C   UNL A   1      46.902  30.462  27.030  1.00  0.00     0.029 A 
ATOM     29  N   UNL A   1      44.860  29.940  27.753  1.00  0.00    -0.354 N 
ATOM     30  N   UNL A   1      42.251  30.522  29.157  1.00  0.00    -0.248 NA
ATOM     31  C   UNL A   1      40.947  31.967  30.454  1.00  0.00     0.031 C 
ATOM     32  C   UNL A   1      46.415  31.516  27.808  1.00  0.00     0.029 A 
ATOM     33  C   UNL A   1      45.128  31.209  28.226  1.00  0.00     0.049 A 
ATOM     34  H   UNL A   1      44.026  29.442  27.911  1.00  0.00     0.167 HD
ATOM     35  C   UNL A   1      42.963  31.692  29.382  1.00  0.00     0.074 A 
ATOM     36  C   UNL A   1      42.097  32.557  30.160  1.00  0.00     0.031 C 
ATOM     37  C   UNL A   1      44.219  32.028  28.991  1.00  0.00     0.034 A 
BRANCH  24  38
ATOM     38  C   UNL A   1      47.170  27.799  25.543  1.00  0.00     0.023 A 
ATOM     39  C   UNL A   1      47.216  28.056  24.164  1.00  0.00     0.031 A 
ATOM     40  C   UNL A   1      48.263  27.147  26.138  1.00  0.00     0.131 A 
ATOM     41  C   UNL A   1      48.326  27.637  23.416  1.00  0.00     0.055 A 
ATOM     42  C   UNL A   1      49.389  26.783  25.400  1.00  0.00     0.041 A 
ATOM     43  F   UNL A   1      48.248  26.844  27.446  1.00  0.00    -0.206 F 
ATOM     44  C   UNL A   1      49.423  27.025  24.029  1.00  0.00     0.022 A 
BRANCH  41  45
ATOM     45  S   UNL A   1      48.296  27.844  21.616  1.00  0.00     0.124 S 
ATOM     46  O   UNL A   1      46.916  28.267  21.393  1.00  0.00    -0.237 OA
ATOM     47  O   UNL A   1      49.320  28.859  21.393  1.00  0.00    -0.237 OA
ATOM     48  O   UNL A   1      48.624  26.512  21.114  1.00  0.00    -0.744 OA
ENDBRANCH  41  45
ENDBRANCH  24  38
BRANCH  25  49
ATOM     49  C   UNL A   1      38.672  30.094  30.555  1.00  0.00     0.023 A 
ATOM     50  C   UNL A   1      37.669  30.845  29.923  1.00  0.00     0.031 A 
ATOM     51  C   UNL A   1      38.476  29.748  31.905  1.00  0.00     0.131 A 
ATOM     52  C   UNL A   1      36.543  31.267  30.649  1.00  0.00     0.055 A 
ATOM     53  C   UNL A   1      37.328  30.122  32.609  1.00  0.00     0.041 A 
ATOM     54  F   UNL A   1      39.400  29.033  32.568  1.00  0.00    -0.206 F 
ATOM     55  C   UNL A   1      36.360  30.900  31.984  1.00  0.00     0.022 A 
BRANCH  52  56
ATOM     56  S   UNL A   1      35.357  32.378  29.844  1.00  0.00     0.124 S 
ATOM     57  O   UNL A   1      34.835  31.530  28.778  1.00  0.00    -0.237 OA
ATOM     58  O   UNL A   1      34.436  32.682  30.933  1.00  0.00    -0.237 OA
ATOM     59  O   UNL A   1      36.186  33.497  29.401  1.00  0.00    -0.744 OA
ENDBRANCH  52  56
ENDBRANCH  25  49
BRANCH  37  60
ATOM     60  C   UNL A   1      44.690  33.405  29.360  1.00  0.00     0.023 A 
ATOM     61  C   UNL A   1      44.367  34.522  28.576  1.00  0.00     0.031 A 
ATOM     62  C   UNL A   1      45.445  33.597  30.530  1.00  0.00     0.131 A 
ATOM     63  C   UNL A   1      44.835  35.786  28.950  1.00  0.00     0.055 A 
ATOM     64  C   UNL A   1      45.855  34.865  30.930  1.00  0.00     0.041 A 
ATOM     65  F   UNL A   1      45.773  32.555  31.311  1.00  0.00    -0.206 F 
ATOM     66  C   UNL A   1      45.559  35.969  30.133  1.00  0.00     0.022 A 
BRANCH  63  67
ATOM     67  S   UNL A   1      44.538  37.180  27.834  1.00  0.00     0.124 S 
ATOM     68  O   UNL A   1      43.550  36.624  26.914  1.00  0.00    -0.237 OA
ATOM     69  O   UNL A   1      44.052  38.213  28.742  1.00  0.00    -0.237 OA
ATOM     70  O   UNL A   1      45.854  37.437  27.251  1.00  0.00    -0.744 OA
ENDBRANCH  63  67
ENDBRANCH  37  60
ENDBRANCH  11  12
ENDBRANCH   4   6
ENDBRANCH   3   4
ENDBRANCH   2   3
ENDBRANCH   1   2
BRANCH   1  71
ATOM     71  O   UNL A   1      37.269  19.542  24.704  1.00  0.00    -0.374 OA
BRANCH  71  72
ATOM     72  C   UNL A   1      36.045  20.183  24.996  1.00  0.00     0.202 C 
BRANCH  72  73
ATOM     73  C   UNL A   1      36.367  21.633  25.330  1.00  0.00     0.261 C 
BRANCH  73  74
ATOM     74  O   UNL A   1      35.134  22.319  25.621  1.00  0.00    -0.460 OA
BRANCH  74  75
ATOM     75  C   UNL A   1      34.798  23.382  24.837  1.00  0.00     0.338 C 
ATOM     76  O   UNL A   1      35.474  23.918  23.977  1.00  0.00    -0.246 OA
BRANCH  75  77
ATOM     77  C   UNL A   1      33.408  23.774  25.192  1.00  0.00     0.068 A 
ATOM     78  C   UNL A   1      33.284  24.989  25.902  1.00  0.00     0.019 A 
ATOM     79  C   UNL A   1      32.255  23.002  24.890  1.00  0.00    -0.001 A 
ATOM     80  C   UNL A   1      32.040  25.458  26.305  1.00  0.00     0.040 A 
ATOM     81  C   UNL A   1      31.007  23.531  25.278  1.00  0.00     0.048 A 
ATOM     82  C   UNL A   1      30.910  24.733  25.972  1.00  0.00     0.123 A 
ATOM     83  F   UNL A   1      29.706  25.181  26.344  1.00  0.00    -0.207 F 
BRANCH  79  84
ATOM     84  C   UNL A   1      32.228  21.639  24.310  1.00  0.00    -0.016 A 
ATOM     85  C   UNL A   1      32.117  21.484  22.906  1.00  0.00     0.012 A 
ATOM     86  C   UNL A   1      32.400  20.480  25.082  1.00  0.00     0.032 A 
ATOM     87  C   UNL A   1      32.102  20.220  22.307  1.00  0.00     0.041 A 
ATOM     88  C   UNL A   1      32.424  19.214  24.475  1.00  0.00     0.077 A 
ATOM     89  C   UNL A   1      32.255  19.090  23.098  1.00  0.00     0.141 A 
ATOM     90  Cl  UNL A   1      32.701  17.817  25.442  1.00  0.00    -0.081 Cl
ATOM     91  F   UNL A   1      32.247  17.889  22.505  1.00  0.00    -0.205 F 
ENDBRANCH  79  84
ENDBRANCH  75  77
ENDBRANCH  74  75
ENDBRANCH  73  74
ENDBRANCH  72  73
ENDBRANCH  71  72
ENDBRANCH   1  71
TORSDOF 18
ENDMDL
