MODEL 1
REMARK VINA RESULT:     -11.6      0.000      0.000
REMARK SMILES N#CC1=C(N)N2C(=O)[C@@H](CC(=O)OCCOCCOC(=O)c3ccc(-c4c5nc(c(-c6cc(S(=O)(=O)[O-])ccc6F)c6ccc([nH]6)c(-c6cc(S(=O)(=O)[O-])ccc6F)c6nc(c(-c7cc(S(=O)(=O)[O-])ccc7F)c7ccc4[nH]7)C=C6)C=C5)cc3)SC2=C(C#N)[C@H]1c1ccc(Cl)cc1
REMARK SMILES IDX 17 1 16 2 15 3 14 4 13 5 11 6 12 7 10 8 9 9 3 10 4 11 90 12
REMARK SMILES IDX 6 13 87 14 7 15 86 16 8 17 85 18 2 19 1 20 5 21 91 24 92 25
REMARK SMILES IDX 97 26 93 27 96 28 94 29 95 30 88 31 89 32 18 33 19 34 20 35
REMARK SMILES IDX 21 36 22 37 23 38 84 39 24 40 83 41 25 42 26 43 27 44 77 45
REMARK SMILES IDX 28 46 82 47 76 48 78 49 29 50 81 51 75 52 74 53 30 55 62 56
REMARK SMILES IDX 42 57 61 58 43 59 46 60 60 61 79 62 44 63 45 64 59 66 80 67
REMARK SMILES IDX 47 68 31 69 32 70 40 71 33 72 39 73 41 74 38 75 34 76 35 77
REMARK SMILES IDX 36 78 37 79 63 80 64 81 72 82 65 83 71 84 73 85 70 86 66 87
REMARK SMILES IDX 67 88 68 89 69 90 48 91 49 92 57 93 50 94 56 95 58 96 55 97
REMARK SMILES IDX 51 98 52 99 53 100 54 101
REMARK H PARENT 5 22 5 23 78 54 46 65
REMARK Flexibility Score: inf
ROOT
ATOM      1  C   UNL A   1      37.848  20.083  25.033  1.00  0.00     0.202 C 
ENDROOT
BRANCH   1   2
ATOM      2  O   UNL A   1      37.949  21.494  24.812  1.00  0.00    -0.374 OA
BRANCH   2   3
ATOM      3  C   UNL A   1      37.150  22.351  25.634  1.00  0.00     0.202 C 
BRANCH   3   4
ATOM      4  C   UNL A   1      37.123  23.828  25.221  1.00  0.00     0.261 C 
BRANCH   4   5
ATOM      5  O   UNL A   1      35.927  24.162  24.498  1.00  0.00    -0.463 OA
BRANCH   5   6
ATOM      6  C   UNL A   1      35.509  23.224  23.614  1.00  0.00     0.307 C 
ATOM      7  O   UNL A   1      36.031  22.975  22.537  1.00  0.00    -0.252 OA
BRANCH   6   8
ATOM      8  C   UNL A   1      34.431  22.364  24.212  1.00  0.00     0.147 C 
BRANCH   8   9
ATOM      9  C   UNL A   1      33.246  22.067  23.303  1.00  0.00     0.154 C 
ATOM     10  C   UNL A   1      31.083  26.316  23.223  1.00  0.00     0.083 C 
ATOM     11  C   UNL A   1      31.650  25.371  22.424  1.00  0.00     0.126 C 
ATOM     12  C   UNL A   1      30.895  26.095  24.724  1.00  0.00     0.107 C 
ATOM     13  N   UNL A   1      32.084  24.160  22.978  1.00  0.00    -0.258 N 
ATOM     14  C   UNL A   1      30.957  24.611  25.034  1.00  0.00     0.073 C 
ATOM     15  C   UNL A   1      32.890  23.202  22.337  1.00  0.00     0.247 C 
ATOM     16  C   UNL A   1      31.558  23.770  24.184  1.00  0.00     0.099 C 
ATOM     17  O   UNL A   1      33.299  23.252  21.182  1.00  0.00    -0.273 OA
ATOM     18  S   UNL A   1      31.783  22.066  24.429  1.00  0.00    -0.093 SA
BRANCH  10  19
ATOM     19  C   UNL A   1      30.544  27.590  22.593  1.00  0.00     0.100 C 
ATOM     20  N   UNL A   1      30.096  28.646  22.070  1.00  0.00    -0.193 NA
ENDBRANCH  10  19
BRANCH  11  21
ATOM     21  N   UNL A   1      31.796  25.557  21.079  1.00  0.00    -0.384 N 
ATOM     22  H   UNL A   1      31.449  24.886  20.449  1.00  0.00     0.158 HD
ATOM     23  H   UNL A   1      32.250  26.362  20.740  1.00  0.00     0.158 HD
ENDBRANCH  11  21
BRANCH  12  24
ATOM     24  C   UNL A   1      31.894  26.923  25.557  1.00  0.00    -0.034 A 
ATOM     25  C   UNL A   1      33.276  26.965  25.277  1.00  0.00     0.006 A 
ATOM     26  C   UNL A   1      31.432  27.679  26.653  1.00  0.00     0.006 A 
ATOM     27  C   UNL A   1      34.155  27.719  26.064  1.00  0.00     0.021 A 
ATOM     28  C   UNL A   1      32.308  28.451  27.424  1.00  0.00     0.021 A 
ATOM     29  C   UNL A   1      33.668  28.464  27.131  1.00  0.00     0.041 A 
ATOM     30  Cl  UNL A   1      34.749  29.390  28.094  1.00  0.00    -0.084 Cl
ENDBRANCH  12  24
BRANCH  14  31
ATOM     31  C   UNL A   1      30.283  24.042  26.272  1.00  0.00     0.098 C 
ATOM     32  N   UNL A   1      29.724  23.570  27.299  1.00  0.00    -0.193 NA
ENDBRANCH  14  31
ENDBRANCH   8   9
ENDBRANCH   6   8
ENDBRANCH   5   6
ENDBRANCH   4   5
ENDBRANCH   3   4
ENDBRANCH   2   3
ENDBRANCH   1   2
BRANCH   1  33
ATOM     33  C   UNL A   1      39.075  19.410  25.654  1.00  0.00     0.261 C 
BRANCH  33  34
ATOM     34  O   UNL A   1      40.168  20.340  25.698  1.00  0.00    -0.460 OA
BRANCH  34  35
ATOM     35  C   UNL A   1      40.858  20.350  26.857  1.00  0.00     0.338 C 
ATOM     36  O   UNL A   1      41.362  19.389  27.416  1.00  0.00    -0.246 OA
BRANCH  35  37
ATOM     37  C   UNL A   1      41.009  21.747  27.300  1.00  0.00     0.060 A 
ATOM     38  C   UNL A   1      40.482  22.759  26.492  1.00  0.00     0.016 A 
ATOM     39  C   UNL A   1      41.746  22.063  28.443  1.00  0.00     0.016 A 
ATOM     40  C   UNL A   1      40.740  24.097  26.800  1.00  0.00     0.010 A 
ATOM     41  C   UNL A   1      41.983  23.405  28.762  1.00  0.00     0.010 A 
ATOM     42  C   UNL A   1      41.519  24.430  27.918  1.00  0.00    -0.014 A 
BRANCH  42  43
ATOM     43  C   UNL A   1      41.964  25.837  28.114  1.00  0.00     0.031 A 
ATOM     44  C   UNL A   1      43.291  26.274  27.548  1.00  0.00     0.074 A 
ATOM     45  C   UNL A   1      41.181  26.728  28.749  1.00  0.00     0.049 A 
ATOM     46  N   UNL A   1      43.852  27.457  27.568  1.00  0.00    -0.248 NA
ATOM     47  C   UNL A   1      44.088  25.241  26.869  1.00  0.00     0.031 C 
ATOM     48  C   UNL A   1      39.871  26.438  29.331  1.00  0.00     0.029 A 
ATOM     49  N   UNL A   1      41.375  28.062  29.011  1.00  0.00    -0.354 N 
ATOM     50  C   UNL A   1      45.062  27.314  26.896  1.00  0.00     0.074 A 
ATOM     51  C   UNL A   1      45.174  25.918  26.528  1.00  0.00     0.031 C 
ATOM     52  C   UNL A   1      39.379  27.562  29.881  1.00  0.00     0.029 A 
ATOM     53  C   UNL A   1      40.347  28.645  29.714  1.00  0.00     0.049 A 
ATOM     54  H   UNL A   1      42.176  28.556  28.721  1.00  0.00     0.167 HD
ATOM     55  C   UNL A   1      45.988  28.258  26.598  1.00  0.00     0.034 A 
ATOM     56  C   UNL A   1      40.207  29.903  30.180  1.00  0.00     0.034 A 
ATOM     57  C   UNL A   1      45.882  29.646  26.978  1.00  0.00     0.049 A 
ATOM     58  C   UNL A   1      41.286  30.922  29.901  1.00  0.00     0.074 A 
ATOM     59  C   UNL A   1      46.755  30.685  26.704  1.00  0.00     0.029 A 
ATOM     60  N   UNL A   1      44.847  30.188  27.727  1.00  0.00    -0.354 N 
ATOM     61  N   UNL A   1      42.409  30.777  29.234  1.00  0.00    -0.248 NA
ATOM     62  C   UNL A   1      41.072  32.277  30.428  1.00  0.00     0.031 C 
ATOM     63  C   UNL A   1      46.282  31.838  27.340  1.00  0.00     0.029 A 
ATOM     64  C   UNL A   1      45.076  31.537  27.952  1.00  0.00     0.049 A 
ATOM     65  H   UNL A   1      44.062  29.688  28.052  1.00  0.00     0.167 HD
ATOM     66  C   UNL A   1      43.015  32.032  29.236  1.00  0.00     0.074 A 
ATOM     67  C   UNL A   1      42.131  32.922  29.958  1.00  0.00     0.031 C 
ATOM     68  C   UNL A   1      44.194  32.415  28.684  1.00  0.00     0.034 A 
BRANCH  55  69
ATOM     69  C   UNL A   1      47.217  27.809  25.848  1.00  0.00     0.023 A 
ATOM     70  C   UNL A   1      47.348  28.009  24.462  1.00  0.00     0.031 A 
ATOM     71  C   UNL A   1      48.265  27.161  26.524  1.00  0.00     0.131 A 
ATOM     72  C   UNL A   1      48.474  27.513  23.788  1.00  0.00     0.055 A 
ATOM     73  C   UNL A   1      49.415  26.732  25.858  1.00  0.00     0.041 A 
ATOM     74  F   UNL A   1      48.185  26.926  27.843  1.00  0.00    -0.206 F 
ATOM     75  C   UNL A   1      49.519  26.897  24.480  1.00  0.00     0.022 A 
BRANCH  72  76
ATOM     76  S   UNL A   1      48.500  27.580  21.976  1.00  0.00     0.124 S 
ATOM     77  O   UNL A   1      47.178  28.124  21.681  1.00  0.00    -0.237 OA
ATOM     78  O   UNL A   1      49.630  28.464  21.709  1.00  0.00    -0.237 OA
ATOM     79  O   UNL A   1      48.694  26.185  21.584  1.00  0.00    -0.744 OA
ENDBRANCH  72  76
ENDBRANCH  55  69
BRANCH  56  80
ATOM     80  C   UNL A   1      39.014  30.279  30.995  1.00  0.00     0.023 A 
ATOM     81  C   UNL A   1      37.991  31.079  30.462  1.00  0.00     0.031 A 
ATOM     82  C   UNL A   1      38.922  29.900  32.346  1.00  0.00     0.131 A 
ATOM     83  C   UNL A   1      36.944  31.516  31.290  1.00  0.00     0.055 A 
ATOM     84  C   UNL A   1      37.853  30.294  33.150  1.00  0.00     0.041 A 
ATOM     85  F   UNL A   1      39.875  29.136  32.903  1.00  0.00    -0.206 F 
ATOM     86  C   UNL A   1      36.862  31.120  32.627  1.00  0.00     0.022 A 
BRANCH  83  87
ATOM     87  S   UNL A   1      35.737  32.691  30.617  1.00  0.00     0.124 S 
ATOM     88  O   UNL A   1      34.508  32.265  31.277  1.00  0.00    -0.237 OA
ATOM     89  O   UNL A   1      36.289  33.971  31.051  1.00  0.00    -0.237 OA
ATOM     90  O   UNL A   1      35.791  32.447  29.177  1.00  0.00    -0.744 OA
ENDBRANCH  83  87
ENDBRANCH  56  80
BRANCH  68  91
ATOM     91  C   UNL A   1      44.571  33.872  28.805  1.00  0.00     0.023 A 
ATOM     92  C   UNL A   1      45.291  34.363  29.908  1.00  0.00     0.031 A 
ATOM     93  C   UNL A   1      44.193  34.783  27.802  1.00  0.00     0.131 A 
ATOM     94  C   UNL A   1      45.566  35.736  30.007  1.00  0.00     0.055 A 
ATOM     95  C   UNL A   1      44.516  36.139  27.880  1.00  0.00     0.041 A 
ATOM     96  F   UNL A   1      43.504  34.369  26.726  1.00  0.00    -0.206 F 
ATOM     97  C   UNL A   1      45.196  36.624  28.994  1.00  0.00     0.022 A 
BRANCH  94  98
ATOM     98  S   UNL A   1      46.346  36.362  31.521  1.00  0.00     0.124 S 
ATOM     99  O   UNL A   1      45.451  37.451  31.897  1.00  0.00    -0.237 OA
ATOM    100  O   UNL A   1      46.326  35.191  32.391  1.00  0.00    -0.237 OA
ATOM    101  O   UNL A   1      47.674  36.778  31.076  1.00  0.00    -0.744 OA
ENDBRANCH  94  98
ENDBRANCH  68  91
ENDBRANCH  42  43
ENDBRANCH  35  37
ENDBRANCH  34  35
ENDBRANCH  33  34
ENDBRANCH   1  33
TORSDOF 22
ENDMDL
MODEL 2
REMARK VINA RESULT:     -11.3      2.412      3.134
REMARK SMILES N#CC1=C(N)N2C(=O)[C@@H](CC(=O)OCCOCCOC(=O)c3ccc(-c4c5nc(c(-c6cc(S(=O)(=O)[O-])ccc6F)c6ccc([nH]6)c(-c6cc(S(=O)(=O)[O-])ccc6F)c6nc(c(-c7cc(S(=O)(=O)[O-])ccc7F)c7ccc4[nH]7)C=C6)C=C5)cc3)SC2=C(C#N)[C@H]1c1ccc(Cl)cc1
REMARK SMILES IDX 17 1 16 2 15 3 14 4 13 5 11 6 12 7 10 8 9 9 3 10 4 11 90 12
REMARK SMILES IDX 6 13 87 14 7 15 86 16 8 17 85 18 2 19 1 20 5 21 91 24 92 25
REMARK SMILES IDX 97 26 93 27 96 28 94 29 95 30 88 31 89 32 18 33 19 34 20 35
REMARK SMILES IDX 21 36 22 37 23 38 84 39 24 40 83 41 25 42 26 43 27 44 77 45
REMARK SMILES IDX 28 46 82 47 76 48 78 49 29 50 81 51 75 52 74 53 30 55 62 56
REMARK SMILES IDX 42 57 61 58 43 59 46 60 60 61 79 62 44 63 45 64 59 66 80 67
REMARK SMILES IDX 47 68 31 69 32 70 40 71 33 72 39 73 41 74 38 75 34 76 35 77
REMARK SMILES IDX 36 78 37 79 63 80 64 81 72 82 65 83 71 84 73 85 70 86 66 87
REMARK SMILES IDX 67 88 68 89 69 90 48 91 49 92 57 93 50 94 56 95 58 96 55 97
REMARK SMILES IDX 51 98 52 99 53 100 54 101
REMARK H PARENT 5 22 5 23 78 54 46 65
REMARK Flexibility Score: inf
ROOT
ATOM      1  C   UNL A   1      40.427  20.890  26.775  1.00  0.00     0.202 C 
ENDROOT
BRANCH   1   2
ATOM      2  O   UNL A   1      39.357  20.900  25.822  1.00  0.00    -0.374 OA
BRANCH   2   3
ATOM      3  C   UNL A   1      38.528  22.066  25.773  1.00  0.00     0.202 C 
BRANCH   3   4
ATOM      4  C   UNL A   1      37.023  21.802  25.631  1.00  0.00     0.261 C 
BRANCH   4   5
ATOM      5  O   UNL A   1      36.658  21.492  24.276  1.00  0.00    -0.463 OA
BRANCH   5   6
ATOM      6  C   UNL A   1      36.152  22.529  23.565  1.00  0.00     0.307 C 
ATOM      7  O   UNL A   1      36.638  23.000  22.546  1.00  0.00    -0.252 OA
BRANCH   6   8
ATOM      8  C   UNL A   1      34.787  22.909  24.065  1.00  0.00     0.147 C 
BRANCH   8   9
ATOM      9  C   UNL A   1      33.623  22.503  23.173  1.00  0.00     0.154 C 
ATOM     10  C   UNL A   1      31.076  26.533  23.120  1.00  0.00     0.083 C 
ATOM     11  C   UNL A   1      31.717  25.643  22.313  1.00  0.00     0.126 C 
ATOM     12  C   UNL A   1      30.929  26.299  24.623  1.00  0.00     0.107 C 
ATOM     13  N   UNL A   1      32.268  24.479  22.862  1.00  0.00    -0.258 N 
ATOM     14  C   UNL A   1      31.133  24.828  24.934  1.00  0.00     0.073 C 
ATOM     15  C   UNL A   1      33.150  23.598  22.211  1.00  0.00     0.247 C 
ATOM     16  C   UNL A   1      31.797  24.044  24.076  1.00  0.00     0.099 C 
ATOM     17  O   UNL A   1      33.537  23.683  21.050  1.00  0.00    -0.273 OA
ATOM     18  S   UNL A   1      32.181  22.369  24.319  1.00  0.00    -0.093 SA
BRANCH  10  19
ATOM     19  C   UNL A   1      30.412  27.750  22.496  1.00  0.00     0.100 C 
ATOM     20  N   UNL A   1      29.861  28.760  21.978  1.00  0.00    -0.193 NA
ENDBRANCH  10  19
BRANCH  11  21
ATOM     21  N   UNL A   1      31.826  25.839  20.967  1.00  0.00    -0.384 N 
ATOM     22  H   UNL A   1      32.335  25.201  20.416  1.00  0.00     0.158 HD
ATOM     23  H   UNL A   1      31.399  26.620  20.547  1.00  0.00     0.158 HD
ENDBRANCH  11  21
BRANCH  12  24
ATOM     24  C   UNL A   1      31.859  27.218  25.442  1.00  0.00    -0.034 A 
ATOM     25  C   UNL A   1      33.143  27.599  24.999  1.00  0.00     0.006 A 
ATOM     26  C   UNL A   1      31.432  27.709  26.691  1.00  0.00     0.006 A 
ATOM     27  C   UNL A   1      33.964  28.426  25.776  1.00  0.00     0.021 A 
ATOM     28  C   UNL A   1      32.244  28.555  27.456  1.00  0.00     0.021 A 
ATOM     29  C   UNL A   1      33.510  28.904  26.999  1.00  0.00     0.041 A 
ATOM     30  Cl  UNL A   1      34.520  29.920  27.950  1.00  0.00    -0.084 Cl
ENDBRANCH  12  24
BRANCH  14  31
ATOM     31  C   UNL A   1      30.531  24.202  26.181  1.00  0.00     0.098 C 
ATOM     32  N   UNL A   1      30.032  23.682  27.216  1.00  0.00    -0.193 NA
ENDBRANCH  14  31
ENDBRANCH   8   9
ENDBRANCH   6   8
ENDBRANCH   5   6
ENDBRANCH   4   5
ENDBRANCH   3   4
ENDBRANCH   2   3
ENDBRANCH   1   2
BRANCH   1  33
ATOM     33  C   UNL A   1      41.833  20.691  26.205  1.00  0.00     0.261 C 
BRANCH  33  34
ATOM     34  O   UNL A   1      42.686  21.763  26.630  1.00  0.00    -0.460 OA
BRANCH  34  35
ATOM     35  C   UNL A   1      42.816  22.772  25.744  1.00  0.00     0.338 C 
ATOM     36  O   UNL A   1      43.003  22.669  24.542  1.00  0.00    -0.246 OA
BRANCH  35  37
ATOM     37  C   UNL A   1      42.582  24.046  26.446  1.00  0.00     0.060 A 
ATOM     38  C   UNL A   1      42.531  25.221  25.689  1.00  0.00     0.016 A 
ATOM     39  C   UNL A   1      42.516  24.098  27.840  1.00  0.00     0.016 A 
ATOM     40  C   UNL A   1      42.467  26.459  26.332  1.00  0.00     0.010 A 
ATOM     41  C   UNL A   1      42.428  25.339  28.481  1.00  0.00     0.010 A 
ATOM     42  C   UNL A   1      42.447  26.530  27.733  1.00  0.00    -0.014 A 
BRANCH  42  43
ATOM     43  C   UNL A   1      42.594  27.849  28.407  1.00  0.00     0.031 A 
ATOM     44  C   UNL A   1      43.976  28.402  28.646  1.00  0.00     0.074 A 
ATOM     45  C   UNL A   1      41.515  28.568  28.763  1.00  0.00     0.049 A 
ATOM     46  N   UNL A   1      44.332  29.544  29.178  1.00  0.00    -0.248 NA
ATOM     47  C   UNL A   1      45.104  27.555  28.230  1.00  0.00     0.031 C 
ATOM     48  C   UNL A   1      40.125  28.154  28.576  1.00  0.00     0.029 A 
ATOM     49  N   UNL A   1      41.419  29.803  29.357  1.00  0.00    -0.354 N 
ATOM     50  C   UNL A   1      45.723  29.559  29.150  1.00  0.00     0.074 A 
ATOM     51  C   UNL A   1      46.144  28.289  28.596  1.00  0.00     0.031 C 
ATOM     52  C   UNL A   1      39.315  29.120  29.046  1.00  0.00     0.029 A 
ATOM     53  C   UNL A   1      40.125  30.207  29.590  1.00  0.00     0.049 A 
ATOM     54  H   UNL A   1      42.204  30.347  29.594  1.00  0.00     0.167 HD
ATOM     55  C   UNL A   1      46.572  30.544  29.534  1.00  0.00     0.034 A 
ATOM     56  C   UNL A   1      39.649  31.321  30.185  1.00  0.00     0.034 A 
ATOM     57  C   UNL A   1      46.152  31.803  30.098  1.00  0.00     0.049 A 
ATOM     58  C   UNL A   1      40.617  32.372  30.673  1.00  0.00     0.074 A 
ATOM     59  C   UNL A   1      46.934  32.874  30.497  1.00  0.00     0.029 A 
ATOM     60  N   UNL A   1      44.835  32.158  30.358  1.00  0.00    -0.354 N 
ATOM     61  N   UNL A   1      41.929  32.384  30.608  1.00  0.00    -0.248 NA
ATOM     62  C   UNL A   1      40.037  33.566  31.305  1.00  0.00     0.031 C 
ATOM     63  C   UNL A   1      46.098  33.846  31.056  1.00  0.00     0.029 A 
ATOM     64  C   UNL A   1      44.786  33.414  30.942  1.00  0.00     0.049 A 
ATOM     65  H   UNL A   1      44.050  31.598  30.157  1.00  0.00     0.167 HD
ATOM     66  C   UNL A   1      42.325  33.600  31.161  1.00  0.00     0.074 A 
ATOM     67  C   UNL A   1      41.116  34.299  31.543  1.00  0.00     0.031 C 
ATOM     68  C   UNL A   1      43.576  34.099  31.331  1.00  0.00     0.034 A 
BRANCH  55  69
ATOM     69  C   UNL A   1      48.050  30.279  29.384  1.00  0.00     0.023 A 
ATOM     70  C   UNL A   1      48.755  30.669  28.232  1.00  0.00     0.031 A 
ATOM     71  C   UNL A   1      48.760  29.616  30.400  1.00  0.00     0.131 A 
ATOM     72  C   UNL A   1      50.113  30.342  28.098  1.00  0.00     0.055 A 
ATOM     73  C   UNL A   1      50.127  29.355  30.292  1.00  0.00     0.041 A 
ATOM     74  F   UNL A   1      48.133  29.204  31.513  1.00  0.00    -0.206 F 
ATOM     75  C   UNL A   1      50.809  29.708  29.131  1.00  0.00     0.022 A 
BRANCH  72  76
ATOM     76  S   UNL A   1      50.928  30.651  26.509  1.00  0.00     0.124 S 
ATOM     77  O   UNL A   1      50.316  31.912  26.101  1.00  0.00    -0.237 OA
ATOM     78  O   UNL A   1      52.336  30.715  26.884  1.00  0.00    -0.237 OA
ATOM     79  O   UNL A   1      50.552  29.493  25.699  1.00  0.00    -0.744 OA
ENDBRANCH  72  76
ENDBRANCH  55  69
BRANCH  56  80
ATOM     80  C   UNL A   1      38.182  31.499  30.391  1.00  0.00     0.023 A 
ATOM     81  C   UNL A   1      37.401  32.227  29.481  1.00  0.00     0.031 A 
ATOM     82  C   UNL A   1      37.556  31.001  31.549  1.00  0.00     0.131 A 
ATOM     83  C   UNL A   1      36.050  32.480  29.766  1.00  0.00     0.055 A 
ATOM     84  C   UNL A   1      36.201  31.211  31.802  1.00  0.00     0.041 A 
ATOM     85  F   UNL A   1      38.260  30.299  32.452  1.00  0.00    -0.206 F 
ATOM     86  C   UNL A   1      35.442  31.967  30.915  1.00  0.00     0.022 A 
BRANCH  83  87
ATOM     87  S   UNL A   1      35.117  33.572  28.657  1.00  0.00     0.124 S 
ATOM     88  O   UNL A   1      35.498  34.891  29.149  1.00  0.00    -0.237 OA
ATOM     89  O   UNL A   1      35.647  33.196  27.350  1.00  0.00    -0.237 OA
ATOM     90  O   UNL A   1      33.727  33.192  28.897  1.00  0.00    -0.744 OA
ENDBRANCH  83  87
ENDBRANCH  56  80
BRANCH  68  91
ATOM     91  C   UNL A   1      43.693  35.484  31.918  1.00  0.00     0.023 A 
ATOM     92  C   UNL A   1      43.860  36.621  31.108  1.00  0.00     0.031 A 
ATOM     93  C   UNL A   1      43.645  35.666  33.312  1.00  0.00     0.131 A 
ATOM     94  C   UNL A   1      44.025  37.883  31.701  1.00  0.00     0.055 A 
ATOM     95  C   UNL A   1      43.757  36.930  33.893  1.00  0.00     0.041 A 
ATOM     96  F   UNL A   1      43.488  34.615  34.134  1.00  0.00    -0.206 F 
ATOM     97  C   UNL A   1      43.960  38.046  33.086  1.00  0.00     0.022 A 
BRANCH  94  98
ATOM     98  S   UNL A   1      44.408  39.302  30.638  1.00  0.00     0.124 S 
ATOM     99  O   UNL A   1      45.627  38.862  29.969  1.00  0.00    -0.237 OA
ATOM    100  O   UNL A   1      43.218  39.395  29.799  1.00  0.00    -0.237 OA
ATOM    101  O   UNL A   1      44.583  40.403  31.585  1.00  0.00    -0.744 OA
ENDBRANCH  94  98
ENDBRANCH  68  91
ENDBRANCH  42  43
ENDBRANCH  35  37
ENDBRANCH  34  35
ENDBRANCH  33  34
ENDBRANCH   1  33
TORSDOF 22
ENDMDL
MODEL 3
REMARK VINA RESULT:     -11.3      2.339      2.972
REMARK SMILES N#CC1=C(N)N2C(=O)[C@@H](CC(=O)OCCOCCOC(=O)c3ccc(-c4c5nc(c(-c6cc(S(=O)(=O)[O-])ccc6F)c6ccc([nH]6)c(-c6cc(S(=O)(=O)[O-])ccc6F)c6nc(c(-c7cc(S(=O)(=O)[O-])ccc7F)c7ccc4[nH]7)C=C6)C=C5)cc3)SC2=C(C#N)[C@H]1c1ccc(Cl)cc1
REMARK SMILES IDX 17 1 16 2 15 3 14 4 13 5 11 6 12 7 10 8 9 9 3 10 4 11 90 12
REMARK SMILES IDX 6 13 87 14 7 15 86 16 8 17 85 18 2 19 1 20 5 21 91 24 92 25
REMARK SMILES IDX 97 26 93 27 96 28 94 29 95 30 88 31 89 32 18 33 19 34 20 35
REMARK SMILES IDX 21 36 22 37 23 38 84 39 24 40 83 41 25 42 26 43 27 44 77 45
REMARK SMILES IDX 28 46 82 47 76 48 78 49 29 50 81 51 75 52 74 53 30 55 62 56
REMARK SMILES IDX 42 57 61 58 43 59 46 60 60 61 79 62 44 63 45 64 59 66 80 67
REMARK SMILES IDX 47 68 31 69 32 70 40 71 33 72 39 73 41 74 38 75 34 76 35 77
REMARK SMILES IDX 36 78 37 79 63 80 64 81 72 82 65 83 71 84 73 85 70 86 66 87
REMARK SMILES IDX 67 88 68 89 69 90 48 91 49 92 57 93 50 94 56 95 58 96 55 97
REMARK SMILES IDX 51 98 52 99 53 100 54 101
REMARK H PARENT 5 22 5 23 78 54 46 65
REMARK Flexibility Score: inf
ROOT
ATOM      1  C   UNL A   1      40.538  21.064  26.445  1.00  0.00     0.202 C 
ENDROOT
BRANCH   1   2
ATOM      2  O   UNL A   1      39.117  21.123  26.276  1.00  0.00    -0.374 OA
BRANCH   2   3
ATOM      3  C   UNL A   1      38.529  22.413  26.075  1.00  0.00     0.202 C 
BRANCH   3   4
ATOM      4  C   UNL A   1      37.056  22.408  25.644  1.00  0.00     0.261 C 
BRANCH   4   5
ATOM      5  O   UNL A   1      36.884  21.862  24.326  1.00  0.00    -0.463 OA
BRANCH   5   6
ATOM      6  C   UNL A   1      36.205  22.653  23.460  1.00  0.00     0.307 C 
ATOM      7  O   UNL A   1      36.555  22.927  22.321  1.00  0.00    -0.252 OA
BRANCH   6   8
ATOM      8  C   UNL A   1      34.844  22.995  23.996  1.00  0.00     0.147 C 
BRANCH   8   9
ATOM      9  C   UNL A   1      33.669  22.568  23.129  1.00  0.00     0.154 C 
ATOM     10  C   UNL A   1      31.033  26.542  23.158  1.00  0.00     0.083 C 
ATOM     11  C   UNL A   1      31.674  25.670  22.332  1.00  0.00     0.126 C 
ATOM     12  C   UNL A   1      30.926  26.295  24.663  1.00  0.00     0.107 C 
ATOM     13  N   UNL A   1      32.264  24.515  22.861  1.00  0.00    -0.258 N 
ATOM     14  C   UNL A   1      31.169  24.827  24.960  1.00  0.00     0.073 C 
ATOM     15  C   UNL A   1      33.150  23.658  22.184  1.00  0.00     0.247 C 
ATOM     16  C   UNL A   1      31.830  24.064  24.083  1.00  0.00     0.099 C 
ATOM     17  O   UNL A   1      33.508  23.758  21.016  1.00  0.00    -0.273 OA
ATOM     18  S   UNL A   1      32.257  22.396  24.307  1.00  0.00    -0.093 SA
BRANCH  10  19
ATOM     19  C   UNL A   1      30.328  27.747  22.558  1.00  0.00     0.100 C 
ATOM     20  N   UNL A   1      29.743  28.747  22.059  1.00  0.00    -0.193 NA
ENDBRANCH  10  19
BRANCH  11  21
ATOM     21  N   UNL A   1      31.749  25.876  20.985  1.00  0.00    -0.384 N 
ATOM     22  H   UNL A   1      31.580  26.773  20.614  1.00  0.00     0.158 HD
ATOM     23  H   UNL A   1      31.969  25.129  20.383  1.00  0.00     0.158 HD
ENDBRANCH  11  21
BRANCH  12  24
ATOM     24  C   UNL A   1      31.854  27.230  25.466  1.00  0.00    -0.034 A 
ATOM     25  C   UNL A   1      33.185  27.501  25.085  1.00  0.00     0.006 A 
ATOM     26  C   UNL A   1      31.376  27.851  26.637  1.00  0.00     0.006 A 
ATOM     27  C   UNL A   1      34.001  28.346  25.846  1.00  0.00     0.021 A 
ATOM     28  C   UNL A   1      32.186  28.715  27.383  1.00  0.00     0.021 A 
ATOM     29  C   UNL A   1      33.498  28.954  26.989  1.00  0.00     0.041 A 
ATOM     30  Cl  UNL A   1      34.503  29.992  27.921  1.00  0.00    -0.084 Cl
ENDBRANCH  12  24
BRANCH  14  31
ATOM     31  C   UNL A   1      30.610  24.181  26.217  1.00  0.00     0.098 C 
ATOM     32  N   UNL A   1      30.146  23.646  27.260  1.00  0.00    -0.193 NA
ENDBRANCH  14  31
ENDBRANCH   8   9
ENDBRANCH   6   8
ENDBRANCH   5   6
ENDBRANCH   4   5
ENDBRANCH   3   4
ENDBRANCH   2   3
ENDBRANCH   1   2
BRANCH   1  33
ATOM     33  C   UNL A   1      41.219  19.780  25.964  1.00  0.00     0.261 C 
BRANCH  33  34
ATOM     34  O   UNL A   1      42.609  19.805  26.321  1.00  0.00    -0.460 OA
BRANCH  34  35
ATOM     35  C   UNL A   1      43.443  20.184  25.331  1.00  0.00     0.338 C 
ATOM     36  O   UNL A   1      43.705  19.558  24.316  1.00  0.00    -0.246 OA
BRANCH  35  37
ATOM     37  C   UNL A   1      43.918  21.550  25.614  1.00  0.00     0.060 A 
ATOM     38  C   UNL A   1      44.520  21.799  26.852  1.00  0.00     0.016 A 
ATOM     39  C   UNL A   1      43.684  22.593  24.717  1.00  0.00     0.016 A 
ATOM     40  C   UNL A   1      44.841  23.108  27.216  1.00  0.00     0.010 A 
ATOM     41  C   UNL A   1      44.028  23.902  25.076  1.00  0.00     0.010 A 
ATOM     42  C   UNL A   1      44.568  24.174  26.345  1.00  0.00    -0.014 A 
BRANCH  42  43
ATOM     43  C   UNL A   1      44.715  25.575  26.826  1.00  0.00     0.031 A 
ATOM     44  C   UNL A   1      46.071  26.230  26.775  1.00  0.00     0.074 A 
ATOM     45  C   UNL A   1      43.650  26.272  27.261  1.00  0.00     0.049 A 
ATOM     46  N   UNL A   1      46.416  27.450  27.105  1.00  0.00    -0.248 NA
ATOM     47  C   UNL A   1      47.184  25.402  26.288  1.00  0.00     0.031 C 
ATOM     48  C   UNL A   1      42.283  25.761  27.347  1.00  0.00     0.029 A 
ATOM     49  N   UNL A   1      43.552  27.566  27.713  1.00  0.00    -0.354 N 
ATOM     50  C   UNL A   1      47.782  27.539  26.855  1.00  0.00     0.074 A 
ATOM     51  C   UNL A   1      48.209  26.233  26.396  1.00  0.00     0.031 C 
ATOM     52  C   UNL A   1      41.483  26.731  27.823  1.00  0.00     0.029 A 
ATOM     53  C   UNL A   1      42.282  27.924  28.099  1.00  0.00     0.049 A 
ATOM     54  H   UNL A   1      44.321  28.179  27.756  1.00  0.00     0.167 HD
ATOM     55  C   UNL A   1      48.603  28.610  26.980  1.00  0.00     0.034 A 
ATOM     56  C   UNL A   1      41.818  29.076  28.626  1.00  0.00     0.034 A 
ATOM     57  C   UNL A   1      48.178  29.906  27.451  1.00  0.00     0.049 A 
ATOM     58  C   UNL A   1      42.767  30.234  28.827  1.00  0.00     0.074 A 
ATOM     59  C   UNL A   1      48.929  31.061  27.591  1.00  0.00     0.029 A 
ATOM     60  N   UNL A   1      46.893  30.217  27.873  1.00  0.00    -0.354 N 
ATOM     61  N   UNL A   1      44.049  30.311  28.553  1.00  0.00    -0.248 NA
ATOM     62  C   UNL A   1      42.200  31.465  29.397  1.00  0.00     0.031 C 
ATOM     63  C   UNL A   1      48.116  32.049  28.157  1.00  0.00     0.029 A 
ATOM     64  C   UNL A   1      46.838  31.533  28.305  1.00  0.00     0.049 A 
ATOM     65  H   UNL A   1      46.131  29.593  27.867  1.00  0.00     0.167 HD
ATOM     66  C   UNL A   1      44.431  31.608  28.888  1.00  0.00     0.074 A 
ATOM     67  C   UNL A   1      43.244  32.281  29.371  1.00  0.00     0.031 C 
ATOM     68  C   UNL A   1      45.652  32.194  28.797  1.00  0.00     0.034 A 
BRANCH  55  69
ATOM     69  C   UNL A   1      50.057  28.412  26.630  1.00  0.00     0.023 A 
ATOM     70  C   UNL A   1      50.512  28.491  25.302  1.00  0.00     0.031 A 
ATOM     71  C   UNL A   1      50.998  28.127  27.635  1.00  0.00     0.131 A 
ATOM     72  C   UNL A   1      51.859  28.229  25.007  1.00  0.00     0.055 A 
ATOM     73  C   UNL A   1      52.349  27.937  27.344  1.00  0.00     0.041 A 
ATOM     74  F   UNL A   1      50.615  28.021  28.917  1.00  0.00    -0.206 F 
ATOM     75  C   UNL A   1      52.785  27.976  26.022  1.00  0.00     0.022 A 
BRANCH  72  76
ATOM     76  S   UNL A   1      52.360  28.108  23.269  1.00  0.00     0.124 S 
ATOM     77  O   UNL A   1      51.209  27.434  22.676  1.00  0.00    -0.237 OA
ATOM     78  O   UNL A   1      52.544  29.506  22.896  1.00  0.00    -0.237 OA
ATOM     79  O   UNL A   1      53.583  27.310  23.319  1.00  0.00    -0.744 OA
ENDBRANCH  72  76
ENDBRANCH  55  69
BRANCH  56  80
ATOM     80  C   UNL A   1      40.390  29.197  29.040  1.00  0.00     0.023 A 
ATOM     81  C   UNL A   1      40.010  29.094  30.387  1.00  0.00     0.031 A 
ATOM     82  C   UNL A   1      39.375  29.344  28.077  1.00  0.00     0.131 A 
ATOM     83  C   UNL A   1      38.649  29.089  30.731  1.00  0.00     0.055 A 
ATOM     84  C   UNL A   1      38.026  29.390  28.428  1.00  0.00     0.041 A 
ATOM     85  F   UNL A   1      39.686  29.445  26.774  1.00  0.00    -0.206 F 
ATOM     86  C   UNL A   1      37.655  29.249  29.762  1.00  0.00     0.022 A 
BRANCH  83  87
ATOM     87  S   UNL A   1      38.189  28.778  32.458  1.00  0.00     0.124 S 
ATOM     88  O   UNL A   1      36.790  29.189  32.472  1.00  0.00    -0.237 OA
ATOM     89  O   UNL A   1      38.438  27.345  32.581  1.00  0.00    -0.237 OA
ATOM     90  O   UNL A   1      39.101  29.634  33.213  1.00  0.00    -0.744 OA
ENDBRANCH  83  87
ENDBRANCH  56  80
BRANCH  68  91
ATOM     91  C   UNL A   1      45.751  33.647  29.190  1.00  0.00     0.023 A 
ATOM     92  C   UNL A   1      45.737  34.677  28.233  1.00  0.00     0.031 A 
ATOM     93  C   UNL A   1      45.872  34.005  30.545  1.00  0.00     0.131 A 
ATOM     94  C   UNL A   1      45.893  36.012  28.640  1.00  0.00     0.055 A 
ATOM     95  C   UNL A   1      45.974  35.338  30.948  1.00  0.00     0.041 A 
ATOM     96  F   UNL A   1      45.893  33.062  31.502  1.00  0.00    -0.206 F 
ATOM     97  C   UNL A   1      45.997  36.349  29.992  1.00  0.00     0.022 A 
BRANCH  94  98
ATOM     98  S   UNL A   1      46.039  37.299  27.371  1.00  0.00     0.124 S 
ATOM     99  O   UNL A   1      44.727  37.933  27.426  1.00  0.00    -0.237 OA
ATOM    100  O   UNL A   1      47.155  38.099  27.864  1.00  0.00    -0.237 OA
ATOM    101  O   UNL A   1      46.312  36.546  26.148  1.00  0.00    -0.744 OA
ENDBRANCH  94  98
ENDBRANCH  68  91
ENDBRANCH  42  43
ENDBRANCH  35  37
ENDBRANCH  34  35
ENDBRANCH  33  34
ENDBRANCH   1  33
TORSDOF 22
ENDMDL
