MODEL 1
REMARK VINA RESULT:     -11.0      0.000      0.000
REMARK SMILES CO[C@@H]1C[NH2+][C@@H](O[C@@H]2C[C@@H](C(=O)OCCOCCOC(=O)c3ccc(-c4c5nc(c(-c6cc(S(=O)(=O)[O-])ccc6F)c6ccc([nH]6)c(-c6cc(S(=O)(=O)[O-])ccc6F)c6nc(c(-c7cc(S(=O)(=O)[O-])ccc7F)c7ccc4[nH]7)C=C6)C=C5)cc3)N(C(=O)OC(C)(C)C)C2)c2cc(Cl)ccc21
REMARK SMILES IDX 16 1 15 2 14 3 13 4 11 5 12 6 10 7 8 8 9 9 93 10 85 11 7 12
REMARK SMILES IDX 6 13 3 14 4 15 100 16 5 17 94 18 99 19 95 22 98 23 96 24
REMARK SMILES IDX 97 25 2 26 1 27 86 28 87 29 88 30 89 31 90 32 91 33 92 34
REMARK SMILES IDX 17 35 18 36 19 37 20 38 21 39 22 40 23 41 84 42 24 43 83 44
REMARK SMILES IDX 25 45 26 46 27 47 77 48 28 49 82 50 76 51 78 52 29 53 81 54
REMARK SMILES IDX 75 55 74 56 30 58 62 59 42 60 61 61 43 62 46 63 60 64 79 65
REMARK SMILES IDX 44 66 45 67 59 69 80 70 47 71 31 72 32 73 40 74 33 75 39 76
REMARK SMILES IDX 41 77 38 78 34 79 35 80 36 81 37 82 63 83 64 84 72 85 65 86
REMARK SMILES IDX 71 87 73 88 70 89 66 90 67 91 68 92 69 93 48 94 49 95 57 96
REMARK SMILES IDX 50 97 56 98 58 99 55 100 51 101 52 102 53 103 54 104
REMARK H PARENT 5 20 5 21 78 57 46 68
REMARK Flexibility Score: inf
ROOT
ATOM      1  O   UNL A   1      37.606  20.401  25.389  1.00  0.00    -0.374 OA
ENDROOT
BRANCH   1   2
ATOM      2  C   UNL A   1      36.884  21.625  25.333  1.00  0.00     0.202 C 
BRANCH   2   3
ATOM      3  C   UNL A   1      37.397  22.997  25.807  1.00  0.00     0.261 C 
BRANCH   3   4
ATOM      4  O   UNL A   1      36.621  24.119  25.395  1.00  0.00    -0.462 OA
BRANCH   4   5
ATOM      5  C   UNL A   1      35.310  23.984  25.711  1.00  0.00     0.329 C 
ATOM      6  O   UNL A   1      34.889  23.727  26.836  1.00  0.00    -0.250 OA
BRANCH   5   7
ATOM      7  C   UNL A   1      34.377  24.315  24.553  1.00  0.00     0.201 C 
ATOM      8  C   UNL A   1      33.529  24.215  22.357  1.00  0.00     0.147 C 
ATOM      9  C   UNL A   1      34.687  23.683  23.206  1.00  0.00     0.071 C 
ATOM     10  C   UNL A   1      33.359  25.662  22.866  1.00  0.00     0.156 C 
ATOM     11  N   UNL A   1      33.876  25.652  24.229  1.00  0.00    -0.292 N 
BRANCH   8  12
ATOM     12  O   UNL A   1      32.347  23.420  22.255  1.00  0.00    -0.320 OA
BRANCH  12  13
ATOM     13  C   UNL A   1      31.513  22.850  23.266  1.00  0.00     0.354 C 
ATOM     14  C   UNL A   1      31.373  23.617  26.142  1.00  0.00     0.203 C 
ATOM     15  C   UNL A   1      30.715  24.426  24.983  1.00  0.00     0.300 C 
ATOM     16  C   UNL A   1      32.015  22.295  25.712  1.00  0.00    -0.002 A 
ATOM     17  N   UNL A   1      30.451  23.728  23.728  1.00  0.00    -0.315 N 
ATOM     18  C   UNL A   1      32.120  21.964  24.338  1.00  0.00     0.046 A 
ATOM     19  C   UNL A   1      32.717  21.522  26.654  1.00  0.00     0.009 A 
ATOM     20  H   UNL A   1      30.288  24.430  23.006  1.00  0.00     0.349 HD
ATOM     21  H   UNL A   1      29.647  23.126  23.905  1.00  0.00     0.349 HD
ATOM     22  C   UNL A   1      32.849  20.822  23.955  1.00  0.00     0.033 A 
ATOM     23  C   UNL A   1      33.485  20.425  26.251  1.00  0.00     0.021 A 
ATOM     24  C   UNL A   1      33.534  20.071  24.907  1.00  0.00     0.041 A 
ATOM     25  Cl  UNL A   1      34.493  18.734  24.404  1.00  0.00    -0.084 Cl
BRANCH  14  26
ATOM     26  O   UNL A   1      30.627  23.557  27.357  1.00  0.00    -0.371 OA
ATOM     27  C   UNL A   1      29.377  22.906  27.291  1.00  0.00     0.196 C 
ENDBRANCH  14  26
ENDBRANCH  12  13
ENDBRANCH   8  12
BRANCH  11  28
ATOM     28  C   UNL A   1      33.496  26.624  25.137  1.00  0.00     0.411 C 
ATOM     29  O   UNL A   1      34.091  26.835  26.185  1.00  0.00    -0.224 OA
BRANCH  28  30
ATOM     30  O   UNL A   1      32.396  27.288  24.724  1.00  0.00    -0.444 OA
BRANCH  30  31
ATOM     31  C   UNL A   1      32.002  28.605  25.194  1.00  0.00     0.106 C 
ATOM     32  C   UNL A   1      33.176  29.586  25.259  1.00  0.00     0.056 C 
ATOM     33  C   UNL A   1      30.861  29.166  24.344  1.00  0.00     0.056 C 
ATOM     34  C   UNL A   1      31.488  28.373  26.625  1.00  0.00     0.056 C 
ENDBRANCH  30  31
ENDBRANCH  28  30
ENDBRANCH  11  28
ENDBRANCH   5   7
ENDBRANCH   4   5
ENDBRANCH   3   4
ENDBRANCH   2   3
ENDBRANCH   1   2
BRANCH   1  35
ATOM     35  C   UNL A   1      38.992  20.318  25.132  1.00  0.00     0.202 C 
BRANCH  35  36
ATOM     36  C   UNL A   1      39.929  19.378  25.880  1.00  0.00     0.261 C 
BRANCH  36  37
ATOM     37  O   UNL A   1      41.286  19.541  25.527  1.00  0.00    -0.460 OA
BRANCH  37  38
ATOM     38  C   UNL A   1      42.099  19.663  26.603  1.00  0.00     0.338 C 
ATOM     39  O   UNL A   1      42.798  18.804  27.112  1.00  0.00    -0.246 OA
BRANCH  38  40
ATOM     40  C   UNL A   1      42.165  21.096  26.902  1.00  0.00     0.060 A 
ATOM     41  C   UNL A   1      42.102  21.550  28.223  1.00  0.00     0.016 A 
ATOM     42  C   UNL A   1      42.179  21.981  25.819  1.00  0.00     0.016 A 
ATOM     43  C   UNL A   1      42.081  22.914  28.463  1.00  0.00     0.010 A 
ATOM     44  C   UNL A   1      42.121  23.342  26.056  1.00  0.00     0.010 A 
ATOM     45  C   UNL A   1      42.119  23.805  27.378  1.00  0.00    -0.014 A 
BRANCH  45  46
ATOM     46  C   UNL A   1      42.474  25.210  27.619  1.00  0.00     0.031 A 
ATOM     47  C   UNL A   1      41.505  26.173  28.202  1.00  0.00     0.074 A 
ATOM     48  C   UNL A   1      43.712  25.564  27.229  1.00  0.00     0.049 A 
ATOM     49  N   UNL A   1      41.702  27.421  28.517  1.00  0.00    -0.248 NA
ATOM     50  C   UNL A   1      40.141  25.685  28.460  1.00  0.00     0.031 C 
ATOM     51  C   UNL A   1      44.676  24.649  26.607  1.00  0.00     0.029 A 
ATOM     52  N   UNL A   1      44.370  26.757  27.281  1.00  0.00    -0.354 N 
ATOM     53  C   UNL A   1      40.497  27.873  29.034  1.00  0.00     0.074 A 
ATOM     54  C   UNL A   1      39.558  26.774  28.946  1.00  0.00     0.031 C 
ATOM     55  C   UNL A   1      45.807  25.313  26.346  1.00  0.00     0.029 A 
ATOM     56  C   UNL A   1      45.639  26.701  26.757  1.00  0.00     0.049 A 
ATOM     57  H   UNL A   1      43.975  27.578  27.655  1.00  0.00     0.167 HD
ATOM     58  C   UNL A   1      40.230  29.098  29.543  1.00  0.00     0.034 A 
ATOM     59  C   UNL A   1      46.568  27.666  26.630  1.00  0.00     0.034 A 
ATOM     60  C   UNL A   1      41.204  30.162  29.566  1.00  0.00     0.049 A 
ATOM     61  C   UNL A   1      46.238  29.016  27.198  1.00  0.00     0.074 A 
ATOM     62  C   UNL A   1      41.064  31.439  30.080  1.00  0.00     0.029 A 
ATOM     63  N   UNL A   1      42.491  30.081  29.044  1.00  0.00    -0.354 N 
ATOM     64  N   UNL A   1      45.130  29.409  27.786  1.00  0.00    -0.248 NA
ATOM     65  C   UNL A   1      47.275  30.048  27.115  1.00  0.00     0.031 C 
ATOM     66  C   UNL A   1      42.233  32.147  29.803  1.00  0.00     0.029 A 
ATOM     67  C   UNL A   1      43.143  31.293  29.196  1.00  0.00     0.049 A 
ATOM     68  H   UNL A   1      42.880  29.279  28.626  1.00  0.00     0.167 HD
ATOM     69  C   UNL A   1      45.345  30.727  28.169  1.00  0.00     0.074 A 
ATOM     70  C   UNL A   1      46.700  31.053  27.764  1.00  0.00     0.031 C 
ATOM     71  C   UNL A   1      44.501  31.587  28.792  1.00  0.00     0.034 A 
BRANCH  58  72
ATOM     72  C   UNL A   1      38.865  29.365  30.127  1.00  0.00     0.023 A 
ATOM     73  C   UNL A   1      37.928  30.137  29.416  1.00  0.00     0.031 A 
ATOM     74  C   UNL A   1      38.544  28.978  31.440  1.00  0.00     0.131 A 
ATOM     75  C   UNL A   1      36.736  30.533  30.034  1.00  0.00     0.055 A 
ATOM     76  C   UNL A   1      37.335  29.339  32.039  1.00  0.00     0.041 A 
ATOM     77  F   UNL A   1      39.402  28.241  32.165  1.00  0.00    -0.206 F 
ATOM     78  C   UNL A   1      36.431  30.132  31.339  1.00  0.00     0.022 A 
BRANCH  75  79
ATOM     79  S   UNL A   1      35.565  31.637  29.197  1.00  0.00     0.124 S 
ATOM     80  O   UNL A   1      34.859  30.710  28.315  1.00  0.00    -0.237 OA
ATOM     81  O   UNL A   1      34.781  32.153  30.315  1.00  0.00    -0.237 OA
ATOM     82  O   UNL A   1      36.419  32.607  28.521  1.00  0.00    -0.744 OA
ENDBRANCH  75  79
ENDBRANCH  58  72
BRANCH  59  83
ATOM     83  C   UNL A   1      47.891  27.317  26.039  1.00  0.00     0.023 A 
ATOM     84  C   UNL A   1      48.166  27.573  24.682  1.00  0.00     0.031 A 
ATOM     85  C   UNL A   1      48.830  26.578  26.776  1.00  0.00     0.131 A 
ATOM     86  C   UNL A   1      49.314  27.030  24.089  1.00  0.00     0.055 A 
ATOM     87  C   UNL A   1      50.008  26.102  26.199  1.00  0.00     0.041 A 
ATOM     88  F   UNL A   1      48.598  26.282  28.063  1.00  0.00    -0.206 F 
ATOM     89  C   UNL A   1      50.245  26.311  24.843  1.00  0.00     0.022 A 
BRANCH  86  90
ATOM     90  S   UNL A   1      49.557  27.106  22.291  1.00  0.00     0.124 S 
ATOM     91  O   UNL A   1      48.715  26.008  21.826  1.00  0.00    -0.237 OA
ATOM     92  O   UNL A   1      49.073  28.449  21.980  1.00  0.00    -0.237 OA
ATOM     93  O   UNL A   1      50.994  26.914  22.128  1.00  0.00    -0.744 OA
ENDBRANCH  86  90
ENDBRANCH  59  83
BRANCH  71  94
ATOM     94  C   UNL A   1      45.001  32.978  29.090  1.00  0.00     0.023 A 
ATOM     95  C   UNL A   1      45.055  33.934  28.058  1.00  0.00     0.031 A 
ATOM     96  C   UNL A   1      45.575  33.299  30.331  1.00  0.00     0.131 A 
ATOM     97  C   UNL A   1      45.719  35.146  28.269  1.00  0.00     0.055 A 
ATOM     98  C   UNL A   1      46.185  34.533  30.555  1.00  0.00     0.041 A 
ATOM     99  F   UNL A   1      45.557  32.415  31.341  1.00  0.00    -0.206 F 
ATOM    100  C   UNL A   1      46.275  35.455  29.516  1.00  0.00     0.022 A 
BRANCH  97 101
ATOM    101  S   UNL A   1      45.982  36.314  26.908  1.00  0.00     0.124 S 
ATOM    102  O   UNL A   1      45.717  35.479  25.739  1.00  0.00    -0.237 OA
ATOM    103  O   UNL A   1      44.979  37.338  27.185  1.00  0.00    -0.237 OA
ATOM    104  O   UNL A   1      47.370  36.736  27.068  1.00  0.00    -0.744 OA
ENDBRANCH  97 101
ENDBRANCH  71  94
ENDBRANCH  45  46
ENDBRANCH  38  40
ENDBRANCH  37  38
ENDBRANCH  36  37
ENDBRANCH  35  36
ENDBRANCH   1  35
TORSDOF 23
ENDMDL
MODEL 2
REMARK VINA RESULT:     -10.8      4.976      8.681
REMARK SMILES CO[C@@H]1C[NH2+][C@@H](O[C@@H]2C[C@@H](C(=O)OCCOCCOC(=O)c3ccc(-c4c5nc(c(-c6cc(S(=O)(=O)[O-])ccc6F)c6ccc([nH]6)c(-c6cc(S(=O)(=O)[O-])ccc6F)c6nc(c(-c7cc(S(=O)(=O)[O-])ccc7F)c7ccc4[nH]7)C=C6)C=C5)cc3)N(C(=O)OC(C)(C)C)C2)c2cc(Cl)ccc21
REMARK SMILES IDX 16 1 15 2 14 3 13 4 11 5 12 6 10 7 8 8 9 9 93 10 85 11 7 12
REMARK SMILES IDX 6 13 3 14 4 15 100 16 5 17 94 18 99 19 95 22 98 23 96 24
REMARK SMILES IDX 97 25 2 26 1 27 86 28 87 29 88 30 89 31 90 32 91 33 92 34
REMARK SMILES IDX 17 35 18 36 19 37 20 38 21 39 22 40 23 41 84 42 24 43 83 44
REMARK SMILES IDX 25 45 26 46 27 47 77 48 28 49 82 50 76 51 78 52 29 53 81 54
REMARK SMILES IDX 75 55 74 56 30 58 62 59 42 60 61 61 43 62 46 63 60 64 79 65
REMARK SMILES IDX 44 66 45 67 59 69 80 70 47 71 31 72 32 73 40 74 33 75 39 76
REMARK SMILES IDX 41 77 38 78 34 79 35 80 36 81 37 82 63 83 64 84 72 85 65 86
REMARK SMILES IDX 71 87 73 88 70 89 66 90 67 91 68 92 69 93 48 94 49 95 57 96
REMARK SMILES IDX 50 97 56 98 58 99 55 100 51 101 52 102 53 103 54 104
REMARK H PARENT 5 20 5 21 78 57 46 68
REMARK Flexibility Score: inf
ROOT
ATOM      1  O   UNL A   1      34.589  31.716  27.539  1.00  0.00    -0.374 OA
ENDROOT
BRANCH   1   2
ATOM      2  C   UNL A   1      34.111  30.458  27.077  1.00  0.00     0.202 C 
BRANCH   2   3
ATOM      3  C   UNL A   1      32.912  30.240  26.137  1.00  0.00     0.261 C 
BRANCH   3   4
ATOM      4  O   UNL A   1      33.031  29.144  25.233  1.00  0.00    -0.462 OA
BRANCH   4   5
ATOM      5  C   UNL A   1      32.078  28.202  25.438  1.00  0.00     0.329 C 
ATOM      6  O   UNL A   1      31.288  28.205  26.378  1.00  0.00    -0.250 OA
BRANCH   5   7
ATOM      7  C   UNL A   1      31.984  27.188  24.304  1.00  0.00     0.201 C 
ATOM      8  C   UNL A   1      32.771  25.650  22.703  1.00  0.00     0.147 C 
ATOM      9  C   UNL A   1      33.289  26.630  23.759  1.00  0.00     0.071 C 
ATOM     10  C   UNL A   1      31.569  26.398  22.090  1.00  0.00     0.156 C 
ATOM     11  N   UNL A   1      31.115  27.311  23.132  1.00  0.00    -0.292 N 
BRANCH   8  12
ATOM     12  O   UNL A   1      32.562  24.291  23.090  1.00  0.00    -0.320 OA
BRANCH  12  13
ATOM     13  C   UNL A   1      33.300  23.106  22.783  1.00  0.00     0.354 C 
ATOM     14  C   UNL A   1      32.929  20.388  23.947  1.00  0.00     0.203 C 
ATOM     15  C   UNL A   1      32.006  21.011  22.856  1.00  0.00     0.300 C 
ATOM     16  C   UNL A   1      34.150  21.238  24.309  1.00  0.00    -0.002 A 
ATOM     17  N   UNL A   1      32.543  22.105  22.051  1.00  0.00    -0.315 N 
ATOM     18  C   UNL A   1      34.290  22.548  23.788  1.00  0.00     0.046 A 
ATOM     19  C   UNL A   1      35.007  20.822  25.345  1.00  0.00     0.009 A 
ATOM     20  H   UNL A   1      31.760  22.574  21.595  1.00  0.00     0.349 HD
ATOM     21  H   UNL A   1      33.201  21.677  21.399  1.00  0.00     0.349 HD
ATOM     22  C   UNL A   1      35.335  23.370  24.253  1.00  0.00     0.033 A 
ATOM     23  C   UNL A   1      36.002  21.673  25.836  1.00  0.00     0.021 A 
ATOM     24  C   UNL A   1      36.172  22.934  25.277  1.00  0.00     0.041 A 
ATOM     25  Cl  UNL A   1      37.383  23.991  25.892  1.00  0.00    -0.084 Cl
BRANCH  14  26
ATOM     26  O   UNL A   1      33.186  18.990  23.816  1.00  0.00    -0.371 OA
ATOM     27  C   UNL A   1      32.512  18.144  24.722  1.00  0.00     0.196 C 
ENDBRANCH  14  26
ENDBRANCH  12  13
ENDBRANCH   8  12
BRANCH  11  28
ATOM     28  C   UNL A   1      29.826  27.814  23.120  1.00  0.00     0.411 C 
ATOM     29  O   UNL A   1      28.897  27.296  23.723  1.00  0.00    -0.224 OA
BRANCH  28  30
ATOM     30  O   UNL A   1      29.732  28.923  22.358  1.00  0.00    -0.444 OA
BRANCH  30  31
ATOM     31  C   UNL A   1      28.771  29.992  22.571  1.00  0.00     0.106 C 
ATOM     32  C   UNL A   1      27.355  29.472  22.832  1.00  0.00     0.056 C 
ATOM     33  C   UNL A   1      29.233  30.922  23.695  1.00  0.00     0.056 C 
ATOM     34  C   UNL A   1      28.760  30.778  21.249  1.00  0.00     0.056 C 
ENDBRANCH  30  31
ENDBRANCH  28  30
ENDBRANCH  11  28
ENDBRANCH   5   7
ENDBRANCH   4   5
ENDBRANCH   3   4
ENDBRANCH   2   3
ENDBRANCH   1   2
BRANCH   1  35
ATOM     35  C   UNL A   1      33.728  32.768  27.922  1.00  0.00     0.202 C 
BRANCH  35  36
ATOM     36  C   UNL A   1      34.211  34.041  28.604  1.00  0.00     0.261 C 
BRANCH  36  37
ATOM     37  O   UNL A   1      35.430  33.878  29.297  1.00  0.00    -0.460 OA
BRANCH  37  38
ATOM     38  C   UNL A   1      35.298  33.147  30.429  1.00  0.00     0.338 C 
ATOM     39  O   UNL A   1      34.303  33.014  31.120  1.00  0.00    -0.246 OA
BRANCH  38  40
ATOM     40  C   UNL A   1      36.520  32.346  30.540  1.00  0.00     0.060 A 
ATOM     41  C   UNL A   1      37.660  32.684  29.804  1.00  0.00     0.016 A 
ATOM     42  C   UNL A   1      36.462  31.183  31.315  1.00  0.00     0.016 A 
ATOM     43  C   UNL A   1      38.769  31.856  29.868  1.00  0.00     0.010 A 
ATOM     44  C   UNL A   1      37.555  30.337  31.350  1.00  0.00     0.010 A 
ATOM     45  C   UNL A   1      38.722  30.701  30.664  1.00  0.00    -0.014 A 
BRANCH  45  46
ATOM     46  C   UNL A   1      39.978  30.037  31.036  1.00  0.00     0.031 A 
ATOM     47  C   UNL A   1      40.795  30.497  32.188  1.00  0.00     0.074 A 
ATOM     48  C   UNL A   1      40.352  29.025  30.232  1.00  0.00     0.049 A 
ATOM     49  N   UNL A   1      41.890  29.972  32.658  1.00  0.00    -0.248 NA
ATOM     50  C   UNL A   1      40.337  31.699  32.902  1.00  0.00     0.031 C 
ATOM     51  C   UNL A   1      39.592  28.577  29.059  1.00  0.00     0.029 A 
ATOM     52  N   UNL A   1      41.441  28.205  30.258  1.00  0.00    -0.354 N 
ATOM     53  C   UNL A   1      42.251  30.761  33.741  1.00  0.00     0.074 A 
ATOM     54  C   UNL A   1      41.279  31.831  33.829  1.00  0.00     0.031 C 
ATOM     55  C   UNL A   1      40.233  27.553  28.485  1.00  0.00     0.029 A 
ATOM     56  C   UNL A   1      41.457  27.291  29.231  1.00  0.00     0.049 A 
ATOM     57  H   UNL A   1      42.146  28.260  30.943  1.00  0.00     0.167 HD
ATOM     58  C   UNL A   1      43.297  30.576  34.579  1.00  0.00     0.034 A 
ATOM     59  C   UNL A   1      42.361  26.342  28.930  1.00  0.00     0.034 A 
ATOM     60  C   UNL A   1      44.251  29.507  34.411  1.00  0.00     0.049 A 
ATOM     61  C   UNL A   1      43.515  26.167  29.875  1.00  0.00     0.074 A 
ATOM     62  C   UNL A   1      45.337  29.197  35.209  1.00  0.00     0.029 A 
ATOM     63  N   UNL A   1      44.242  28.582  33.372  1.00  0.00    -0.354 N 
ATOM     64  N   UNL A   1      43.793  26.850  30.963  1.00  0.00    -0.248 NA
ATOM     65  C   UNL A   1      44.464  25.091  29.581  1.00  0.00     0.031 C 
ATOM     66  C   UNL A   1      46.023  28.138  34.613  1.00  0.00     0.029 A 
ATOM     67  C   UNL A   1      45.320  27.722  33.492  1.00  0.00     0.049 A 
ATOM     68  H   UNL A   1      43.568  28.545  32.656  1.00  0.00     0.167 HD
ATOM     69  C   UNL A   1      44.934  26.269  31.500  1.00  0.00     0.074 A 
ATOM     70  C   UNL A   1      45.279  25.163  30.626  1.00  0.00     0.031 C 
ATOM     71  C   UNL A   1      45.634  26.619  32.608  1.00  0.00     0.034 A 
BRANCH  58  72
ATOM     72  C   UNL A   1      43.470  31.512  35.748  1.00  0.00     0.023 A 
ATOM     73  C   UNL A   1      42.504  31.556  36.770  1.00  0.00     0.031 A 
ATOM     74  C   UNL A   1      44.511  32.457  35.779  1.00  0.00     0.131 A 
ATOM     75  C   UNL A   1      42.575  32.550  37.755  1.00  0.00     0.055 A 
ATOM     76  C   UNL A   1      44.602  33.419  36.787  1.00  0.00     0.041 A 
ATOM     77  F   UNL A   1      45.459  32.461  34.828  1.00  0.00    -0.206 F 
ATOM     78  C   UNL A   1      43.622  33.477  37.773  1.00  0.00     0.022 A 
BRANCH  75  79
ATOM     79  S   UNL A   1      41.277  32.721  39.011  1.00  0.00     0.124 S 
ATOM     80  O   UNL A   1      41.284  34.162  39.254  1.00  0.00    -0.237 OA
ATOM     81  O   UNL A   1      40.103  32.213  38.307  1.00  0.00    -0.237 OA
ATOM     82  O   UNL A   1      41.753  31.904  40.121  1.00  0.00    -0.744 OA
ENDBRANCH  75  79
ENDBRANCH  58  72
BRANCH  59  83
ATOM     83  C   UNL A   1      42.113  25.460  27.755  1.00  0.00     0.023 A 
ATOM     84  C   UNL A   1      41.466  24.218  27.907  1.00  0.00     0.031 A 
ATOM     85  C   UNL A   1      42.664  25.769  26.501  1.00  0.00     0.131 A 
ATOM     86  C   UNL A   1      41.450  23.305  26.843  1.00  0.00     0.055 A 
ATOM     87  C   UNL A   1      42.583  24.885  25.423  1.00  0.00     0.041 A 
ATOM     88  F   UNL A   1      43.319  26.925  26.316  1.00  0.00    -0.206 F 
ATOM     89  C   UNL A   1      41.990  23.638  25.598  1.00  0.00     0.022 A 
BRANCH  86  90
ATOM     90  S   UNL A   1      40.873  21.601  27.089  1.00  0.00     0.124 S 
ATOM     91  O   UNL A   1      40.925  21.470  28.542  1.00  0.00    -0.237 OA
ATOM     92  O   UNL A   1      39.534  21.653  26.507  1.00  0.00    -0.237 OA
ATOM     93  O   UNL A   1      41.839  20.799  26.347  1.00  0.00    -0.744 OA
ENDBRANCH  86  90
ENDBRANCH  59  83
BRANCH  71  94
ATOM     94  C   UNL A   1      46.852  25.804  32.963  1.00  0.00     0.023 A 
ATOM     95  C   UNL A   1      46.733  24.731  33.866  1.00  0.00     0.031 A 
ATOM     96  C   UNL A   1      48.137  26.190  32.547  1.00  0.00     0.131 A 
ATOM     97  C   UNL A   1      47.884  24.116  34.369  1.00  0.00     0.055 A 
ATOM     98  C   UNL A   1      49.279  25.535  33.007  1.00  0.00     0.041 A 
ATOM     99  F   UNL A   1      48.301  27.214  31.695  1.00  0.00    -0.206 F 
ATOM    100  C   UNL A   1      49.156  24.505  33.936  1.00  0.00     0.022 A 
BRANCH  97 101
ATOM    101  S   UNL A   1      47.777  22.870  35.682  1.00  0.00     0.124 S 
ATOM    102  O   UNL A   1      49.175  22.730  36.079  1.00  0.00    -0.237 OA
ATOM    103  O   UNL A   1      46.912  23.527  36.658  1.00  0.00    -0.237 OA
ATOM    104  O   UNL A   1      47.202  21.705  35.017  1.00  0.00    -0.744 OA
ENDBRANCH  97 101
ENDBRANCH  71  94
ENDBRANCH  45  46
ENDBRANCH  38  40
ENDBRANCH  37  38
ENDBRANCH  36  37
ENDBRANCH  35  36
ENDBRANCH   1  35
TORSDOF 23
ENDMDL
MODEL 3
REMARK VINA RESULT:     -10.8      5.647     10.506
REMARK SMILES CO[C@@H]1C[NH2+][C@@H](O[C@@H]2C[C@@H](C(=O)OCCOCCOC(=O)c3ccc(-c4c5nc(c(-c6cc(S(=O)(=O)[O-])ccc6F)c6ccc([nH]6)c(-c6cc(S(=O)(=O)[O-])ccc6F)c6nc(c(-c7cc(S(=O)(=O)[O-])ccc7F)c7ccc4[nH]7)C=C6)C=C5)cc3)N(C(=O)OC(C)(C)C)C2)c2cc(Cl)ccc21
REMARK SMILES IDX 16 1 15 2 14 3 13 4 11 5 12 6 10 7 8 8 9 9 93 10 85 11 7 12
REMARK SMILES IDX 6 13 3 14 4 15 100 16 5 17 94 18 99 19 95 22 98 23 96 24
REMARK SMILES IDX 97 25 2 26 1 27 86 28 87 29 88 30 89 31 90 32 91 33 92 34
REMARK SMILES IDX 17 35 18 36 19 37 20 38 21 39 22 40 23 41 84 42 24 43 83 44
REMARK SMILES IDX 25 45 26 46 27 47 77 48 28 49 82 50 76 51 78 52 29 53 81 54
REMARK SMILES IDX 75 55 74 56 30 58 62 59 42 60 61 61 43 62 46 63 60 64 79 65
REMARK SMILES IDX 44 66 45 67 59 69 80 70 47 71 31 72 32 73 40 74 33 75 39 76
REMARK SMILES IDX 41 77 38 78 34 79 35 80 36 81 37 82 63 83 64 84 72 85 65 86
REMARK SMILES IDX 71 87 73 88 70 89 66 90 67 91 68 92 69 93 48 94 49 95 57 96
REMARK SMILES IDX 50 97 56 98 58 99 55 100 51 101 52 102 53 103 54 104
REMARK H PARENT 5 20 5 21 78 57 46 68
REMARK Flexibility Score: inf
ROOT
ATOM      1  O   UNL A   1      33.695  31.970  27.568  1.00  0.00    -0.374 OA
ENDROOT
BRANCH   1   2
ATOM      2  C   UNL A   1      32.958  30.782  27.307  1.00  0.00     0.202 C 
BRANCH   2   3
ATOM      3  C   UNL A   1      32.017  30.550  26.110  1.00  0.00     0.261 C 
BRANCH   3   4
ATOM      4  O   UNL A   1      32.379  29.479  25.242  1.00  0.00    -0.462 OA
BRANCH   4   5
ATOM      5  C   UNL A   1      31.769  28.316  25.576  1.00  0.00     0.329 C 
ATOM      6  O   UNL A   1      31.161  28.126  26.626  1.00  0.00    -0.250 OA
BRANCH   5   7
ATOM      7  C   UNL A   1      31.790  27.284  24.455  1.00  0.00     0.201 C 
ATOM      8  C   UNL A   1      32.742  25.768  22.923  1.00  0.00     0.147 C 
ATOM      9  C   UNL A   1      33.149  26.787  23.991  1.00  0.00     0.071 C 
ATOM     10  C   UNL A   1      31.539  26.446  22.234  1.00  0.00     0.156 C 
ATOM     11  N   UNL A   1      30.982  27.348  23.235  1.00  0.00    -0.292 N 
BRANCH   8  12
ATOM     12  O   UNL A   1      32.580  24.406  23.318  1.00  0.00    -0.320 OA
BRANCH  12  13
ATOM     13  C   UNL A   1      33.302  23.231  22.943  1.00  0.00     0.354 C 
ATOM     14  C   UNL A   1      32.938  20.467  23.997  1.00  0.00     0.203 C 
ATOM     15  C   UNL A   1      31.994  21.143  22.956  1.00  0.00     0.300 C 
ATOM     16  C   UNL A   1      34.173  21.292  24.367  1.00  0.00    -0.002 A 
ATOM     17  N   UNL A   1      32.521  22.267  22.186  1.00  0.00    -0.315 N 
ATOM     18  C   UNL A   1      34.311  22.623  23.900  1.00  0.00     0.046 A 
ATOM     19  C   UNL A   1      35.051  20.827  25.362  1.00  0.00     0.009 A 
ATOM     20  H   UNL A   1      31.731  22.761  21.770  1.00  0.00     0.349 HD
ATOM     21  H   UNL A   1      33.160  21.864  21.502  1.00  0.00     0.349 HD
ATOM     22  C   UNL A   1      35.373  23.417  24.375  1.00  0.00     0.033 A 
ATOM     23  C   UNL A   1      36.063  21.648  25.867  1.00  0.00     0.021 A 
ATOM     24  C   UNL A   1      36.230  22.932  25.359  1.00  0.00     0.041 A 
ATOM     25  Cl  UNL A   1      37.463  23.953  25.990  1.00  0.00    -0.084 Cl
BRANCH  14  26
ATOM     26  O   UNL A   1      33.181  19.075  23.800  1.00  0.00    -0.371 OA
ATOM     27  C   UNL A   1      32.557  18.197  24.710  1.00  0.00     0.196 C 
ENDBRANCH  14  26
ENDBRANCH  12  13
ENDBRANCH   8  12
BRANCH  11  28
ATOM     28  C   UNL A   1      29.672  27.783  23.145  1.00  0.00     0.411 C 
ATOM     29  O   UNL A   1      28.758  27.310  23.806  1.00  0.00    -0.224 OA
BRANCH  28  30
ATOM     30  O   UNL A   1      29.537  28.773  22.238  1.00  0.00    -0.444 OA
BRANCH  30  31
ATOM     31  C   UNL A   1      28.734  29.967  22.432  1.00  0.00     0.106 C 
ATOM     32  C   UNL A   1      28.696  30.863  21.190  1.00  0.00     0.056 C 
ATOM     33  C   UNL A   1      27.322  29.604  22.893  1.00  0.00     0.056 C 
ATOM     34  C   UNL A   1      29.443  30.737  23.559  1.00  0.00     0.056 C 
ENDBRANCH  30  31
ENDBRANCH  28  30
ENDBRANCH  11  28
ENDBRANCH   5   7
ENDBRANCH   4   5
ENDBRANCH   3   4
ENDBRANCH   2   3
ENDBRANCH   1   2
BRANCH   1  35
ATOM     35  C   UNL A   1      33.076  33.203  27.873  1.00  0.00     0.202 C 
BRANCH  35  36
ATOM     36  C   UNL A   1      33.630  34.551  27.430  1.00  0.00     0.261 C 
BRANCH  36  37
ATOM     37  O   UNL A   1      33.900  35.426  28.504  1.00  0.00    -0.460 OA
BRANCH  37  38
ATOM     38  C   UNL A   1      33.598  34.888  29.710  1.00  0.00     0.338 C 
ATOM     39  O   UNL A   1      32.522  34.894  30.281  1.00  0.00    -0.246 OA
BRANCH  38  40
ATOM     40  C   UNL A   1      34.758  34.081  30.096  1.00  0.00     0.060 A 
ATOM     41  C   UNL A   1      36.033  34.391  29.610  1.00  0.00     0.016 A 
ATOM     42  C   UNL A   1      34.523  32.939  30.868  1.00  0.00     0.016 A 
ATOM     43  C   UNL A   1      37.093  33.557  29.927  1.00  0.00     0.010 A 
ATOM     44  C   UNL A   1      35.573  32.086  31.155  1.00  0.00     0.010 A 
ATOM     45  C   UNL A   1      36.863  32.422  30.722  1.00  0.00    -0.014 A 
BRANCH  45  46
ATOM     46  C   UNL A   1      38.003  31.759  31.367  1.00  0.00     0.031 A 
ATOM     47  C   UNL A   1      38.734  30.645  30.710  1.00  0.00     0.074 A 
ATOM     48  C   UNL A   1      38.298  32.198  32.604  1.00  0.00     0.049 A 
ATOM     49  N   UNL A   1      39.787  30.009  31.139  1.00  0.00    -0.248 NA
ATOM     50  C   UNL A   1      38.223  30.175  29.413  1.00  0.00     0.031 C 
ATOM     51  C   UNL A   1      37.566  33.262  33.300  1.00  0.00     0.029 A 
ATOM     52  N   UNL A   1      39.259  31.817  33.493  1.00  0.00    -0.354 N 
ATOM     53  C   UNL A   1      40.087  29.074  30.160  1.00  0.00     0.074 A 
ATOM     54  C   UNL A   1      39.074  29.195  29.132  1.00  0.00     0.031 C 
ATOM     55  C   UNL A   1      38.114  33.458  34.504  1.00  0.00     0.029 A 
ATOM     56  C   UNL A   1      39.215  32.519  34.674  1.00  0.00     0.049 A 
ATOM     57  H   UNL A   1      39.920  31.110  33.308  1.00  0.00     0.167 HD
ATOM     58  C   UNL A   1      41.131  28.214  30.139  1.00  0.00     0.034 A 
ATOM     59  C   UNL A   1      39.985  32.417  35.772  1.00  0.00     0.034 A 
ATOM     60  C   UNL A   1      42.086  28.120  31.216  1.00  0.00     0.049 A 
ATOM     61  C   UNL A   1      41.131  31.447  35.720  1.00  0.00     0.074 A 
ATOM     62  C   UNL A   1      43.202  27.308  31.302  1.00  0.00     0.029 A 
ATOM     63  N   UNL A   1      42.032  28.850  32.399  1.00  0.00    -0.354 N 
ATOM     64  N   UNL A   1      41.476  30.639  34.743  1.00  0.00    -0.248 NA
ATOM     65  C   UNL A   1      42.007  31.383  36.893  1.00  0.00     0.031 C 
ATOM     66  C   UNL A   1      43.776  27.493  32.559  1.00  0.00     0.029 A 
ATOM     67  C   UNL A   1      43.077  28.485  33.231  1.00  0.00     0.049 A 
ATOM     68  H   UNL A   1      41.350  29.527  32.614  1.00  0.00     0.167 HD
ATOM     69  C   UNL A   1      42.626  29.988  35.171  1.00  0.00     0.074 A 
ATOM     70  C   UNL A   1      42.928  30.518  36.488  1.00  0.00     0.031 C 
ATOM     71  C   UNL A   1      43.360  29.040  34.537  1.00  0.00     0.034 A 
BRANCH  58  72
ATOM     72  C   UNL A   1      41.320  27.325  28.936  1.00  0.00     0.023 A 
ATOM     73  C   UNL A   1      42.282  27.646  27.960  1.00  0.00     0.031 A 
ATOM     74  C   UNL A   1      40.457  26.243  28.683  1.00  0.00     0.131 A 
ATOM     75  C   UNL A   1      42.330  26.924  26.762  1.00  0.00     0.055 A 
ATOM     76  C   UNL A   1      40.536  25.498  27.505  1.00  0.00     0.041 A 
ATOM     77  F   UNL A   1      39.520  25.894  29.579  1.00  0.00    -0.206 F 
ATOM     78  C   UNL A   1      41.467  25.847  26.532  1.00  0.00     0.022 A 
BRANCH  75  79
ATOM     79  S   UNL A   1      43.466  27.392  25.427  1.00  0.00     0.124 S 
ATOM     80  O   UNL A   1      42.551  27.968  24.443  1.00  0.00    -0.237 OA
ATOM     81  O   UNL A   1      44.344  28.348  26.096  1.00  0.00    -0.237 OA
ATOM     82  O   UNL A   1      44.085  26.131  25.034  1.00  0.00    -0.744 OA
ENDBRANCH  75  79
ENDBRANCH  58  72
BRANCH  59  83
ATOM     83  C   UNL A   1      39.728  33.334  36.918  1.00  0.00     0.023 A 
ATOM     84  C   UNL A   1      40.475  34.517  37.079  1.00  0.00     0.031 A 
ATOM     85  C   UNL A   1      38.854  32.959  37.951  1.00  0.00     0.131 A 
ATOM     86  C   UNL A   1      40.386  35.241  38.275  1.00  0.00     0.055 A 
ATOM     87  C   UNL A   1      38.715  33.723  39.111  1.00  0.00     0.041 A 
ATOM     88  F   UNL A   1      38.146  31.824  37.858  1.00  0.00    -0.206 F 
ATOM     89  C   UNL A   1      39.498  34.861  39.285  1.00  0.00     0.022 A 
BRANCH  86  90
ATOM     90  S   UNL A   1      41.532  36.606  38.624  1.00  0.00     0.124 S 
ATOM     91  O   UNL A   1      40.630  37.635  39.133  1.00  0.00    -0.237 OA
ATOM     92  O   UNL A   1      42.422  36.002  39.613  1.00  0.00    -0.237 OA
ATOM     93  O   UNL A   1      42.143  36.883  37.329  1.00  0.00    -0.744 OA
ENDBRANCH  86  90
ENDBRANCH  59  83
BRANCH  71  94
ATOM     94  C   UNL A   1      44.577  28.497  35.244  1.00  0.00     0.023 A 
ATOM     95  C   UNL A   1      44.419  27.560  36.282  1.00  0.00     0.031 A 
ATOM     96  C   UNL A   1      45.857  29.028  35.010  1.00  0.00     0.131 A 
ATOM     97  C   UNL A   1      45.513  27.223  37.086  1.00  0.00     0.055 A 
ATOM     98  C   UNL A   1      46.956  28.644  35.777  1.00  0.00     0.041 A 
ATOM     99  F   UNL A   1      46.053  29.933  34.037  1.00  0.00    -0.206 F 
ATOM    100  C   UNL A   1      46.783  27.752  36.832  1.00  0.00     0.022 A 
BRANCH  97 101
ATOM    101  S   UNL A   1      45.305  26.177  38.552  1.00  0.00     0.124 S 
ATOM    102  O   UNL A   1      46.359  26.679  39.431  1.00  0.00    -0.237 OA
ATOM    103  O   UNL A   1      43.942  26.497  38.965  1.00  0.00    -0.237 OA
ATOM    104  O   UNL A   1      45.509  24.822  38.051  1.00  0.00    -0.744 OA
ENDBRANCH  97 101
ENDBRANCH  71  94
ENDBRANCH  45  46
ENDBRANCH  38  40
ENDBRANCH  37  38
ENDBRANCH  36  37
ENDBRANCH  35  36
ENDBRANCH   1  35
TORSDOF 23
ENDMDL
