MODEL 1
REMARK VINA RESULT:     -11.3      0.000      0.000
REMARK SMILES Cc1ccc(F)c(C(=O)N[C@@H]2C=C[C@@H](C(=O)OCCOCCOC(=O)c3ccc(-c4c5nc(c(-c6cc(S(=O)(=O)[O-])ccc6F)c6ccc([nH]6)c(-c6cc(S(=O)(=O)[O-])ccc6F)c6nc(c(-c7cc(S(=O)(=O)[O-])ccc7F)c7ccc4[nH]7)C=C6)C=C5)cc3)C2)c1
REMARK SMILES IDX 21 1 20 2 19 3 18 4 17 5 15 6 16 7 14 8 11 9 12 10 89 11
REMARK SMILES IDX 13 12 10 13 8 14 9 15 7 17 1 18 2 19 3 20 90 21 4 22 5 23
REMARK SMILES IDX 6 24 22 25 23 26 24 27 25 28 26 29 27 30 88 31 28 32 87 33
REMARK SMILES IDX 29 34 30 35 31 36 81 37 32 38 86 39 80 40 82 41 33 42 85 43
REMARK SMILES IDX 79 44 78 45 34 47 66 48 46 49 65 50 47 51 50 52 64 53 83 54
REMARK SMILES IDX 48 55 49 56 63 58 84 59 51 60 35 61 36 62 44 63 37 64 43 65
REMARK SMILES IDX 45 66 42 67 38 68 39 69 40 70 41 71 67 72 68 73 76 74 69 75
REMARK SMILES IDX 75 76 77 77 74 78 70 79 71 80 72 81 73 82 52 83 53 84 61 85
REMARK SMILES IDX 54 86 60 87 62 88 59 89 55 90 56 91 57 92 58 93
REMARK H PARENT 10 16 82 46 50 57
REMARK Flexibility Score: inf
ROOT
ATOM      1  C   UNL A   1      36.930  21.745  24.529  1.00  0.00     0.202 C 
ENDROOT
BRANCH   1   2
ATOM      2  O   UNL A   1      35.553  21.673  24.911  1.00  0.00    -0.374 OA
BRANCH   2   3
ATOM      3  C   UNL A   1      35.223  22.054  26.248  1.00  0.00     0.202 C 
BRANCH   3   4
ATOM      4  C   UNL A   1      34.075  21.271  26.895  1.00  0.00     0.261 C 
BRANCH   4   5
ATOM      5  O   UNL A   1      32.790  21.766  26.482  1.00  0.00    -0.463 OA
BRANCH   5   6
ATOM      6  C   UNL A   1      32.262  21.187  25.372  1.00  0.00     0.312 C 
ATOM      7  O   UNL A   1      32.089  19.979  25.237  1.00  0.00    -0.252 OA
BRANCH   6   8
ATOM      8  C   UNL A   1      31.845  22.193  24.298  1.00  0.00     0.124 C 
ATOM      9  C   UNL A   1      32.918  23.916  22.882  1.00  0.00     0.106 C 
ATOM     10  C   UNL A   1      32.843  22.585  22.204  1.00  0.00    -0.006 C 
ATOM     11  C   UNL A   1      32.481  23.594  24.320  1.00  0.00     0.048 C 
ATOM     12  C   UNL A   1      32.238  21.661  22.955  1.00  0.00    -0.014 C 
BRANCH   9  13
ATOM     13  N   UNL A   1      32.056  24.811  22.132  1.00  0.00    -0.346 N 
ATOM     14  C   UNL A   1      31.803  26.156  22.210  1.00  0.00     0.254 C 
ATOM     15  O   UNL A   1      31.134  26.672  21.315  1.00  0.00    -0.269 OA
ATOM     16  H   UNL A   1      31.546  24.359  21.421  1.00  0.00     0.164 HD
BRANCH  14  17
ATOM     17  C   UNL A   1      32.267  26.988  23.339  1.00  0.00     0.075 A 
ATOM     18  C   UNL A   1      31.405  27.851  26.938  1.00  0.00     0.044 C 
ATOM     19  C   UNL A   1      32.104  27.828  25.613  1.00  0.00    -0.050 A 
ATOM     20  C   UNL A   1      33.233  28.626  25.400  1.00  0.00     0.006 A 
ATOM     21  C   UNL A   1      31.650  26.978  24.591  1.00  0.00     0.020 A 
ATOM     22  C   UNL A   1      33.883  28.600  24.169  1.00  0.00     0.040 A 
ATOM     23  C   UNL A   1      33.395  27.792  23.145  1.00  0.00     0.135 A 
ATOM     24  F   UNL A   1      34.028  27.833  21.964  1.00  0.00    -0.206 F 
ENDBRANCH  14  17
ENDBRANCH   9  13
ENDBRANCH   6   8
ENDBRANCH   5   6
ENDBRANCH   4   5
ENDBRANCH   3   4
ENDBRANCH   2   3
ENDBRANCH   1   2
BRANCH   1  25
ATOM     25  C   UNL A   1      37.907  20.917  25.371  1.00  0.00     0.261 C 
BRANCH  25  26
ATOM     26  O   UNL A   1      39.238  21.469  25.367  1.00  0.00    -0.460 OA
BRANCH  26  27
ATOM     27  C   UNL A   1      39.854  21.407  26.575  1.00  0.00     0.338 C 
ATOM     28  O   UNL A   1      40.243  20.402  27.144  1.00  0.00    -0.246 OA
BRANCH  27  29
ATOM     29  C   UNL A   1      40.063  22.758  27.125  1.00  0.00     0.060 A 
ATOM     30  C   UNL A   1      39.362  23.835  26.572  1.00  0.00     0.016 A 
ATOM     31  C   UNL A   1      41.076  22.983  28.059  1.00  0.00     0.016 A 
ATOM     32  C   UNL A   1      39.703  25.143  26.930  1.00  0.00     0.010 A 
ATOM     33  C   UNL A   1      41.405  24.290  28.428  1.00  0.00     0.010 A 
ATOM     34  C   UNL A   1      40.747  25.381  27.838  1.00  0.00    -0.014 A 
BRANCH  34  35
ATOM     35  C   UNL A   1      41.227  26.763  28.098  1.00  0.00     0.031 A 
ATOM     36  C   UNL A   1      42.649  27.132  27.766  1.00  0.00     0.074 A 
ATOM     37  C   UNL A   1      40.408  27.672  28.657  1.00  0.00     0.049 A 
ATOM     38  N   UNL A   1      43.273  28.270  27.939  1.00  0.00    -0.248 NA
ATOM     39  C   UNL A   1      43.483  26.075  27.173  1.00  0.00     0.031 C 
ATOM     40  C   UNL A   1      39.018  27.429  29.042  1.00  0.00     0.029 A 
ATOM     41  N   UNL A   1      40.633  28.978  29.014  1.00  0.00    -0.354 N 
ATOM     42  C   UNL A   1      44.571  28.068  27.483  1.00  0.00     0.074 A 
ATOM     43  C   UNL A   1      44.655  26.685  27.061  1.00  0.00     0.031 C 
ATOM     44  C   UNL A   1      38.518  28.548  29.594  1.00  0.00     0.029 A 
ATOM     45  C   UNL A   1      39.556  29.576  29.623  1.00  0.00     0.049 A 
ATOM     46  H   UNL A   1      41.486  29.442  28.850  1.00  0.00     0.167 HD
ATOM     47  C   UNL A   1      45.595  28.956  27.409  1.00  0.00     0.034 A 
ATOM     48  C   UNL A   1      39.426  30.806  30.159  1.00  0.00     0.034 A 
ATOM     49  C   UNL A   1      45.501  30.333  27.827  1.00  0.00     0.049 A 
ATOM     50  C   UNL A   1      40.585  31.767  30.090  1.00  0.00     0.074 A 
ATOM     51  C   UNL A   1      46.455  31.332  27.726  1.00  0.00     0.029 A 
ATOM     52  N   UNL A   1      44.394  30.905  28.439  1.00  0.00    -0.354 N 
ATOM     53  N   UNL A   1      41.785  31.581  29.592  1.00  0.00    -0.248 NA
ATOM     54  C   UNL A   1      40.366  33.111  30.643  1.00  0.00     0.031 C 
ATOM     55  C   UNL A   1      45.949  32.488  28.334  1.00  0.00     0.029 A 
ATOM     56  C   UNL A   1      44.655  32.230  28.755  1.00  0.00     0.049 A 
ATOM     57  H   UNL A   1      43.548  30.438  28.623  1.00  0.00     0.167 HD
ATOM     58  C   UNL A   1      42.453  32.793  29.748  1.00  0.00     0.074 A 
ATOM     59  C   UNL A   1      41.521  33.705  30.376  1.00  0.00     0.031 C 
ATOM     60  C   UNL A   1      43.722  33.125  29.396  1.00  0.00     0.034 A 
BRANCH  47  61
ATOM     61  C   UNL A   1      46.917  28.451  26.889  1.00  0.00     0.023 A 
ATOM     62  C   UNL A   1      47.118  28.171  25.526  1.00  0.00     0.031 A 
ATOM     63  C   UNL A   1      47.991  28.239  27.771  1.00  0.00     0.131 A 
ATOM     64  C   UNL A   1      48.343  27.640  25.094  1.00  0.00     0.055 A 
ATOM     65  C   UNL A   1      49.230  27.774  27.325  1.00  0.00     0.041 A 
ATOM     66  F   UNL A   1      47.851  28.472  29.086  1.00  0.00    -0.206 F 
ATOM     67  C   UNL A   1      49.407  27.460  25.980  1.00  0.00     0.022 A 
BRANCH  64  68
ATOM     68  S   UNL A   1      48.487  27.078  23.375  1.00  0.00     0.124 S 
ATOM     69  O   UNL A   1      49.916  27.250  23.127  1.00  0.00    -0.237 OA
ATOM     70  O   UNL A   1      48.012  25.701  23.452  1.00  0.00    -0.237 OA
ATOM     71  O   UNL A   1      47.620  27.997  22.640  1.00  0.00    -0.744 OA
ENDBRANCH  64  68
ENDBRANCH  47  61
BRANCH  48  72
ATOM     72  C   UNL A   1      38.159  31.199  30.836  1.00  0.00     0.023 A 
ATOM     73  C   UNL A   1      37.144  31.876  30.143  1.00  0.00     0.031 A 
ATOM     74  C   UNL A   1      37.970  30.942  32.205  1.00  0.00     0.131 A 
ATOM     75  C   UNL A   1      36.003  32.312  30.831  1.00  0.00     0.055 A 
ATOM     76  C   UNL A   1      36.812  31.338  32.875  1.00  0.00     0.041 A 
ATOM     77  F   UNL A   1      38.909  30.291  32.910  1.00  0.00    -0.206 F 
ATOM     78  C   UNL A   1      35.825  32.040  32.190  1.00  0.00     0.022 A 
BRANCH  75  79
ATOM     79  S   UNL A   1      34.781  33.313  29.937  1.00  0.00     0.124 S 
ATOM     80  O   UNL A   1      35.633  34.266  29.236  1.00  0.00    -0.237 OA
ATOM     81  O   UNL A   1      34.121  32.310  29.108  1.00  0.00    -0.237 OA
ATOM     82  O   UNL A   1      33.957  33.877  31.005  1.00  0.00    -0.744 OA
ENDBRANCH  75  79
ENDBRANCH  48  72
BRANCH  60  83
ATOM     83  C   UNL A   1      44.151  34.548  29.651  1.00  0.00     0.023 A 
ATOM     84  C   UNL A   1      43.917  35.570  28.716  1.00  0.00     0.031 A 
ATOM     85  C   UNL A   1      44.822  34.878  30.843  1.00  0.00     0.131 A 
ATOM     86  C   UNL A   1      44.395  36.866  28.964  1.00  0.00     0.055 A 
ATOM     87  C   UNL A   1      45.250  36.180  31.106  1.00  0.00     0.041 A 
ATOM     88  F   UNL A   1      45.072  33.940  31.769  1.00  0.00    -0.206 F 
ATOM     89  C   UNL A   1      45.048  37.180  30.160  1.00  0.00     0.022 A 
BRANCH  86  90
ATOM     90  S   UNL A   1      44.222  38.122  27.666  1.00  0.00     0.124 S 
ATOM     91  O   UNL A   1      43.970  39.330  28.444  1.00  0.00    -0.237 OA
ATOM     92  O   UNL A   1      45.515  38.055  26.992  1.00  0.00    -0.237 OA
ATOM     93  O   UNL A   1      43.087  37.645  26.877  1.00  0.00    -0.744 OA
ENDBRANCH  86  90
ENDBRANCH  60  83
ENDBRANCH  34  35
ENDBRANCH  27  29
ENDBRANCH  26  27
ENDBRANCH  25  26
ENDBRANCH   1  25
TORSDOF 19
ENDMDL
MODEL 2
REMARK VINA RESULT:     -11.2      2.069      7.824
REMARK SMILES Cc1ccc(F)c(C(=O)N[C@@H]2C=C[C@@H](C(=O)OCCOCCOC(=O)c3ccc(-c4c5nc(c(-c6cc(S(=O)(=O)[O-])ccc6F)c6ccc([nH]6)c(-c6cc(S(=O)(=O)[O-])ccc6F)c6nc(c(-c7cc(S(=O)(=O)[O-])ccc7F)c7ccc4[nH]7)C=C6)C=C5)cc3)C2)c1
REMARK SMILES IDX 21 1 20 2 19 3 18 4 17 5 15 6 16 7 14 8 11 9 12 10 89 11
REMARK SMILES IDX 13 12 10 13 8 14 9 15 7 17 1 18 2 19 3 20 90 21 4 22 5 23
REMARK SMILES IDX 6 24 22 25 23 26 24 27 25 28 26 29 27 30 88 31 28 32 87 33
REMARK SMILES IDX 29 34 30 35 31 36 81 37 32 38 86 39 80 40 82 41 33 42 85 43
REMARK SMILES IDX 79 44 78 45 34 47 66 48 46 49 65 50 47 51 50 52 64 53 83 54
REMARK SMILES IDX 48 55 49 56 63 58 84 59 51 60 35 61 36 62 44 63 37 64 43 65
REMARK SMILES IDX 45 66 42 67 38 68 39 69 40 70 41 71 67 72 68 73 76 74 69 75
REMARK SMILES IDX 75 76 77 77 74 78 70 79 71 80 72 81 73 82 52 83 53 84 61 85
REMARK SMILES IDX 54 86 60 87 62 88 59 89 55 90 56 91 57 92 58 93
REMARK H PARENT 10 16 82 46 50 57
REMARK Flexibility Score: inf
ROOT
ATOM      1  C   UNL A   1      36.105  21.350  25.655  1.00  0.00     0.202 C 
ENDROOT
BRANCH   1   2
ATOM      2  O   UNL A   1      34.852  21.153  24.993  1.00  0.00    -0.374 OA
BRANCH   2   3
ATOM      3  C   UNL A   1      34.282  19.845  25.043  1.00  0.00     0.202 C 
BRANCH   3   4
ATOM      4  C   UNL A   1      32.929  19.684  24.340  1.00  0.00     0.261 C 
BRANCH   4   5
ATOM      5  O   UNL A   1      31.951  20.610  24.843  1.00  0.00    -0.463 OA
BRANCH   5   6
ATOM      6  C   UNL A   1      31.964  21.846  24.280  1.00  0.00     0.312 C 
ATOM      7  O   UNL A   1      31.979  22.057  23.071  1.00  0.00    -0.252 OA
BRANCH   6   8
ATOM      8  C   UNL A   1      31.905  22.982  25.302  1.00  0.00     0.124 C 
ATOM      9  C   UNL A   1      30.445  24.913  25.818  1.00  0.00     0.106 C 
ATOM     10  C   UNL A   1      30.067  23.689  26.590  1.00  0.00    -0.006 C 
ATOM     11  C   UNL A   1      31.486  24.381  24.819  1.00  0.00     0.048 C 
ATOM     12  C   UNL A   1      30.871  22.655  26.335  1.00  0.00    -0.014 C 
BRANCH   9  13
ATOM     13  N   UNL A   1      30.921  25.883  26.788  1.00  0.00    -0.346 N 
ATOM     14  C   UNL A   1      31.464  27.137  26.675  1.00  0.00     0.254 C 
ATOM     15  O   UNL A   1      31.619  27.795  27.702  1.00  0.00    -0.269 OA
ATOM     16  H   UNL A   1      30.837  25.578  27.720  1.00  0.00     0.164 HD
BRANCH  14  17
ATOM     17  C   UNL A   1      31.900  27.700  25.381  1.00  0.00     0.075 A 
ATOM     18  C   UNL A   1      30.525  29.395  22.270  1.00  0.00     0.044 C 
ATOM     19  C   UNL A   1      31.483  28.785  23.247  1.00  0.00    -0.050 A 
ATOM     20  C   UNL A   1      32.848  28.719  22.945  1.00  0.00     0.006 A 
ATOM     21  C   UNL A   1      31.020  28.313  24.486  1.00  0.00     0.020 A 
ATOM     22  C   UNL A   1      33.736  28.156  23.858  1.00  0.00     0.040 A 
ATOM     23  C   UNL A   1      33.260  27.644  25.062  1.00  0.00     0.135 A 
ATOM     24  F   UNL A   1      34.147  27.072  25.890  1.00  0.00    -0.206 F 
ENDBRANCH  14  17
ENDBRANCH   9  13
ENDBRANCH   6   8
ENDBRANCH   5   6
ENDBRANCH   4   5
ENDBRANCH   3   4
ENDBRANCH   2   3
ENDBRANCH   1   2
BRANCH   1  25
ATOM     25  C   UNL A   1      37.330  20.723  24.979  1.00  0.00     0.261 C 
BRANCH  25  26
ATOM     26  O   UNL A   1      38.497  21.562  25.072  1.00  0.00    -0.460 OA
BRANCH  26  27
ATOM     27  C   UNL A   1      39.257  21.312  26.169  1.00  0.00     0.338 C 
ATOM     28  O   UNL A   1      39.624  20.221  26.569  1.00  0.00    -0.246 OA
BRANCH  27  29
ATOM     29  C   UNL A   1      39.660  22.570  26.824  1.00  0.00     0.060 A 
ATOM     30  C   UNL A   1      39.060  23.768  26.424  1.00  0.00     0.016 A 
ATOM     31  C   UNL A   1      40.747  22.584  27.700  1.00  0.00     0.016 A 
ATOM     32  C   UNL A   1      39.576  24.988  26.875  1.00  0.00     0.010 A 
ATOM     33  C   UNL A   1      41.251  23.803  28.163  1.00  0.00     0.010 A 
ATOM     34  C   UNL A   1      40.693  25.015  27.723  1.00  0.00    -0.014 A 
BRANCH  34  35
ATOM     35  C   UNL A   1      41.351  26.300  28.075  1.00  0.00     0.031 A 
ATOM     36  C   UNL A   1      40.553  27.385  28.750  1.00  0.00     0.074 A 
ATOM     37  C   UNL A   1      42.642  26.509  27.763  1.00  0.00     0.049 A 
ATOM     38  N   UNL A   1      40.927  28.585  29.116  1.00  0.00    -0.248 NA
ATOM     39  C   UNL A   1      39.142  27.082  29.040  1.00  0.00     0.031 C 
ATOM     40  C   UNL A   1      43.514  25.544  27.092  1.00  0.00     0.029 A 
ATOM     41  N   UNL A   1      43.442  27.607  27.957  1.00  0.00    -0.354 N 
ATOM     42  C   UNL A   1      39.802  29.183  29.673  1.00  0.00     0.074 A 
ATOM     43  C   UNL A   1      38.722  28.225  29.562  1.00  0.00     0.031 C 
ATOM     44  C   UNL A   1      44.725  26.100  26.917  1.00  0.00     0.029 A 
ATOM     45  C   UNL A   1      44.709  27.464  27.442  1.00  0.00     0.049 A 
ATOM     46  H   UNL A   1      43.137  28.421  28.420  1.00  0.00     0.167 HD
ATOM     47  C   UNL A   1      39.683  30.411  30.238  1.00  0.00     0.034 A 
ATOM     48  C   UNL A   1      45.733  28.338  27.385  1.00  0.00     0.034 A 
ATOM     49  C   UNL A   1      40.766  31.357  30.349  1.00  0.00     0.049 A 
ATOM     50  C   UNL A   1      45.570  29.707  27.995  1.00  0.00     0.074 A 
ATOM     51  C   UNL A   1      40.770  32.596  30.968  1.00  0.00     0.029 A 
ATOM     52  N   UNL A   1      42.036  31.178  29.817  1.00  0.00    -0.354 N 
ATOM     53  N   UNL A   1      44.519  30.232  28.580  1.00  0.00    -0.248 NA
ATOM     54  C   UNL A   1      46.740  30.597  27.949  1.00  0.00     0.031 C 
ATOM     55  C   UNL A   1      42.019  33.192  30.755  1.00  0.00     0.029 A 
ATOM     56  C   UNL A   1      42.817  32.298  30.060  1.00  0.00     0.049 A 
ATOM     57  H   UNL A   1      42.338  30.375  29.336  1.00  0.00     0.167 HD
ATOM     58  C   UNL A   1      44.911  31.502  28.996  1.00  0.00     0.074 A 
ATOM     59  C   UNL A   1      46.296  31.660  28.603  1.00  0.00     0.031 C 
ATOM     60  C   UNL A   1      44.193  32.450  29.650  1.00  0.00     0.034 A 
BRANCH  47  61
ATOM     61  C   UNL A   1      38.322  30.814  30.746  1.00  0.00     0.023 A 
ATOM     62  C   UNL A   1      37.398  31.491  29.931  1.00  0.00     0.031 A 
ATOM     63  C   UNL A   1      37.945  30.522  32.069  1.00  0.00     0.131 A 
ATOM     64  C   UNL A   1      36.168  31.906  30.463  1.00  0.00     0.055 A 
ATOM     65  C   UNL A   1      36.692  30.878  32.573  1.00  0.00     0.041 A 
ATOM     66  F   UNL A   1      38.793  29.894  32.898  1.00  0.00    -0.206 F 
ATOM     67  C   UNL A   1      35.800  31.585  31.772  1.00  0.00     0.022 A 
BRANCH  64  68
ATOM     68  S   UNL A   1      35.102  32.973  29.456  1.00  0.00     0.124 S 
ATOM     69  O   UNL A   1      34.639  32.043  28.428  1.00  0.00    -0.237 OA
ATOM     70  O   UNL A   1      34.098  33.415  30.417  1.00  0.00    -0.237 OA
ATOM     71  O   UNL A   1      36.012  34.013  28.978  1.00  0.00    -0.744 OA
ENDBRANCH  64  68
ENDBRANCH  47  61
BRANCH  48  72
ATOM     72  C   UNL A   1      47.002  27.962  26.701  1.00  0.00     0.023 A 
ATOM     73  C   UNL A   1      47.120  28.022  25.304  1.00  0.00     0.031 A 
ATOM     74  C   UNL A   1      48.101  27.490  27.440  1.00  0.00     0.131 A 
ATOM     75  C   UNL A   1      48.296  27.576  24.686  1.00  0.00     0.055 A 
ATOM     76  C   UNL A   1      49.286  27.089  26.822  1.00  0.00     0.041 A 
ATOM     77  F   UNL A   1      48.038  27.420  28.780  1.00  0.00    -0.206 F 
ATOM     78  C   UNL A   1      49.383  27.118  25.434  1.00  0.00     0.022 A 
BRANCH  75  79
ATOM     79  S   UNL A   1      48.358  27.529  22.873  1.00  0.00     0.124 S 
ATOM     80  O   UNL A   1      47.154  28.269  22.514  1.00  0.00    -0.237 OA
ATOM     81  O   UNL A   1      49.627  28.195  22.598  1.00  0.00    -0.237 OA
ATOM     82  O   UNL A   1      48.329  26.099  22.568  1.00  0.00    -0.744 OA
ENDBRANCH  75  79
ENDBRANCH  48  72
BRANCH  60  83
ATOM     83  C   UNL A   1      44.913  33.724  30.013  1.00  0.00     0.023 A 
ATOM     84  C   UNL A   1      45.590  33.868  31.236  1.00  0.00     0.031 A 
ATOM     85  C   UNL A   1      44.906  34.816  29.126  1.00  0.00     0.131 A 
ATOM     86  C   UNL A   1      46.188  35.095  31.563  1.00  0.00     0.055 A 
ATOM     87  C   UNL A   1      45.546  36.016  29.434  1.00  0.00     0.041 A 
ATOM     88  F   UNL A   1      44.273  34.732  27.945  1.00  0.00    -0.206 F 
ATOM     89  C   UNL A   1      46.182  36.165  30.663  1.00  0.00     0.022 A 
BRANCH  86  90
ATOM     90  S   UNL A   1      46.909  35.300  33.215  1.00  0.00     0.124 S 
ATOM     91  O   UNL A   1      46.292  34.205  33.954  1.00  0.00    -0.237 OA
ATOM     92  O   UNL A   1      48.338  35.167  32.951  1.00  0.00    -0.237 OA
ATOM     93  O   UNL A   1      46.475  36.638  33.614  1.00  0.00    -0.744 OA
ENDBRANCH  86  90
ENDBRANCH  60  83
ENDBRANCH  34  35
ENDBRANCH  27  29
ENDBRANCH  26  27
ENDBRANCH  25  26
ENDBRANCH   1  25
TORSDOF 19
ENDMDL
MODEL 3
REMARK VINA RESULT:     -11.2      4.709      9.879
REMARK SMILES Cc1ccc(F)c(C(=O)N[C@@H]2C=C[C@@H](C(=O)OCCOCCOC(=O)c3ccc(-c4c5nc(c(-c6cc(S(=O)(=O)[O-])ccc6F)c6ccc([nH]6)c(-c6cc(S(=O)(=O)[O-])ccc6F)c6nc(c(-c7cc(S(=O)(=O)[O-])ccc7F)c7ccc4[nH]7)C=C6)C=C5)cc3)C2)c1
REMARK SMILES IDX 21 1 20 2 19 3 18 4 17 5 15 6 16 7 14 8 11 9 12 10 89 11
REMARK SMILES IDX 13 12 10 13 8 14 9 15 7 17 1 18 2 19 3 20 90 21 4 22 5 23
REMARK SMILES IDX 6 24 22 25 23 26 24 27 25 28 26 29 27 30 88 31 28 32 87 33
REMARK SMILES IDX 29 34 30 35 31 36 81 37 32 38 86 39 80 40 82 41 33 42 85 43
REMARK SMILES IDX 79 44 78 45 34 47 66 48 46 49 65 50 47 51 50 52 64 53 83 54
REMARK SMILES IDX 48 55 49 56 63 58 84 59 51 60 35 61 36 62 44 63 37 64 43 65
REMARK SMILES IDX 45 66 42 67 38 68 39 69 40 70 41 71 67 72 68 73 76 74 69 75
REMARK SMILES IDX 75 76 77 77 74 78 70 79 71 80 72 81 73 82 52 83 53 84 61 85
REMARK SMILES IDX 54 86 60 87 62 88 59 89 55 90 56 91 57 92 58 93
REMARK H PARENT 10 16 82 46 50 57
REMARK Flexibility Score: inf
ROOT
ATOM      1  C   UNL A   1      32.009  29.806  26.265  1.00  0.00     0.202 C 
ENDROOT
BRANCH   1   2
ATOM      2  O   UNL A   1      32.019  29.803  24.834  1.00  0.00    -0.374 OA
BRANCH   2   3
ATOM      3  C   UNL A   1      33.150  29.220  24.186  1.00  0.00     0.202 C 
BRANCH   3   4
ATOM      4  C   UNL A   1      32.869  28.549  22.837  1.00  0.00     0.261 C 
BRANCH   4   5
ATOM      5  O   UNL A   1      31.495  28.142  22.719  1.00  0.00    -0.463 OA
BRANCH   5   6
ATOM      6  C   UNL A   1      31.290  26.833  22.421  1.00  0.00     0.312 C 
ATOM      7  O   UNL A   1      31.307  26.370  21.283  1.00  0.00    -0.252 OA
BRANCH   6   8
ATOM      8  C   UNL A   1      31.078  25.952  23.652  1.00  0.00     0.124 C 
ATOM      9  C   UNL A   1      31.937  25.799  25.968  1.00  0.00     0.106 C 
ATOM     10  C   UNL A   1      30.693  26.623  25.874  1.00  0.00    -0.006 C 
ATOM     11  C   UNL A   1      32.305  25.563  24.494  1.00  0.00     0.048 C 
ATOM     12  C   UNL A   1      30.212  26.683  24.630  1.00  0.00    -0.014 C 
BRANCH   9  13
ATOM     13  N   UNL A   1      31.594  24.619  26.743  1.00  0.00    -0.346 N 
ATOM     14  C   UNL A   1      32.234  23.430  26.976  1.00  0.00     0.254 C 
ATOM     15  O   UNL A   1      31.760  22.675  27.825  1.00  0.00    -0.269 OA
ATOM     16  H   UNL A   1      30.721  24.688  27.193  1.00  0.00     0.164 HD
BRANCH  14  17
ATOM     17  C   UNL A   1      33.434  23.011  26.223  1.00  0.00     0.075 A 
ATOM     18  C   UNL A   1      37.156  23.723  25.942  1.00  0.00     0.044 C 
ATOM     19  C   UNL A   1      35.803  23.128  25.697  1.00  0.00    -0.050 A 
ATOM     20  C   UNL A   1      35.634  22.147  24.713  1.00  0.00     0.006 A 
ATOM     21  C   UNL A   1      34.706  23.526  26.479  1.00  0.00     0.020 A 
ATOM     22  C   UNL A   1      34.376  21.593  24.491  1.00  0.00     0.040 A 
ATOM     23  C   UNL A   1      33.284  22.031  25.237  1.00  0.00     0.135 A 
ATOM     24  F   UNL A   1      32.085  21.500  24.958  1.00  0.00    -0.206 F 
ENDBRANCH  14  17
ENDBRANCH   9  13
ENDBRANCH   6   8
ENDBRANCH   5   6
ENDBRANCH   4   5
ENDBRANCH   3   4
ENDBRANCH   2   3
ENDBRANCH   1   2
BRANCH   1  25
ATOM     25  C   UNL A   1      33.379  29.889  26.948  1.00  0.00     0.261 C 
BRANCH  25  26
ATOM     26  O   UNL A   1      33.891  31.234  26.987  1.00  0.00    -0.460 OA
BRANCH  26  27
ATOM     27  C   UNL A   1      34.463  31.561  28.175  1.00  0.00     0.338 C 
ATOM     28  O   UNL A   1      34.070  32.399  28.967  1.00  0.00    -0.246 OA
BRANCH  27  29
ATOM     29  C   UNL A   1      35.636  30.709  28.442  1.00  0.00     0.060 A 
ATOM     30  C   UNL A   1      35.648  29.906  29.587  1.00  0.00     0.016 A 
ATOM     31  C   UNL A   1      36.785  30.840  27.661  1.00  0.00     0.016 A 
ATOM     32  C   UNL A   1      36.828  29.260  29.970  1.00  0.00     0.010 A 
ATOM     33  C   UNL A   1      37.959  30.180  28.036  1.00  0.00     0.010 A 
ATOM     34  C   UNL A   1      38.000  29.417  29.215  1.00  0.00    -0.014 A 
BRANCH  34  35
ATOM     35  C   UNL A   1      39.295  28.874  29.699  1.00  0.00     0.031 A 
ATOM     36  C   UNL A   1      40.015  29.562  30.830  1.00  0.00     0.074 A 
ATOM     37  C   UNL A   1      39.840  27.794  29.112  1.00  0.00     0.049 A 
ATOM     38  N   UNL A   1      41.164  29.267  31.382  1.00  0.00    -0.248 NA
ATOM     39  C   UNL A   1      39.359  30.747  31.404  1.00  0.00     0.031 C 
ATOM     40  C   UNL A   1      39.250  27.053  27.997  1.00  0.00     0.029 A 
ATOM     41  N   UNL A   1      41.021  27.141  29.362  1.00  0.00    -0.354 N 
ATOM     42  C   UNL A   1      41.374  30.229  32.365  1.00  0.00     0.074 A 
ATOM     43  C   UNL A   1      40.249  31.139  32.305  1.00  0.00     0.031 C 
ATOM     44  C   UNL A   1      40.080  26.055  27.650  1.00  0.00     0.029 A 
ATOM     45  C   UNL A   1      41.268  26.098  28.501  1.00  0.00     0.049 A 
ATOM     46  H   UNL A   1      41.634  27.396  30.089  1.00  0.00     0.167 HD
ATOM     47  C   UNL A   1      42.402  30.337  33.244  1.00  0.00     0.034 A 
ATOM     48  C   UNL A   1      42.336  25.283  28.398  1.00  0.00     0.034 A 
ATOM     49  C   UNL A   1      43.516  29.423  33.300  1.00  0.00     0.049 A 
ATOM     50  C   UNL A   1      43.479  25.438  29.369  1.00  0.00     0.074 A 
ATOM     51  C   UNL A   1      44.570  29.401  34.199  1.00  0.00     0.029 A 
ATOM     52  N   UNL A   1      43.733  28.379  32.413  1.00  0.00    -0.354 N 
ATOM     53  N   UNL A   1      43.628  26.311  30.337  1.00  0.00    -0.248 NA
ATOM     54  C   UNL A   1      44.591  24.485  29.241  1.00  0.00     0.031 C 
ATOM     55  C   UNL A   1      45.454  28.385  33.817  1.00  0.00     0.029 A 
ATOM     56  C   UNL A   1      44.920  27.730  32.719  1.00  0.00     0.049 A 
ATOM     57  H   UNL A   1      43.132  28.133  31.673  1.00  0.00     0.167 HD
ATOM     58  C   UNL A   1      44.838  25.994  30.950  1.00  0.00     0.074 A 
ATOM     59  C   UNL A   1      45.372  24.845  30.249  1.00  0.00     0.031 C 
ATOM     60  C   UNL A   1      45.450  26.594  32.003  1.00  0.00     0.034 A 
BRANCH  47  61
ATOM     61  C   UNL A   1      42.384  31.508  34.194  1.00  0.00     0.023 A 
ATOM     62  C   UNL A   1      41.584  31.511  35.350  1.00  0.00     0.031 A 
ATOM     63  C   UNL A   1      43.175  32.642  33.936  1.00  0.00     0.131 A 
ATOM     64  C   UNL A   1      41.547  32.648  36.172  1.00  0.00     0.055 A 
ATOM     65  C   UNL A   1      43.184  33.744  34.794  1.00  0.00     0.041 A 
ATOM     66  F   UNL A   1      43.944  32.702  32.838  1.00  0.00    -0.206 F 
ATOM     67  C   UNL A   1      42.358  33.755  35.914  1.00  0.00     0.022 A 
BRANCH  64  68
ATOM     68  S   UNL A   1      40.335  32.704  37.521  1.00  0.00     0.124 S 
ATOM     69  O   UNL A   1      41.158  32.346  38.674  1.00  0.00    -0.237 OA
ATOM     70  O   UNL A   1      39.870  34.085  37.471  1.00  0.00    -0.237 OA
ATOM     71  O   UNL A   1      39.347  31.698  37.135  1.00  0.00    -0.744 OA
ENDBRANCH  64  68
ENDBRANCH  47  61
BRANCH  48  72
ATOM     72  C   UNL A   1      42.396  24.259  27.318  1.00  0.00     0.023 A 
ATOM     73  C   UNL A   1      41.649  23.074  27.398  1.00  0.00     0.031 A 
ATOM     74  C   UNL A   1      43.245  24.435  26.211  1.00  0.00     0.131 A 
ATOM     75  C   UNL A   1      41.798  22.090  26.409  1.00  0.00     0.055 A 
ATOM     76  C   UNL A   1      43.355  23.472  25.208  1.00  0.00     0.041 A 
ATOM     77  F   UNL A   1      43.975  25.555  26.087  1.00  0.00    -0.206 F 
ATOM     78  C   UNL A   1      42.638  22.284  25.311  1.00  0.00     0.022 A 
BRANCH  75  79
ATOM     79  S   UNL A   1      40.930  20.511  26.622  1.00  0.00     0.124 S 
ATOM     80  O   UNL A   1      39.626  20.806  26.039  1.00  0.00    -0.237 OA
ATOM     81  O   UNL A   1      41.779  19.597  25.865  1.00  0.00    -0.237 OA
ATOM     82  O   UNL A   1      40.937  20.310  28.070  1.00  0.00    -0.744 OA
ENDBRANCH  75  79
ENDBRANCH  48  72
BRANCH  60  83
ATOM     83  C   UNL A   1      46.746  25.987  32.478  1.00  0.00     0.023 A 
ATOM     84  C   UNL A   1      46.775  24.977  33.455  1.00  0.00     0.031 A 
ATOM     85  C   UNL A   1      47.970  26.440  31.954  1.00  0.00     0.131 A 
ATOM     86  C   UNL A   1      48.006  24.489  33.918  1.00  0.00     0.055 A 
ATOM     87  C   UNL A   1      49.190  25.915  32.382  1.00  0.00     0.041 A 
ATOM     88  F   UNL A   1      47.999  27.403  31.020  1.00  0.00    -0.206 F 
ATOM     89  C   UNL A   1      49.214  24.942  33.377  1.00  0.00     0.022 A 
BRANCH  86  90
ATOM     90  S   UNL A   1      48.014  23.308  35.295  1.00  0.00     0.124 S 
ATOM     91  O   UNL A   1      48.665  24.076  36.350  1.00  0.00    -0.237 OA
ATOM     92  O   UNL A   1      46.591  23.041  35.485  1.00  0.00    -0.237 OA
ATOM     93  O   UNL A   1      48.791  22.184  34.777  1.00  0.00    -0.744 OA
ENDBRANCH  86  90
ENDBRANCH  60  83
ENDBRANCH  34  35
ENDBRANCH  27  29
ENDBRANCH  26  27
ENDBRANCH  25  26
ENDBRANCH   1  25
TORSDOF 19
ENDMDL
