MODEL 1
REMARK VINA RESULT:     -12.8      0.000      0.000
REMARK SMILES O=C(OCCOCCOC(=O)c1ccc(-c2c3nc(c(-c4cc(S(=O)(=O)[O-])ccc4F)c4ccc([nH]4)c(-c4cc(S(=O)(=O)[O-])ccc4F)c4nc(c(-c5cc(S(=O)(=O)[O-])ccc5F)c5ccc2[nH]5)C=C4)C=C3)cc1)C1=Cc2cc(Cl)cc(Cl)c2O[C@@H]1C(F)(F)F
REMARK SMILES IDX 7 1 6 2 5 3 4 4 3 5 2 6 1 7 75 8 76 9 86 10 77 11 85 12
REMARK SMILES IDX 78 13 84 14 79 15 82 16 80 17 81 18 83 19 87 20 88 21 89 22
REMARK SMILES IDX 90 23 8 24 9 25 10 26 11 27 12 28 13 29 74 30 14 31 73 32
REMARK SMILES IDX 15 33 16 34 17 35 67 36 18 37 72 38 66 39 68 40 19 41 71 42
REMARK SMILES IDX 65 43 64 44 20 46 52 47 32 48 51 49 33 50 36 51 50 52 69 53
REMARK SMILES IDX 34 54 35 55 49 57 70 58 37 59 21 60 22 61 30 62 23 63 29 64
REMARK SMILES IDX 31 65 28 66 24 67 25 68 26 69 27 70 53 71 54 72 62 73 55 74
REMARK SMILES IDX 61 75 63 76 60 77 56 78 57 79 58 80 59 81 38 82 39 83 47 84
REMARK SMILES IDX 40 85 46 86 48 87 45 88 41 89 42 90 43 91 44 92
REMARK H PARENT 68 45 36 56
REMARK Flexibility Score: inf
ROOT
ATOM      1  C   UNL A   1      36.262  20.913  25.006  1.00  0.00     0.202 C 
ENDROOT
BRANCH   1   2
ATOM      2  O   UNL A   1      35.351  21.110  26.112  1.00  0.00    -0.374 OA
BRANCH   2   3
ATOM      3  C   UNL A   1      34.177  22.185  26.423  1.00  0.00     0.202 C 
BRANCH   3   4
ATOM      4  C   UNL A   1      32.003  22.017  26.234  1.00  0.00     0.261 C 
BRANCH   4   5
ATOM      5  O   UNL A   1      31.101  22.752  25.333  1.00  0.00    -0.460 OA
BRANCH   5   6
ATOM      6  C   UNL A   1      31.314  24.060  25.452  1.00  0.00     0.338 C 
ATOM      7  O   UNL A   1      31.146  24.707  26.461  1.00  0.00    -0.246 OA
BRANCH   6   8
ATOM      8  C   UNL A   1      31.218  24.480  24.027  1.00  0.00     0.087 C 
ATOM      9  C   UNL A   1      30.088  25.331  23.635  1.00  0.00     0.027 C 
ATOM     10  C   UNL A   1      33.007  25.119  24.188  1.00  0.00     0.316 C 
ATOM     11  C   UNL A   1      30.150  27.149  23.505  1.00  0.00     0.020 A 
ATOM     12  O   UNL A   1      33.091  27.062  24.302  1.00  0.00    -0.474 OA
ATOM     13  C   UNL A   1      29.030  27.829  23.123  1.00  0.00     0.032 A 
ATOM     14  C   UNL A   1      31.547  28.047  24.009  1.00  0.00     0.146 A 
ATOM     15  C   UNL A   1      29.098  29.218  23.313  1.00  0.00     0.043 A 
ATOM     16  C   UNL A   1      31.413  29.346  24.397  1.00  0.00     0.085 A 
ATOM     17  Cl  UNL A   1      27.737  30.142  22.766  1.00  0.00    -0.084 Cl
ATOM     18  C   UNL A   1      30.181  29.923  23.986  1.00  0.00     0.045 A 
ATOM     19  Cl  UNL A   1      32.356  30.053  25.630  1.00  0.00    -0.080 Cl
BRANCH  10  20
ATOM     20  C   UNL A   1      33.439  23.989  23.019  1.00  0.00     0.430 C 
ATOM     21  F   UNL A   1      32.878  24.087  21.805  1.00  0.00    -0.167 F 
ATOM     22  F   UNL A   1      34.780  24.164  22.776  1.00  0.00    -0.167 F 
ATOM     23  F   UNL A   1      33.367  22.687  23.416  1.00  0.00    -0.167 F 
ENDBRANCH  10  20
ENDBRANCH   6   8
ENDBRANCH   5   6
ENDBRANCH   4   5
ENDBRANCH   3   4
ENDBRANCH   2   3
ENDBRANCH   1   2
BRANCH   1  24
ATOM     24  C   UNL A   1      37.768  21.039  25.098  1.00  0.00     0.261 C 
BRANCH  24  25
ATOM     25  O   UNL A   1      38.226  22.215  25.711  1.00  0.00    -0.460 OA
BRANCH  25  26
ATOM     26  C   UNL A   1      39.435  22.063  26.293  1.00  0.00     0.338 C 
ATOM     27  O   UNL A   1      40.133  21.068  26.318  1.00  0.00    -0.246 OA
BRANCH  26  28
ATOM     28  C   UNL A   1      39.776  23.354  26.901  1.00  0.00     0.060 A 
ATOM     29  C   UNL A   1      38.980  24.454  26.584  1.00  0.00     0.016 A 
ATOM     30  C   UNL A   1      40.834  23.455  27.819  1.00  0.00     0.016 A 
ATOM     31  C   UNL A   1      39.220  25.663  27.218  1.00  0.00     0.010 A 
ATOM     32  C   UNL A   1      41.082  24.669  28.443  1.00  0.00     0.010 A 
ATOM     33  C   UNL A   1      40.284  25.778  28.123  1.00  0.00    -0.014 A 
BRANCH  33  34
ATOM     34  C   UNL A   1      40.721  27.132  28.498  1.00  0.00     0.031 A 
ATOM     35  C   UNL A   1      42.139  27.487  28.178  1.00  0.00     0.074 A 
ATOM     36  C   UNL A   1      39.858  28.036  28.989  1.00  0.00     0.049 A 
ATOM     37  N   UNL A   1      42.748  28.632  28.302  1.00  0.00    -0.248 NA
ATOM     38  C   UNL A   1      42.978  26.405  27.633  1.00  0.00     0.031 C 
ATOM     39  C   UNL A   1      38.445  27.791  29.269  1.00  0.00     0.029 A 
ATOM     40  N   UNL A   1      40.043  29.354  29.314  1.00  0.00    -0.354 N 
ATOM     41  C   UNL A   1      44.038  28.410  27.843  1.00  0.00     0.074 A 
ATOM     42  C   UNL A   1      44.141  27.015  27.489  1.00  0.00     0.031 C 
ATOM     43  C   UNL A   1      37.882  28.934  29.699  1.00  0.00     0.029 A 
ATOM     44  C   UNL A   1      38.903  29.977  29.767  1.00  0.00     0.049 A 
ATOM     45  H   UNL A   1      40.909  29.812  29.230  1.00  0.00     0.167 HD
ATOM     46  C   UNL A   1      45.043  29.306  27.717  1.00  0.00     0.034 A 
ATOM     47  C   UNL A   1      38.720  31.240  30.198  1.00  0.00     0.034 A 
ATOM     48  C   UNL A   1      44.922  30.682  28.114  1.00  0.00     0.049 A 
ATOM     49  C   UNL A   1      39.902  32.182  30.179  1.00  0.00     0.074 A 
ATOM     50  C   UNL A   1      45.878  31.675  28.047  1.00  0.00     0.029 A 
ATOM     51  N   UNL A   1      43.789  31.250  28.681  1.00  0.00    -0.354 N 
ATOM     52  N   UNL A   1      41.124  31.966  29.746  1.00  0.00    -0.248 NA
ATOM     53  C   UNL A   1      39.678  33.536  30.697  1.00  0.00     0.031 C 
ATOM     54  C   UNL A   1      45.369  32.806  28.687  1.00  0.00     0.029 A 
ATOM     55  C   UNL A   1      44.045  32.566  29.022  1.00  0.00     0.049 A 
ATOM     56  H   UNL A   1      42.932  30.785  28.822  1.00  0.00     0.167 HD
ATOM     57  C   UNL A   1      41.800  33.176  29.895  1.00  0.00     0.074 A 
ATOM     58  C   UNL A   1      40.844  34.113  30.450  1.00  0.00     0.031 C 
ATOM     59  C   UNL A   1      43.085  33.486  29.586  1.00  0.00     0.034 A 
BRANCH  46  60
ATOM     60  C   UNL A   1      46.369  28.789  27.232  1.00  0.00     0.023 A 
ATOM     61  C   UNL A   1      46.655  28.625  25.866  1.00  0.00     0.031 A 
ATOM     62  C   UNL A   1      47.343  28.396  28.165  1.00  0.00     0.131 A 
ATOM     63  C   UNL A   1      47.850  28.005  25.478  1.00  0.00     0.055 A 
ATOM     64  C   UNL A   1      48.575  27.882  27.768  1.00  0.00     0.041 A 
ATOM     65  F   UNL A   1      47.104  28.485  29.483  1.00  0.00    -0.206 F 
ATOM     66  C   UNL A   1      48.828  27.668  26.417  1.00  0.00     0.022 A 
BRANCH  63  67
ATOM     67  S   UNL A   1      48.021  27.460  23.757  1.00  0.00     0.124 S 
ATOM     68  O   UNL A   1      47.767  26.026  23.876  1.00  0.00    -0.237 OA
ATOM     69  O   UNL A   1      46.993  28.237  23.074  1.00  0.00    -0.237 OA
ATOM     70  O   UNL A   1      49.399  27.814  23.421  1.00  0.00    -0.744 OA
ENDBRANCH  63  67
ENDBRANCH  46  60
BRANCH  47  71
ATOM     71  C   UNL A   1      37.396  31.693  30.716  1.00  0.00     0.023 A 
ATOM     72  C   UNL A   1      36.452  32.303  29.875  1.00  0.00     0.031 A 
ATOM     73  C   UNL A   1      37.091  31.601  32.086  1.00  0.00     0.131 A 
ATOM     74  C   UNL A   1      35.282  32.857  30.421  1.00  0.00     0.055 A 
ATOM     75  C   UNL A   1      35.890  32.081  32.611  1.00  0.00     0.041 A 
ATOM     76  F   UNL A   1      37.966  31.049  32.943  1.00  0.00    -0.206 F 
ATOM     77  C   UNL A   1      34.984  32.728  31.779  1.00  0.00     0.022 A 
BRANCH  74  78
ATOM     78  S   UNL A   1      34.230  33.884  29.358  1.00  0.00     0.124 S 
ATOM     79  O   UNL A   1      33.663  32.887  28.458  1.00  0.00    -0.237 OA
ATOM     80  O   UNL A   1      33.309  34.478  30.322  1.00  0.00    -0.237 OA
ATOM     81  O   UNL A   1      35.174  34.815  28.744  1.00  0.00    -0.744 OA
ENDBRANCH  74  78
ENDBRANCH  47  71
BRANCH  59  82
ATOM     82  C   UNL A   1      43.515  34.922  29.766  1.00  0.00     0.023 A 
ATOM     83  C   UNL A   1      43.292  35.899  28.783  1.00  0.00     0.031 A 
ATOM     84  C   UNL A   1      44.183  35.311  30.942  1.00  0.00     0.131 A 
ATOM     85  C   UNL A   1      43.821  37.186  28.951  1.00  0.00     0.055 A 
ATOM     86  C   UNL A   1      44.607  36.622  31.151  1.00  0.00     0.041 A 
ATOM     87  F   UNL A   1      44.435  34.419  31.915  1.00  0.00    -0.206 F 
ATOM     88  C   UNL A   1      44.448  37.563  30.141  1.00  0.00     0.022 A 
BRANCH  85  89
ATOM     89  S   UNL A   1      43.844  38.300  27.521  1.00  0.00     0.124 S 
ATOM     90  O   UNL A   1      45.082  37.906  26.857  1.00  0.00    -0.237 OA
ATOM     91  O   UNL A   1      42.608  37.947  26.829  1.00  0.00    -0.237 OA
ATOM     92  O   UNL A   1      43.859  39.631  28.125  1.00  0.00    -0.744 OA
ENDBRANCH  85  89
ENDBRANCH  59  82
ENDBRANCH  33  34
ENDBRANCH  26  28
ENDBRANCH  25  26
ENDBRANCH  24  25
ENDBRANCH   1  24
TORSDOF 18
ENDMDL
MODEL 2
REMARK VINA RESULT:     -12.6      5.057     10.425
REMARK SMILES O=C(OCCOCCOC(=O)c1ccc(-c2c3nc(c(-c4cc(S(=O)(=O)[O-])ccc4F)c4ccc([nH]4)c(-c4cc(S(=O)(=O)[O-])ccc4F)c4nc(c(-c5cc(S(=O)(=O)[O-])ccc5F)c5ccc2[nH]5)C=C4)C=C3)cc1)C1=Cc2cc(Cl)cc(Cl)c2O[C@@H]1C(F)(F)F
REMARK SMILES IDX 7 1 6 2 5 3 4 4 3 5 2 6 1 7 75 8 76 9 86 10 77 11 85 12
REMARK SMILES IDX 78 13 84 14 79 15 82 16 80 17 81 18 83 19 87 20 88 21 89 22
REMARK SMILES IDX 90 23 8 24 9 25 10 26 11 27 12 28 13 29 74 30 14 31 73 32
REMARK SMILES IDX 15 33 16 34 17 35 67 36 18 37 72 38 66 39 68 40 19 41 71 42
REMARK SMILES IDX 65 43 64 44 20 46 52 47 32 48 51 49 33 50 36 51 50 52 69 53
REMARK SMILES IDX 34 54 35 55 49 57 70 58 37 59 21 60 22 61 30 62 23 63 29 64
REMARK SMILES IDX 31 65 28 66 24 67 25 68 26 69 27 70 53 71 54 72 62 73 55 74
REMARK SMILES IDX 61 75 63 76 60 77 56 78 57 79 58 80 59 81 38 82 39 83 47 84
REMARK SMILES IDX 40 85 46 86 48 87 45 88 41 89 42 90 43 91 44 92
REMARK H PARENT 68 45 36 56
REMARK Flexibility Score: inf
ROOT
ATOM      1  C   UNL A   1      32.202  31.862  26.860  1.00  0.00     0.202 C 
ENDROOT
BRANCH   1   2
ATOM      2  O   UNL A   1      33.243  30.874  27.040  1.00  0.00    -0.374 OA
BRANCH   2   3
ATOM      3  C   UNL A   1      33.273  29.252  26.997  1.00  0.00     0.202 C 
BRANCH   3   4
ATOM      4  C   UNL A   1      31.655  27.790  27.186  1.00  0.00     0.261 C 
BRANCH   4   5
ATOM      5  O   UNL A   1      30.968  27.041  26.123  1.00  0.00    -0.460 OA
BRANCH   5   6
ATOM      6  C   UNL A   1      31.440  25.798  26.070  1.00  0.00     0.338 C 
ATOM      7  O   UNL A   1      31.311  24.964  26.938  1.00  0.00    -0.246 OA
BRANCH   6   8
ATOM      8  C   UNL A   1      32.523  25.962  25.062  1.00  0.00     0.087 C 
ATOM      9  C   UNL A   1      33.873  25.515  25.425  1.00  0.00     0.027 C 
ATOM     10  C   UNL A   1      31.402  25.029  23.835  1.00  0.00     0.316 C 
ATOM     11  C   UNL A   1      34.584  23.893  24.989  1.00  0.00     0.020 A 
ATOM     12  O   UNL A   1      31.996  23.198  23.535  1.00  0.00    -0.474 OA
ATOM     13  C   UNL A   1      35.857  23.596  25.381  1.00  0.00     0.032 A 
ATOM     14  C   UNL A   1      33.629  22.658  24.231  1.00  0.00     0.146 A 
ATOM     15  C   UNL A   1      36.211  22.245  25.236  1.00  0.00     0.043 A 
ATOM     16  C   UNL A   1      33.972  21.348  24.381  1.00  0.00     0.085 A 
ATOM     17  Cl  UNL A   1      37.845  21.826  25.637  1.00  0.00    -0.084 Cl
ATOM     18  C   UNL A   1      35.303  21.174  24.846  1.00  0.00     0.045 A 
ATOM     19  Cl  UNL A   1      32.826  20.090  24.482  1.00  0.00    -0.080 Cl
BRANCH  10  20
ATOM     20  C   UNL A   1      31.382  26.428  22.901  1.00  0.00     0.430 C 
ATOM     21  F   UNL A   1      32.444  27.246  22.963  1.00  0.00    -0.167 F 
ATOM     22  F   UNL A   1      31.353  26.026  21.587  1.00  0.00    -0.167 F 
ATOM     23  F   UNL A   1      30.256  27.186  23.015  1.00  0.00    -0.167 F 
ENDBRANCH  10  20
ENDBRANCH   6   8
ENDBRANCH   5   6
ENDBRANCH   4   5
ENDBRANCH   3   4
ENDBRANCH   2   3
ENDBRANCH   1   2
BRANCH   1  24
ATOM     24  C   UNL A   1      32.247  33.269  27.414  1.00  0.00     0.261 C 
BRANCH  24  25
ATOM     25  O   UNL A   1      33.536  33.779  27.629  1.00  0.00    -0.460 OA
BRANCH  25  26
ATOM     26  C   UNL A   1      33.810  33.975  28.936  1.00  0.00     0.338 C 
ATOM     27  O   UNL A   1      33.171  34.620  29.745  1.00  0.00    -0.246 OA
BRANCH  26  28
ATOM     28  C   UNL A   1      35.046  33.240  29.224  1.00  0.00     0.060 A 
ATOM     29  C   UNL A   1      34.933  31.963  29.773  1.00  0.00     0.016 A 
ATOM     30  C   UNL A   1      36.297  33.788  28.895  1.00  0.00     0.016 A 
ATOM     31  C   UNL A   1      36.080  31.209  29.965  1.00  0.00     0.010 A 
ATOM     32  C   UNL A   1      37.446  33.038  29.100  1.00  0.00     0.010 A 
ATOM     33  C   UNL A   1      37.334  31.755  29.656  1.00  0.00    -0.014 A 
BRANCH  33  34
ATOM     34  C   UNL A   1      38.526  31.078  30.192  1.00  0.00     0.031 A 
ATOM     35  C   UNL A   1      38.899  31.406  31.604  1.00  0.00     0.074 A 
ATOM     36  C   UNL A   1      39.168  30.129  29.492  1.00  0.00     0.049 A 
ATOM     37  N   UNL A   1      39.828  30.882  32.351  1.00  0.00    -0.248 NA
ATOM     38  C   UNL A   1      38.106  32.458  32.263  1.00  0.00     0.031 C 
ATOM     39  C   UNL A   1      38.829  29.703  28.135  1.00  0.00     0.029 A 
ATOM     40  N   UNL A   1      40.227  29.332  29.840  1.00  0.00    -0.354 N 
ATOM     41  C   UNL A   1      39.727  31.535  33.571  1.00  0.00     0.074 A 
ATOM     42  C   UNL A   1      38.685  32.527  33.449  1.00  0.00     0.031 C 
ATOM     43  C   UNL A   1      39.649  28.700  27.776  1.00  0.00     0.029 A 
ATOM     44  C   UNL A   1      40.598  28.445  28.858  1.00  0.00     0.049 A 
ATOM     45  H   UNL A   1      40.679  29.389  30.713  1.00  0.00     0.167 HD
ATOM     46  C   UNL A   1      40.438  31.310  34.698  1.00  0.00     0.034 A 
ATOM     47  C   UNL A   1      41.599  27.542  28.838  1.00  0.00     0.034 A 
ATOM     48  C   UNL A   1      41.495  30.339  34.779  1.00  0.00     0.049 A 
ATOM     49  C   UNL A   1      42.470  27.413  30.067  1.00  0.00     0.074 A 
ATOM     50  C   UNL A   1      42.293  30.037  35.864  1.00  0.00     0.029 A 
ATOM     51  N   UNL A   1      41.924  29.541  33.726  1.00  0.00    -0.354 N 
ATOM     52  N   UNL A   1      42.372  28.037  31.220  1.00  0.00    -0.248 NA
ATOM     53  C   UNL A   1      43.578  26.454  29.995  1.00  0.00     0.031 C 
ATOM     54  C   UNL A   1      43.283  29.151  35.436  1.00  0.00     0.029 A 
ATOM     55  C   UNL A   1      43.015  28.788  34.124  1.00  0.00     0.049 A 
ATOM     56  H   UNL A   1      41.515  29.516  32.831  1.00  0.00     0.167 HD
ATOM     57  C   UNL A   1      43.377  27.507  32.026  1.00  0.00     0.074 A 
ATOM     58  C   UNL A   1      44.060  26.510  31.227  1.00  0.00     0.031 C 
ATOM     59  C   UNL A   1      43.694  27.806  33.312  1.00  0.00     0.034 A 
BRANCH  46  60
ATOM     60  C   UNL A   1      40.157  32.199  35.878  1.00  0.00     0.023 A 
ATOM     61  C   UNL A   1      39.175  31.888  36.835  1.00  0.00     0.031 A 
ATOM     62  C   UNL A   1      40.850  33.414  36.011  1.00  0.00     0.131 A 
ATOM     63  C   UNL A   1      38.858  32.821  37.829  1.00  0.00     0.055 A 
ATOM     64  C   UNL A   1      40.605  34.287  37.068  1.00  0.00     0.041 A 
ATOM     65  F   UNL A   1      41.763  33.784  35.099  1.00  0.00    -0.206 F 
ATOM     66  C   UNL A   1      39.592  34.001  37.976  1.00  0.00     0.022 A 
BRANCH  63  67
ATOM     67  S   UNL A   1      37.346  32.569  38.799  1.00  0.00     0.124 S 
ATOM     68  O   UNL A   1      37.527  33.534  39.881  1.00  0.00    -0.237 OA
ATOM     69  O   UNL A   1      36.295  32.880  37.836  1.00  0.00    -0.237 OA
ATOM     70  O   UNL A   1      37.429  31.168  39.205  1.00  0.00    -0.744 OA
ENDBRANCH  63  67
ENDBRANCH  46  60
BRANCH  47  71
ATOM     71  C   UNL A   1      41.868  26.717  27.625  1.00  0.00     0.023 A 
ATOM     72  C   UNL A   1      41.636  25.332  27.617  1.00  0.00     0.031 A 
ATOM     73  C   UNL A   1      42.449  27.291  26.480  1.00  0.00     0.131 A 
ATOM     74  C   UNL A   1      42.043  24.560  26.517  1.00  0.00     0.055 A 
ATOM     75  C   UNL A   1      42.779  26.530  25.357  1.00  0.00     0.041 A 
ATOM     76  F   UNL A   1      42.717  28.606  26.439  1.00  0.00    -0.206 F 
ATOM     77  C   UNL A   1      42.591  25.153  25.377  1.00  0.00     0.022 A 
BRANCH  74  78
ATOM     78  S   UNL A   1      41.992  22.752  26.659  1.00  0.00     0.124 S 
ATOM     79  O   UNL A   1      40.666  22.542  27.227  1.00  0.00    -0.237 OA
ATOM     80  O   UNL A   1      42.172  22.332  25.273  1.00  0.00    -0.237 OA
ATOM     81  O   UNL A   1      43.109  22.450  27.551  1.00  0.00    -0.744 OA
ENDBRANCH  74  78
ENDBRANCH  47  71
BRANCH  59  82
ATOM     82  C   UNL A   1      44.781  26.988  33.968  1.00  0.00     0.023 A 
ATOM     83  C   UNL A   1      44.528  25.733  34.545  1.00  0.00     0.031 A 
ATOM     84  C   UNL A   1      46.094  27.491  34.031  1.00  0.00     0.131 A 
ATOM     85  C   UNL A   1      45.548  25.076  35.246  1.00  0.00     0.055 A 
ATOM     86  C   UNL A   1      47.129  26.778  34.632  1.00  0.00     0.041 A 
ATOM     87  F   UNL A   1      46.395  28.690  33.505  1.00  0.00    -0.206 F 
ATOM     88  C   UNL A   1      46.853  25.573  35.266  1.00  0.00     0.022 A 
BRANCH  85  89
ATOM     89  S   UNL A   1      45.101  23.661  36.289  1.00  0.00     0.124 S 
ATOM     90  O   UNL A   1      46.337  22.885  36.284  1.00  0.00    -0.237 OA
ATOM     91  O   UNL A   1      44.755  24.302  37.554  1.00  0.00    -0.237 OA
ATOM     92  O   UNL A   1      43.981  23.051  35.575  1.00  0.00    -0.744 OA
ENDBRANCH  85  89
ENDBRANCH  59  82
ENDBRANCH  33  34
ENDBRANCH  26  28
ENDBRANCH  25  26
ENDBRANCH  24  25
ENDBRANCH   1  24
TORSDOF 18
ENDMDL
MODEL 3
REMARK VINA RESULT:     -12.6      5.029     10.267
REMARK SMILES O=C(OCCOCCOC(=O)c1ccc(-c2c3nc(c(-c4cc(S(=O)(=O)[O-])ccc4F)c4ccc([nH]4)c(-c4cc(S(=O)(=O)[O-])ccc4F)c4nc(c(-c5cc(S(=O)(=O)[O-])ccc5F)c5ccc2[nH]5)C=C4)C=C3)cc1)C1=Cc2cc(Cl)cc(Cl)c2O[C@@H]1C(F)(F)F
REMARK SMILES IDX 7 1 6 2 5 3 4 4 3 5 2 6 1 7 75 8 76 9 86 10 77 11 85 12
REMARK SMILES IDX 78 13 84 14 79 15 82 16 80 17 81 18 83 19 87 20 88 21 89 22
REMARK SMILES IDX 90 23 8 24 9 25 10 26 11 27 12 28 13 29 74 30 14 31 73 32
REMARK SMILES IDX 15 33 16 34 17 35 67 36 18 37 72 38 66 39 68 40 19 41 71 42
REMARK SMILES IDX 65 43 64 44 20 46 52 47 32 48 51 49 33 50 36 51 50 52 69 53
REMARK SMILES IDX 34 54 35 55 49 57 70 58 37 59 21 60 22 61 30 62 23 63 29 64
REMARK SMILES IDX 31 65 28 66 24 67 25 68 26 69 27 70 53 71 54 72 62 73 55 74
REMARK SMILES IDX 61 75 63 76 60 77 56 78 57 79 58 80 59 81 38 82 39 83 47 84
REMARK SMILES IDX 40 85 46 86 48 87 45 88 41 89 42 90 43 91 44 92
REMARK H PARENT 68 45 36 56
REMARK Flexibility Score: inf
ROOT
ATOM      1  C   UNL A   1      31.767  30.504  25.917  1.00  0.00     0.202 C 
ENDROOT
BRANCH   1   2
ATOM      2  O   UNL A   1      31.819  29.294  25.125  1.00  0.00    -0.374 OA
BRANCH   2   3
ATOM      3  C   UNL A   1      32.083  28.990  23.554  1.00  0.00     0.202 C 
BRANCH   3   4
ATOM      4  C   UNL A   1      31.138  27.551  22.201  1.00  0.00     0.261 C 
BRANCH   4   5
ATOM      5  O   UNL A   1      30.975  26.100  22.376  1.00  0.00    -0.460 OA
BRANCH   5   6
ATOM      6  C   UNL A   1      32.069  25.587  22.934  1.00  0.00     0.338 C 
ATOM      7  O   UNL A   1      33.172  25.583  22.435  1.00  0.00    -0.246 OA
BRANCH   6   8
ATOM      8  C   UNL A   1      31.458  24.631  23.898  1.00  0.00     0.087 C 
ATOM      9  C   UNL A   1      31.711  23.199  23.700  1.00  0.00     0.027 C 
ATOM     10  C   UNL A   1      32.262  25.657  25.289  1.00  0.00     0.316 C 
ATOM     11  C   UNL A   1      33.009  22.244  24.553  1.00  0.00     0.020 A 
ATOM     12  O   UNL A   1      33.815  24.768  26.060  1.00  0.00    -0.474 OA
ATOM     13  C   UNL A   1      33.141  20.911  24.287  1.00  0.00     0.032 A 
ATOM     14  C   UNL A   1      34.183  23.016  25.571  1.00  0.00     0.146 A 
ATOM     15  C   UNL A   1      34.321  20.333  24.779  1.00  0.00     0.043 A 
ATOM     16  C   UNL A   1      35.398  22.433  25.768  1.00  0.00     0.085 A 
ATOM     17  Cl  UNL A   1      34.501  18.624  24.545  1.00  0.00    -0.084 Cl
ATOM     18  C   UNL A   1      35.419  21.061  25.401  1.00  0.00     0.045 A 
ATOM     19  Cl  UNL A   1      36.840  23.324  25.957  1.00  0.00    -0.080 Cl
BRANCH  10  20
ATOM     20  C   UNL A   1      30.709  25.999  25.836  1.00  0.00     0.430 C 
ATOM     21  F   UNL A   1      29.967  24.987  26.309  1.00  0.00    -0.167 F 
ATOM     22  F   UNL A   1      30.846  26.838  26.916  1.00  0.00    -0.167 F 
ATOM     23  F   UNL A   1      29.939  26.727  24.979  1.00  0.00    -0.167 F 
ENDBRANCH  10  20
ENDBRANCH   6   8
ENDBRANCH   5   6
ENDBRANCH   4   5
ENDBRANCH   3   4
ENDBRANCH   2   3
ENDBRANCH   1   2
BRANCH   1  24
ATOM     24  C   UNL A   1      32.628  30.776  27.131  1.00  0.00     0.261 C 
BRANCH  24  25
ATOM     25  O   UNL A   1      33.775  31.546  26.882  1.00  0.00    -0.460 OA
BRANCH  25  26
ATOM     26  C   UNL A   1      34.205  32.210  27.975  1.00  0.00     0.338 C 
ATOM     27  O   UNL A   1      33.644  33.108  28.574  1.00  0.00    -0.246 OA
BRANCH  26  28
ATOM     28  C   UNL A   1      35.506  31.636  28.333  1.00  0.00     0.060 A 
ATOM     29  C   UNL A   1      35.577  30.258  28.535  1.00  0.00     0.016 A 
ATOM     30  C   UNL A   1      36.651  32.447  28.406  1.00  0.00     0.016 A 
ATOM     31  C   UNL A   1      36.811  29.677  28.779  1.00  0.00     0.010 A 
ATOM     32  C   UNL A   1      37.884  31.866  28.664  1.00  0.00     0.010 A 
ATOM     33  C   UNL A   1      37.957  30.481  28.871  1.00  0.00    -0.014 A 
BRANCH  33  34
ATOM     34  C   UNL A   1      39.163  29.888  29.469  1.00  0.00     0.031 A 
ATOM     35  C   UNL A   1      39.504  30.331  30.858  1.00  0.00     0.074 A 
ATOM     36  C   UNL A   1      39.848  28.913  28.848  1.00  0.00     0.049 A 
ATOM     37  N   UNL A   1      40.440  29.896  31.653  1.00  0.00    -0.248 NA
ATOM     38  C   UNL A   1      38.666  31.400  31.429  1.00  0.00     0.031 C 
ATOM     39  C   UNL A   1      39.543  28.379  27.523  1.00  0.00     0.029 A 
ATOM     40  N   UNL A   1      40.928  28.182  29.267  1.00  0.00    -0.354 N 
ATOM     41  C   UNL A   1      40.298  30.632  32.820  1.00  0.00     0.074 A 
ATOM     42  C   UNL A   1      39.225  31.575  32.613  1.00  0.00     0.031 C 
ATOM     43  C   UNL A   1      40.402  27.382  27.248  1.00  0.00     0.029 A 
ATOM     44  C   UNL A   1      41.344  27.240  28.356  1.00  0.00     0.049 A 
ATOM     45  H   UNL A   1      41.365  28.319  30.138  1.00  0.00     0.167 HD
ATOM     46  C   UNL A   1      41.001  30.515  33.969  1.00  0.00     0.034 A 
ATOM     47  C   UNL A   1      42.376  26.375  28.415  1.00  0.00     0.034 A 
ATOM     48  C   UNL A   1      42.090  29.592  34.133  1.00  0.00     0.049 A 
ATOM     49  C   UNL A   1      43.233  26.366  29.660  1.00  0.00     0.074 A 
ATOM     50  C   UNL A   1      42.882  29.398  35.247  1.00  0.00     0.029 A 
ATOM     51  N   UNL A   1      42.562  28.735  33.147  1.00  0.00    -0.354 N 
ATOM     52  N   UNL A   1      43.097  27.069  30.763  1.00  0.00    -0.248 NA
ATOM     53  C   UNL A   1      44.375  25.445  29.672  1.00  0.00     0.031 C 
ATOM     54  C   UNL A   1      43.908  28.519  34.896  1.00  0.00     0.029 A 
ATOM     55  C   UNL A   1      43.672  28.052  33.612  1.00  0.00     0.049 A 
ATOM     56  H   UNL A   1      42.166  28.629  32.251  1.00  0.00     0.167 HD
ATOM     57  C   UNL A   1      44.108  26.635  31.617  1.00  0.00     0.074 A 
ATOM     58  C   UNL A   1      44.836  25.608  30.903  1.00  0.00     0.031 C 
ATOM     59  C   UNL A   1      44.396  27.038  32.882  1.00  0.00     0.034 A 
BRANCH  46  60
ATOM     60  C   UNL A   1      40.673  31.477  35.077  1.00  0.00     0.023 A 
ATOM     61  C   UNL A   1      39.663  31.219  36.020  1.00  0.00     0.031 A 
ATOM     62  C   UNL A   1      41.348  32.707  35.150  1.00  0.00     0.131 A 
ATOM     63  C   UNL A   1      39.304  32.212  36.939  1.00  0.00     0.055 A 
ATOM     64  C   UNL A   1      41.060  33.646  36.138  1.00  0.00     0.041 A 
ATOM     65  F   UNL A   1      42.287  33.026  34.246  1.00  0.00    -0.206 F 
ATOM     66  C   UNL A   1      40.020  33.408  37.030  1.00  0.00     0.022 A 
BRANCH  63  67
ATOM     67  S   UNL A   1      37.763  32.008  37.874  1.00  0.00     0.124 S 
ATOM     68  O   UNL A   1      36.905  33.013  37.251  1.00  0.00    -0.237 OA
ATOM     69  O   UNL A   1      37.413  30.617  37.610  1.00  0.00    -0.237 OA
ATOM     70  O   UNL A   1      38.156  32.303  39.251  1.00  0.00    -0.744 OA
ENDBRANCH  63  67
ENDBRANCH  46  60
BRANCH  47  71
ATOM     71  C   UNL A   1      42.691  25.473  27.269  1.00  0.00     0.023 A 
ATOM     72  C   UNL A   1      42.135  24.187  27.177  1.00  0.00     0.031 A 
ATOM     73  C   UNL A   1      43.628  25.854  26.292  1.00  0.00     0.131 A 
ATOM     74  C   UNL A   1      42.570  23.306  26.173  1.00  0.00     0.055 A 
ATOM     75  C   UNL A   1      43.996  25.003  25.248  1.00  0.00     0.041 A 
ATOM     76  F   UNL A   1      44.211  27.062  26.342  1.00  0.00    -0.206 F 
ATOM     77  C   UNL A   1      43.478  23.714  25.194  1.00  0.00     0.022 A 
BRANCH  74  78
ATOM     78  S   UNL A   1      42.049  21.570  26.256  1.00  0.00     0.124 S 
ATOM     79  O   UNL A   1      42.352  21.241  27.644  1.00  0.00    -0.237 OA
ATOM     80  O   UNL A   1      40.635  21.659  25.909  1.00  0.00    -0.237 OA
ATOM     81  O   UNL A   1      42.895  20.915  25.260  1.00  0.00    -0.744 OA
ENDBRANCH  74  78
ENDBRANCH  47  71
BRANCH  59  82
ATOM     82  C   UNL A   1      45.501  26.309  33.609  1.00  0.00     0.023 A 
ATOM     83  C   UNL A   1      45.262  25.152  34.366  1.00  0.00     0.031 A 
ATOM     84  C   UNL A   1      46.818  26.802  33.554  1.00  0.00     0.131 A 
ATOM     85  C   UNL A   1      46.303  24.589  35.117  1.00  0.00     0.055 A 
ATOM     86  C   UNL A   1      47.870  26.170  34.214  1.00  0.00     0.041 A 
ATOM     87  F   UNL A   1      47.107  27.911  32.853  1.00  0.00    -0.206 F 
ATOM     88  C   UNL A   1      47.611  25.070  35.021  1.00  0.00     0.022 A 
BRANCH  85  89
ATOM     89  S   UNL A   1      45.885  23.341  36.365  1.00  0.00     0.124 S 
ATOM     90  O   UNL A   1      44.614  22.831  35.862  1.00  0.00    -0.237 OA
ATOM     91  O   UNL A   1      47.018  22.424  36.282  1.00  0.00    -0.237 OA
ATOM     92  O   UNL A   1      45.800  24.111  37.604  1.00  0.00    -0.744 OA
ENDBRANCH  85  89
ENDBRANCH  59  82
ENDBRANCH  33  34
ENDBRANCH  26  28
ENDBRANCH  25  26
ENDBRANCH  24  25
ENDBRANCH   1  24
TORSDOF 18
ENDMDL
