MODEL 1
REMARK VINA RESULT:     -12.3      0.000      0.000
REMARK SMILES NC(=O)[C@@H]1CCC[N@@H+]1[C@@H](C(=O)OCCOCCOC(=O)c1ccc(-c2c3nc(c(-c4cc(S(=O)(=O)[O-])ccc4F)c4ccc([nH]4)c(-c4cc(S(=O)(=O)[O-])ccc4F)c4nc(c(-c5cc(S(=O)(=O)[O-])ccc5F)c5ccc2[nH]5)C=C4)C=C3)cc1)c1c[nH]c2cc(OCc3ccccc3)ccc12
REMARK SMILES IDX 14 1 13 2 12 3 10 4 11 5 9 6 8 7 4 8 5 9 6 10 7 11 2 13 1 14
REMARK SMILES IDX 3 17 84 18 85 19 100 20 86 21 87 22 99 23 88 25 98 26 89 27
REMARK SMILES IDX 90 28 91 29 92 30 93 31 97 32 94 33 96 34 95 35 15 36 16 37
REMARK SMILES IDX 17 38 18 39 19 40 20 41 21 42 22 43 83 44 23 45 82 46 24 47
REMARK SMILES IDX 25 48 26 49 76 50 27 51 81 52 75 53 77 54 28 55 80 56 74 57
REMARK SMILES IDX 73 58 29 60 61 61 41 62 60 63 42 64 45 65 59 66 78 67 43 68
REMARK SMILES IDX 44 69 58 71 79 72 46 73 30 74 31 75 39 76 32 77 38 78 40 79
REMARK SMILES IDX 37 80 33 81 34 82 35 83 36 84 62 85 63 86 71 87 64 88 70 89
REMARK SMILES IDX 72 90 69 91 65 92 66 93 67 94 68 95 47 96 48 97 56 98 49 99
REMARK SMILES IDX 55 100 57 101 54 102 50 103 51 104 52 105 53 106
REMARK H PARENT 8 12 1 15 1 16 86 24 77 59 45 70
REMARK Flexibility Score: inf
ROOT
ATOM      1  C   UNL A   1      34.643  19.391  24.638  1.00  0.00     0.202 C 
ENDROOT
BRANCH   1   2
ATOM      2  C   UNL A   1      33.387  20.266  24.585  1.00  0.00     0.261 C 
BRANCH   2   3
ATOM      3  O   UNL A   1      32.848  20.472  25.908  1.00  0.00    -0.459 OA
BRANCH   3   4
ATOM      4  C   UNL A   1      33.171  21.646  26.533  1.00  0.00     0.370 C 
ATOM      5  O   UNL A   1      33.594  21.704  27.686  1.00  0.00    -0.245 OA
BRANCH   4   6
ATOM      6  C   UNL A   1      32.955  22.896  25.659  1.00  0.00     0.329 C 
BRANCH   6   7
ATOM      7  N   UNL A   1      34.175  23.539  25.079  1.00  0.00    -0.309 N 
ATOM      8  C   UNL A   1      34.328  24.073  23.717  1.00  0.00     0.275 C 
ATOM      9  C   UNL A   1      35.587  23.352  23.235  1.00  0.00     0.081 C 
ATOM     10  C   UNL A   1      36.479  23.380  24.456  1.00  0.00     0.068 C 
ATOM     11  C   UNL A   1      35.506  23.334  25.625  1.00  0.00     0.264 C 
ATOM     12  H   UNL A   1      33.548  24.172  25.576  1.00  0.00     0.349 HD
BRANCH   8  13
ATOM     13  C   UNL A   1      33.158  24.013  22.737  1.00  0.00     0.275 C 
ATOM     14  N   UNL A   1      33.038  22.831  22.049  1.00  0.00    -0.365 N 
ATOM     15  H   UNL A   1      32.308  22.713  21.397  1.00  0.00     0.159 HD
ATOM     16  H   UNL A   1      33.680  22.102  22.207  1.00  0.00     0.159 HD
ATOM     17  O   UNL A   1      32.426  24.957  22.455  1.00  0.00    -0.268 OA
ENDBRANCH   8  13
ENDBRANCH   6   7
BRANCH   6  18
ATOM     18  C   UNL A   1      32.014  23.965  26.315  1.00  0.00     0.046 A 
ATOM     19  C   UNL A   1      30.735  23.712  26.793  1.00  0.00     0.094 A 
ATOM     20  C   UNL A   1      31.907  25.392  26.141  1.00  0.00     0.009 A 
ATOM     21  N   UNL A   1      29.934  24.422  25.940  1.00  0.00    -0.361 N 
ATOM     22  C   UNL A   1      30.636  25.546  25.580  1.00  0.00     0.050 A 
ATOM     23  C   UNL A   1      32.690  26.557  26.254  1.00  0.00     0.015 A 
ATOM     24  H   UNL A   1      29.029  24.175  25.640  1.00  0.00     0.166 HD
ATOM     25  C   UNL A   1      30.281  26.647  24.806  1.00  0.00     0.073 A 
ATOM     26  C   UNL A   1      32.284  27.742  25.592  1.00  0.00     0.047 A 
ATOM     27  C   UNL A   1      31.152  27.738  24.782  1.00  0.00     0.121 A 
BRANCH  27  28
ATOM     28  O   UNL A   1      30.769  28.695  23.887  1.00  0.00    -0.489 OA
BRANCH  28  29
ATOM     29  C   UNL A   1      29.546  28.578  23.165  1.00  0.00     0.265 C 
BRANCH  29  30
ATOM     30  C   UNL A   1      29.070  29.946  22.726  1.00  0.00    -0.011 A 
ATOM     31  C   UNL A   1      29.084  31.027  23.618  1.00  0.00     0.007 A 
ATOM     32  C   UNL A   1      28.574  30.156  21.430  1.00  0.00     0.007 A 
ATOM     33  C   UNL A   1      28.629  32.286  23.214  1.00  0.00     0.000 A 
ATOM     34  C   UNL A   1      28.130  31.413  21.025  1.00  0.00     0.000 A 
ATOM     35  C   UNL A   1      28.156  32.478  21.917  1.00  0.00     0.000 A 
ENDBRANCH  29  30
ENDBRANCH  28  29
ENDBRANCH  27  28
ENDBRANCH   6  18
ENDBRANCH   4   6
ENDBRANCH   3   4
ENDBRANCH   2   3
ENDBRANCH   1   2
BRANCH   1  36
ATOM     36  O   UNL A   1      35.870  20.012  25.025  1.00  0.00    -0.374 OA
BRANCH  36  37
ATOM     37  C   UNL A   1      37.066  19.524  24.439  1.00  0.00     0.202 C 
BRANCH  37  38
ATOM     38  C   UNL A   1      38.327  19.417  25.307  1.00  0.00     0.261 C 
BRANCH  38  39
ATOM     39  O   UNL A   1      38.875  20.666  25.705  1.00  0.00    -0.460 OA
BRANCH  39  40
ATOM     40  C   UNL A   1      40.081  20.535  26.305  1.00  0.00     0.338 C 
ATOM     41  O   UNL A   1      40.851  19.601  26.230  1.00  0.00    -0.246 OA
BRANCH  40  42
ATOM     42  C   UNL A   1      40.414  21.819  26.933  1.00  0.00     0.060 A 
ATOM     43  C   UNL A   1      39.810  22.953  26.386  1.00  0.00     0.016 A 
ATOM     44  C   UNL A   1      41.308  21.914  28.002  1.00  0.00     0.016 A 
ATOM     45  C   UNL A   1      40.156  24.206  26.864  1.00  0.00     0.010 A 
ATOM     46  C   UNL A   1      41.651  23.177  28.485  1.00  0.00     0.010 A 
ATOM     47  C   UNL A   1      41.112  24.327  27.882  1.00  0.00    -0.014 A 
BRANCH  47  48
ATOM     48  C   UNL A   1      41.664  25.672  28.158  1.00  0.00     0.031 A 
ATOM     49  C   UNL A   1      43.024  26.016  27.618  1.00  0.00     0.074 A 
ATOM     50  C   UNL A   1      40.913  26.599  28.778  1.00  0.00     0.049 A 
ATOM     51  N   UNL A   1      43.668  27.152  27.658  1.00  0.00    -0.248 NA
ATOM     52  C   UNL A   1      43.756  24.932  26.941  1.00  0.00     0.031 C 
ATOM     53  C   UNL A   1      39.561  26.379  29.294  1.00  0.00     0.029 A 
ATOM     54  N   UNL A   1      41.170  27.915  29.057  1.00  0.00    -0.354 N 
ATOM     55  C   UNL A   1      44.877  26.924  27.008  1.00  0.00     0.074 A 
ATOM     56  C   UNL A   1      44.897  25.528  26.633  1.00  0.00     0.031 C 
ATOM     57  C   UNL A   1      39.101  27.529  29.814  1.00  0.00     0.029 A 
ATOM     58  C   UNL A   1      40.136  28.555  29.700  1.00  0.00     0.049 A 
ATOM     59  H   UNL A   1      42.014  28.361  28.819  1.00  0.00     0.167 HD
ATOM     60  C   UNL A   1      45.869  27.806  26.734  1.00  0.00     0.034 A 
ATOM     61  C   UNL A   1      40.045  29.821  30.153  1.00  0.00     0.034 A 
ATOM     62  C   UNL A   1      45.829  29.194  27.122  1.00  0.00     0.049 A 
ATOM     63  C   UNL A   1      41.199  30.762  29.910  1.00  0.00     0.074 A 
ATOM     64  C   UNL A   1      46.769  30.181  26.887  1.00  0.00     0.029 A 
ATOM     65  N   UNL A   1      44.799  29.790  27.839  1.00  0.00    -0.354 N 
ATOM     66  N   UNL A   1      42.331  30.539  29.281  1.00  0.00    -0.248 NA
ATOM     67  C   UNL A   1      41.060  32.129  30.429  1.00  0.00     0.031 C 
ATOM     68  C   UNL A   1      46.348  31.348  27.532  1.00  0.00     0.029 A 
ATOM     69  C   UNL A   1      45.102  31.120  28.092  1.00  0.00     0.049 A 
ATOM     70  H   UNL A   1      43.974  29.335  28.126  1.00  0.00     0.167 HD
ATOM     71  C   UNL A   1      43.024  31.747  29.302  1.00  0.00     0.074 A 
ATOM     72  C   UNL A   1      42.174  32.697  29.991  1.00  0.00     0.031 C 
ATOM     73  C   UNL A   1      44.247  32.049  28.797  1.00  0.00     0.034 A 
BRANCH  60  74
ATOM     74  C   UNL A   1      47.097  27.274  26.033  1.00  0.00     0.023 A 
ATOM     75  C   UNL A   1      48.092  26.552  26.716  1.00  0.00     0.031 A 
ATOM     76  C   UNL A   1      47.290  27.525  24.663  1.00  0.00     0.131 A 
ATOM     77  C   UNL A   1      49.264  26.169  26.045  1.00  0.00     0.055 A 
ATOM     78  C   UNL A   1      48.420  27.068  23.983  1.00  0.00     0.041 A 
ATOM     79  F   UNL A   1      46.390  28.234  23.965  1.00  0.00    -0.206 F 
ATOM     80  C   UNL A   1      49.422  26.399  24.677  1.00  0.00     0.022 A 
BRANCH  77  81
ATOM     81  S   UNL A   1      50.643  25.503  27.018  1.00  0.00     0.124 S 
ATOM     82  O   UNL A   1      51.598  25.146  25.971  1.00  0.00    -0.237 OA
ATOM     83  O   UNL A   1      51.011  26.635  27.860  1.00  0.00    -0.237 OA
ATOM     84  O   UNL A   1      50.049  24.368  27.721  1.00  0.00    -0.744 OA
ENDBRANCH  77  81
ENDBRANCH  60  74
BRANCH  61  85
ATOM     85  C   UNL A   1      38.838  30.265  30.910  1.00  0.00     0.023 A 
ATOM     86  C   UNL A   1      37.767  30.909  30.271  1.00  0.00     0.031 A 
ATOM     87  C   UNL A   1      38.767  30.095  32.305  1.00  0.00     0.131 A 
ATOM     88  C   UNL A   1      36.694  31.402  31.032  1.00  0.00     0.055 A 
ATOM     89  C   UNL A   1      37.671  30.535  33.048  1.00  0.00     0.041 A 
ATOM     90  F   UNL A   1      39.764  29.486  32.967  1.00  0.00    -0.206 F 
ATOM     91  C   UNL A   1      36.632  31.206  32.413  1.00  0.00     0.022 A 
BRANCH  88  92
ATOM     92  S   UNL A   1      35.421  32.392  30.200  1.00  0.00     0.124 S 
ATOM     93  O   UNL A   1      34.404  32.499  31.240  1.00  0.00    -0.237 OA
ATOM     94  O   UNL A   1      36.150  33.615  29.883  1.00  0.00    -0.237 OA
ATOM     95  O   UNL A   1      35.054  31.571  29.047  1.00  0.00    -0.744 OA
ENDBRANCH  88  92
ENDBRANCH  61  85
BRANCH  73  96
ATOM     96  C   UNL A   1      44.719  33.477  28.940  1.00  0.00     0.023 A 
ATOM     97  C   UNL A   1      45.426  33.913  30.074  1.00  0.00     0.031 A 
ATOM     98  C   UNL A   1      44.449  34.417  27.928  1.00  0.00     0.131 A 
ATOM     99  C   UNL A   1      45.785  35.264  30.197  1.00  0.00     0.055 A 
ATOM    100  C   UNL A   1      44.870  35.744  28.026  1.00  0.00     0.041 A 
ATOM    101  F   UNL A   1      43.775  34.057  26.824  1.00  0.00    -0.206 F 
ATOM    102  C   UNL A   1      45.528  36.177  29.172  1.00  0.00     0.022 A 
BRANCH  99 103
ATOM    103  S   UNL A   1      46.501  35.834  31.763  1.00  0.00     0.124 S 
ATOM    104  O   UNL A   1      47.336  34.699  32.145  1.00  0.00    -0.237 OA
ATOM    105  O   UNL A   1      47.214  37.042  31.360  1.00  0.00    -0.237 OA
ATOM    106  O   UNL A   1      45.333  36.058  32.613  1.00  0.00    -0.744 OA
ENDBRANCH  99 103
ENDBRANCH  73  96
ENDBRANCH  47  48
ENDBRANCH  40  42
ENDBRANCH  39  40
ENDBRANCH  38  39
ENDBRANCH  37  38
ENDBRANCH  36  37
ENDBRANCH   1  36
TORSDOF 23
ENDMDL
MODEL 2
REMARK VINA RESULT:     -12.2      1.839      7.331
REMARK SMILES NC(=O)[C@@H]1CCC[N@@H+]1[C@@H](C(=O)OCCOCCOC(=O)c1ccc(-c2c3nc(c(-c4cc(S(=O)(=O)[O-])ccc4F)c4ccc([nH]4)c(-c4cc(S(=O)(=O)[O-])ccc4F)c4nc(c(-c5cc(S(=O)(=O)[O-])ccc5F)c5ccc2[nH]5)C=C4)C=C3)cc1)c1c[nH]c2cc(OCc3ccccc3)ccc12
REMARK SMILES IDX 14 1 13 2 12 3 10 4 11 5 9 6 8 7 4 8 5 9 6 10 7 11 2 13 1 14
REMARK SMILES IDX 3 17 84 18 85 19 100 20 86 21 87 22 99 23 88 25 98 26 89 27
REMARK SMILES IDX 90 28 91 29 92 30 93 31 97 32 94 33 96 34 95 35 15 36 16 37
REMARK SMILES IDX 17 38 18 39 19 40 20 41 21 42 22 43 83 44 23 45 82 46 24 47
REMARK SMILES IDX 25 48 26 49 76 50 27 51 81 52 75 53 77 54 28 55 80 56 74 57
REMARK SMILES IDX 73 58 29 60 61 61 41 62 60 63 42 64 45 65 59 66 78 67 43 68
REMARK SMILES IDX 44 69 58 71 79 72 46 73 30 74 31 75 39 76 32 77 38 78 40 79
REMARK SMILES IDX 37 80 33 81 34 82 35 83 36 84 62 85 63 86 71 87 64 88 70 89
REMARK SMILES IDX 72 90 69 91 65 92 66 93 67 94 68 95 47 96 48 97 56 98 49 99
REMARK SMILES IDX 55 100 57 101 54 102 50 103 51 104 52 105 53 106
REMARK H PARENT 8 12 1 15 1 16 86 24 77 59 45 70
REMARK Flexibility Score: inf
ROOT
ATOM      1  C   UNL A   1      34.894  20.032  24.865  1.00  0.00     0.202 C 
ENDROOT
BRANCH   1   2
ATOM      2  C   UNL A   1      33.635  20.450  25.631  1.00  0.00     0.261 C 
BRANCH   2   3
ATOM      3  O   UNL A   1      33.979  21.053  26.896  1.00  0.00    -0.459 OA
BRANCH   3   4
ATOM      4  C   UNL A   1      33.356  22.230  27.212  1.00  0.00     0.370 C 
ATOM      5  O   UNL A   1      33.152  22.598  28.367  1.00  0.00    -0.245 OA
BRANCH   4   6
ATOM      6  C   UNL A   1      32.928  23.056  25.985  1.00  0.00     0.329 C 
BRANCH   6   7
ATOM      7  N   UNL A   1      34.018  23.662  25.159  1.00  0.00    -0.309 N 
ATOM      8  C   UNL A   1      34.068  23.753  23.692  1.00  0.00     0.275 C 
ATOM      9  C   UNL A   1      35.426  23.120  23.383  1.00  0.00     0.081 C 
ATOM     10  C   UNL A   1      36.311  23.673  24.477  1.00  0.00     0.068 C 
ATOM     11  C   UNL A   1      35.370  23.851  25.659  1.00  0.00     0.264 C 
ATOM     12  H   UNL A   1      33.299  24.315  25.471  1.00  0.00     0.349 HD
BRANCH   8  13
ATOM     13  C   UNL A   1      32.916  23.204  22.853  1.00  0.00     0.275 C 
ATOM     14  N   UNL A   1      33.100  23.279  21.495  1.00  0.00    -0.365 N 
ATOM     15  H   UNL A   1      32.402  22.946  20.884  1.00  0.00     0.159 HD
ATOM     16  H   UNL A   1      33.929  23.665  21.131  1.00  0.00     0.159 HD
ATOM     17  O   UNL A   1      31.837  22.827  23.300  1.00  0.00    -0.268 OA
ENDBRANCH   8  13
ENDBRANCH   6   7
BRANCH   6  18
ATOM     18  C   UNL A   1      31.808  24.108  26.296  1.00  0.00     0.046 A 
ATOM     19  C   UNL A   1      30.444  23.851  26.263  1.00  0.00     0.094 A 
ATOM     20  C   UNL A   1      31.766  25.542  26.155  1.00  0.00     0.009 A 
ATOM     21  N   UNL A   1      30.007  24.604  25.206  1.00  0.00    -0.361 N 
ATOM     22  C   UNL A   1      30.788  25.734  25.175  1.00  0.00     0.050 A 
ATOM     23  C   UNL A   1      32.448  26.692  26.596  1.00  0.00     0.015 A 
ATOM     24  H   UNL A   1      29.275  24.380  24.587  1.00  0.00     0.166 HD
ATOM     25  C   UNL A   1      30.735  26.870  24.373  1.00  0.00     0.073 A 
ATOM     26  C   UNL A   1      32.308  27.908  25.882  1.00  0.00     0.047 A 
ATOM     27  C   UNL A   1      31.550  27.951  24.714  1.00  0.00     0.121 A 
BRANCH  27  28
ATOM     28  O   UNL A   1      31.517  28.947  23.783  1.00  0.00    -0.489 OA
BRANCH  28  29
ATOM     29  C   UNL A   1      30.710  28.833  22.614  1.00  0.00     0.265 C 
BRANCH  29  30
ATOM     30  C   UNL A   1      29.693  29.953  22.574  1.00  0.00    -0.011 A 
ATOM     31  C   UNL A   1      29.409  30.702  23.725  1.00  0.00     0.007 A 
ATOM     32  C   UNL A   1      28.987  30.247  21.397  1.00  0.00     0.007 A 
ATOM     33  C   UNL A   1      28.458  31.726  23.690  1.00  0.00     0.000 A 
ATOM     34  C   UNL A   1      28.047  31.275  21.359  1.00  0.00     0.000 A 
ATOM     35  C   UNL A   1      27.781  32.013  22.506  1.00  0.00     0.000 A 
ENDBRANCH  29  30
ENDBRANCH  28  29
ENDBRANCH  27  28
ENDBRANCH   6  18
ENDBRANCH   4   6
ENDBRANCH   3   4
ENDBRANCH   2   3
ENDBRANCH   1   2
BRANCH   1  36
ATOM     36  O   UNL A   1      36.158  20.442  25.391  1.00  0.00    -0.374 OA
BRANCH  36  37
ATOM     37  C   UNL A   1      37.312  20.162  24.616  1.00  0.00     0.202 C 
BRANCH  37  38
ATOM     38  C   UNL A   1      38.462  19.371  25.257  1.00  0.00     0.261 C 
BRANCH  38  39
ATOM     39  O   UNL A   1      39.016  19.976  26.417  1.00  0.00    -0.460 OA
BRANCH  39  40
ATOM     40  C   UNL A   1      40.354  20.152  26.320  1.00  0.00     0.338 C 
ATOM     41  O   UNL A   1      41.165  19.416  25.797  1.00  0.00    -0.246 OA
BRANCH  40  42
ATOM     42  C   UNL A   1      40.666  21.505  26.794  1.00  0.00     0.060 A 
ATOM     43  C   UNL A   1      40.066  22.559  26.104  1.00  0.00     0.016 A 
ATOM     44  C   UNL A   1      41.539  21.735  27.861  1.00  0.00     0.016 A 
ATOM     45  C   UNL A   1      40.394  23.864  26.434  1.00  0.00     0.010 A 
ATOM     46  C   UNL A   1      41.864  23.050  28.195  1.00  0.00     0.010 A 
ATOM     47  C   UNL A   1      41.329  24.115  27.447  1.00  0.00    -0.014 A 
BRANCH  47  48
ATOM     48  C   UNL A   1      41.867  25.488  27.570  1.00  0.00     0.031 A 
ATOM     49  C   UNL A   1      41.073  26.505  28.342  1.00  0.00     0.074 A 
ATOM     50  C   UNL A   1      43.091  25.781  27.099  1.00  0.00     0.049 A 
ATOM     51  N   UNL A   1      41.384  27.735  28.655  1.00  0.00    -0.248 NA
ATOM     52  C   UNL A   1      39.751  26.076  28.829  1.00  0.00     0.031 C 
ATOM     53  C   UNL A   1      43.962  24.849  26.380  1.00  0.00     0.029 A 
ATOM     54  N   UNL A   1      43.824  26.936  27.175  1.00  0.00    -0.354 N 
ATOM     55  C   UNL A   1      40.302  28.226  29.378  1.00  0.00     0.074 A 
ATOM     56  C   UNL A   1      39.306  27.178  29.410  1.00  0.00     0.031 C 
ATOM     57  C   UNL A   1      45.119  25.468  26.095  1.00  0.00     0.029 A 
ATOM     58  C   UNL A   1      45.059  26.846  26.578  1.00  0.00     0.049 A 
ATOM     59  H   UNL A   1      43.497  27.753  27.616  1.00  0.00     0.167 HD
ATOM     60  C   UNL A   1      40.163  29.434  29.975  1.00  0.00     0.034 A 
ATOM     61  C   UNL A   1      46.024  27.775  26.431  1.00  0.00     0.034 A 
ATOM     62  C   UNL A   1      41.169  30.466  29.927  1.00  0.00     0.049 A 
ATOM     63  C   UNL A   1      45.810  29.143  27.033  1.00  0.00     0.074 A 
ATOM     64  C   UNL A   1      41.143  31.723  30.505  1.00  0.00     0.029 A 
ATOM     65  N   UNL A   1      42.378  30.368  29.248  1.00  0.00    -0.354 N 
ATOM     66  N   UNL A   1      44.789  29.591  27.728  1.00  0.00    -0.248 NA
ATOM     67  C   UNL A   1      46.883  30.126  26.840  1.00  0.00     0.031 C 
ATOM     68  C   UNL A   1      42.293  32.411  30.108  1.00  0.00     0.029 A 
ATOM     69  C   UNL A   1      43.084  31.556  29.358  1.00  0.00     0.049 A 
ATOM     70  H   UNL A   1      42.687  29.570  28.761  1.00  0.00     0.167 HD
ATOM     71  C   UNL A   1      45.112  30.899  28.081  1.00  0.00     0.074 A 
ATOM     72  C   UNL A   1      46.430  31.159  27.536  1.00  0.00     0.031 C 
ATOM     73  C   UNL A   1      44.392  31.803  28.793  1.00  0.00     0.034 A 
BRANCH  60  74
ATOM     74  C   UNL A   1      38.856  29.716  30.678  1.00  0.00     0.023 A 
ATOM     75  C   UNL A   1      37.854  30.516  30.099  1.00  0.00     0.031 A 
ATOM     76  C   UNL A   1      38.623  29.201  31.966  1.00  0.00     0.131 A 
ATOM     77  C   UNL A   1      36.701  30.834  30.834  1.00  0.00     0.055 A 
ATOM     78  C   UNL A   1      37.437  29.454  32.657  1.00  0.00     0.041 A 
ATOM     79  F   UNL A   1      39.553  28.456  32.582  1.00  0.00    -0.206 F 
ATOM     80  C   UNL A   1      36.474  30.287  32.098  1.00  0.00     0.022 A 
BRANCH  77  81
ATOM     81  S   UNL A   1      35.575  32.096  30.177  1.00  0.00     0.124 S 
ATOM     82  O   UNL A   1      34.698  32.334  31.321  1.00  0.00    -0.237 OA
ATOM     83  O   UNL A   1      36.485  33.182  29.831  1.00  0.00    -0.237 OA
ATOM     84  O   UNL A   1      34.938  31.429  29.043  1.00  0.00    -0.744 OA
ENDBRANCH  77  81
ENDBRANCH  60  74
BRANCH  61  85
ATOM     85  C   UNL A   1      47.259  27.463  25.656  1.00  0.00     0.023 A 
ATOM     86  C   UNL A   1      47.363  27.762  24.288  1.00  0.00     0.031 A 
ATOM     87  C   UNL A   1      48.342  26.805  26.270  1.00  0.00     0.131 A 
ATOM     88  C   UNL A   1      48.502  27.363  23.570  1.00  0.00     0.055 A 
ATOM     89  C   UNL A   1      49.495  26.462  25.564  1.00  0.00     0.041 A 
ATOM     90  F   UNL A   1      48.295  26.493  27.574  1.00  0.00    -0.206 F 
ATOM     91  C   UNL A   1      49.574  26.728  24.202  1.00  0.00     0.022 A 
BRANCH  88  92
ATOM     92  S   UNL A   1      48.522  27.599  21.771  1.00  0.00     0.124 S 
ATOM     93  O   UNL A   1      49.604  28.563  21.612  1.00  0.00    -0.237 OA
ATOM     94  O   UNL A   1      48.790  26.247  21.293  1.00  0.00    -0.237 OA
ATOM     95  O   UNL A   1      47.183  28.107  21.481  1.00  0.00    -0.744 OA
ENDBRANCH  88  92
ENDBRANCH  61  85
BRANCH  73  96
ATOM     96  C   UNL A   1      45.035  33.145  29.053  1.00  0.00     0.023 A 
ATOM     97  C   UNL A   1      44.826  34.244  28.201  1.00  0.00     0.031 A 
ATOM     98  C   UNL A   1      45.876  33.323  30.167  1.00  0.00     0.131 A 
ATOM     99  C   UNL A   1      45.498  35.452  28.442  1.00  0.00     0.055 A 
ATOM    100  C   UNL A   1      46.486  34.548  30.439  1.00  0.00     0.041 A 
ATOM    101  F   UNL A   1      46.113  32.308  31.013  1.00  0.00    -0.206 F 
ATOM    102  C   UNL A   1      46.311  35.617  29.566  1.00  0.00     0.022 A 
BRANCH  99 103
ATOM    103  S   UNL A   1      45.376  36.776  27.207  1.00  0.00     0.124 S 
ATOM    104  O   UNL A   1      44.029  36.576  26.682  1.00  0.00    -0.237 OA
ATOM    105  O   UNL A   1      45.575  37.975  28.014  1.00  0.00    -0.237 OA
ATOM    106  O   UNL A   1      46.458  36.472  26.272  1.00  0.00    -0.744 OA
ENDBRANCH  99 103
ENDBRANCH  73  96
ENDBRANCH  47  48
ENDBRANCH  40  42
ENDBRANCH  39  40
ENDBRANCH  38  39
ENDBRANCH  37  38
ENDBRANCH  36  37
ENDBRANCH   1  36
TORSDOF 23
ENDMDL
MODEL 3
REMARK VINA RESULT:     -11.6      4.336     10.370
REMARK SMILES NC(=O)[C@@H]1CCC[N@@H+]1[C@@H](C(=O)OCCOCCOC(=O)c1ccc(-c2c3nc(c(-c4cc(S(=O)(=O)[O-])ccc4F)c4ccc([nH]4)c(-c4cc(S(=O)(=O)[O-])ccc4F)c4nc(c(-c5cc(S(=O)(=O)[O-])ccc5F)c5ccc2[nH]5)C=C4)C=C3)cc1)c1c[nH]c2cc(OCc3ccccc3)ccc12
REMARK SMILES IDX 14 1 13 2 12 3 10 4 11 5 9 6 8 7 4 8 5 9 6 10 7 11 2 13 1 14
REMARK SMILES IDX 3 17 84 18 85 19 100 20 86 21 87 22 99 23 88 25 98 26 89 27
REMARK SMILES IDX 90 28 91 29 92 30 93 31 97 32 94 33 96 34 95 35 15 36 16 37
REMARK SMILES IDX 17 38 18 39 19 40 20 41 21 42 22 43 83 44 23 45 82 46 24 47
REMARK SMILES IDX 25 48 26 49 76 50 27 51 81 52 75 53 77 54 28 55 80 56 74 57
REMARK SMILES IDX 73 58 29 60 61 61 41 62 60 63 42 64 45 65 59 66 78 67 43 68
REMARK SMILES IDX 44 69 58 71 79 72 46 73 30 74 31 75 39 76 32 77 38 78 40 79
REMARK SMILES IDX 37 80 33 81 34 82 35 83 36 84 62 85 63 86 71 87 64 88 70 89
REMARK SMILES IDX 72 90 69 91 65 92 66 93 67 94 68 95 47 96 48 97 56 98 49 99
REMARK SMILES IDX 55 100 57 101 54 102 50 103 51 104 52 105 53 106
REMARK H PARENT 8 12 1 15 1 16 86 24 77 59 45 70
REMARK Flexibility Score: inf
ROOT
ATOM      1  C   UNL A   1      32.944  29.548  25.979  1.00  0.00     0.202 C 
ENDROOT
BRANCH   1   2
ATOM      2  C   UNL A   1      31.969  28.380  25.807  1.00  0.00     0.261 C 
BRANCH   2   3
ATOM      3  O   UNL A   1      32.681  27.138  25.627  1.00  0.00    -0.459 OA
BRANCH   3   4
ATOM      4  C   UNL A   1      31.996  25.985  25.900  1.00  0.00     0.370 C 
ATOM      5  O   UNL A   1      31.722  25.615  27.041  1.00  0.00    -0.245 OA
BRANCH   4   6
ATOM      6  C   UNL A   1      31.599  25.186  24.645  1.00  0.00     0.329 C 
BRANCH   6   7
ATOM      7  N   UNL A   1      30.665  25.850  23.683  1.00  0.00    -0.309 N 
ATOM      8  C   UNL A   1      30.963  26.253  22.299  1.00  0.00     0.275 C 
ATOM      9  C   UNL A   1      30.558  27.727  22.306  1.00  0.00     0.081 C 
ATOM     10  C   UNL A   1      29.286  27.722  23.124  1.00  0.00     0.068 C 
ATOM     11  C   UNL A   1      29.486  26.582  24.112  1.00  0.00     0.264 C 
ATOM     12  H   UNL A   1      30.623  24.831  23.692  1.00  0.00     0.349 HD
BRANCH   8  13
ATOM     13  C   UNL A   1      32.345  25.986  21.707  1.00  0.00     0.275 C 
ATOM     14  N   UNL A   1      32.363  25.772  20.351  1.00  0.00    -0.365 N 
ATOM     15  H   UNL A   1      33.216  25.592  19.893  1.00  0.00     0.159 HD
ATOM     16  H   UNL A   1      31.524  25.798  19.837  1.00  0.00     0.159 HD
ATOM     17  O   UNL A   1      33.375  25.841  22.359  1.00  0.00    -0.268 OA
ENDBRANCH   8  13
ENDBRANCH   6   7
BRANCH   6  18
ATOM     18  C   UNL A   1      31.136  23.720  24.955  1.00  0.00     0.046 A 
ATOM     19  C   UNL A   1      30.391  23.339  26.064  1.00  0.00     0.094 A 
ATOM     20  C   UNL A   1      31.704  22.438  24.620  1.00  0.00     0.009 A 
ATOM     21  N   UNL A   1      31.265  22.565  26.779  1.00  0.00    -0.361 N 
ATOM     22  C   UNL A   1      32.057  21.914  25.866  1.00  0.00     0.050 A 
ATOM     23  C   UNL A   1      32.078  21.683  23.491  1.00  0.00     0.015 A 
ATOM     24  H   UNL A   1      31.316  22.490  27.760  1.00  0.00     0.166 HD
ATOM     25  C   UNL A   1      33.049  20.950  26.027  1.00  0.00     0.073 A 
ATOM     26  C   UNL A   1      32.981  20.601  23.639  1.00  0.00     0.047 A 
ATOM     27  C   UNL A   1      33.546  20.325  24.882  1.00  0.00     0.121 A 
BRANCH  27  28
ATOM     28  O   UNL A   1      34.603  19.505  25.149  1.00  0.00    -0.489 OA
BRANCH  28  29
ATOM     29  C   UNL A   1      35.921  19.847  24.730  1.00  0.00     0.265 C 
BRANCH  29  30
ATOM     30  C   UNL A   1      36.138  21.339  24.865  1.00  0.00    -0.011 A 
ATOM     31  C   UNL A   1      36.132  22.167  23.733  1.00  0.00     0.007 A 
ATOM     32  C   UNL A   1      36.382  21.924  26.117  1.00  0.00     0.007 A 
ATOM     33  C   UNL A   1      36.347  23.542  23.858  1.00  0.00     0.000 A 
ATOM     34  C   UNL A   1      36.586  23.296  26.243  1.00  0.00     0.000 A 
ATOM     35  C   UNL A   1      36.570  24.106  25.113  1.00  0.00     0.000 A 
ENDBRANCH  29  30
ENDBRANCH  28  29
ENDBRANCH  27  28
ENDBRANCH   6  18
ENDBRANCH   4   6
ENDBRANCH   3   4
ENDBRANCH   2   3
ENDBRANCH   1   2
BRANCH   1  36
ATOM     36  O   UNL A   1      32.610  30.557  26.935  1.00  0.00    -0.374 OA
BRANCH  36  37
ATOM     37  C   UNL A   1      31.631  31.513  26.565  1.00  0.00     0.202 C 
BRANCH  37  38
ATOM     38  C   UNL A   1      31.885  32.994  26.877  1.00  0.00     0.261 C 
BRANCH  38  39
ATOM     39  O   UNL A   1      32.231  33.259  28.230  1.00  0.00    -0.460 OA
BRANCH  39  40
ATOM     40  C   UNL A   1      33.235  34.160  28.341  1.00  0.00     0.338 C 
ATOM     41  O   UNL A   1      33.149  35.368  28.387  1.00  0.00    -0.246 OA
BRANCH  40  42
ATOM     42  C   UNL A   1      34.478  33.419  28.593  1.00  0.00     0.060 A 
ATOM     43  C   UNL A   1      34.350  32.203  29.265  1.00  0.00     0.016 A 
ATOM     44  C   UNL A   1      35.727  33.913  28.209  1.00  0.00     0.016 A 
ATOM     45  C   UNL A   1      35.489  31.500  29.624  1.00  0.00     0.010 A 
ATOM     46  C   UNL A   1      36.872  33.201  28.567  1.00  0.00     0.010 A 
ATOM     47  C   UNL A   1      36.755  32.019  29.320  1.00  0.00    -0.014 A 
BRANCH  47  48
ATOM     48  C   UNL A   1      37.932  31.399  29.967  1.00  0.00     0.031 A 
ATOM     49  C   UNL A   1      38.223  31.736  31.403  1.00  0.00     0.074 A 
ATOM     50  C   UNL A   1      38.651  30.467  29.318  1.00  0.00     0.049 A 
ATOM     51  N   UNL A   1      39.140  31.251  32.199  1.00  0.00    -0.248 NA
ATOM     52  C   UNL A   1      37.365  32.757  32.026  1.00  0.00     0.031 C 
ATOM     53  C   UNL A   1      38.417  30.033  27.940  1.00  0.00     0.029 A 
ATOM     54  N   UNL A   1      39.708  29.703  29.737  1.00  0.00    -0.354 N 
ATOM     55  C   UNL A   1      38.966  31.901  33.416  1.00  0.00     0.074 A 
ATOM     56  C   UNL A   1      37.892  32.853  33.236  1.00  0.00     0.031 C 
ATOM     57  C   UNL A   1      39.296  29.065  27.633  1.00  0.00     0.029 A 
ATOM     58  C   UNL A   1      40.177  28.836  28.777  1.00  0.00     0.049 A 
ATOM     59  H   UNL A   1      40.094  29.766  30.640  1.00  0.00     0.167 HD
ATOM     60  C   UNL A   1      39.631  31.707  34.581  1.00  0.00     0.034 A 
ATOM     61  C   UNL A   1      41.206  27.968  28.818  1.00  0.00     0.034 A 
ATOM     62  C   UNL A   1      40.701  30.754  34.736  1.00  0.00     0.049 A 
ATOM     63  C   UNL A   1      41.986  27.830  30.103  1.00  0.00     0.074 A 
ATOM     64  C   UNL A   1      41.436  30.462  35.871  1.00  0.00     0.029 A 
ATOM     65  N   UNL A   1      41.201  29.946  33.721  1.00  0.00    -0.354 N 
ATOM     66  N   UNL A   1      41.803  28.439  31.252  1.00  0.00    -0.248 NA
ATOM     67  C   UNL A   1      43.105  26.879  30.099  1.00  0.00     0.031 C 
ATOM     68  C   UNL A   1      42.432  29.543  35.523  1.00  0.00     0.029 A 
ATOM     69  C   UNL A   1      42.263  29.189  34.194  1.00  0.00     0.049 A 
ATOM     70  H   UNL A   1      40.852  29.916  32.801  1.00  0.00     0.167 HD
ATOM     71  C   UNL A   1      42.765  27.922  32.117  1.00  0.00     0.074 A 
ATOM     72  C   UNL A   1      43.513  26.938  31.358  1.00  0.00     0.031 C 
ATOM     73  C   UNL A   1      43.008  28.225  33.418  1.00  0.00     0.034 A 
BRANCH  60  74
ATOM     74  C   UNL A   1      39.252  32.582  35.752  1.00  0.00     0.023 A 
ATOM     75  C   UNL A   1      39.686  33.915  35.859  1.00  0.00     0.031 A 
ATOM     76  C   UNL A   1      38.467  32.061  36.797  1.00  0.00     0.131 A 
ATOM     77  C   UNL A   1      39.395  34.656  37.015  1.00  0.00     0.055 A 
ATOM     78  C   UNL A   1      38.112  32.831  37.905  1.00  0.00     0.041 A 
ATOM     79  F   UNL A   1      38.048  30.787  36.765  1.00  0.00    -0.206 F 
ATOM     80  C   UNL A   1      38.588  34.132  38.026  1.00  0.00     0.022 A 
BRANCH  77  81
ATOM     81  S   UNL A   1      40.213  36.259  37.248  1.00  0.00     0.124 S 
ATOM     82  O   UNL A   1      41.552  35.850  37.666  1.00  0.00    -0.237 OA
ATOM     83  O   UNL A   1      40.112  36.860  35.923  1.00  0.00    -0.237 OA
ATOM     84  O   UNL A   1      39.414  36.903  38.288  1.00  0.00    -0.744 OA
ENDBRANCH  77  81
ENDBRANCH  60  74
BRANCH  61  85
ATOM     85  C   UNL A   1      41.584  27.189  27.603  1.00  0.00     0.023 A 
ATOM     86  C   UNL A   1      41.390  25.801  27.532  1.00  0.00     0.031 A 
ATOM     87  C   UNL A   1      42.199  27.825  26.509  1.00  0.00     0.131 A 
ATOM     88  C   UNL A   1      41.850  25.087  26.413  1.00  0.00     0.055 A 
ATOM     89  C   UNL A   1      42.601  27.119  25.374  1.00  0.00     0.041 A 
ATOM     90  F   UNL A   1      42.410  29.151  26.524  1.00  0.00    -0.206 F 
ATOM     91  C   UNL A   1      42.440  25.739  25.328  1.00  0.00     0.022 A 
BRANCH  88  92
ATOM     92  S   UNL A   1      41.753  23.276  26.437  1.00  0.00     0.124 S 
ATOM     93  O   UNL A   1      40.314  23.056  26.339  1.00  0.00    -0.237 OA
ATOM     94  O   UNL A   1      42.541  22.916  25.263  1.00  0.00    -0.237 OA
ATOM     95  O   UNL A   1      42.353  22.921  27.721  1.00  0.00    -0.744 OA
ENDBRANCH  88  92
ENDBRANCH  61  85
BRANCH  73  96
ATOM     96  C   UNL A   1      44.107  27.453  34.111  1.00  0.00     0.023 A 
ATOM     97  C   UNL A   1      43.903  26.150  34.598  1.00  0.00     0.031 A 
ATOM     98  C   UNL A   1      45.375  28.035  34.292  1.00  0.00     0.131 A 
ATOM     99  C   UNL A   1      44.931  25.497  35.296  1.00  0.00     0.055 A 
ATOM    100  C   UNL A   1      46.414  27.353  34.926  1.00  0.00     0.041 A 
ATOM    101  F   UNL A   1      45.626  29.278  33.849  1.00  0.00    -0.206 F 
ATOM    102  C   UNL A   1      46.190  26.082  35.446  1.00  0.00     0.022 A 
BRANCH  99 103
ATOM    103  S   UNL A   1      44.565  23.911  36.098  1.00  0.00     0.124 S 
ATOM    104  O   UNL A   1      44.929  24.182  37.485  1.00  0.00    -0.237 OA
ATOM    105  O   UNL A   1      43.139  23.749  35.833  1.00  0.00    -0.237 OA
ATOM    106  O   UNL A   1      45.436  22.966  35.401  1.00  0.00    -0.744 OA
ENDBRANCH  99 103
ENDBRANCH  73  96
ENDBRANCH  47  48
ENDBRANCH  40  42
ENDBRANCH  39  40
ENDBRANCH  38  39
ENDBRANCH  37  38
ENDBRANCH  36  37
ENDBRANCH   1  36
TORSDOF 23
ENDMDL
