MODEL 1
REMARK VINA RESULT:     -11.8      0.000      0.000
REMARK SMILES Cc1cc(C)n(-c2nc(C)c(C)c(Oc3cccc(C(=O)OCCOCCOC(=O)c4ccc(-c5c6nc(c(-c7cc(S(=O)(=O)[O-])ccc7F)c7ccc([nH]7)c(-c7cc(S(=O)(=O)[O-])ccc7F)c7nc(c(-c8cc(S(=O)(=O)[O-])ccc8F)c8ccc5[nH]8)C=C7)C=C6)cc4)c3)n2)n1
REMARK SMILES IDX 25 1 24 2 23 3 22 4 20 5 21 6 19 7 15 8 16 9 94 10 17 11
REMARK SMILES IDX 18 12 14 13 13 14 7 15 8 16 95 17 9 18 10 19 11 20 12 21
REMARK SMILES IDX 6 22 1 23 2 24 3 25 96 26 4 27 5 28 26 29 27 30 28 31 29 32
REMARK SMILES IDX 30 33 31 34 32 35 93 36 33 37 92 38 34 39 35 40 36 41 86 42
REMARK SMILES IDX 37 43 91 44 85 45 87 46 38 47 90 48 84 49 83 50 39 52 71 53
REMARK SMILES IDX 51 54 70 55 52 56 55 57 69 58 88 59 53 60 54 61 68 63 89 64
REMARK SMILES IDX 56 65 40 66 41 67 49 68 42 69 48 70 50 71 47 72 43 73 44 74
REMARK SMILES IDX 45 75 46 76 72 77 73 78 81 79 74 80 80 81 82 82 79 83 75 84
REMARK SMILES IDX 76 85 77 86 78 87 57 88 58 89 66 90 59 91 65 92 67 93 64 94
REMARK SMILES IDX 60 95 61 96 62 97 63 98
REMARK H PARENT 87 51 55 62
REMARK Flexibility Score: inf
ROOT
ATOM      1  O   UNL A   1      43.926  18.276  25.568  1.00  0.00    -0.374 OA
ENDROOT
BRANCH   1   2
ATOM      2  C   UNL A   1      42.548  18.537  25.835  1.00  0.00     0.202 C 
BRANCH   2   3
ATOM      3  C   UNL A   1      42.195  19.741  26.713  1.00  0.00     0.261 C 
BRANCH   3   4
ATOM      4  O   UNL A   1      41.035  20.451  26.251  1.00  0.00    -0.460 OA
BRANCH   4   5
ATOM      5  C   UNL A   1      40.564  21.381  27.119  1.00  0.00     0.338 C 
ATOM      6  O   UNL A   1      41.058  21.700  28.189  1.00  0.00    -0.246 OA
BRANCH   5   7
ATOM      7  C   UNL A   1      39.447  22.134  26.509  1.00  0.00     0.063 A 
ATOM      8  C   UNL A   1      37.310  22.241  25.409  1.00  0.00     0.130 A 
ATOM      9  C   UNL A   1      37.280  23.627  25.592  1.00  0.00     0.047 A 
ATOM     10  C   UNL A   1      38.433  21.499  25.793  1.00  0.00     0.062 A 
ATOM     11  C   UNL A   1      38.332  24.269  26.241  1.00  0.00     0.005 A 
ATOM     12  C   UNL A   1      39.401  23.518  26.726  1.00  0.00     0.016 A 
BRANCH   8  13
ATOM     13  O   UNL A   1      36.193  21.682  24.830  1.00  0.00    -0.439 OA
BRANCH  13  14
ATOM     14  C   UNL A   1      35.008  22.419  24.844  1.00  0.00     0.227 A 
ATOM     15  C   UNL A   1      33.683  24.031  23.915  1.00  0.00     0.254 A 
ATOM     16  N   UNL A   1      32.903  24.097  25.014  1.00  0.00    -0.216 NA
ATOM     17  N   UNL A   1      34.702  23.174  23.774  1.00  0.00    -0.175 NA
ATOM     18  C   UNL A   1      33.129  23.192  25.995  1.00  0.00     0.050 A 
ATOM     19  C   UNL A   1      32.071  23.153  27.060  1.00  0.00     0.067 C 
ATOM     20  C   UNL A   1      34.221  22.335  25.980  1.00  0.00     0.033 A 
ATOM     21  C   UNL A   1      34.510  21.369  27.087  1.00  0.00     0.052 C 
BRANCH  15  22
ATOM     22  N   UNL A   1      33.430  24.950  22.844  1.00  0.00    -0.203 N 
ATOM     23  C   UNL A   1      32.341  25.504  19.500  1.00  0.00     0.069 C 
ATOM     24  C   UNL A   1      32.817  25.604  20.900  1.00  0.00     0.060 A 
ATOM     25  C   UNL A   1      32.940  26.770  21.683  1.00  0.00     0.049 A 
ATOM     26  N   UNL A   1      33.203  24.515  21.570  1.00  0.00    -0.170 NA
ATOM     27  C   UNL A   1      33.363  26.336  22.921  1.00  0.00     0.045 A 
ATOM     28  C   UNL A   1      33.789  27.107  24.115  1.00  0.00     0.067 C 
ENDBRANCH  15  22
ENDBRANCH  13  14
ENDBRANCH   8  13
ENDBRANCH   5   7
ENDBRANCH   4   5
ENDBRANCH   3   4
ENDBRANCH   2   3
ENDBRANCH   1   2
BRANCH   1  29
ATOM     29  C   UNL A   1      44.567  18.925  24.476  1.00  0.00     0.202 C 
BRANCH  29  30
ATOM     30  C   UNL A   1      45.657  19.947  24.762  1.00  0.00     0.261 C 
BRANCH  30  31
ATOM     31  O   UNL A   1      45.186  21.039  25.531  1.00  0.00    -0.460 OA
BRANCH  31  32
ATOM     32  C   UNL A   1      44.494  21.952  24.804  1.00  0.00     0.338 C 
ATOM     33  O   UNL A   1      44.528  22.108  23.600  1.00  0.00    -0.246 OA
BRANCH  32  34
ATOM     34  C   UNL A   1      43.794  22.839  25.736  1.00  0.00     0.060 A 
ATOM     35  C   UNL A   1      42.825  23.683  25.189  1.00  0.00     0.016 A 
ATOM     36  C   UNL A   1      44.326  23.039  27.018  1.00  0.00     0.016 A 
ATOM     37  C   UNL A   1      42.565  24.870  25.837  1.00  0.00     0.010 A 
ATOM     38  C   UNL A   1      44.086  24.231  27.646  1.00  0.00     0.010 A 
ATOM     39  C   UNL A   1      43.284  25.167  27.000  1.00  0.00    -0.014 A 
BRANCH  39  40
ATOM     40  C   UNL A   1      43.082  26.446  27.640  1.00  0.00     0.031 A 
ATOM     41  C   UNL A   1      44.156  27.394  27.284  1.00  0.00     0.074 A 
ATOM     42  C   UNL A   1      41.977  26.746  28.348  1.00  0.00     0.049 A 
ATOM     43  N   UNL A   1      45.164  27.736  28.012  1.00  0.00    -0.248 NA
ATOM     44  C   UNL A   1      44.270  27.806  25.873  1.00  0.00     0.031 C 
ATOM     45  C   UNL A   1      40.763  25.950  28.541  1.00  0.00     0.029 A 
ATOM     46  N   UNL A   1      41.682  27.899  29.002  1.00  0.00    -0.354 N 
ATOM     47  C   UNL A   1      45.876  28.636  27.234  1.00  0.00     0.074 A 
ATOM     48  C   UNL A   1      45.456  28.414  25.879  1.00  0.00     0.031 C 
ATOM     49  C   UNL A   1      39.792  26.728  29.078  1.00  0.00     0.029 A 
ATOM     50  C   UNL A   1      40.351  28.034  29.395  1.00  0.00     0.049 A 
ATOM     51  H   UNL A   1      42.359  28.590  29.185  1.00  0.00     0.167 HD
ATOM     52  C   UNL A   1      46.484  29.711  27.802  1.00  0.00     0.034 A 
ATOM     53  C   UNL A   1      39.778  29.156  29.916  1.00  0.00     0.034 A 
ATOM     54  C   UNL A   1      46.636  29.525  29.228  1.00  0.00     0.049 A 
ATOM     55  C   UNL A   1      40.894  29.957  30.480  1.00  0.00     0.074 A 
ATOM     56  C   UNL A   1      47.283  28.601  30.028  1.00  0.00     0.029 A 
ATOM     57  N   UNL A   1      45.710  30.137  30.041  1.00  0.00    -0.354 N 
ATOM     58  N   UNL A   1      41.626  29.560  31.483  1.00  0.00    -0.248 NA
ATOM     59  C   UNL A   1      41.498  30.969  29.627  1.00  0.00     0.031 C 
ATOM     60  C   UNL A   1      46.407  28.385  31.134  1.00  0.00     0.029 A 
ATOM     61  C   UNL A   1      45.310  29.237  31.000  1.00  0.00     0.049 A 
ATOM     62  H   UNL A   1      45.390  31.064  29.952  1.00  0.00     0.167 HD
ATOM     63  C   UNL A   1      42.918  29.933  31.149  1.00  0.00     0.074 A 
ATOM     64  C   UNL A   1      42.764  30.877  30.042  1.00  0.00     0.031 C 
ATOM     65  C   UNL A   1      43.991  29.223  31.606  1.00  0.00     0.034 A 
BRANCH  52  66
ATOM     66  C   UNL A   1      46.551  31.070  27.145  1.00  0.00     0.023 A 
ATOM     67  C   UNL A   1      47.822  31.644  26.970  1.00  0.00     0.031 A 
ATOM     68  C   UNL A   1      45.450  31.934  26.923  1.00  0.00     0.131 A 
ATOM     69  C   UNL A   1      47.958  33.007  26.653  1.00  0.00     0.055 A 
ATOM     70  C   UNL A   1      45.590  33.271  26.547  1.00  0.00     0.041 A 
ATOM     71  F   UNL A   1      44.180  31.575  27.147  1.00  0.00    -0.206 F 
ATOM     72  C   UNL A   1      46.850  33.823  26.435  1.00  0.00     0.022 A 
BRANCH  69  73
ATOM     73  S   UNL A   1      49.615  33.730  26.652  1.00  0.00     0.124 S 
ATOM     74  O   UNL A   1      50.305  32.891  27.624  1.00  0.00    -0.237 OA
ATOM     75  O   UNL A   1      50.012  33.565  25.258  1.00  0.00    -0.237 OA
ATOM     76  O   UNL A   1      49.381  35.111  27.071  1.00  0.00    -0.744 OA
ENDBRANCH  69  73
ENDBRANCH  52  66
BRANCH  53  77
ATOM     77  C   UNL A   1      38.444  29.769  29.633  1.00  0.00     0.023 A 
ATOM     78  C   UNL A   1      37.723  30.456  30.641  1.00  0.00     0.031 A 
ATOM     79  C   UNL A   1      38.010  29.968  28.307  1.00  0.00     0.131 A 
ATOM     80  C   UNL A   1      36.657  31.322  30.304  1.00  0.00     0.055 A 
ATOM     81  C   UNL A   1      36.955  30.828  27.979  1.00  0.00     0.041 A 
ATOM     82  F   UNL A   1      38.657  29.414  27.270  1.00  0.00    -0.206 F 
ATOM     83  C   UNL A   1      36.286  31.524  28.975  1.00  0.00     0.022 A 
BRANCH  80  84
ATOM     84  S   UNL A   1      35.824  32.319  31.587  1.00  0.00     0.124 S 
ATOM     85  O   UNL A   1      34.456  32.381  31.084  1.00  0.00    -0.237 OA
ATOM     86  O   UNL A   1      36.036  31.531  32.794  1.00  0.00    -0.237 OA
ATOM     87  O   UNL A   1      36.552  33.589  31.550  1.00  0.00    -0.744 OA
ENDBRANCH  80  84
ENDBRANCH  53  77
BRANCH  65  88
ATOM     88  C   UNL A   1      43.758  28.232  32.733  1.00  0.00     0.023 A 
ATOM     89  C   UNL A   1      43.437  28.563  34.072  1.00  0.00     0.031 A 
ATOM     90  C   UNL A   1      43.757  26.873  32.378  1.00  0.00     0.131 A 
ATOM     91  C   UNL A   1      43.131  27.538  34.995  1.00  0.00     0.055 A 
ATOM     92  C   UNL A   1      43.434  25.867  33.287  1.00  0.00     0.041 A 
ATOM     93  F   UNL A   1      44.034  26.501  31.118  1.00  0.00    -0.206 F 
ATOM     94  C   UNL A   1      43.121  26.196  34.600  1.00  0.00     0.022 A 
BRANCH  91  95
ATOM     95  S   UNL A   1      42.716  27.929  36.730  1.00  0.00     0.124 S 
ATOM     96  O   UNL A   1      41.281  27.675  36.797  1.00  0.00    -0.237 OA
ATOM     97  O   UNL A   1      43.566  27.007  37.479  1.00  0.00    -0.237 OA
ATOM     98  O   UNL A   1      43.090  29.339  36.864  1.00  0.00    -0.744 OA
ENDBRANCH  91  95
ENDBRANCH  65  88
ENDBRANCH  39  40
ENDBRANCH  32  34
ENDBRANCH  31  32
ENDBRANCH  30  31
ENDBRANCH  29  30
ENDBRANCH   1  29
TORSDOF 20
ENDMDL
MODEL 2
REMARK VINA RESULT:     -11.6      4.506      7.642
REMARK SMILES Cc1cc(C)n(-c2nc(C)c(C)c(Oc3cccc(C(=O)OCCOCCOC(=O)c4ccc(-c5c6nc(c(-c7cc(S(=O)(=O)[O-])ccc7F)c7ccc([nH]7)c(-c7cc(S(=O)(=O)[O-])ccc7F)c7nc(c(-c8cc(S(=O)(=O)[O-])ccc8F)c8ccc5[nH]8)C=C7)C=C6)cc4)c3)n2)n1
REMARK SMILES IDX 25 1 24 2 23 3 22 4 20 5 21 6 19 7 15 8 16 9 94 10 17 11
REMARK SMILES IDX 18 12 14 13 13 14 7 15 8 16 95 17 9 18 10 19 11 20 12 21
REMARK SMILES IDX 6 22 1 23 2 24 3 25 96 26 4 27 5 28 26 29 27 30 28 31 29 32
REMARK SMILES IDX 30 33 31 34 32 35 93 36 33 37 92 38 34 39 35 40 36 41 86 42
REMARK SMILES IDX 37 43 91 44 85 45 87 46 38 47 90 48 84 49 83 50 39 52 71 53
REMARK SMILES IDX 51 54 70 55 52 56 55 57 69 58 88 59 53 60 54 61 68 63 89 64
REMARK SMILES IDX 56 65 40 66 41 67 49 68 42 69 48 70 50 71 47 72 43 73 44 74
REMARK SMILES IDX 45 75 46 76 72 77 73 78 81 79 74 80 80 81 82 82 79 83 75 84
REMARK SMILES IDX 76 85 77 86 78 87 57 88 58 89 66 90 59 91 65 92 67 93 64 94
REMARK SMILES IDX 60 95 61 96 62 97 63 98
REMARK H PARENT 87 51 55 62
REMARK Flexibility Score: inf
ROOT
ATOM      1  O   UNL A   1      43.183  19.220  24.961  1.00  0.00    -0.374 OA
ENDROOT
BRANCH   1   2
ATOM      2  C   UNL A   1      44.594  19.197  25.175  1.00  0.00     0.202 C 
BRANCH   2   3
ATOM      3  C   UNL A   1      45.470  20.137  24.342  1.00  0.00     0.261 C 
BRANCH   3   4
ATOM      4  O   UNL A   1      45.575  21.453  24.908  1.00  0.00    -0.460 OA
BRANCH   4   5
ATOM      5  C   UNL A   1      44.840  22.399  24.269  1.00  0.00     0.338 C 
ATOM      6  O   UNL A   1      44.101  22.228  23.313  1.00  0.00    -0.246 OA
BRANCH   5   7
ATOM      7  C   UNL A   1      44.889  23.677  25.012  1.00  0.00     0.063 A 
ATOM      8  C   UNL A   1      46.027  25.292  26.384  1.00  0.00     0.130 A 
ATOM      9  C   UNL A   1      44.982  26.200  26.190  1.00  0.00     0.047 A 
ATOM     10  C   UNL A   1      45.946  23.996  25.864  1.00  0.00     0.062 A 
ATOM     11  C   UNL A   1      43.889  25.850  25.400  1.00  0.00     0.005 A 
ATOM     12  C   UNL A   1      43.858  24.599  24.787  1.00  0.00     0.016 A 
BRANCH   8  13
ATOM     13  O   UNL A   1      47.101  25.752  27.112  1.00  0.00    -0.439 OA
BRANCH  13  14
ATOM     14  C   UNL A   1      47.841  26.814  26.592  1.00  0.00     0.227 A 
ATOM     15  C   UNL A   1      49.237  27.637  24.982  1.00  0.00     0.254 A 
ATOM     16  N   UNL A   1      49.547  28.717  25.730  1.00  0.00    -0.216 NA
ATOM     17  N   UNL A   1      48.354  26.702  25.354  1.00  0.00    -0.175 NA
ATOM     18  C   UNL A   1      48.870  28.890  26.888  1.00  0.00     0.050 A 
ATOM     19  C   UNL A   1      49.074  30.230  27.534  1.00  0.00     0.067 C 
ATOM     20  C   UNL A   1      48.013  27.925  27.401  1.00  0.00     0.033 A 
ATOM     21  C   UNL A   1      47.302  28.083  28.709  1.00  0.00     0.052 C 
BRANCH  15  22
ATOM     22  N   UNL A   1      49.909  27.461  23.728  1.00  0.00    -0.203 N 
ATOM     23  C   UNL A   1      49.731  27.270  20.178  1.00  0.00     0.069 C 
ATOM     24  C   UNL A   1      50.131  27.319  21.604  1.00  0.00     0.060 A 
ATOM     25  C   UNL A   1      51.435  27.442  22.125  1.00  0.00     0.049 A 
ATOM     26  N   UNL A   1      49.216  27.236  22.573  1.00  0.00    -0.170 NA
ATOM     27  C   UNL A   1      51.277  27.502  23.493  1.00  0.00     0.045 A 
ATOM     28  C   UNL A   1      52.290  27.501  24.577  1.00  0.00     0.067 C 
ENDBRANCH  15  22
ENDBRANCH  13  14
ENDBRANCH   8  13
ENDBRANCH   5   7
ENDBRANCH   4   5
ENDBRANCH   3   4
ENDBRANCH   2   3
ENDBRANCH   1   2
BRANCH   1  29
ATOM     29  C   UNL A   1      42.318  19.631  26.014  1.00  0.00     0.202 C 
BRANCH  29  30
ATOM     30  C   UNL A   1      41.770  21.050  26.008  1.00  0.00     0.261 C 
BRANCH  30  31
ATOM     31  O   UNL A   1      42.448  21.895  26.921  1.00  0.00    -0.460 OA
BRANCH  31  32
ATOM     32  C   UNL A   1      41.625  22.478  27.828  1.00  0.00     0.338 C 
ATOM     33  O   UNL A   1      40.752  21.940  28.479  1.00  0.00    -0.246 OA
BRANCH  32  34
ATOM     34  C   UNL A   1      41.861  23.924  27.794  1.00  0.00     0.060 A 
ATOM     35  C   UNL A   1      42.833  24.420  28.664  1.00  0.00     0.016 A 
ATOM     36  C   UNL A   1      40.921  24.753  27.167  1.00  0.00     0.016 A 
ATOM     37  C   UNL A   1      42.708  25.723  29.093  1.00  0.00     0.010 A 
ATOM     38  C   UNL A   1      40.783  26.039  27.615  1.00  0.00     0.010 A 
ATOM     39  C   UNL A   1      41.619  26.473  28.639  1.00  0.00    -0.014 A 
BRANCH  39  40
ATOM     40  C   UNL A   1      41.431  27.812  29.148  1.00  0.00     0.031 A 
ATOM     41  C   UNL A   1      42.443  28.736  28.598  1.00  0.00     0.074 A 
ATOM     42  C   UNL A   1      40.381  28.167  29.912  1.00  0.00     0.049 A 
ATOM     43  N   UNL A   1      43.497  29.180  29.195  1.00  0.00    -0.248 NA
ATOM     44  C   UNL A   1      42.426  28.988  27.146  1.00  0.00     0.031 C 
ATOM     45  C   UNL A   1      39.212  27.372  30.294  1.00  0.00     0.029 A 
ATOM     46  N   UNL A   1      40.105  29.380  30.456  1.00  0.00    -0.354 N 
ATOM     47  C   UNL A   1      44.114  30.001  28.264  1.00  0.00     0.074 A 
ATOM     48  C   UNL A   1      43.590  29.618  26.983  1.00  0.00     0.031 C 
ATOM     49  C   UNL A   1      38.265  28.186  30.824  1.00  0.00     0.029 A 
ATOM     50  C   UNL A   1      38.808  29.530  30.945  1.00  0.00     0.049 A 
ATOM     51  H   UNL A   1      40.774  30.101  30.503  1.00  0.00     0.167 HD
ATOM     52  C   UNL A   1      44.733  31.146  28.655  1.00  0.00     0.034 A 
ATOM     53  C   UNL A   1      38.246  30.691  31.386  1.00  0.00     0.034 A 
ATOM     54  C   UNL A   1      45.009  31.126  30.074  1.00  0.00     0.049 A 
ATOM     55  C   UNL A   1      39.380  31.575  31.758  1.00  0.00     0.074 A 
ATOM     56  C   UNL A   1      45.748  30.312  30.913  1.00  0.00     0.029 A 
ATOM     57  N   UNL A   1      44.136  31.806  30.891  1.00  0.00    -0.354 N 
ATOM     58  N   UNL A   1      40.204  31.309  32.733  1.00  0.00    -0.248 NA
ATOM     59  C   UNL A   1      39.879  32.496  30.750  1.00  0.00     0.031 C 
ATOM     60  C   UNL A   1      44.974  30.204  32.107  1.00  0.00     0.029 A 
ATOM     61  C   UNL A   1      43.843  31.012  31.974  1.00  0.00     0.049 A 
ATOM     62  H   UNL A   1      43.780  32.710  30.728  1.00  0.00     0.167 HD
ATOM     63  C   UNL A   1      41.452  31.669  32.250  1.00  0.00     0.074 A 
ATOM     64  C   UNL A   1      41.178  32.479  31.063  1.00  0.00     0.031 C 
ATOM     65  C   UNL A   1      42.580  31.038  32.689  1.00  0.00     0.034 A 
BRANCH  52  66
ATOM     66  C   UNL A   1      44.704  32.423  27.848  1.00  0.00     0.023 A 
ATOM     67  C   UNL A   1      43.925  33.484  28.340  1.00  0.00     0.031 A 
ATOM     68  C   UNL A   1      45.174  32.569  26.519  1.00  0.00     0.131 A 
ATOM     69  C   UNL A   1      43.601  34.578  27.519  1.00  0.00     0.055 A 
ATOM     70  C   UNL A   1      44.901  33.687  25.729  1.00  0.00     0.041 A 
ATOM     71  F   UNL A   1      45.838  31.608  25.867  1.00  0.00    -0.206 F 
ATOM     72  C   UNL A   1      44.088  34.690  26.219  1.00  0.00     0.022 A 
BRANCH  69  73
ATOM     73  S   UNL A   1      42.423  35.803  28.140  1.00  0.00     0.124 S 
ATOM     74  O   UNL A   1      43.257  36.579  29.051  1.00  0.00    -0.237 OA
ATOM     75  O   UNL A   1      42.013  36.473  26.910  1.00  0.00    -0.237 OA
ATOM     76  O   UNL A   1      41.392  34.987  28.777  1.00  0.00    -0.744 OA
ENDBRANCH  69  73
ENDBRANCH  52  66
BRANCH  53  77
ATOM     77  C   UNL A   1      36.875  31.240  31.151  1.00  0.00     0.023 A 
ATOM     78  C   UNL A   1      36.146  31.864  32.194  1.00  0.00     0.031 A 
ATOM     79  C   UNL A   1      36.397  31.447  29.842  1.00  0.00     0.131 A 
ATOM     80  C   UNL A   1      35.028  32.681  31.906  1.00  0.00     0.055 A 
ATOM     81  C   UNL A   1      35.290  32.259  29.562  1.00  0.00     0.041 A 
ATOM     82  F   UNL A   1      37.043  30.953  28.776  1.00  0.00    -0.206 F 
ATOM     83  C   UNL A   1      34.612  32.894  30.593  1.00  0.00     0.022 A 
BRANCH  80  84
ATOM     84  S   UNL A   1      34.179  33.602  33.234  1.00  0.00     0.124 S 
ATOM     85  O   UNL A   1      32.944  32.842  33.391  1.00  0.00    -0.237 OA
ATOM     86  O   UNL A   1      35.130  33.528  34.336  1.00  0.00    -0.237 OA
ATOM     87  O   UNL A   1      34.011  34.939  32.661  1.00  0.00    -0.744 OA
ENDBRANCH  80  84
ENDBRANCH  53  77
BRANCH  65  88
ATOM     88  C   UNL A   1      42.473  30.176  33.935  1.00  0.00     0.023 A 
ATOM     89  C   UNL A   1      42.417  28.761  33.959  1.00  0.00     0.031 A 
ATOM     90  C   UNL A   1      42.545  30.848  35.166  1.00  0.00     0.131 A 
ATOM     91  C   UNL A   1      42.436  28.078  35.195  1.00  0.00     0.055 A 
ATOM     92  C   UNL A   1      42.585  30.168  36.382  1.00  0.00     0.041 A 
ATOM     93  F   UNL A   1      42.620  32.188  35.204  1.00  0.00    -0.206 F 
ATOM     94  C   UNL A   1      42.529  28.780  36.402  1.00  0.00     0.022 A 
BRANCH  91  95
ATOM     95  S   UNL A   1      42.362  26.255  35.263  1.00  0.00     0.124 S 
ATOM     96  O   UNL A   1      43.146  25.844  34.104  1.00  0.00    -0.237 OA
ATOM     97  O   UNL A   1      42.946  25.958  36.569  1.00  0.00    -0.237 OA
ATOM     98  O   UNL A   1      40.931  25.963  35.161  1.00  0.00    -0.744 OA
ENDBRANCH  91  95
ENDBRANCH  65  88
ENDBRANCH  39  40
ENDBRANCH  32  34
ENDBRANCH  31  32
ENDBRANCH  30  31
ENDBRANCH  29  30
ENDBRANCH   1  29
TORSDOF 20
ENDMDL
MODEL 3
REMARK VINA RESULT:     -11.4      4.506     12.476
REMARK SMILES Cc1cc(C)n(-c2nc(C)c(C)c(Oc3cccc(C(=O)OCCOCCOC(=O)c4ccc(-c5c6nc(c(-c7cc(S(=O)(=O)[O-])ccc7F)c7ccc([nH]7)c(-c7cc(S(=O)(=O)[O-])ccc7F)c7nc(c(-c8cc(S(=O)(=O)[O-])ccc8F)c8ccc5[nH]8)C=C7)C=C6)cc4)c3)n2)n1
REMARK SMILES IDX 25 1 24 2 23 3 22 4 20 5 21 6 19 7 15 8 16 9 94 10 17 11
REMARK SMILES IDX 18 12 14 13 13 14 7 15 8 16 95 17 9 18 10 19 11 20 12 21
REMARK SMILES IDX 6 22 1 23 2 24 3 25 96 26 4 27 5 28 26 29 27 30 28 31 29 32
REMARK SMILES IDX 30 33 31 34 32 35 93 36 33 37 92 38 34 39 35 40 36 41 86 42
REMARK SMILES IDX 37 43 91 44 85 45 87 46 38 47 90 48 84 49 83 50 39 52 71 53
REMARK SMILES IDX 51 54 70 55 52 56 55 57 69 58 88 59 53 60 54 61 68 63 89 64
REMARK SMILES IDX 56 65 40 66 41 67 49 68 42 69 48 70 50 71 47 72 43 73 44 74
REMARK SMILES IDX 45 75 46 76 72 77 73 78 81 79 74 80 80 81 82 82 79 83 75 84
REMARK SMILES IDX 76 85 77 86 78 87 57 88 58 89 66 90 59 91 65 92 67 93 64 94
REMARK SMILES IDX 60 95 61 96 62 97 63 98
REMARK H PARENT 87 51 55 62
REMARK Flexibility Score: inf
ROOT
ATOM      1  O   UNL A   1      32.614  34.889  29.793  1.00  0.00    -0.374 OA
ENDROOT
BRANCH   1   2
ATOM      2  C   UNL A   1      32.935  36.159  30.360  1.00  0.00     0.202 C 
BRANCH   2   3
ATOM      3  C   UNL A   1      33.299  36.219  31.846  1.00  0.00     0.261 C 
BRANCH   3   4
ATOM      4  O   UNL A   1      33.841  34.984  32.340  1.00  0.00    -0.460 OA
BRANCH   4   5
ATOM      5  C   UNL A   1      34.830  35.133  33.258  1.00  0.00     0.338 C 
ATOM      6  O   UNL A   1      34.799  35.829  34.260  1.00  0.00    -0.246 OA
BRANCH   5   7
ATOM      7  C   UNL A   1      35.921  34.169  32.999  1.00  0.00     0.063 A 
ATOM      8  C   UNL A   1      38.117  33.617  32.185  1.00  0.00     0.130 A 
ATOM      9  C   UNL A   1      38.015  32.345  32.758  1.00  0.00     0.047 A 
ATOM     10  C   UNL A   1      37.036  34.505  32.232  1.00  0.00     0.062 A 
ATOM     11  C   UNL A   1      36.866  31.985  33.459  1.00  0.00     0.005 A 
ATOM     12  C   UNL A   1      35.832  32.908  33.605  1.00  0.00     0.016 A 
BRANCH   8  13
ATOM     13  O   UNL A   1      39.318  33.913  31.581  1.00  0.00    -0.439 OA
BRANCH  13  14
ATOM     14  C   UNL A   1      40.391  34.275  32.395  1.00  0.00     0.227 A 
ATOM     15  C   UNL A   1      41.197  34.809  34.465  1.00  0.00     0.254 A 
ATOM     16  N   UNL A   1      42.344  35.298  33.949  1.00  0.00    -0.216 NA
ATOM     17  N   UNL A   1      40.231  34.244  33.730  1.00  0.00    -0.175 NA
ATOM     18  C   UNL A   1      42.548  35.142  32.621  1.00  0.00     0.050 A 
ATOM     19  C   UNL A   1      43.939  35.471  32.162  1.00  0.00     0.067 C 
ATOM     20  C   UNL A   1      41.563  34.663  31.767  1.00  0.00     0.033 A 
ATOM     21  C   UNL A   1      41.760  34.538  30.289  1.00  0.00     0.052 C 
BRANCH  15  22
ATOM     22  N   UNL A   1      40.983  34.921  35.878  1.00  0.00    -0.203 N 
ATOM     23  C   UNL A   1      39.631  36.745  38.619  1.00  0.00     0.069 C 
ATOM     24  C   UNL A   1      40.274  35.765  37.712  1.00  0.00     0.060 A 
ATOM     25  C   UNL A   1      40.681  34.451  38.020  1.00  0.00     0.049 A 
ATOM     26  N   UNL A   1      40.542  36.083  36.443  1.00  0.00    -0.170 NA
ATOM     27  C   UNL A   1      41.163  33.932  36.838  1.00  0.00     0.045 A 
ATOM     28  C   UNL A   1      41.848  32.645  36.563  1.00  0.00     0.067 C 
ENDBRANCH  15  22
ENDBRANCH  13  14
ENDBRANCH   8  13
ENDBRANCH   5   7
ENDBRANCH   4   5
ENDBRANCH   3   4
ENDBRANCH   2   3
ENDBRANCH   1   2
BRANCH   1  29
ATOM     29  C   UNL A   1      33.047  34.577  28.473  1.00  0.00     0.202 C 
BRANCH  29  30
ATOM     30  C   UNL A   1      34.421  33.954  28.275  1.00  0.00     0.261 C 
BRANCH  30  31
ATOM     31  O   UNL A   1      34.385  32.539  28.327  1.00  0.00    -0.460 OA
BRANCH  31  32
ATOM     32  C   UNL A   1      35.011  32.023  29.414  1.00  0.00     0.338 C 
ATOM     33  O   UNL A   1      34.691  32.159  30.578  1.00  0.00    -0.246 OA
BRANCH  32  34
ATOM     34  C   UNL A   1      36.248  31.380  28.964  1.00  0.00     0.060 A 
ATOM     35  C   UNL A   1      36.220  29.990  28.834  1.00  0.00     0.016 A 
ATOM     36  C   UNL A   1      37.446  32.106  29.003  1.00  0.00     0.016 A 
ATOM     37  C   UNL A   1      37.405  29.305  28.985  1.00  0.00     0.010 A 
ATOM     38  C   UNL A   1      38.619  31.422  29.179  1.00  0.00     0.010 A 
ATOM     39  C   UNL A   1      38.566  30.034  29.262  1.00  0.00    -0.014 A 
BRANCH  39  40
ATOM     40  C   UNL A   1      39.798  29.320  29.507  1.00  0.00     0.031 A 
ATOM     41  C   UNL A   1      40.099  29.261  30.951  1.00  0.00     0.074 A 
ATOM     42  C   UNL A   1      40.484  28.687  28.538  1.00  0.00     0.049 A 
ATOM     43  N   UNL A   1      40.954  29.978  31.598  1.00  0.00    -0.248 NA
ATOM     44  C   UNL A   1      39.170  28.512  31.816  1.00  0.00     0.031 C 
ATOM     45  C   UNL A   1      40.124  28.492  27.132  1.00  0.00     0.029 A 
ATOM     46  N   UNL A   1      41.651  28.000  28.642  1.00  0.00    -0.354 N 
ATOM     47  C   UNL A   1      40.858  29.549  32.912  1.00  0.00     0.074 A 
ATOM     48  C   UNL A   1      39.587  28.889  33.025  1.00  0.00     0.031 C 
ATOM     49  C   UNL A   1      40.945  27.565  26.578  1.00  0.00     0.029 A 
ATOM     50  C   UNL A   1      41.971  27.202  27.543  1.00  0.00     0.049 A 
ATOM     51  H   UNL A   1      42.230  28.062  29.436  1.00  0.00     0.167 HD
ATOM     52  C   UNL A   1      41.966  29.466  33.695  1.00  0.00     0.034 A 
ATOM     53  C   UNL A   1      42.993  26.304  27.475  1.00  0.00     0.034 A 
ATOM     54  C   UNL A   1      43.050  30.246  33.141  1.00  0.00     0.049 A 
ATOM     55  C   UNL A   1      43.976  26.727  28.505  1.00  0.00     0.074 A 
ATOM     56  C   UNL A   1      43.235  31.581  32.836  1.00  0.00     0.029 A 
ATOM     57  N   UNL A   1      44.008  29.565  32.426  1.00  0.00    -0.354 N 
ATOM     58  N   UNL A   1      44.628  27.855  28.452  1.00  0.00    -0.248 NA
ATOM     59  C   UNL A   1      43.873  26.126  29.825  1.00  0.00     0.031 C 
ATOM     60  C   UNL A   1      43.974  31.588  31.615  1.00  0.00     0.029 A 
ATOM     61  C   UNL A   1      44.273  30.268  31.274  1.00  0.00     0.049 A 
ATOM     62  H   UNL A   1      44.433  28.718  32.693  1.00  0.00     0.167 HD
ATOM     63  C   UNL A   1      44.639  28.320  29.757  1.00  0.00     0.074 A 
ATOM     64  C   UNL A   1      44.243  27.170  30.571  1.00  0.00     0.031 C 
ATOM     65  C   UNL A   1      44.685  29.658  30.023  1.00  0.00     0.034 A 
BRANCH  52  66
ATOM     66  C   UNL A   1      42.186  28.366  34.708  1.00  0.00     0.023 A 
ATOM     67  C   UNL A   1      42.956  27.261  34.308  1.00  0.00     0.031 A 
ATOM     68  C   UNL A   1      41.483  28.217  35.929  1.00  0.00     0.131 A 
ATOM     69  C   UNL A   1      42.958  26.075  35.064  1.00  0.00     0.055 A 
ATOM     70  C   UNL A   1      41.539  27.060  36.708  1.00  0.00     0.041 A 
ATOM     71  F   UNL A   1      40.626  29.132  36.397  1.00  0.00    -0.206 F 
ATOM     72  C   UNL A   1      42.259  25.969  36.264  1.00  0.00     0.022 A 
BRANCH  69  73
ATOM     73  S   UNL A   1      43.796  24.623  34.387  1.00  0.00     0.124 S 
ATOM     74  O   UNL A   1      44.845  24.399  35.376  1.00  0.00    -0.237 OA
ATOM     75  O   UNL A   1      42.716  23.641  34.358  1.00  0.00    -0.237 OA
ATOM     76  O   UNL A   1      44.257  25.078  33.077  1.00  0.00    -0.744 OA
ENDBRANCH  69  73
ENDBRANCH  52  66
BRANCH  53  77
ATOM     77  C   UNL A   1      43.021  24.927  26.893  1.00  0.00     0.023 A 
ATOM     78  C   UNL A   1      44.114  24.484  26.108  1.00  0.00     0.031 A 
ATOM     79  C   UNL A   1      42.139  23.931  27.358  1.00  0.00     0.131 A 
ATOM     80  C   UNL A   1      44.311  23.106  25.856  1.00  0.00     0.055 A 
ATOM     81  C   UNL A   1      42.340  22.568  27.107  1.00  0.00     0.041 A 
ATOM     82  F   UNL A   1      41.105  24.232  28.157  1.00  0.00    -0.206 F 
ATOM     83  C   UNL A   1      43.438  22.148  26.371  1.00  0.00     0.022 A 
BRANCH  80  84
ATOM     84  S   UNL A   1      45.797  22.522  24.971  1.00  0.00     0.124 S 
ATOM     85  O   UNL A   1      45.603  23.090  23.642  1.00  0.00    -0.237 OA
ATOM     86  O   UNL A   1      46.884  23.085  25.763  1.00  0.00    -0.237 OA
ATOM     87  O   UNL A   1      45.680  21.065  25.043  1.00  0.00    -0.744 OA
ENDBRANCH  80  84
ENDBRANCH  53  77
BRANCH  65  88
ATOM     88  C   UNL A   1      45.049  30.596  28.884  1.00  0.00     0.023 A 
ATOM     89  C   UNL A   1      46.358  31.015  28.545  1.00  0.00     0.031 A 
ATOM     90  C   UNL A   1      43.998  30.985  28.037  1.00  0.00     0.131 A 
ATOM     91  C   UNL A   1      46.568  31.798  27.387  1.00  0.00     0.055 A 
ATOM     92  C   UNL A   1      44.213  31.739  26.885  1.00  0.00     0.041 A 
ATOM     93  F   UNL A   1      42.739  30.599  28.298  1.00  0.00    -0.206 F 
ATOM     94  C   UNL A   1      45.499  32.150  26.556  1.00  0.00     0.022 A 
BRANCH  91  95
ATOM     95  S   UNL A   1      48.242  32.358  26.922  1.00  0.00     0.124 S 
ATOM     96  O   UNL A   1      47.992  33.286  25.824  1.00  0.00    -0.237 OA
ATOM     97  O   UNL A   1      48.739  32.951  28.161  1.00  0.00    -0.237 OA
ATOM     98  O   UNL A   1      48.923  31.123  26.529  1.00  0.00    -0.744 OA
ENDBRANCH  91  95
ENDBRANCH  65  88
ENDBRANCH  39  40
ENDBRANCH  32  34
ENDBRANCH  31  32
ENDBRANCH  30  31
ENDBRANCH  29  30
ENDBRANCH   1  29
TORSDOF 20
ENDMDL
