MODEL 1
REMARK VINA RESULT:     -11.8      0.000      0.000
REMARK SMILES Cc1cc(-c2cncc(C(=O)OCCOCCOC(=O)c3ccc(-c4c5nc(c(-c6cc(S(=O)(=O)[O-])ccc6F)c6ccc([nH]6)c(-c6cc(S(=O)(=O)[O-])ccc6F)c6nc(c(-c7cc(S(=O)(=O)[O-])ccc7F)c7ccc4[nH]7)C=C6)C=C5)cc3)c2)ccc1F
REMARK SMILES IDX 16 1 15 2 14 3 13 4 12 5 10 6 11 7 9 8 5 9 6 10 84 11 7 12
REMARK SMILES IDX 8 13 4 14 1 15 2 16 3 17 87 18 86 19 88 20 85 21 17 22 18 23
REMARK SMILES IDX 19 24 20 25 21 26 22 27 83 28 23 29 82 30 24 31 25 32 26 33
REMARK SMILES IDX 76 34 27 35 81 36 75 37 77 38 28 39 80 40 74 41 73 42 29 44
REMARK SMILES IDX 61 45 41 46 60 47 42 48 45 49 59 50 78 51 43 52 44 53 58 55
REMARK SMILES IDX 79 56 46 57 30 58 31 59 39 60 32 61 38 62 40 63 37 64 33 65
REMARK SMILES IDX 34 66 35 67 36 68 62 69 63 70 71 71 64 72 70 73 72 74 69 75
REMARK SMILES IDX 65 76 66 77 67 78 68 79 47 80 48 81 56 82 49 83 55 84 57 85
REMARK SMILES IDX 54 86 50 87 51 88 52 89 53 90
REMARK H PARENT 77 43 45 54
REMARK Flexibility Score: inf
ROOT
ATOM      1  C   UNL A   1      44.409  19.161  24.450  1.00  0.00     0.202 C 
ENDROOT
BRANCH   1   2
ATOM      2  O   UNL A   1      43.078  18.853  24.845  1.00  0.00    -0.374 OA
BRANCH   2   3
ATOM      3  C   UNL A   1      42.737  18.676  26.220  1.00  0.00     0.202 C 
BRANCH   3   4
ATOM      4  C   UNL A   1      42.381  19.914  27.060  1.00  0.00     0.261 C 
BRANCH   4   5
ATOM      5  O   UNL A   1      40.981  20.013  27.383  1.00  0.00    -0.460 OA
BRANCH   5   6
ATOM      6  C   UNL A   1      40.140  20.123  26.337  1.00  0.00     0.339 C 
ATOM      7  O   UNL A   1      39.775  19.225  25.573  1.00  0.00    -0.246 OA
BRANCH   6   8
ATOM      8  C   UNL A   1      39.525  21.452  26.310  1.00  0.00     0.079 A 
ATOM      9  C   UNL A   1      37.832  23.043  25.626  1.00  0.00     0.001 A 
ATOM     10  C   UNL A   1      38.478  23.961  26.464  1.00  0.00     0.119 A 
ATOM     11  C   UNL A   1      38.411  21.766  25.530  1.00  0.00     0.027 A 
ATOM     12  N   UNL A   1      39.580  23.696  27.208  1.00  0.00    -0.263 NA
ATOM     13  C   UNL A   1      40.061  22.436  27.129  1.00  0.00     0.126 A 
BRANCH   9  14
ATOM     14  C   UNL A   1      36.556  23.373  24.971  1.00  0.00    -0.016 A 
ATOM     15  C   UNL A   1      33.644  25.801  25.500  1.00  0.00     0.047 C 
ATOM     16  C   UNL A   1      34.526  24.753  24.895  1.00  0.00    -0.015 A 
ATOM     17  C   UNL A   1      35.711  24.355  25.528  1.00  0.00     0.015 A 
ATOM     18  C   UNL A   1      34.185  24.158  23.682  1.00  0.00     0.126 A 
ATOM     19  C   UNL A   1      34.991  23.178  23.112  1.00  0.00     0.040 A 
ATOM     20  F   UNL A   1      33.072  24.539  23.040  1.00  0.00    -0.207 F 
ATOM     21  C   UNL A   1      36.168  22.785  23.754  1.00  0.00     0.012 A 
ENDBRANCH   9  14
ENDBRANCH   6   8
ENDBRANCH   5   6
ENDBRANCH   4   5
ENDBRANCH   3   4
ENDBRANCH   2   3
ENDBRANCH   1   2
BRANCH   1  22
ATOM     22  C   UNL A   1      44.966  20.571  24.631  1.00  0.00     0.261 C 
BRANCH  22  23
ATOM     23  O   UNL A   1      44.103  21.568  24.087  1.00  0.00    -0.460 OA
BRANCH  23  24
ATOM     24  C   UNL A   1      43.957  22.608  24.931  1.00  0.00     0.338 C 
ATOM     25  O   UNL A   1      42.930  23.261  25.110  1.00  0.00    -0.246 OA
BRANCH  24  26
ATOM     26  C   UNL A   1      45.231  22.938  25.590  1.00  0.00     0.060 A 
ATOM     27  C   UNL A   1      45.152  22.790  26.985  1.00  0.00     0.016 A 
ATOM     28  C   UNL A   1      45.775  24.081  25.005  1.00  0.00     0.016 A 
ATOM     29  C   UNL A   1      45.127  23.936  27.755  1.00  0.00     0.010 A 
ATOM     30  C   UNL A   1      45.740  25.223  25.767  1.00  0.00     0.010 A 
ATOM     31  C   UNL A   1      45.297  25.149  27.099  1.00  0.00    -0.014 A 
BRANCH  31  32
ATOM     32  C   UNL A   1      44.998  26.423  27.710  1.00  0.00     0.031 A 
ATOM     33  C   UNL A   1      43.636  26.950  27.611  1.00  0.00     0.074 A 
ATOM     34  C   UNL A   1      45.925  26.994  28.508  1.00  0.00     0.049 A 
ATOM     35  N   UNL A   1      43.312  28.161  27.897  1.00  0.00    -0.248 NA
ATOM     36  C   UNL A   1      42.524  26.138  27.128  1.00  0.00     0.031 C 
ATOM     37  C   UNL A   1      45.684  27.943  29.585  1.00  0.00     0.029 A 
ATOM     38  N   UNL A   1      47.319  26.949  28.393  1.00  0.00    -0.354 N 
ATOM     39  C   UNL A   1      41.939  28.201  27.948  1.00  0.00     0.074 A 
ATOM     40  C   UNL A   1      41.497  26.962  27.348  1.00  0.00     0.031 C 
ATOM     41  C   UNL A   1      46.833  28.572  29.872  1.00  0.00     0.029 A 
ATOM     42  C   UNL A   1      47.795  28.192  28.851  1.00  0.00     0.049 A 
ATOM     43  H   UNL A   1      47.859  26.198  28.058  1.00  0.00     0.167 HD
ATOM     44  C   UNL A   1      41.340  29.199  28.655  1.00  0.00     0.034 A 
ATOM     45  C   UNL A   1      48.512  29.067  28.085  1.00  0.00     0.034 A 
ATOM     46  C   UNL A   1      42.330  30.147  29.178  1.00  0.00     0.049 A 
ATOM     47  C   UNL A   1      47.835  30.420  27.916  1.00  0.00     0.074 A 
ATOM     48  C   UNL A   1      42.951  30.301  30.408  1.00  0.00     0.029 A 
ATOM     49  N   UNL A   1      43.069  30.909  28.286  1.00  0.00    -0.354 N 
ATOM     50  N   UNL A   1      46.690  30.751  28.446  1.00  0.00    -0.248 NA
ATOM     51  C   UNL A   1      48.345  31.458  27.020  1.00  0.00     0.031 C 
ATOM     52  C   UNL A   1      44.061  31.176  30.246  1.00  0.00     0.029 A 
ATOM     53  C   UNL A   1      44.111  31.567  28.922  1.00  0.00     0.049 A 
ATOM     54  H   UNL A   1      42.879  30.974  27.323  1.00  0.00     0.167 HD
ATOM     55  C   UNL A   1      46.245  31.923  27.892  1.00  0.00     0.074 A 
ATOM     56  C   UNL A   1      47.331  32.341  27.022  1.00  0.00     0.031 C 
ATOM     57  C   UNL A   1      44.994  32.422  28.133  1.00  0.00     0.034 A 
BRANCH  44  58
ATOM     58  C   UNL A   1      39.896  29.128  29.106  1.00  0.00     0.023 A 
ATOM     59  C   UNL A   1      39.493  29.037  30.456  1.00  0.00     0.031 A 
ATOM     60  C   UNL A   1      38.847  29.225  28.169  1.00  0.00     0.131 A 
ATOM     61  C   UNL A   1      38.145  29.183  30.836  1.00  0.00     0.055 A 
ATOM     62  C   UNL A   1      37.499  29.305  28.541  1.00  0.00     0.041 A 
ATOM     63  F   UNL A   1      39.079  29.292  26.851  1.00  0.00    -0.206 F 
ATOM     64  C   UNL A   1      37.143  29.315  29.881  1.00  0.00     0.022 A 
BRANCH  61  65
ATOM     65  S   UNL A   1      37.667  29.316  32.584  1.00  0.00     0.124 S 
ATOM     66  O   UNL A   1      37.624  27.914  33.002  1.00  0.00    -0.237 OA
ATOM     67  O   UNL A   1      38.759  30.099  33.152  1.00  0.00    -0.237 OA
ATOM     68  O   UNL A   1      36.367  29.979  32.543  1.00  0.00    -0.744 OA
ENDBRANCH  61  65
ENDBRANCH  44  58
BRANCH  45  69
ATOM     69  C   UNL A   1      49.316  28.407  27.021  1.00  0.00     0.023 A 
ATOM     70  C   UNL A   1      48.791  28.279  25.726  1.00  0.00     0.031 A 
ATOM     71  C   UNL A   1      50.380  27.564  27.404  1.00  0.00     0.131 A 
ATOM     72  C   UNL A   1      49.241  27.238  24.901  1.00  0.00     0.055 A 
ATOM     73  C   UNL A   1      50.821  26.531  26.579  1.00  0.00     0.041 A 
ATOM     74  F   UNL A   1      50.915  27.663  28.633  1.00  0.00    -0.206 F 
ATOM     75  C   UNL A   1      50.224  26.343  25.335  1.00  0.00     0.022 A 
BRANCH  72  76
ATOM     76  S   UNL A   1      48.416  26.923  23.315  1.00  0.00     0.124 S 
ATOM     77  O   UNL A   1      49.349  27.538  22.375  1.00  0.00    -0.237 OA
ATOM     78  O   UNL A   1      48.337  25.464  23.258  1.00  0.00    -0.237 OA
ATOM     79  O   UNL A   1      47.131  27.596  23.469  1.00  0.00    -0.744 OA
ENDBRANCH  72  76
ENDBRANCH  45  69
BRANCH  57  80
ATOM     80  C   UNL A   1      44.453  33.731  27.597  1.00  0.00     0.023 A 
ATOM     81  C   UNL A   1      44.670  34.928  28.324  1.00  0.00     0.031 A 
ATOM     82  C   UNL A   1      43.844  33.886  26.342  1.00  0.00     0.131 A 
ATOM     83  C   UNL A   1      44.234  36.171  27.850  1.00  0.00     0.055 A 
ATOM     84  C   UNL A   1      43.363  35.122  25.887  1.00  0.00     0.041 A 
ATOM     85  F   UNL A   1      43.754  32.864  25.478  1.00  0.00    -0.206 F 
ATOM     86  C   UNL A   1      43.550  36.271  26.645  1.00  0.00     0.022 A 
BRANCH  83  87
ATOM     87  S   UNL A   1      44.616  37.698  28.752  1.00  0.00     0.124 S 
ATOM     88  O   UNL A   1      45.855  37.337  29.438  1.00  0.00    -0.237 OA
ATOM     89  O   UNL A   1      44.763  38.660  27.663  1.00  0.00    -0.237 OA
ATOM     90  O   UNL A   1      43.457  37.896  29.614  1.00  0.00    -0.744 OA
ENDBRANCH  83  87
ENDBRANCH  57  80
ENDBRANCH  31  32
ENDBRANCH  24  26
ENDBRANCH  23  24
ENDBRANCH  22  23
ENDBRANCH   1  22
TORSDOF 18
ENDMDL
MODEL 2
REMARK VINA RESULT:     -11.7      1.583      2.036
REMARK SMILES Cc1cc(-c2cncc(C(=O)OCCOCCOC(=O)c3ccc(-c4c5nc(c(-c6cc(S(=O)(=O)[O-])ccc6F)c6ccc([nH]6)c(-c6cc(S(=O)(=O)[O-])ccc6F)c6nc(c(-c7cc(S(=O)(=O)[O-])ccc7F)c7ccc4[nH]7)C=C6)C=C5)cc3)c2)ccc1F
REMARK SMILES IDX 16 1 15 2 14 3 13 4 12 5 10 6 11 7 9 8 5 9 6 10 84 11 7 12
REMARK SMILES IDX 8 13 4 14 1 15 2 16 3 17 87 18 86 19 88 20 85 21 17 22 18 23
REMARK SMILES IDX 19 24 20 25 21 26 22 27 83 28 23 29 82 30 24 31 25 32 26 33
REMARK SMILES IDX 76 34 27 35 81 36 75 37 77 38 28 39 80 40 74 41 73 42 29 44
REMARK SMILES IDX 61 45 41 46 60 47 42 48 45 49 59 50 78 51 43 52 44 53 58 55
REMARK SMILES IDX 79 56 46 57 30 58 31 59 39 60 32 61 38 62 40 63 37 64 33 65
REMARK SMILES IDX 34 66 35 67 36 68 62 69 63 70 71 71 64 72 70 73 72 74 69 75
REMARK SMILES IDX 65 76 66 77 67 78 68 79 47 80 48 81 56 82 49 83 55 84 57 85
REMARK SMILES IDX 54 86 50 87 51 88 52 89 53 90
REMARK H PARENT 77 43 45 54
REMARK Flexibility Score: inf
ROOT
ATOM      1  C   UNL A   1      44.032  19.205  25.150  1.00  0.00     0.202 C 
ENDROOT
BRANCH   1   2
ATOM      2  O   UNL A   1      42.620  19.272  24.997  1.00  0.00    -0.374 OA
BRANCH   2   3
ATOM      3  C   UNL A   1      41.748  19.086  26.112  1.00  0.00     0.202 C 
BRANCH   3   4
ATOM      4  C   UNL A   1      41.141  20.324  26.792  1.00  0.00     0.261 C 
BRANCH   4   5
ATOM      5  O   UNL A   1      39.939  20.805  26.159  1.00  0.00    -0.460 OA
BRANCH   5   6
ATOM      6  C   UNL A   1      39.595  22.077  26.434  1.00  0.00     0.339 C 
ATOM      7  O   UNL A   1      40.316  22.963  26.901  1.00  0.00    -0.246 OA
BRANCH   6   8
ATOM      8  C   UNL A   1      38.253  22.368  25.923  1.00  0.00     0.079 A 
ATOM      9  C   UNL A   1      36.074  21.739  25.076  1.00  0.00     0.001 A 
ATOM     10  C   UNL A   1      35.769  23.106  25.087  1.00  0.00     0.119 A 
ATOM     11  C   UNL A   1      37.374  21.382  25.473  1.00  0.00     0.027 A 
ATOM     12  N   UNL A   1      36.613  24.090  25.486  1.00  0.00    -0.263 NA
ATOM     13  C   UNL A   1      37.829  23.690  25.919  1.00  0.00     0.126 A 
BRANCH   9  14
ATOM     14  C   UNL A   1      35.046  20.731  24.769  1.00  0.00    -0.016 A 
ATOM     15  C   UNL A   1      34.801  16.919  24.521  1.00  0.00     0.047 C 
ATOM     16  C   UNL A   1      34.422  18.367  24.536  1.00  0.00    -0.015 A 
ATOM     17  C   UNL A   1      35.385  19.362  24.747  1.00  0.00     0.015 A 
ATOM     18  C   UNL A   1      33.097  18.752  24.344  1.00  0.00     0.126 A 
ATOM     19  C   UNL A   1      32.731  20.093  24.347  1.00  0.00     0.040 A 
ATOM     20  F   UNL A   1      32.149  17.820  24.167  1.00  0.00    -0.207 F 
ATOM     21  C   UNL A   1      33.701  21.078  24.555  1.00  0.00     0.012 A 
ENDBRANCH   9  14
ENDBRANCH   6   8
ENDBRANCH   5   6
ENDBRANCH   4   5
ENDBRANCH   3   4
ENDBRANCH   2   3
ENDBRANCH   1   2
BRANCH   1  22
ATOM     22  C   UNL A   1      44.929  20.297  24.572  1.00  0.00     0.261 C 
BRANCH  22  23
ATOM     23  O   UNL A   1      44.179  21.365  23.995  1.00  0.00    -0.460 OA
BRANCH  23  24
ATOM     24  C   UNL A   1      44.082  22.411  24.838  1.00  0.00     0.338 C 
ATOM     25  O   UNL A   1      43.053  23.020  25.128  1.00  0.00    -0.246 OA
BRANCH  24  26
ATOM     26  C   UNL A   1      45.408  22.811  25.339  1.00  0.00     0.060 A 
ATOM     27  C   UNL A   1      45.510  22.654  26.732  1.00  0.00     0.016 A 
ATOM     28  C   UNL A   1      45.810  23.986  24.705  1.00  0.00     0.016 A 
ATOM     29  C   UNL A   1      45.514  23.794  27.512  1.00  0.00     0.010 A 
ATOM     30  C   UNL A   1      45.806  25.121  25.477  1.00  0.00     0.010 A 
ATOM     31  C   UNL A   1      45.534  25.017  26.852  1.00  0.00    -0.014 A 
BRANCH  31  32
ATOM     32  C   UNL A   1      45.242  26.269  27.509  1.00  0.00     0.031 A 
ATOM     33  C   UNL A   1      43.881  26.804  27.433  1.00  0.00     0.074 A 
ATOM     34  C   UNL A   1      46.173  26.808  28.324  1.00  0.00     0.049 A 
ATOM     35  N   UNL A   1      43.563  28.005  27.763  1.00  0.00    -0.248 NA
ATOM     36  C   UNL A   1      42.765  26.014  26.925  1.00  0.00     0.031 C 
ATOM     37  C   UNL A   1      45.939  27.719  29.434  1.00  0.00     0.029 A 
ATOM     38  N   UNL A   1      47.566  26.762  28.203  1.00  0.00    -0.354 N 
ATOM     39  C   UNL A   1      42.190  28.049  27.819  1.00  0.00     0.074 A 
ATOM     40  C   UNL A   1      41.742  26.833  27.177  1.00  0.00     0.031 C 
ATOM     41  C   UNL A   1      47.091  28.334  29.740  1.00  0.00     0.029 A 
ATOM     42  C   UNL A   1      48.049  27.987  28.704  1.00  0.00     0.049 A 
ATOM     43  H   UNL A   1      48.103  26.022  27.840  1.00  0.00     0.167 HD
ATOM     44  C   UNL A   1      41.597  29.023  28.563  1.00  0.00     0.034 A 
ATOM     45  C   UNL A   1      48.766  28.886  27.967  1.00  0.00     0.034 A 
ATOM     46  C   UNL A   1      42.591  29.948  29.117  1.00  0.00     0.049 A 
ATOM     47  C   UNL A   1      48.094  30.246  27.848  1.00  0.00     0.074 A 
ATOM     48  C   UNL A   1      43.216  30.056  30.349  1.00  0.00     0.029 A 
ATOM     49  N   UNL A   1      43.331  30.739  28.250  1.00  0.00    -0.354 N 
ATOM     50  N   UNL A   1      46.952  30.562  28.393  1.00  0.00    -0.248 NA
ATOM     51  C   UNL A   1      48.605  31.314  26.988  1.00  0.00     0.031 C 
ATOM     52  C   UNL A   1      44.329  30.933  30.215  1.00  0.00     0.029 A 
ATOM     53  C   UNL A   1      44.377  31.370  28.906  1.00  0.00     0.049 A 
ATOM     54  H   UNL A   1      43.138  30.838  27.290  1.00  0.00     0.167 HD
ATOM     55  C   UNL A   1      46.509  31.755  27.882  1.00  0.00     0.074 A 
ATOM     56  C   UNL A   1      47.594  32.199  27.025  1.00  0.00     0.031 C 
ATOM     57  C   UNL A   1      45.261  32.249  28.144  1.00  0.00     0.034 A 
BRANCH  44  58
ATOM     58  C   UNL A   1      40.153  28.941  29.016  1.00  0.00     0.023 A 
ATOM     59  C   UNL A   1      39.756  28.733  30.354  1.00  0.00     0.031 A 
ATOM     60  C   UNL A   1      39.102  29.148  28.099  1.00  0.00     0.131 A 
ATOM     61  C   UNL A   1      38.413  28.872  30.756  1.00  0.00     0.055 A 
ATOM     62  C   UNL A   1      37.758  29.222  28.487  1.00  0.00     0.041 A 
ATOM     63  F   UNL A   1      39.329  29.332  26.792  1.00  0.00    -0.206 F 
ATOM     64  C   UNL A   1      37.410  29.114  29.824  1.00  0.00     0.022 A 
BRANCH  61  65
ATOM     65  S   UNL A   1      37.947  28.851  32.512  1.00  0.00     0.124 S 
ATOM     66  O   UNL A   1      38.067  27.432  32.848  1.00  0.00    -0.237 OA
ATOM     67  O   UNL A   1      38.952  29.719  33.116  1.00  0.00    -0.237 OA
ATOM     68  O   UNL A   1      36.580  29.364  32.518  1.00  0.00    -0.744 OA
ENDBRANCH  61  65
ENDBRANCH  44  58
BRANCH  45  69
ATOM     69  C   UNL A   1      49.565  28.261  26.878  1.00  0.00     0.023 A 
ATOM     70  C   UNL A   1      49.054  28.221  25.572  1.00  0.00     0.031 A 
ATOM     71  C   UNL A   1      50.598  27.367  27.227  1.00  0.00     0.131 A 
ATOM     72  C   UNL A   1      49.484  27.213  24.696  1.00  0.00     0.055 A 
ATOM     73  C   UNL A   1      51.019  26.367  26.351  1.00  0.00     0.041 A 
ATOM     74  F   UNL A   1      51.119  27.382  28.465  1.00  0.00    -0.206 F 
ATOM     75  C   UNL A   1      50.434  26.266  25.091  1.00  0.00     0.022 A 
BRANCH  72  76
ATOM     76  S   UNL A   1      48.672  27.011  23.085  1.00  0.00     0.124 S 
ATOM     77  O   UNL A   1      47.559  27.949  23.201  1.00  0.00    -0.237 OA
ATOM     78  O   UNL A   1      49.714  27.386  22.131  1.00  0.00    -0.237 OA
ATOM     79  O   UNL A   1      48.312  25.597  23.068  1.00  0.00    -0.744 OA
ENDBRANCH  72  76
ENDBRANCH  45  69
BRANCH  57  80
ATOM     80  C   UNL A   1      44.723  33.579  27.657  1.00  0.00     0.023 A 
ATOM     81  C   UNL A   1      44.888  34.736  28.458  1.00  0.00     0.031 A 
ATOM     82  C   UNL A   1      44.169  33.794  26.385  1.00  0.00     0.131 A 
ATOM     83  C   UNL A   1      44.453  35.997  28.033  1.00  0.00     0.055 A 
ATOM     84  C   UNL A   1      43.689  35.047  25.978  1.00  0.00     0.041 A 
ATOM     85  F   UNL A   1      44.134  32.821  25.464  1.00  0.00    -0.206 F 
ATOM     86  C   UNL A   1      43.822  36.155  26.806  1.00  0.00     0.022 A 
BRANCH  83  87
ATOM     87  S   UNL A   1      44.769  37.477  29.034  1.00  0.00     0.124 S 
ATOM     88  O   UNL A   1      43.987  37.195  30.236  1.00  0.00    -0.237 OA
ATOM     89  O   UNL A   1      46.218  37.420  29.205  1.00  0.00    -0.237 OA
ATOM     90  O   UNL A   1      44.275  38.572  28.208  1.00  0.00    -0.744 OA
ENDBRANCH  83  87
ENDBRANCH  57  80
ENDBRANCH  31  32
ENDBRANCH  24  26
ENDBRANCH  23  24
ENDBRANCH  22  23
ENDBRANCH   1  22
TORSDOF 18
ENDMDL
MODEL 3
REMARK VINA RESULT:     -11.4      3.256      4.997
REMARK SMILES Cc1cc(-c2cncc(C(=O)OCCOCCOC(=O)c3ccc(-c4c5nc(c(-c6cc(S(=O)(=O)[O-])ccc6F)c6ccc([nH]6)c(-c6cc(S(=O)(=O)[O-])ccc6F)c6nc(c(-c7cc(S(=O)(=O)[O-])ccc7F)c7ccc4[nH]7)C=C6)C=C5)cc3)c2)ccc1F
REMARK SMILES IDX 16 1 15 2 14 3 13 4 12 5 10 6 11 7 9 8 5 9 6 10 84 11 7 12
REMARK SMILES IDX 8 13 4 14 1 15 2 16 3 17 87 18 86 19 88 20 85 21 17 22 18 23
REMARK SMILES IDX 19 24 20 25 21 26 22 27 83 28 23 29 82 30 24 31 25 32 26 33
REMARK SMILES IDX 76 34 27 35 81 36 75 37 77 38 28 39 80 40 74 41 73 42 29 44
REMARK SMILES IDX 61 45 41 46 60 47 42 48 45 49 59 50 78 51 43 52 44 53 58 55
REMARK SMILES IDX 79 56 46 57 30 58 31 59 39 60 32 61 38 62 40 63 37 64 33 65
REMARK SMILES IDX 34 66 35 67 36 68 62 69 63 70 71 71 64 72 70 73 72 74 69 75
REMARK SMILES IDX 65 76 66 77 67 78 68 79 47 80 48 81 56 82 49 83 55 84 57 85
REMARK SMILES IDX 54 86 50 87 51 88 52 89 53 90
REMARK H PARENT 77 43 45 54
REMARK Flexibility Score: inf
ROOT
ATOM      1  C   UNL A   1      40.452  20.301  26.341  1.00  0.00     0.202 C 
ENDROOT
BRANCH   1   2
ATOM      2  O   UNL A   1      39.264  20.147  25.576  1.00  0.00    -0.374 OA
BRANCH   2   3
ATOM      3  C   UNL A   1      38.201  21.096  25.665  1.00  0.00     0.202 C 
BRANCH   3   4
ATOM      4  C   UNL A   1      37.106  21.085  24.586  1.00  0.00     0.261 C 
BRANCH   4   5
ATOM      5  O   UNL A   1      35.871  20.481  25.017  1.00  0.00    -0.460 OA
BRANCH   5   6
ATOM      6  C   UNL A   1      35.025  21.283  25.691  1.00  0.00     0.339 C 
ATOM      7  O   UNL A   1      35.020  21.515  26.903  1.00  0.00    -0.246 OA
BRANCH   6   8
ATOM      8  C   UNL A   1      34.182  22.037  24.760  1.00  0.00     0.079 A 
ATOM      9  C   UNL A   1      33.365  24.077  23.743  1.00  0.00     0.001 A 
ATOM     10  C   UNL A   1      32.613  23.253  22.897  1.00  0.00     0.119 A 
ATOM     11  C   UNL A   1      34.138  23.431  24.724  1.00  0.00     0.027 A 
ATOM     12  N   UNL A   1      32.609  21.898  22.929  1.00  0.00    -0.263 NA
ATOM     13  C   UNL A   1      33.416  21.324  23.848  1.00  0.00     0.126 A 
BRANCH   9  14
ATOM     14  C   UNL A   1      33.422  25.534  23.539  1.00  0.00    -0.016 A 
ATOM     15  C   UNL A   1      33.915  28.678  25.666  1.00  0.00     0.047 C 
ATOM     16  C   UNL A   1      33.729  27.780  24.482  1.00  0.00    -0.015 A 
ATOM     17  C   UNL A   1      33.593  26.395  24.642  1.00  0.00     0.015 A 
ATOM     18  C   UNL A   1      33.694  28.309  23.193  1.00  0.00     0.126 A 
ATOM     19  C   UNL A   1      33.515  27.489  22.085  1.00  0.00     0.040 A 
ATOM     20  F   UNL A   1      33.851  29.628  23.008  1.00  0.00    -0.207 F 
ATOM     21  C   UNL A   1      33.376  26.109  22.256  1.00  0.00     0.012 A 
ENDBRANCH   9  14
ENDBRANCH   6   8
ENDBRANCH   5   6
ENDBRANCH   4   5
ENDBRANCH   3   4
ENDBRANCH   2   3
ENDBRANCH   1   2
BRANCH   1  22
ATOM     22  C   UNL A   1      40.612  21.479  27.299  1.00  0.00     0.261 C 
BRANCH  22  23
ATOM     23  O   UNL A   1      41.274  22.586  26.690  1.00  0.00    -0.460 OA
BRANCH  23  24
ATOM     24  C   UNL A   1      41.214  23.685  27.467  1.00  0.00     0.338 C 
ATOM     25  O   UNL A   1      41.908  23.917  28.456  1.00  0.00    -0.246 OA
BRANCH  24  26
ATOM     26  C   UNL A   1      40.132  24.583  27.030  1.00  0.00     0.060 A 
ATOM     27  C   UNL A   1      40.621  25.663  26.275  1.00  0.00     0.016 A 
ATOM     28  C   UNL A   1      39.232  24.773  28.078  1.00  0.00     0.016 A 
ATOM     29  C   UNL A   1      40.631  26.911  26.865  1.00  0.00     0.010 A 
ATOM     30  C   UNL A   1      39.249  26.012  28.671  1.00  0.00     0.010 A 
ATOM     31  C   UNL A   1      40.048  27.028  28.121  1.00  0.00    -0.014 A 
BRANCH  31  32
ATOM     32  C   UNL A   1      40.246  28.174  28.976  1.00  0.00     0.031 A 
ATOM     33  C   UNL A   1      39.377  29.340  28.806  1.00  0.00     0.074 A 
ATOM     34  C   UNL A   1      41.093  28.066  30.022  1.00  0.00     0.049 A 
ATOM     35  N   UNL A   1      39.608  30.490  29.331  1.00  0.00    -0.248 NA
ATOM     36  C   UNL A   1      38.180  29.297  27.974  1.00  0.00     0.031 C 
ATOM     37  C   UNL A   1      41.066  28.845  31.251  1.00  0.00     0.029 A 
ATOM     38  N   UNL A   1      42.274  27.319  30.111  1.00  0.00    -0.354 N 
ATOM     39  C   UNL A   1      38.459  31.230  29.181  1.00  0.00     0.074 A 
ATOM     40  C   UNL A   1      37.651  30.496  28.233  1.00  0.00     0.031 C 
ATOM     41  C   UNL A   1      42.259  28.739  31.856  1.00  0.00     0.029 A 
ATOM     42  C   UNL A   1      43.149  28.058  30.931  1.00  0.00     0.049 A 
ATOM     43  H   UNL A   1      42.457  26.451  29.686  1.00  0.00     0.167 HD
ATOM     44  C   UNL A   1      38.249  32.286  30.014  1.00  0.00     0.034 A 
ATOM     45  C   UNL A   1      44.364  28.529  30.522  1.00  0.00     0.034 A 
ATOM     46  C   UNL A   1      39.398  32.501  30.900  1.00  0.00     0.049 A 
ATOM     47  C   UNL A   1      44.483  30.045  30.594  1.00  0.00     0.074 A 
ATOM     48  C   UNL A   1      39.679  32.140  32.209  1.00  0.00     0.029 A 
ATOM     49  N   UNL A   1      40.612  32.882  30.348  1.00  0.00    -0.354 N 
ATOM     50  N   UNL A   1      43.542  30.846  31.010  1.00  0.00    -0.248 NA
ATOM     51  C   UNL A   1      45.636  30.779  30.072  1.00  0.00     0.031 C 
ATOM     52  C   UNL A   1      41.071  32.324  32.440  1.00  0.00     0.029 A 
ATOM     53  C   UNL A   1      41.639  32.809  31.277  1.00  0.00     0.049 A 
ATOM     54  H   UNL A   1      40.730  33.167  29.414  1.00  0.00     0.167 HD
ATOM     55  C   UNL A   1      43.868  32.142  30.703  1.00  0.00     0.074 A 
ATOM     56  C   UNL A   1      45.203  32.049  30.139  1.00  0.00     0.031 C 
ATOM     57  C   UNL A   1      42.991  33.179  30.868  1.00  0.00     0.034 A 
BRANCH  44  58
ATOM     58  C   UNL A   1      36.885  32.915  30.210  1.00  0.00     0.023 A 
ATOM     59  C   UNL A   1      36.255  33.062  31.464  1.00  0.00     0.031 A 
ATOM     60  C   UNL A   1      36.187  33.467  29.116  1.00  0.00     0.131 A 
ATOM     61  C   UNL A   1      35.087  33.835  31.619  1.00  0.00     0.055 A 
ATOM     62  C   UNL A   1      34.991  34.181  29.259  1.00  0.00     0.041 A 
ATOM     63  F   UNL A   1      36.652  33.379  27.863  1.00  0.00    -0.206 F 
ATOM     64  C   UNL A   1      34.450  34.395  30.517  1.00  0.00     0.022 A 
BRANCH  61  65
ATOM     65  S   UNL A   1      34.427  34.226  33.266  1.00  0.00     0.124 S 
ATOM     66  O   UNL A   1      34.931  33.116  34.074  1.00  0.00    -0.237 OA
ATOM     67  O   UNL A   1      35.029  35.524  33.549  1.00  0.00    -0.237 OA
ATOM     68  O   UNL A   1      32.979  34.228  33.072  1.00  0.00    -0.744 OA
ENDBRANCH  61  65
ENDBRANCH  44  58
BRANCH  45  69
ATOM     69  C   UNL A   1      45.000  27.700  29.463  1.00  0.00     0.023 A 
ATOM     70  C   UNL A   1      44.766  27.995  28.111  1.00  0.00     0.031 A 
ATOM     71  C   UNL A   1      45.466  26.413  29.802  1.00  0.00     0.131 A 
ATOM     72  C   UNL A   1      44.873  26.973  27.156  1.00  0.00     0.055 A 
ATOM     73  C   UNL A   1      45.568  25.402  28.847  1.00  0.00     0.041 A 
ATOM     74  F   UNL A   1      45.710  26.096  31.085  1.00  0.00    -0.206 F 
ATOM     75  C   UNL A   1      45.235  25.673  27.522  1.00  0.00     0.022 A 
BRANCH  72  76
ATOM     76  S   UNL A   1      44.359  27.284  25.443  1.00  0.00     0.124 S 
ATOM     77  O   UNL A   1      43.338  28.311  25.628  1.00  0.00    -0.237 OA
ATOM     78  O   UNL A   1      45.591  27.731  24.796  1.00  0.00    -0.237 OA
ATOM     79  O   UNL A   1      43.877  25.981  24.998  1.00  0.00    -0.744 OA
ENDBRANCH  72  76
ENDBRANCH  45  69
BRANCH  57  80
ATOM     80  C   UNL A   1      43.297  34.638  30.598  1.00  0.00     0.023 A 
ATOM     81  C   UNL A   1      43.031  35.184  29.318  1.00  0.00     0.031 A 
ATOM     82  C   UNL A   1      43.717  35.556  31.574  1.00  0.00     0.131 A 
ATOM     83  C   UNL A   1      43.250  36.536  29.031  1.00  0.00     0.055 A 
ATOM     84  C   UNL A   1      43.983  36.900  31.276  1.00  0.00     0.041 A 
ATOM     85  F   UNL A   1      43.818  35.206  32.865  1.00  0.00    -0.206 F 
ATOM     86  C   UNL A   1      43.757  37.395  29.998  1.00  0.00     0.022 A 
BRANCH  83  87
ATOM     87  S   UNL A   1      42.805  37.229  27.414  1.00  0.00     0.124 S 
ATOM     88  O   UNL A   1      44.120  37.479  26.825  1.00  0.00    -0.237 OA
ATOM     89  O   UNL A   1      42.052  36.130  26.814  1.00  0.00    -0.237 OA
ATOM     90  O   UNL A   1      42.029  38.418  27.742  1.00  0.00    -0.744 OA
ENDBRANCH  83  87
ENDBRANCH  57  80
ENDBRANCH  31  32
ENDBRANCH  24  26
ENDBRANCH  23  24
ENDBRANCH  22  23
ENDBRANCH   1  22
TORSDOF 18
ENDMDL
