MODEL 1
REMARK VINA RESULT:     -11.3      0.000      0.000
REMARK SMILES O=C(CCC(=O)N1CCCn2nc(-c3ccccc3)cc21)OCCOCCOC(=O)c1ccc(-c2c3nc(c(-c4cc(S(=O)(=O)[O-])ccc4F)c4ccc([nH]4)c(-c4cc(S(=O)(=O)[O-])ccc4F)c4nc(c(-c5cc(S(=O)(=O)[O-])ccc5F)c5ccc2[nH]5)C=C4)C=C3)cc1
REMARK SMILES IDX 24 1 23 2 22 3 2 4 1 5 3 6 4 7 5 8 6 9 7 10 8 11 21 12 9 13
REMARK SMILES IDX 11 14 20 15 10 16 12 17 13 18 14 19 15 20 19 21 16 22 18 23
REMARK SMILES IDX 17 24 25 25 26 26 27 27 28 28 29 29 30 30 31 31 32 32 93 33
REMARK SMILES IDX 33 34 92 35 34 36 35 37 36 38 86 39 37 40 91 41 85 42 87 43
REMARK SMILES IDX 38 44 90 45 84 46 83 47 39 49 71 50 51 51 70 52 52 53 55 54
REMARK SMILES IDX 69 55 88 56 53 57 54 58 68 60 89 61 56 62 40 63 41 64 49 65
REMARK SMILES IDX 42 66 48 67 50 68 47 69 43 70 44 71 45 72 46 73 72 74 73 75
REMARK SMILES IDX 81 76 74 77 80 78 82 79 79 80 75 81 76 82 77 83 78 84 57 85
REMARK SMILES IDX 58 86 66 87 59 88 65 89 67 90 64 91 60 92 61 93 62 94 63 95
REMARK H PARENT 87 48 55 59
REMARK Flexibility Score: inf
ROOT
ATOM      1  C   UNL A   1      37.148  22.078  25.380  1.00  0.00     0.202 C 
ENDROOT
BRANCH   1   2
ATOM      2  C   UNL A   1      35.960  22.817  26.001  1.00  0.00     0.261 C 
BRANCH   2   3
ATOM      3  O   UNL A   1      34.881  21.941  26.381  1.00  0.00    -0.463 OA
BRANCH   3   4
ATOM      4  C   UNL A   1      33.653  22.354  26.767  1.00  0.00     0.306 C 
ATOM      5  O   UNL A   1      33.392  22.485  27.963  1.00  0.00    -0.252 OA
BRANCH   4   6
ATOM      6  C   UNL A   1      32.706  22.893  25.737  1.00  0.00     0.132 C 
BRANCH   6   7
ATOM      7  C   UNL A   1      32.066  24.164  26.276  1.00  0.00     0.112 C 
BRANCH   7   8
ATOM      8  C   UNL A   1      32.755  25.378  25.716  1.00  0.00     0.228 C 
ATOM      9  O   UNL A   1      33.263  26.196  26.476  1.00  0.00    -0.274 OA
BRANCH   8  10
ATOM     10  N   UNL A   1      32.738  25.632  24.291  1.00  0.00    -0.297 N 
ATOM     11  C   UNL A   1      33.800  25.186  23.351  1.00  0.00     0.129 C 
ATOM     12  C   UNL A   1      31.718  26.402  23.723  1.00  0.00     0.134 A 
ATOM     13  C   UNL A   1      33.165  24.731  22.037  1.00  0.00     0.046 C 
ATOM     14  N   UNL A   1      31.541  26.530  22.372  1.00  0.00    -0.249 N 
ATOM     15  C   UNL A   1      30.789  27.233  24.292  1.00  0.00     0.077 A 
ATOM     16  C   UNL A   1      32.398  25.884  21.398  1.00  0.00     0.148 C 
ATOM     17  N   UNL A   1      30.613  27.424  22.024  1.00  0.00    -0.171 NA
ATOM     18  C   UNL A   1      30.185  27.917  23.198  1.00  0.00     0.095 A 
BRANCH  18  19
ATOM     19  C   UNL A   1      29.311  29.080  23.289  1.00  0.00     0.002 A 
ATOM     20  C   UNL A   1      27.953  29.001  22.967  1.00  0.00     0.010 A 
ATOM     21  C   UNL A   1      29.856  30.313  23.681  1.00  0.00     0.010 A 
ATOM     22  C   UNL A   1      27.150  30.142  23.055  1.00  0.00     0.001 A 
ATOM     23  C   UNL A   1      29.055  31.451  23.754  1.00  0.00     0.001 A 
ATOM     24  C   UNL A   1      27.700  31.364  23.445  1.00  0.00     0.000 A 
ENDBRANCH  18  19
ENDBRANCH   8  10
ENDBRANCH   7   8
ENDBRANCH   6   7
ENDBRANCH   4   6
ENDBRANCH   3   4
ENDBRANCH   2   3
ENDBRANCH   1   2
BRANCH   1  25
ATOM     25  O   UNL A   1      37.171  20.669  25.555  1.00  0.00    -0.374 OA
BRANCH  25  26
ATOM     26  C   UNL A   1      38.191  19.916  24.890  1.00  0.00     0.202 C 
BRANCH  26  27
ATOM     27  C   UNL A   1      39.228  19.146  25.719  1.00  0.00     0.261 C 
BRANCH  27  28
ATOM     28  O   UNL A   1      40.496  19.823  25.856  1.00  0.00    -0.460 OA
BRANCH  28  29
ATOM     29  C   UNL A   1      40.827  20.133  27.137  1.00  0.00     0.338 C 
ATOM     30  O   UNL A   1      41.162  19.356  28.015  1.00  0.00    -0.246 OA
BRANCH  29  31
ATOM     31  C   UNL A   1      40.810  21.589  27.358  1.00  0.00     0.060 A 
ATOM     32  C   UNL A   1      40.198  22.420  26.411  1.00  0.00     0.016 A 
ATOM     33  C   UNL A   1      41.587  22.132  28.382  1.00  0.00     0.016 A 
ATOM     34  C   UNL A   1      40.394  23.806  26.467  1.00  0.00     0.010 A 
ATOM     35  C   UNL A   1      41.779  23.515  28.433  1.00  0.00     0.010 A 
ATOM     36  C   UNL A   1      41.213  24.360  27.459  1.00  0.00    -0.014 A 
BRANCH  36  37
ATOM     37  C   UNL A   1      41.579  25.803  27.468  1.00  0.00     0.031 A 
ATOM     38  C   UNL A   1      42.944  26.227  27.007  1.00  0.00     0.074 A 
ATOM     39  C   UNL A   1      40.737  26.718  27.985  1.00  0.00     0.049 A 
ATOM     40  N   UNL A   1      43.533  27.386  27.136  1.00  0.00    -0.248 NA
ATOM     41  C   UNL A   1      43.740  25.217  26.294  1.00  0.00     0.031 C 
ATOM     42  C   UNL A   1      39.357  26.457  28.367  1.00  0.00     0.029 A 
ATOM     43  N   UNL A   1      40.934  28.032  28.331  1.00  0.00    -0.354 N 
ATOM     44  C   UNL A   1      44.765  27.255  26.509  1.00  0.00     0.074 A 
ATOM     45  C   UNL A   1      44.853  25.889  26.035  1.00  0.00     0.031 C 
ATOM     46  C   UNL A   1      38.864  27.529  29.009  1.00  0.00     0.029 A 
ATOM     47  C   UNL A   1      39.903  28.550  29.084  1.00  0.00     0.049 A 
ATOM     48  H   UNL A   1      41.730  28.549  28.069  1.00  0.00     0.167 HD
ATOM     49  C   UNL A   1      45.725  28.197  26.335  1.00  0.00     0.034 A 
ATOM     50  C   UNL A   1      39.824  29.692  29.793  1.00  0.00     0.034 A 
ATOM     51  C   UNL A   1      45.622  29.551  26.821  1.00  0.00     0.049 A 
ATOM     52  C   UNL A   1      40.974  30.664  29.735  1.00  0.00     0.074 A 
ATOM     53  C   UNL A   1      46.498  30.605  26.626  1.00  0.00     0.029 A 
ATOM     54  N   UNL A   1      44.594  30.032  27.620  1.00  0.00    -0.354 N 
ATOM     55  N   UNL A   1      42.110  30.553  29.086  1.00  0.00    -0.248 NA
ATOM     56  C   UNL A   1      40.825  31.922  30.477  1.00  0.00     0.031 C 
ATOM     57  C   UNL A   1      46.040  31.698  27.371  1.00  0.00     0.029 A 
ATOM     58  C   UNL A   1      44.844  31.347  27.976  1.00  0.00     0.049 A 
ATOM     59  H   UNL A   1      43.804  29.514  27.894  1.00  0.00     0.167 HD
ATOM     60  C   UNL A   1      42.788  31.749  29.303  1.00  0.00     0.074 A 
ATOM     61  C   UNL A   1      41.937  32.562  30.147  1.00  0.00     0.031 C 
ATOM     62  C   UNL A   1      43.996  32.146  28.828  1.00  0.00     0.034 A 
BRANCH  49  63
ATOM     63  C   UNL A   1      46.984  27.787  25.620  1.00  0.00     0.023 A 
ATOM     64  C   UNL A   1      47.154  28.004  24.242  1.00  0.00     0.031 A 
ATOM     65  C   UNL A   1      48.036  27.186  26.332  1.00  0.00     0.131 A 
ATOM     66  C   UNL A   1      48.334  27.583  23.611  1.00  0.00     0.055 A 
ATOM     67  C   UNL A   1      49.231  26.823  25.709  1.00  0.00     0.041 A 
ATOM     68  F   UNL A   1      47.916  26.940  27.646  1.00  0.00    -0.206 F 
ATOM     69  C   UNL A   1      49.382  27.014  24.339  1.00  0.00     0.022 A 
BRANCH  66  70
ATOM     70  S   UNL A   1      48.444  27.706  21.805  1.00  0.00     0.124 S 
ATOM     71  O   UNL A   1      48.681  26.314  21.428  1.00  0.00    -0.237 OA
ATOM     72  O   UNL A   1      47.138  28.249  21.446  1.00  0.00    -0.237 OA
ATOM     73  O   UNL A   1      49.575  28.605  21.590  1.00  0.00    -0.744 OA
ENDBRANCH  66  70
ENDBRANCH  49  63
BRANCH  50  74
ATOM     74  C   UNL A   1      38.655  29.954  30.679  1.00  0.00     0.023 A 
ATOM     75  C   UNL A   1      37.656  30.870  30.321  1.00  0.00     0.031 A 
ATOM     76  C   UNL A   1      38.567  29.343  31.945  1.00  0.00     0.131 A 
ATOM     77  C   UNL A   1      36.644  31.194  31.238  1.00  0.00     0.055 A 
ATOM     78  C   UNL A   1      37.534  29.636  32.837  1.00  0.00     0.041 A 
ATOM     79  F   UNL A   1      39.493  28.452  32.337  1.00  0.00    -0.206 F 
ATOM     80  C   UNL A   1      36.573  30.579  32.491  1.00  0.00     0.022 A 
BRANCH  77  81
ATOM     81  S   UNL A   1      35.476  32.514  30.811  1.00  0.00     0.124 S 
ATOM     82  O   UNL A   1      34.963  32.054  29.525  1.00  0.00    -0.237 OA
ATOM     83  O   UNL A   1      34.543  32.462  31.931  1.00  0.00    -0.237 OA
ATOM     84  O   UNL A   1      36.319  33.707  30.758  1.00  0.00    -0.744 OA
ENDBRANCH  77  81
ENDBRANCH  50  74
BRANCH  62  85
ATOM     85  C   UNL A   1      44.442  33.543  29.178  1.00  0.00     0.023 A 
ATOM     86  C   UNL A   1      43.916  34.667  28.522  1.00  0.00     0.031 A 
ATOM     87  C   UNL A   1      45.417  33.746  30.169  1.00  0.00     0.131 A 
ATOM     88  C   UNL A   1      44.404  35.945  28.831  1.00  0.00     0.055 A 
ATOM     89  C   UNL A   1      45.858  35.025  30.512  1.00  0.00     0.041 A 
ATOM     90  F   UNL A   1      45.956  32.704  30.822  1.00  0.00    -0.206 F 
ATOM     91  C   UNL A   1      45.359  36.133  29.834  1.00  0.00     0.022 A 
BRANCH  88  92
ATOM     92  S   UNL A   1      43.824  37.357  27.851  1.00  0.00     0.124 S 
ATOM     93  O   UNL A   1      42.872  37.984  28.763  1.00  0.00    -0.237 OA
ATOM     94  O   UNL A   1      45.056  38.098  27.608  1.00  0.00    -0.237 OA
ATOM     95  O   UNL A   1      43.233  36.733  26.668  1.00  0.00    -0.744 OA
ENDBRANCH  88  92
ENDBRANCH  62  85
ENDBRANCH  36  37
ENDBRANCH  29  31
ENDBRANCH  28  29
ENDBRANCH  27  28
ENDBRANCH  26  27
ENDBRANCH  25  26
ENDBRANCH   1  25
TORSDOF 21
ENDMDL
MODEL 2
REMARK VINA RESULT:     -11.2      1.909      7.635
REMARK SMILES O=C(CCC(=O)N1CCCn2nc(-c3ccccc3)cc21)OCCOCCOC(=O)c1ccc(-c2c3nc(c(-c4cc(S(=O)(=O)[O-])ccc4F)c4ccc([nH]4)c(-c4cc(S(=O)(=O)[O-])ccc4F)c4nc(c(-c5cc(S(=O)(=O)[O-])ccc5F)c5ccc2[nH]5)C=C4)C=C3)cc1
REMARK SMILES IDX 24 1 23 2 22 3 2 4 1 5 3 6 4 7 5 8 6 9 7 10 8 11 21 12 9 13
REMARK SMILES IDX 11 14 20 15 10 16 12 17 13 18 14 19 15 20 19 21 16 22 18 23
REMARK SMILES IDX 17 24 25 25 26 26 27 27 28 28 29 29 30 30 31 31 32 32 93 33
REMARK SMILES IDX 33 34 92 35 34 36 35 37 36 38 86 39 37 40 91 41 85 42 87 43
REMARK SMILES IDX 38 44 90 45 84 46 83 47 39 49 71 50 51 51 70 52 52 53 55 54
REMARK SMILES IDX 69 55 88 56 53 57 54 58 68 60 89 61 56 62 40 63 41 64 49 65
REMARK SMILES IDX 42 66 48 67 50 68 47 69 43 70 44 71 45 72 46 73 72 74 73 75
REMARK SMILES IDX 81 76 74 77 80 78 82 79 79 80 75 81 76 82 77 83 78 84 57 85
REMARK SMILES IDX 58 86 66 87 59 88 65 89 67 90 64 91 60 92 61 93 62 94 63 95
REMARK H PARENT 87 48 55 59
REMARK Flexibility Score: inf
ROOT
ATOM      1  C   UNL A   1      33.363  22.001  25.079  1.00  0.00     0.202 C 
ENDROOT
BRANCH   1   2
ATOM      2  C   UNL A   1      31.877  21.956  24.710  1.00  0.00     0.261 C 
BRANCH   2   3
ATOM      3  O   UNL A   1      31.005  21.981  25.856  1.00  0.00    -0.463 OA
BRANCH   3   4
ATOM      4  C   UNL A   1      30.512  23.104  26.426  1.00  0.00     0.306 C 
ATOM      5  O   UNL A   1      30.008  23.059  27.547  1.00  0.00    -0.252 OA
BRANCH   4   6
ATOM      6  C   UNL A   1      30.814  24.433  25.801  1.00  0.00     0.132 C 
BRANCH   6   7
ATOM      7  C   UNL A   1      31.894  25.126  26.618  1.00  0.00     0.112 C 
BRANCH   7   8
ATOM      8  C   UNL A   1      32.526  26.236  25.822  1.00  0.00     0.228 C 
ATOM      9  O   UNL A   1      32.995  27.210  26.401  1.00  0.00    -0.274 OA
BRANCH   8  10
ATOM     10  N   UNL A   1      32.498  26.202  24.376  1.00  0.00    -0.297 N 
ATOM     11  C   UNL A   1      33.459  25.434  23.540  1.00  0.00     0.129 C 
ATOM     12  C   UNL A   1      31.573  26.977  23.669  1.00  0.00     0.134 A 
ATOM     13  C   UNL A   1      32.726  24.820  22.347  1.00  0.00     0.046 C 
ATOM     14  N   UNL A   1      31.372  26.857  22.321  1.00  0.00    -0.249 N 
ATOM     15  C   UNL A   1      30.783  28.025  24.063  1.00  0.00     0.077 A 
ATOM     16  C   UNL A   1      32.102  25.919  21.493  1.00  0.00     0.148 C 
ATOM     17  N   UNL A   1      30.562  27.784  21.804  1.00  0.00    -0.171 NA
ATOM     18  C   UNL A   1      30.242  28.555  22.857  1.00  0.00     0.095 A 
BRANCH  18  19
ATOM     19  C   UNL A   1      29.536  29.822  22.716  1.00  0.00     0.002 A 
ATOM     20  C   UNL A   1      29.429  30.723  23.779  1.00  0.00     0.010 A 
ATOM     21  C   UNL A   1      28.926  30.129  21.488  1.00  0.00     0.010 A 
ATOM     22  C   UNL A   1      28.733  31.923  23.608  1.00  0.00     0.001 A 
ATOM     23  C   UNL A   1      28.221  31.320  21.325  1.00  0.00     0.001 A 
ATOM     24  C   UNL A   1      28.129  32.219  22.385  1.00  0.00     0.000 A 
ENDBRANCH  18  19
ENDBRANCH   8  10
ENDBRANCH   7   8
ENDBRANCH   6   7
ENDBRANCH   4   6
ENDBRANCH   3   4
ENDBRANCH   2   3
ENDBRANCH   1   2
BRANCH   1  25
ATOM     25  O   UNL A   1      34.133  20.865  24.715  1.00  0.00    -0.374 OA
BRANCH  25  26
ATOM     26  C   UNL A   1      35.549  20.907  24.924  1.00  0.00     0.202 C 
BRANCH  26  27
ATOM     27  C   UNL A   1      36.122  21.753  26.069  1.00  0.00     0.261 C 
BRANCH  27  28
ATOM     28  O   UNL A   1      37.267  22.552  25.699  1.00  0.00    -0.460 OA
BRANCH  28  29
ATOM     29  C   UNL A   1      38.464  22.001  26.033  1.00  0.00     0.338 C 
ATOM     30  O   UNL A   1      38.764  20.820  25.986  1.00  0.00    -0.246 OA
BRANCH  29  31
ATOM     31  C   UNL A   1      39.441  23.034  26.413  1.00  0.00     0.060 A 
ATOM     32  C   UNL A   1      40.295  22.805  27.500  1.00  0.00     0.016 A 
ATOM     33  C   UNL A   1      39.356  24.299  25.831  1.00  0.00     0.016 A 
ATOM     34  C   UNL A   1      41.044  23.862  28.034  1.00  0.00     0.010 A 
ATOM     35  C   UNL A   1      40.105  25.349  26.369  1.00  0.00     0.010 A 
ATOM     36  C   UNL A   1      40.929  25.148  27.493  1.00  0.00    -0.014 A 
BRANCH  36  37
ATOM     37  C   UNL A   1      41.579  26.331  28.120  1.00  0.00     0.031 A 
ATOM     38  C   UNL A   1      40.732  27.394  28.760  1.00  0.00     0.074 A 
ATOM     39  C   UNL A   1      42.910  26.510  28.025  1.00  0.00     0.049 A 
ATOM     40  N   UNL A   1      41.075  28.588  29.164  1.00  0.00    -0.248 NA
ATOM     41  C   UNL A   1      39.318  27.057  28.990  1.00  0.00     0.031 C 
ATOM     42  C   UNL A   1      43.849  25.517  27.526  1.00  0.00     0.029 A 
ATOM     43  N   UNL A   1      43.694  27.606  28.288  1.00  0.00    -0.354 N 
ATOM     44  C   UNL A   1      39.926  29.147  29.709  1.00  0.00     0.074 A 
ATOM     45  C   UNL A   1      38.866  28.172  29.548  1.00  0.00     0.031 C 
ATOM     46  C   UNL A   1      45.062  26.078  27.397  1.00  0.00     0.029 A 
ATOM     47  C   UNL A   1      44.978  27.477  27.802  1.00  0.00     0.049 A 
ATOM     48  H   UNL A   1      43.373  28.401  28.771  1.00  0.00     0.167 HD
ATOM     49  C   UNL A   1      39.779  30.357  30.303  1.00  0.00     0.034 A 
ATOM     50  C   UNL A   1      45.955  28.393  27.655  1.00  0.00     0.034 A 
ATOM     51  C   UNL A   1      40.845  31.317  30.448  1.00  0.00     0.049 A 
ATOM     52  C   UNL A   1      45.721  29.792  28.163  1.00  0.00     0.074 A 
ATOM     53  C   UNL A   1      40.823  32.535  31.105  1.00  0.00     0.029 A 
ATOM     54  N   UNL A   1      42.115  31.182  29.904  1.00  0.00    -0.354 N 
ATOM     55  N   UNL A   1      44.649  30.289  28.734  1.00  0.00    -0.248 NA
ATOM     56  C   UNL A   1      46.832  30.744  28.034  1.00  0.00     0.031 C 
ATOM     57  C   UNL A   1      42.053  33.169  30.893  1.00  0.00     0.029 A 
ATOM     58  C   UNL A   1      42.865  32.319  30.160  1.00  0.00     0.049 A 
ATOM     59  H   UNL A   1      42.435  30.395  29.409  1.00  0.00     0.167 HD
ATOM     60  C   UNL A   1      44.975  31.598  29.077  1.00  0.00     0.074 A 
ATOM     61  C   UNL A   1      46.340  31.814  28.642  1.00  0.00     0.031 C 
ATOM     62  C   UNL A   1      44.220  32.529  29.712  1.00  0.00     0.034 A 
BRANCH  49  63
ATOM     63  C   UNL A   1      38.410  30.725  30.807  1.00  0.00     0.023 A 
ATOM     64  C   UNL A   1      37.481  31.401  29.996  1.00  0.00     0.031 A 
ATOM     65  C   UNL A   1      38.022  30.379  32.113  1.00  0.00     0.131 A 
ATOM     66  C   UNL A   1      36.226  31.747  30.516  1.00  0.00     0.055 A 
ATOM     67  C   UNL A   1      36.750  30.675  32.604  1.00  0.00     0.041 A 
ATOM     68  F   UNL A   1      38.878  29.751  32.934  1.00  0.00    -0.206 F 
ATOM     69  C   UNL A   1      35.845  31.370  31.806  1.00  0.00     0.022 A 
BRANCH  66  70
ATOM     70  S   UNL A   1      35.126  32.781  29.510  1.00  0.00     0.124 S 
ATOM     71  O   UNL A   1      34.627  31.816  28.532  1.00  0.00    -0.237 OA
ATOM     72  O   UNL A   1      34.155  33.254  30.489  1.00  0.00    -0.237 OA
ATOM     73  O   UNL A   1      36.017  33.805  28.968  1.00  0.00    -0.744 OA
ENDBRANCH  66  70
ENDBRANCH  49  63
BRANCH  50  74
ATOM     74  C   UNL A   1      47.213  28.047  26.934  1.00  0.00     0.023 A 
ATOM     75  C   UNL A   1      47.280  28.054  25.534  1.00  0.00     0.031 A 
ATOM     76  C   UNL A   1      48.351  27.623  27.648  1.00  0.00     0.131 A 
ATOM     77  C   UNL A   1      48.436  27.592  24.888  1.00  0.00     0.055 A 
ATOM     78  C   UNL A   1      49.514  27.205  27.001  1.00  0.00     0.041 A 
ATOM     79  F   UNL A   1      48.344  27.603  28.991  1.00  0.00    -0.206 F 
ATOM     80  C   UNL A   1      49.556  27.172  25.611  1.00  0.00     0.022 A 
BRANCH  77  81
ATOM     81  S   UNL A   1      48.420  27.443  23.080  1.00  0.00     0.124 S 
ATOM     82  O   UNL A   1      47.223  28.200  22.730  1.00  0.00    -0.237 OA
ATOM     83  O   UNL A   1      49.695  28.054  22.719  1.00  0.00    -0.237 OA
ATOM     84  O   UNL A   1      48.336  26.001  22.860  1.00  0.00    -0.744 OA
ENDBRANCH  77  81
ENDBRANCH  50  74
BRANCH  62  85
ATOM     85  C   UNL A   1      44.879  33.851  30.015  1.00  0.00     0.023 A 
ATOM     86  C   UNL A   1      45.539  34.081  31.233  1.00  0.00     0.031 A 
ATOM     87  C   UNL A   1      44.830  34.897  29.077  1.00  0.00     0.131 A 
ATOM     88  C   UNL A   1      46.082  35.346  31.503  1.00  0.00     0.055 A 
ATOM     89  C   UNL A   1      45.422  36.135  29.328  1.00  0.00     0.041 A 
ATOM     90  F   UNL A   1      44.207  34.730  27.899  1.00  0.00    -0.206 F 
ATOM     91  C   UNL A   1      46.043  36.369  30.551  1.00  0.00     0.022 A 
BRANCH  88  92
ATOM     92  S   UNL A   1      46.779  35.659  33.147  1.00  0.00     0.124 S 
ATOM     93  O   UNL A   1      46.125  34.630  33.951  1.00  0.00    -0.237 OA
ATOM     94  O   UNL A   1      48.209  35.477  32.922  1.00  0.00    -0.237 OA
ATOM     95  O   UNL A   1      46.367  37.030  33.439  1.00  0.00    -0.744 OA
ENDBRANCH  88  92
ENDBRANCH  62  85
ENDBRANCH  36  37
ENDBRANCH  29  31
ENDBRANCH  28  29
ENDBRANCH  27  28
ENDBRANCH  26  27
ENDBRANCH  25  26
ENDBRANCH   1  25
TORSDOF 21
ENDMDL
MODEL 3
REMARK VINA RESULT:     -10.6      5.304      8.910
REMARK SMILES O=C(CCC(=O)N1CCCn2nc(-c3ccccc3)cc21)OCCOCCOC(=O)c1ccc(-c2c3nc(c(-c4cc(S(=O)(=O)[O-])ccc4F)c4ccc([nH]4)c(-c4cc(S(=O)(=O)[O-])ccc4F)c4nc(c(-c5cc(S(=O)(=O)[O-])ccc5F)c5ccc2[nH]5)C=C4)C=C3)cc1
REMARK SMILES IDX 24 1 23 2 22 3 2 4 1 5 3 6 4 7 5 8 6 9 7 10 8 11 21 12 9 13
REMARK SMILES IDX 11 14 20 15 10 16 12 17 13 18 14 19 15 20 19 21 16 22 18 23
REMARK SMILES IDX 17 24 25 25 26 26 27 27 28 28 29 29 30 30 31 31 32 32 93 33
REMARK SMILES IDX 33 34 92 35 34 36 35 37 36 38 86 39 37 40 91 41 85 42 87 43
REMARK SMILES IDX 38 44 90 45 84 46 83 47 39 49 71 50 51 51 70 52 52 53 55 54
REMARK SMILES IDX 69 55 88 56 53 57 54 58 68 60 89 61 56 62 40 63 41 64 49 65
REMARK SMILES IDX 42 66 48 67 50 68 47 69 43 70 44 71 45 72 46 73 72 74 73 75
REMARK SMILES IDX 81 76 74 77 80 78 82 79 79 80 75 81 76 82 77 83 78 84 57 85
REMARK SMILES IDX 58 86 66 87 59 88 65 89 67 90 64 91 60 92 61 93 62 94 63 95
REMARK H PARENT 87 48 55 59
REMARK Flexibility Score: inf
ROOT
ATOM      1  C   UNL A   1      32.890  27.133  25.841  1.00  0.00     0.202 C 
ENDROOT
BRANCH   1   2
ATOM      2  C   UNL A   1      33.483  27.651  24.529  1.00  0.00     0.261 C 
BRANCH   2   3
ATOM      3  O   UNL A   1      32.564  27.582  23.422  1.00  0.00    -0.463 OA
BRANCH   3   4
ATOM      4  C   UNL A   1      32.823  26.975  22.242  1.00  0.00     0.306 C 
ATOM      5  O   UNL A   1      33.872  27.209  21.643  1.00  0.00    -0.252 OA
BRANCH   4   6
ATOM      6  C   UNL A   1      31.955  25.834  21.802  1.00  0.00     0.132 C 
BRANCH   6   7
ATOM      7  C   UNL A   1      32.747  24.540  21.921  1.00  0.00     0.112 C 
BRANCH   7   8
ATOM      8  C   UNL A   1      32.649  23.990  23.318  1.00  0.00     0.228 C 
ATOM      9  O   UNL A   1      31.564  23.968  23.889  1.00  0.00    -0.274 OA
BRANCH   8  10
ATOM     10  N   UNL A   1      33.842  23.575  24.022  1.00  0.00    -0.297 N 
ATOM     11  C   UNL A   1      35.059  24.416  24.172  1.00  0.00     0.129 C 
ATOM     12  C   UNL A   1      33.936  22.284  24.553  1.00  0.00     0.134 A 
ATOM     13  C   UNL A   1      35.648  24.224  25.569  1.00  0.00     0.046 C 
ATOM     14  N   UNL A   1      34.952  21.887  25.379  1.00  0.00    -0.249 N 
ATOM     15  C   UNL A   1      33.186  21.159  24.332  1.00  0.00     0.077 A 
ATOM     16  C   UNL A   1      36.033  22.763  25.780  1.00  0.00     0.148 C 
ATOM     17  N   UNL A   1      34.951  20.581  25.658  1.00  0.00    -0.171 NA
ATOM     18  C   UNL A   1      33.904  20.104  24.964  1.00  0.00     0.095 A 
BRANCH  18  19
ATOM     19  C   UNL A   1      33.651  18.678  24.809  1.00  0.00     0.002 A 
ATOM     20  C   UNL A   1      34.179  17.952  23.737  1.00  0.00     0.010 A 
ATOM     21  C   UNL A   1      32.832  18.026  25.745  1.00  0.00     0.010 A 
ATOM     22  C   UNL A   1      33.902  16.588  23.616  1.00  0.00     0.001 A 
ATOM     23  C   UNL A   1      32.547  16.667  25.614  1.00  0.00     0.001 A 
ATOM     24  C   UNL A   1      33.087  15.948  24.551  1.00  0.00     0.000 A 
ENDBRANCH  18  19
ENDBRANCH   8  10
ENDBRANCH   7   8
ENDBRANCH   6   7
ENDBRANCH   4   6
ENDBRANCH   3   4
ENDBRANCH   2   3
ENDBRANCH   1   2
BRANCH   1  25
ATOM     25  O   UNL A   1      32.501  28.119  26.786  1.00  0.00    -0.374 OA
BRANCH  25  26
ATOM     26  C   UNL A   1      32.652  29.498  26.432  1.00  0.00     0.202 C 
BRANCH  26  27
ATOM     27  C   UNL A   1      33.491  30.424  27.324  1.00  0.00     0.261 C 
BRANCH  27  28
ATOM     28  O   UNL A   1      33.634  31.767  26.813  1.00  0.00    -0.460 OA
BRANCH  28  29
ATOM     29  C   UNL A   1      33.660  32.729  27.773  1.00  0.00     0.338 C 
ATOM     30  O   UNL A   1      32.792  33.552  28.008  1.00  0.00    -0.246 OA
BRANCH  29  31
ATOM     31  C   UNL A   1      34.876  32.631  28.596  1.00  0.00     0.060 A 
ATOM     32  C   UNL A   1      36.086  33.131  28.096  1.00  0.00     0.016 A 
ATOM     33  C   UNL A   1      34.855  31.855  29.755  1.00  0.00     0.016 A 
ATOM     34  C   UNL A   1      37.290  32.821  28.742  1.00  0.00     0.010 A 
ATOM     35  C   UNL A   1      36.059  31.549  30.395  1.00  0.00     0.010 A 
ATOM     36  C   UNL A   1      37.288  32.000  29.877  1.00  0.00    -0.014 A 
BRANCH  36  37
ATOM     37  C   UNL A   1      38.547  31.514  30.504  1.00  0.00     0.031 A 
ATOM     38  C   UNL A   1      39.289  30.362  29.889  1.00  0.00     0.074 A 
ATOM     39  C   UNL A   1      38.969  32.027  31.675  1.00  0.00     0.049 A 
ATOM     40  N   UNL A   1      40.268  29.654  30.385  1.00  0.00    -0.248 NA
ATOM     41  C   UNL A   1      38.883  29.970  28.530  1.00  0.00     0.031 C 
ATOM     42  C   UNL A   1      38.405  33.204  32.319  1.00  0.00     0.029 A 
ATOM     43  N   UNL A   1      39.927  31.593  32.558  1.00  0.00    -0.354 N 
ATOM     44  C   UNL A   1      40.610  28.738  29.398  1.00  0.00     0.074 A 
ATOM     45  C   UNL A   1      39.704  28.957  28.289  1.00  0.00     0.031 C 
ATOM     46  C   UNL A   1      38.932  33.333  33.548  1.00  0.00     0.029 A 
ATOM     47  C   UNL A   1      39.869  32.238  33.774  1.00  0.00     0.049 A 
ATOM     48  H   UNL A   1      40.585  30.892  32.345  1.00  0.00     0.167 HD
ATOM     49  C   UNL A   1      41.601  27.813  29.416  1.00  0.00     0.034 A 
ATOM     50  C   UNL A   1      40.465  31.951  34.948  1.00  0.00     0.034 A 
ATOM     51  C   UNL A   1      42.489  27.605  30.533  1.00  0.00     0.049 A 
ATOM     52  C   UNL A   1      41.441  30.804  35.005  1.00  0.00     0.074 A 
ATOM     53  C   UNL A   1      43.576  26.754  30.622  1.00  0.00     0.029 A 
ATOM     54  N   UNL A   1      42.376  28.235  31.765  1.00  0.00    -0.354 N 
ATOM     55  N   UNL A   1      41.801  29.984  34.045  1.00  0.00    -0.248 NA
ATOM     56  C   UNL A   1      42.110  30.559  36.289  1.00  0.00     0.031 C 
ATOM     57  C   UNL A   1      44.072  26.812  31.930  1.00  0.00     0.029 A 
ATOM     58  C   UNL A   1      43.336  27.748  32.638  1.00  0.00     0.049 A 
ATOM     59  H   UNL A   1      41.711  28.926  31.986  1.00  0.00     0.167 HD
ATOM     60  C   UNL A   1      42.776  29.159  34.598  1.00  0.00     0.074 A 
ATOM     61  C   UNL A   1      42.941  29.576  35.976  1.00  0.00     0.031 C 
ATOM     62  C   UNL A   1      43.484  28.161  34.012  1.00  0.00     0.034 A 
BRANCH  49  63
ATOM     63  C   UNL A   1      41.754  26.930  28.206  1.00  0.00     0.023 A 
ATOM     64  C   UNL A   1      41.193  25.643  28.157  1.00  0.00     0.031 A 
ATOM     65  C   UNL A   1      42.456  27.392  27.081  1.00  0.00     0.131 A 
ATOM     66  C   UNL A   1      41.381  24.845  27.019  1.00  0.00     0.055 A 
ATOM     67  C   UNL A   1      42.590  26.615  25.929  1.00  0.00     0.041 A 
ATOM     68  F   UNL A   1      43.027  28.607  27.085  1.00  0.00    -0.206 F 
ATOM     69  C   UNL A   1      42.057  25.329  25.897  1.00  0.00     0.022 A 
BRANCH  66  70
ATOM     70  S   UNL A   1      40.808  23.125  27.062  1.00  0.00     0.124 S 
ATOM     71  O   UNL A   1      39.358  23.298  27.097  1.00  0.00    -0.237 OA
ATOM     72  O   UNL A   1      41.354  22.580  25.824  1.00  0.00    -0.237 OA
ATOM     73  O   UNL A   1      41.397  22.596  28.290  1.00  0.00    -0.744 OA
ENDBRANCH  66  70
ENDBRANCH  49  63
BRANCH  50  74
ATOM     74  C   UNL A   1      40.106  32.704  36.183  1.00  0.00     0.023 A 
ATOM     75  C   UNL A   1      39.069  32.279  37.024  1.00  0.00     0.031 A 
ATOM     76  C   UNL A   1      40.753  33.917  36.492  1.00  0.00     0.131 A 
ATOM     77  C   UNL A   1      38.668  33.085  38.101  1.00  0.00     0.055 A 
ATOM     78  C   UNL A   1      40.379  34.693  37.590  1.00  0.00     0.041 A 
ATOM     79  F   UNL A   1      41.758  34.368  35.724  1.00  0.00    -0.206 F 
ATOM     80  C   UNL A   1      39.320  34.287  38.393  1.00  0.00     0.022 A 
BRANCH  77  81
ATOM     81  S   UNL A   1      37.207  32.593  39.056  1.00  0.00     0.124 S 
ATOM     82  O   UNL A   1      37.310  33.461  40.225  1.00  0.00    -0.237 OA
ATOM     83  O   UNL A   1      36.125  32.896  38.126  1.00  0.00    -0.237 OA
ATOM     84  O   UNL A   1      37.431  31.172  39.310  1.00  0.00    -0.744 OA
ENDBRANCH  77  81
ENDBRANCH  50  74
BRANCH  62  85
ATOM     85  C   UNL A   1      44.537  27.486  34.854  1.00  0.00     0.023 A 
ATOM     86  C   UNL A   1      45.855  27.967  34.908  1.00  0.00     0.031 A 
ATOM     87  C   UNL A   1      44.217  26.337  35.598  1.00  0.00     0.131 A 
ATOM     88  C   UNL A   1      46.820  27.273  35.652  1.00  0.00     0.055 A 
ATOM     89  C   UNL A   1      45.168  25.683  36.382  1.00  0.00     0.041 A 
ATOM     90  F   UNL A   1      42.972  25.834  35.577  1.00  0.00    -0.206 F 
ATOM     91  C   UNL A   1      46.482  26.144  36.403  1.00  0.00     0.022 A 
BRANCH  88  92
ATOM     92  S   UNL A   1      48.545  27.825  35.566  1.00  0.00     0.124 S 
ATOM     93  O   UNL A   1      48.721  28.040  34.133  1.00  0.00    -0.237 OA
ATOM     94  O   UNL A   1      48.531  29.027  36.393  1.00  0.00    -0.237 OA
ATOM     95  O   UNL A   1      49.293  26.700  36.123  1.00  0.00    -0.744 OA
ENDBRANCH  88  92
ENDBRANCH  62  85
ENDBRANCH  36  37
ENDBRANCH  29  31
ENDBRANCH  28  29
ENDBRANCH  27  28
ENDBRANCH  26  27
ENDBRANCH  25  26
ENDBRANCH   1  25
TORSDOF 21
ENDMDL
