MODEL 1
REMARK VINA RESULT:     -10.6      0.000      0.000
REMARK SMILES CCCc1nc(C[N@H+]2CCCC[C@@H]2C(=O)OCCOCCOC(=O)c2ccc(-c3c4nc(c(-c5cc(S(=O)(=O)[O-])ccc5F)c5ccc([nH]5)c(-c5cc(S(=O)(=O)[O-])ccc5F)c5nc(c(-c6cc(S(=O)(=O)[O-])ccc6F)c6ccc3[nH]6)C=C5)C=C4)cc2)cs1
REMARK SMILES IDX 18 1 17 2 16 3 14 4 15 5 13 6 8 7 9 8 10 10 12 11 11 12 7 13
REMARK SMILES IDX 6 14 4 15 5 16 89 17 88 18 3 19 2 20 1 21 19 22 20 23 21 24
REMARK SMILES IDX 22 25 23 26 24 27 25 28 26 29 87 30 27 31 86 32 28 33 29 34
REMARK SMILES IDX 30 35 80 36 31 37 85 38 79 39 81 40 32 41 84 42 78 43 77 44
REMARK SMILES IDX 33 46 65 47 45 48 64 49 46 50 49 51 63 52 82 53 47 54 48 55
REMARK SMILES IDX 62 57 83 58 50 59 34 60 35 61 43 62 36 63 42 64 44 65 41 66
REMARK SMILES IDX 37 67 38 68 39 69 40 70 66 71 67 72 75 73 68 74 74 75 76 76
REMARK SMILES IDX 73 77 69 78 70 79 71 80 72 81 51 82 52 83 60 84 53 85 59 86
REMARK SMILES IDX 61 87 58 88 54 89 55 90 56 91 57 92
REMARK H PARENT 8 9 81 45 49 56
REMARK Flexibility Score: inf
ROOT
ATOM      1  C   UNL A   1      36.522  22.325  24.650  1.00  0.00     0.202 C 
ENDROOT
BRANCH   1   2
ATOM      2  C   UNL A   1      35.186  23.015  24.345  1.00  0.00     0.261 C 
BRANCH   2   3
ATOM      3  O   UNL A   1      34.970  24.226  25.078  1.00  0.00    -0.459 OA
BRANCH   3   4
ATOM      4  C   UNL A   1      34.161  24.066  26.159  1.00  0.00     0.364 C 
ATOM      5  O   UNL A   1      34.360  23.218  27.027  1.00  0.00    -0.245 OA
BRANCH   4   6
ATOM      6  C   UNL A   1      33.009  25.096  26.247  1.00  0.00     0.295 C 
ATOM      7  N   UNL A   1      31.793  24.624  25.537  1.00  0.00    -0.318 N 
ATOM      8  C   UNL A   1      30.671  25.566  25.654  1.00  0.00     0.263 C 
ATOM      9  H   UNL A   1      32.088  24.591  24.561  1.00  0.00     0.349 HD
ATOM     10  C   UNL A   1      31.044  26.972  25.181  1.00  0.00     0.062 C 
ATOM     11  C   UNL A   1      33.419  26.499  25.758  1.00  0.00     0.078 C 
ATOM     12  C   UNL A   1      32.271  27.490  25.914  1.00  0.00     0.013 C 
BRANCH   7  13
ATOM     13  C   UNL A   1      31.367  23.240  25.854  1.00  0.00     0.321 C 
BRANCH  13  14
ATOM     14  C   UNL A   1      31.728  22.197  24.825  1.00  0.00     0.106 A 
ATOM     15  C   UNL A   1      32.260  20.111  24.273  1.00  0.00     0.093 A 
ATOM     16  N   UNL A   1      31.984  20.910  25.279  1.00  0.00    -0.240 NA
ATOM     17  S   UNL A   1      32.233  20.833  22.720  1.00  0.00    -0.127 S 
ATOM     18  C   UNL A   1      31.794  22.319  23.447  1.00  0.00     0.096 A 
BRANCH  15  19
ATOM     19  C   UNL A   1      32.606  18.669  24.441  1.00  0.00     0.067 C 
BRANCH  19  20
ATOM     20  C   UNL A   1      32.867  17.983  23.098  1.00  0.00     0.004 C 
ATOM     21  C   UNL A   1      33.822  16.799  23.196  1.00  0.00     0.004 C 
ENDBRANCH  19  20
ENDBRANCH  15  19
ENDBRANCH  13  14
ENDBRANCH   7  13
ENDBRANCH   4   6
ENDBRANCH   3   4
ENDBRANCH   2   3
ENDBRANCH   1   2
BRANCH   1  22
ATOM     22  O   UNL A   1      36.517  21.144  25.445  1.00  0.00    -0.374 OA
BRANCH  22  23
ATOM     23  C   UNL A   1      37.035  19.935  24.891  1.00  0.00     0.202 C 
BRANCH  23  24
ATOM     24  C   UNL A   1      38.461  19.507  25.255  1.00  0.00     0.261 C 
BRANCH  24  25
ATOM     25  O   UNL A   1      39.350  20.631  25.389  1.00  0.00    -0.460 OA
BRANCH  25  26
ATOM     26  C   UNL A   1      40.205  20.545  26.436  1.00  0.00     0.338 C 
ATOM     27  O   UNL A   1      40.872  19.570  26.760  1.00  0.00    -0.246 OA
BRANCH  26  28
ATOM     28  C   UNL A   1      40.404  21.868  27.047  1.00  0.00     0.060 A 
ATOM     29  C   UNL A   1      39.708  22.952  26.494  1.00  0.00     0.016 A 
ATOM     30  C   UNL A   1      41.343  22.068  28.061  1.00  0.00     0.016 A 
ATOM     31  C   UNL A   1      39.994  24.250  26.906  1.00  0.00     0.010 A 
ATOM     32  C   UNL A   1      41.640  23.375  28.464  1.00  0.00     0.010 A 
ATOM     33  C   UNL A   1      40.999  24.471  27.855  1.00  0.00    -0.014 A 
BRANCH  33  34
ATOM     34  C   UNL A   1      41.525  25.844  28.050  1.00  0.00     0.031 A 
ATOM     35  C   UNL A   1      42.904  26.161  27.537  1.00  0.00     0.074 A 
ATOM     36  C   UNL A   1      40.779  26.798  28.634  1.00  0.00     0.049 A 
ATOM     37  N   UNL A   1      43.602  27.261  27.648  1.00  0.00    -0.248 NA
ATOM     38  C   UNL A   1      43.588  25.085  26.802  1.00  0.00     0.031 C 
ATOM     39  C   UNL A   1      39.407  26.624  29.107  1.00  0.00     0.029 A 
ATOM     40  N   UNL A   1      41.077  28.103  28.933  1.00  0.00    -0.354 N 
ATOM     41  C   UNL A   1      44.810  27.008  27.007  1.00  0.00     0.074 A 
ATOM     42  C   UNL A   1      44.761  25.639  26.539  1.00  0.00     0.031 C 
ATOM     43  C   UNL A   1      38.987  27.778  29.653  1.00  0.00     0.029 A 
ATOM     44  C   UNL A   1      40.072  28.757  29.606  1.00  0.00     0.049 A 
ATOM     45  H   UNL A   1      41.929  28.532  28.689  1.00  0.00     0.167 HD
ATOM     46  C   UNL A   1      45.862  27.844  26.821  1.00  0.00     0.034 A 
ATOM     47  C   UNL A   1      40.046  29.991  30.149  1.00  0.00     0.034 A 
ATOM     48  C   UNL A   1      45.897  29.201  27.303  1.00  0.00     0.049 A 
ATOM     49  C   UNL A   1      41.264  30.876  30.011  1.00  0.00     0.074 A 
ATOM     50  C   UNL A   1      46.909  30.138  27.176  1.00  0.00     0.029 A 
ATOM     51  N   UNL A   1      44.876  29.817  28.018  1.00  0.00    -0.354 N 
ATOM     52  N   UNL A   1      42.406  30.622  29.415  1.00  0.00    -0.248 NA
ATOM     53  C   UNL A   1      41.185  32.212  30.614  1.00  0.00     0.031 C 
ATOM     54  C   UNL A   1      46.529  31.292  27.871  1.00  0.00     0.029 A 
ATOM     55  C   UNL A   1      45.246  31.107  28.362  1.00  0.00     0.049 A 
ATOM     56  H   UNL A   1      44.015  29.396  28.245  1.00  0.00     0.167 HD
ATOM     57  C   UNL A   1      43.165  31.785  29.538  1.00  0.00     0.074 A 
ATOM     58  C   UNL A   1      42.350  32.737  30.262  1.00  0.00     0.031 C 
ATOM     59  C   UNL A   1      44.419  32.044  29.085  1.00  0.00     0.034 A 
BRANCH  46  60
ATOM     60  C   UNL A   1      47.076  27.283  26.118  1.00  0.00     0.023 A 
ATOM     61  C   UNL A   1      48.048  26.531  26.800  1.00  0.00     0.031 A 
ATOM     62  C   UNL A   1      47.283  27.542  24.752  1.00  0.00     0.131 A 
ATOM     63  C   UNL A   1      49.214  26.124  26.132  1.00  0.00     0.055 A 
ATOM     64  C   UNL A   1      48.406  27.065  24.074  1.00  0.00     0.041 A 
ATOM     65  F   UNL A   1      46.402  28.277  24.054  1.00  0.00    -0.206 F 
ATOM     66  C   UNL A   1      49.388  26.365  24.768  1.00  0.00     0.022 A 
BRANCH  63  67
ATOM     67  S   UNL A   1      50.565  25.404  27.105  1.00  0.00     0.124 S 
ATOM     68  O   UNL A   1      49.869  24.355  27.846  1.00  0.00    -0.237 OA
ATOM     69  O   UNL A   1      51.491  24.953  26.074  1.00  0.00    -0.237 OA
ATOM     70  O   UNL A   1      51.035  26.524  27.920  1.00  0.00    -0.744 OA
ENDBRANCH  63  67
ENDBRANCH  46  60
BRANCH  47  71
ATOM     71  C   UNL A   1      38.852  30.455  30.913  1.00  0.00     0.023 A 
ATOM     72  C   UNL A   1      37.789  31.112  30.275  1.00  0.00     0.031 A 
ATOM     73  C   UNL A   1      38.785  30.293  32.309  1.00  0.00     0.131 A 
ATOM     74  C   UNL A   1      36.725  31.624  31.037  1.00  0.00     0.055 A 
ATOM     75  C   UNL A   1      37.701  30.756  33.055  1.00  0.00     0.041 A 
ATOM     76  F   UNL A   1      39.776  29.673  32.969  1.00  0.00    -0.206 F 
ATOM     77  C   UNL A   1      36.668  31.438  32.420  1.00  0.00     0.022 A 
BRANCH  74  78
ATOM     78  S   UNL A   1      35.456  32.614  30.202  1.00  0.00     0.124 S 
ATOM     79  O   UNL A   1      35.288  31.886  28.950  1.00  0.00    -0.237 OA
ATOM     80  O   UNL A   1      34.344  32.537  31.145  1.00  0.00    -0.237 OA
ATOM     81  O   UNL A   1      36.077  33.931  30.082  1.00  0.00    -0.744 OA
ENDBRANCH  74  78
ENDBRANCH  47  71
BRANCH  59  82
ATOM     82  C   UNL A   1      44.956  33.439  29.300  1.00  0.00     0.023 A 
ATOM     83  C   UNL A   1      44.730  34.477  28.380  1.00  0.00     0.031 A 
ATOM     84  C   UNL A   1      45.700  33.731  30.457  1.00  0.00     0.131 A 
ATOM     85  C   UNL A   1      45.281  35.746  28.610  1.00  0.00     0.055 A 
ATOM     86  C   UNL A   1      46.198  35.009  30.709  1.00  0.00     0.041 A 
ATOM     87  F   UNL A   1      45.946  32.776  31.371  1.00  0.00    -0.206 F 
ATOM     88  C   UNL A   1      45.999  36.023  29.777  1.00  0.00     0.022 A 
BRANCH  85  89
ATOM     89  S   UNL A   1      45.112  37.019  27.329  1.00  0.00     0.124 S 
ATOM     90  O   UNL A   1      45.378  38.242  28.080  1.00  0.00    -0.237 OA
ATOM     91  O   UNL A   1      46.134  36.629  26.363  1.00  0.00    -0.237 OA
ATOM     92  O   UNL A   1      43.734  36.862  26.868  1.00  0.00    -0.744 OA
ENDBRANCH  85  89
ENDBRANCH  59  82
ENDBRANCH  33  34
ENDBRANCH  26  28
ENDBRANCH  25  26
ENDBRANCH  24  25
ENDBRANCH  23  24
ENDBRANCH  22  23
ENDBRANCH   1  22
TORSDOF 21
ENDMDL
MODEL 2
REMARK VINA RESULT:     -10.6      1.433      1.738
REMARK SMILES CCCc1nc(C[N@H+]2CCCC[C@@H]2C(=O)OCCOCCOC(=O)c2ccc(-c3c4nc(c(-c5cc(S(=O)(=O)[O-])ccc5F)c5ccc([nH]5)c(-c5cc(S(=O)(=O)[O-])ccc5F)c5nc(c(-c6cc(S(=O)(=O)[O-])ccc6F)c6ccc3[nH]6)C=C5)C=C4)cc2)cs1
REMARK SMILES IDX 18 1 17 2 16 3 14 4 15 5 13 6 8 7 9 8 10 10 12 11 11 12 7 13
REMARK SMILES IDX 6 14 4 15 5 16 89 17 88 18 3 19 2 20 1 21 19 22 20 23 21 24
REMARK SMILES IDX 22 25 23 26 24 27 25 28 26 29 87 30 27 31 86 32 28 33 29 34
REMARK SMILES IDX 30 35 80 36 31 37 85 38 79 39 81 40 32 41 84 42 78 43 77 44
REMARK SMILES IDX 33 46 65 47 45 48 64 49 46 50 49 51 63 52 82 53 47 54 48 55
REMARK SMILES IDX 62 57 83 58 50 59 34 60 35 61 43 62 36 63 42 64 44 65 41 66
REMARK SMILES IDX 37 67 38 68 39 69 40 70 66 71 67 72 75 73 68 74 74 75 76 76
REMARK SMILES IDX 73 77 69 78 70 79 71 80 72 81 51 82 52 83 60 84 53 85 59 86
REMARK SMILES IDX 61 87 58 88 54 89 55 90 56 91 57 92
REMARK H PARENT 8 9 81 45 49 56
REMARK Flexibility Score: inf
ROOT
ATOM      1  C   UNL A   1      36.398  22.293  23.811  1.00  0.00     0.202 C 
ENDROOT
BRANCH   1   2
ATOM      2  C   UNL A   1      35.127  22.468  24.652  1.00  0.00     0.261 C 
BRANCH   2   3
ATOM      3  O   UNL A   1      35.034  23.733  25.318  1.00  0.00    -0.459 OA
BRANCH   3   4
ATOM      4  C   UNL A   1      34.155  23.734  26.356  1.00  0.00     0.364 C 
ATOM      5  O   UNL A   1      34.253  22.977  27.319  1.00  0.00    -0.245 OA
BRANCH   4   6
ATOM      6  C   UNL A   1      33.062  24.825  26.259  1.00  0.00     0.295 C 
ATOM      7  N   UNL A   1      31.926  24.393  25.407  1.00  0.00    -0.318 N 
ATOM      8  C   UNL A   1      30.853  25.397  25.346  1.00  0.00     0.263 C 
ATOM      9  H   UNL A   1      32.345  24.310  24.480  1.00  0.00     0.349 HD
ATOM     10  C   UNL A   1      31.365  26.763  24.886  1.00  0.00     0.062 C 
ATOM     11  C   UNL A   1      33.612  26.186  25.790  1.00  0.00     0.078 C 
ATOM     12  C   UNL A   1      32.512  27.242  25.762  1.00  0.00     0.013 C 
BRANCH   7  13
ATOM     13  C   UNL A   1      31.383  23.046  25.703  1.00  0.00     0.321 C 
BRANCH  13  14
ATOM     14  C   UNL A   1      31.747  21.966  24.714  1.00  0.00     0.106 A 
ATOM     15  C   UNL A   1      32.252  19.855  24.235  1.00  0.00     0.093 A 
ATOM     16  N   UNL A   1      31.968  20.689  25.211  1.00  0.00    -0.240 NA
ATOM     17  S   UNL A   1      32.275  20.531  22.662  1.00  0.00    -0.127 S 
ATOM     18  C   UNL A   1      31.848  22.046  23.335  1.00  0.00     0.096 A 
BRANCH  15  19
ATOM     19  C   UNL A   1      32.566  18.413  24.453  1.00  0.00     0.067 C 
BRANCH  19  20
ATOM     20  C   UNL A   1      33.981  18.059  23.990  1.00  0.00     0.004 C 
ATOM     21  C   UNL A   1      34.085  16.678  23.354  1.00  0.00     0.004 C 
ENDBRANCH  19  20
ENDBRANCH  15  19
ENDBRANCH  13  14
ENDBRANCH   7  13
ENDBRANCH   4   6
ENDBRANCH   3   4
ENDBRANCH   2   3
ENDBRANCH   1   2
BRANCH   1  22
ATOM     22  O   UNL A   1      37.540  21.692  24.413  1.00  0.00    -0.374 OA
BRANCH  22  23
ATOM     23  C   UNL A   1      37.514  20.296  24.707  1.00  0.00     0.202 C 
BRANCH  23  24
ATOM     24  C   UNL A   1      38.794  19.624  25.216  1.00  0.00     0.261 C 
BRANCH  24  25
ATOM     25  O   UNL A   1      39.221  20.155  26.484  1.00  0.00    -0.460 OA
BRANCH  25  26
ATOM     26  C   UNL A   1      40.522  20.528  26.523  1.00  0.00     0.338 C 
ATOM     27  O   UNL A   1      41.466  19.954  25.991  1.00  0.00    -0.246 OA
BRANCH  26  28
ATOM     28  C   UNL A   1      40.657  21.862  27.130  1.00  0.00     0.060 A 
ATOM     29  C   UNL A   1      39.892  22.903  26.587  1.00  0.00     0.016 A 
ATOM     30  C   UNL A   1      41.601  22.116  28.126  1.00  0.00     0.016 A 
ATOM     31  C   UNL A   1      40.111  24.216  26.992  1.00  0.00     0.010 A 
ATOM     32  C   UNL A   1      41.830  23.438  28.522  1.00  0.00     0.010 A 
ATOM     33  C   UNL A   1      41.119  24.495  27.924  1.00  0.00    -0.014 A 
BRANCH  33  34
ATOM     34  C   UNL A   1      41.569  25.896  28.108  1.00  0.00     0.031 A 
ATOM     35  C   UNL A   1      42.916  26.292  27.563  1.00  0.00     0.074 A 
ATOM     36  C   UNL A   1      40.784  26.806  28.710  1.00  0.00     0.049 A 
ATOM     37  N   UNL A   1      43.552  27.429  27.659  1.00  0.00    -0.248 NA
ATOM     38  C   UNL A   1      43.642  25.256  26.810  1.00  0.00     0.031 C 
ATOM     39  C   UNL A   1      39.436  26.554  29.216  1.00  0.00     0.029 A 
ATOM     40  N   UNL A   1      41.013  28.126  29.004  1.00  0.00    -0.354 N 
ATOM     41  C   UNL A   1      44.757  27.246  26.989  1.00  0.00     0.074 A 
ATOM     42  C   UNL A   1      44.775  25.876  26.521  1.00  0.00     0.031 C 
ATOM     43  C   UNL A   1      38.963  27.682  29.772  1.00  0.00     0.029 A 
ATOM     44  C   UNL A   1      39.989  28.721  29.701  1.00  0.00     0.049 A 
ATOM     45  H   UNL A   1      41.834  28.603  28.740  1.00  0.00     0.167 HD
ATOM     46  C   UNL A   1      45.755  28.141  26.779  1.00  0.00     0.034 A 
ATOM     47  C   UNL A   1      39.905  29.952  30.246  1.00  0.00     0.034 A 
ATOM     48  C   UNL A   1      45.723  29.498  27.262  1.00  0.00     0.049 A 
ATOM     49  C   UNL A   1      41.067  30.905  30.081  1.00  0.00     0.074 A 
ATOM     50  C   UNL A   1      46.676  30.491  27.112  1.00  0.00     0.029 A 
ATOM     51  N   UNL A   1      44.686  30.054  28.001  1.00  0.00    -0.354 N 
ATOM     52  N   UNL A   1      42.208  30.717  29.458  1.00  0.00    -0.248 NA
ATOM     53  C   UNL A   1      40.926  32.235  30.687  1.00  0.00     0.031 C 
ATOM     54  C   UNL A   1      46.247  31.621  27.817  1.00  0.00     0.029 A 
ATOM     55  C   UNL A   1      44.989  31.364  28.339  1.00  0.00     0.049 A 
ATOM     56  H   UNL A   1      43.856  29.585  28.249  1.00  0.00     0.167 HD
ATOM     57  C   UNL A   1      42.901  31.921  29.564  1.00  0.00     0.074 A 
ATOM     58  C   UNL A   1      42.050  32.826  30.308  1.00  0.00     0.031 C 
ATOM     59  C   UNL A   1      44.127  32.252  29.082  1.00  0.00     0.034 A 
BRANCH  46  60
ATOM     60  C   UNL A   1      46.982  27.651  26.048  1.00  0.00     0.023 A 
ATOM     61  C   UNL A   1      47.211  27.954  24.694  1.00  0.00     0.031 A 
ATOM     62  C   UNL A   1      47.916  26.833  26.707  1.00  0.00     0.131 A 
ATOM     63  C   UNL A   1      48.307  27.386  24.026  1.00  0.00     0.055 A 
ATOM     64  C   UNL A   1      49.049  26.338  26.058  1.00  0.00     0.041 A 
ATOM     65  F   UNL A   1      47.738  26.489  27.993  1.00  0.00    -0.206 F 
ATOM     66  C   UNL A   1      49.241  26.600  24.705  1.00  0.00     0.022 A 
BRANCH  63  67
ATOM     67  S   UNL A   1      48.415  27.569  22.224  1.00  0.00     0.124 S 
ATOM     68  O   UNL A   1      49.584  28.435  22.086  1.00  0.00    -0.237 OA
ATOM     69  O   UNL A   1      48.582  26.192  21.776  1.00  0.00    -0.237 OA
ATOM     70  O   UNL A   1      47.142  28.192  21.866  1.00  0.00    -0.744 OA
ENDBRANCH  63  67
ENDBRANCH  46  60
BRANCH  47  71
ATOM     71  C   UNL A   1      38.705  30.347  31.038  1.00  0.00     0.023 A 
ATOM     72  C   UNL A   1      37.647  31.060  30.453  1.00  0.00     0.031 A 
ATOM     73  C   UNL A   1      38.626  30.061  32.413  1.00  0.00     0.131 A 
ATOM     74  C   UNL A   1      36.578  31.502  31.248  1.00  0.00     0.055 A 
ATOM     75  C   UNL A   1      37.535  30.456  33.189  1.00  0.00     0.041 A 
ATOM     76  F   UNL A   1      39.611  29.383  33.023  1.00  0.00    -0.206 F 
ATOM     77  C   UNL A   1      36.508  31.193  32.609  1.00  0.00     0.022 A 
BRANCH  74  78
ATOM     78  S   UNL A   1      35.316  32.565  30.495  1.00  0.00     0.124 S 
ATOM     79  O   UNL A   1      34.297  32.600  31.537  1.00  0.00    -0.237 OA
ATOM     80  O   UNL A   1      36.056  33.805  30.279  1.00  0.00    -0.237 OA
ATOM     81  O   UNL A   1      34.945  31.844  29.280  1.00  0.00    -0.744 OA
ENDBRANCH  74  78
ENDBRANCH  47  71
BRANCH  59  82
ATOM     82  C   UNL A   1      44.588  33.675  29.286  1.00  0.00     0.023 A 
ATOM     83  C   UNL A   1      44.270  34.701  28.380  1.00  0.00     0.031 A 
ATOM     84  C   UNL A   1      45.354  34.006  30.418  1.00  0.00     0.131 A 
ATOM     85  C   UNL A   1      44.753  36.000  28.598  1.00  0.00     0.055 A 
ATOM     86  C   UNL A   1      45.784  35.311  30.660  1.00  0.00     0.041 A 
ATOM     87  F   UNL A   1      45.687  33.065  31.318  1.00  0.00    -0.206 F 
ATOM     88  C   UNL A   1      45.493  36.315  29.741  1.00  0.00     0.022 A 
BRANCH  85  89
ATOM     89  S   UNL A   1      44.465  37.265  27.330  1.00  0.00     0.124 S 
ATOM     90  O   UNL A   1      43.309  36.725  26.621  1.00  0.00    -0.237 OA
ATOM     91  O   UNL A   1      44.220  38.460  28.131  1.00  0.00    -0.237 OA
ATOM     92  O   UNL A   1      45.711  37.277  26.567  1.00  0.00    -0.744 OA
ENDBRANCH  85  89
ENDBRANCH  59  82
ENDBRANCH  33  34
ENDBRANCH  26  28
ENDBRANCH  25  26
ENDBRANCH  24  25
ENDBRANCH  23  24
ENDBRANCH  22  23
ENDBRANCH   1  22
TORSDOF 21
ENDMDL
MODEL 3
REMARK VINA RESULT:     -10.4      2.253      3.730
REMARK SMILES CCCc1nc(C[N@H+]2CCCC[C@@H]2C(=O)OCCOCCOC(=O)c2ccc(-c3c4nc(c(-c5cc(S(=O)(=O)[O-])ccc5F)c5ccc([nH]5)c(-c5cc(S(=O)(=O)[O-])ccc5F)c5nc(c(-c6cc(S(=O)(=O)[O-])ccc6F)c6ccc3[nH]6)C=C5)C=C4)cc2)cs1
REMARK SMILES IDX 18 1 17 2 16 3 14 4 15 5 13 6 8 7 9 8 10 10 12 11 11 12 7 13
REMARK SMILES IDX 6 14 4 15 5 16 89 17 88 18 3 19 2 20 1 21 19 22 20 23 21 24
REMARK SMILES IDX 22 25 23 26 24 27 25 28 26 29 87 30 27 31 86 32 28 33 29 34
REMARK SMILES IDX 30 35 80 36 31 37 85 38 79 39 81 40 32 41 84 42 78 43 77 44
REMARK SMILES IDX 33 46 65 47 45 48 64 49 46 50 49 51 63 52 82 53 47 54 48 55
REMARK SMILES IDX 62 57 83 58 50 59 34 60 35 61 43 62 36 63 42 64 44 65 41 66
REMARK SMILES IDX 37 67 38 68 39 69 40 70 66 71 67 72 75 73 68 74 74 75 76 76
REMARK SMILES IDX 73 77 69 78 70 79 71 80 72 81 51 82 52 83 60 84 53 85 59 86
REMARK SMILES IDX 61 87 58 88 54 89 55 90 56 91 57 92
REMARK H PARENT 8 9 81 45 49 56
REMARK Flexibility Score: inf
ROOT
ATOM      1  C   UNL A   1      35.584  22.345  23.579  1.00  0.00     0.202 C 
ENDROOT
BRANCH   1   2
ATOM      2  C   UNL A   1      36.021  23.750  24.018  1.00  0.00     0.261 C 
BRANCH   2   3
ATOM      3  O   UNL A   1      34.958  24.562  24.529  1.00  0.00    -0.459 OA
BRANCH   3   4
ATOM      4  C   UNL A   1      33.999  24.840  23.606  1.00  0.00     0.364 C 
ATOM      5  O   UNL A   1      34.252  25.086  22.428  1.00  0.00    -0.245 OA
BRANCH   4   6
ATOM      6  C   UNL A   1      32.553  24.743  24.146  1.00  0.00     0.295 C 
ATOM      7  N   UNL A   1      32.150  25.977  24.868  1.00  0.00    -0.318 N 
ATOM      8  C   UNL A   1      30.760  25.924  25.343  1.00  0.00     0.263 C 
ATOM      9  H   UNL A   1      32.769  25.987  25.679  1.00  0.00     0.349 HD
ATOM     10  C   UNL A   1      30.492  24.695  26.213  1.00  0.00     0.062 C 
ATOM     11  C   UNL A   1      32.319  23.496  25.021  1.00  0.00     0.078 C 
ATOM     12  C   UNL A   1      30.869  23.415  25.485  1.00  0.00     0.013 C 
BRANCH   7  13
ATOM     13  C   UNL A   1      32.427  27.249  24.159  1.00  0.00     0.321 C 
BRANCH  13  14
ATOM     14  C   UNL A   1      32.364  28.494  25.010  1.00  0.00     0.106 A 
ATOM     15  C   UNL A   1      33.247  29.866  26.518  1.00  0.00     0.093 A 
ATOM     16  N   UNL A   1      33.432  28.742  25.862  1.00  0.00    -0.240 NA
ATOM     17  S   UNL A   1      31.796  30.704  26.166  1.00  0.00    -0.127 S 
ATOM     18  C   UNL A   1      31.397  29.485  25.034  1.00  0.00     0.096 A 
BRANCH  15  19
ATOM     19  C   UNL A   1      34.209  30.393  27.531  1.00  0.00     0.067 C 
BRANCH  19  20
ATOM     20  C   UNL A   1      35.375  29.431  27.768  1.00  0.00     0.004 C 
ATOM     21  C   UNL A   1      36.738  30.043  27.471  1.00  0.00     0.004 C 
ENDBRANCH  19  20
ENDBRANCH  15  19
ENDBRANCH  13  14
ENDBRANCH   7  13
ENDBRANCH   4   6
ENDBRANCH   3   4
ENDBRANCH   2   3
ENDBRANCH   1   2
BRANCH   1  22
ATOM     22  O   UNL A   1      35.179  21.412  24.575  1.00  0.00    -0.374 OA
BRANCH  22  23
ATOM     23  C   UNL A   1      36.130  20.984  25.550  1.00  0.00     0.202 C 
BRANCH  23  24
ATOM     24  C   UNL A   1      37.480  20.437  25.075  1.00  0.00     0.261 C 
BRANCH  24  25
ATOM     25  O   UNL A   1      38.525  21.426  25.144  1.00  0.00    -0.460 OA
BRANCH  25  26
ATOM     26  C   UNL A   1      39.467  21.177  26.085  1.00  0.00     0.338 C 
ATOM     27  O   UNL A   1      40.089  20.133  26.242  1.00  0.00    -0.246 OA
BRANCH  26  28
ATOM     28  C   UNL A   1      39.820  22.415  26.798  1.00  0.00     0.060 A 
ATOM     29  C   UNL A   1      39.034  23.550  26.559  1.00  0.00     0.016 A 
ATOM     30  C   UNL A   1      40.968  22.496  27.588  1.00  0.00     0.016 A 
ATOM     31  C   UNL A   1      39.427  24.789  27.057  1.00  0.00     0.010 A 
ATOM     32  C   UNL A   1      41.369  23.745  28.075  1.00  0.00     0.010 A 
ATOM     33  C   UNL A   1      40.625  24.901  27.773  1.00  0.00    -0.014 A 
BRANCH  33  34
ATOM     34  C   UNL A   1      41.202  26.245  28.016  1.00  0.00     0.031 A 
ATOM     35  C   UNL A   1      42.583  26.536  27.490  1.00  0.00     0.074 A 
ATOM     36  C   UNL A   1      40.501  27.198  28.654  1.00  0.00     0.049 A 
ATOM     37  N   UNL A   1      43.322  27.605  27.635  1.00  0.00    -0.248 NA
ATOM     38  C   UNL A   1      43.214  25.469  26.697  1.00  0.00     0.031 C 
ATOM     39  C   UNL A   1      39.133  27.052  29.146  1.00  0.00     0.029 A 
ATOM     40  N   UNL A   1      40.850  28.478  29.003  1.00  0.00    -0.354 N 
ATOM     41  C   UNL A   1      44.508  27.338  26.960  1.00  0.00     0.074 A 
ATOM     42  C   UNL A   1      44.401  25.993  26.435  1.00  0.00     0.031 C 
ATOM     43  C   UNL A   1      38.763  28.195  29.749  1.00  0.00     0.029 A 
ATOM     44  C   UNL A   1      39.882  29.137  29.723  1.00  0.00     0.049 A 
ATOM     45  H   UNL A   1      41.713  28.887  28.761  1.00  0.00     0.167 HD
ATOM     46  C   UNL A   1      45.585  28.144  26.789  1.00  0.00     0.034 A 
ATOM     47  C   UNL A   1      39.909  30.346  30.318  1.00  0.00     0.034 A 
ATOM     48  C   UNL A   1      45.677  29.477  27.329  1.00  0.00     0.049 A 
ATOM     49  C   UNL A   1      41.155  31.193  30.195  1.00  0.00     0.074 A 
ATOM     50  C   UNL A   1      46.719  30.382  27.222  1.00  0.00     0.029 A 
ATOM     51  N   UNL A   1      44.692  30.096  28.089  1.00  0.00    -0.354 N 
ATOM     52  N   UNL A   1      42.278  30.926  29.566  1.00  0.00    -0.248 NA
ATOM     53  C   UNL A   1      41.135  32.504  30.856  1.00  0.00     0.031 C 
ATOM     54  C   UNL A   1      46.393  31.518  27.973  1.00  0.00     0.029 A 
ATOM     55  C   UNL A   1      45.114  31.357  28.480  1.00  0.00     0.049 A 
ATOM     56  H   UNL A   1      43.821  29.696  28.314  1.00  0.00     0.167 HD
ATOM     57  C   UNL A   1      43.080  32.055  29.724  1.00  0.00     0.074 A 
ATOM     58  C   UNL A   1      42.312  33.003  30.504  1.00  0.00     0.031 C 
ATOM     59  C   UNL A   1      44.333  32.290  29.259  1.00  0.00     0.034 A 
BRANCH  46  60
ATOM     60  C   UNL A   1      46.766  27.572  26.041  1.00  0.00     0.023 A 
ATOM     61  C   UNL A   1      47.059  27.947  24.718  1.00  0.00     0.031 A 
ATOM     62  C   UNL A   1      47.587  26.607  26.649  1.00  0.00     0.131 A 
ATOM     63  C   UNL A   1      48.099  27.309  24.024  1.00  0.00     0.055 A 
ATOM     64  C   UNL A   1      48.671  26.035  25.980  1.00  0.00     0.041 A 
ATOM     65  F   UNL A   1      47.341  26.191  27.902  1.00  0.00    -0.206 F 
ATOM     66  C   UNL A   1      48.922  26.373  24.654  1.00  0.00     0.022 A 
BRANCH  63  67
ATOM     67  S   UNL A   1      48.269  27.612  22.243  1.00  0.00     0.124 S 
ATOM     68  O   UNL A   1      46.994  28.253  21.931  1.00  0.00    -0.237 OA
ATOM     69  O   UNL A   1      49.448  28.466  22.179  1.00  0.00    -0.237 OA
ATOM     70  O   UNL A   1      48.437  26.272  21.682  1.00  0.00    -0.744 OA
ENDBRANCH  63  67
ENDBRANCH  46  60
BRANCH  47  71
ATOM     71  C   UNL A   1      38.747  30.818  31.124  1.00  0.00     0.023 A 
ATOM     72  C   UNL A   1      37.765  31.653  30.568  1.00  0.00     0.031 A 
ATOM     73  C   UNL A   1      38.632  30.481  32.485  1.00  0.00     0.131 A 
ATOM     74  C   UNL A   1      36.737  32.159  31.379  1.00  0.00     0.055 A 
ATOM     75  C   UNL A   1      37.578  30.943  33.275  1.00  0.00     0.041 A 
ATOM     76  F   UNL A   1      39.545  29.687  33.067  1.00  0.00    -0.206 F 
ATOM     77  C   UNL A   1      36.629  31.799  32.725  1.00  0.00     0.022 A 
BRANCH  74  78
ATOM     78  S   UNL A   1      35.586  33.368  30.670  1.00  0.00     0.124 S 
ATOM     79  O   UNL A   1      36.193  33.629  29.371  1.00  0.00    -0.237 OA
ATOM     80  O   UNL A   1      34.333  32.620  30.655  1.00  0.00    -0.237 OA
ATOM     81  O   UNL A   1      35.634  34.480  31.617  1.00  0.00    -0.744 OA
ENDBRANCH  74  78
ENDBRANCH  47  71
BRANCH  59  82
ATOM     82  C   UNL A   1      44.924  33.654  29.523  1.00  0.00     0.023 A 
ATOM     83  C   UNL A   1      44.729  34.735  28.645  1.00  0.00     0.031 A 
ATOM     84  C   UNL A   1      45.687  33.873  30.683  1.00  0.00     0.131 A 
ATOM     85  C   UNL A   1      45.329  35.974  28.920  1.00  0.00     0.055 A 
ATOM     86  C   UNL A   1      46.234  35.121  30.980  1.00  0.00     0.041 A 
ATOM     87  F   UNL A   1      45.905  32.875  31.557  1.00  0.00    -0.206 F 
ATOM     88  C   UNL A   1      46.065  36.178  30.090  1.00  0.00     0.022 A 
BRANCH  85  89
ATOM     89  S   UNL A   1      45.197  37.301  27.691  1.00  0.00     0.124 S 
ATOM     90  O   UNL A   1      46.359  37.047  26.845  1.00  0.00    -0.237 OA
ATOM     91  O   UNL A   1      43.896  37.036  27.083  1.00  0.00    -0.237 OA
ATOM     92  O   UNL A   1      45.267  38.521  28.493  1.00  0.00    -0.744 OA
ENDBRANCH  85  89
ENDBRANCH  59  82
ENDBRANCH  33  34
ENDBRANCH  26  28
ENDBRANCH  25  26
ENDBRANCH  24  25
ENDBRANCH  23  24
ENDBRANCH  22  23
ENDBRANCH   1  22
TORSDOF 21
ENDMDL
