MODEL 1
REMARK VINA RESULT:     -12.6      0.000      0.000
REMARK SMILES O=C(OCCOCCOC(=O)c1ccc2c(=O)n(Cc3cccnc3)c(=O)[nH]c2c1)c1ccc(-c2c3nc(c(-c4cc(S(=O)(=O)[O-])ccc4F)c4ccc([nH]4)c(-c4cc(S(=O)(=O)[O-])ccc4F)c4nc(c(-c5cc(S(=O)(=O)[O-])ccc5F)c5ccc2[nH]5)C=C4)C=C3)cc1
REMARK SMILES IDX 5 1 4 2 3 3 2 4 1 5 31 6 32 7 93 8 33 9 92 10 34 11 35 12
REMARK SMILES IDX 36 13 86 14 37 15 91 16 85 17 87 18 38 19 90 20 84 21 83 22
REMARK SMILES IDX 39 24 71 25 51 26 70 27 52 28 55 29 69 30 88 31 53 32 54 33
REMARK SMILES IDX 68 35 89 36 56 37 40 38 41 39 49 40 42 41 48 42 50 43 47 44
REMARK SMILES IDX 43 45 44 46 45 47 46 48 72 49 73 50 81 51 74 52 80 53 82 54
REMARK SMILES IDX 79 55 75 56 76 57 77 58 78 59 57 60 58 61 66 62 59 63 65 64
REMARK SMILES IDX 67 65 64 66 60 67 61 68 62 69 63 70 6 71 7 72 8 73 9 74
REMARK SMILES IDX 10 75 11 76 12 77 13 78 30 79 14 80 29 81 15 82 28 83 16 84
REMARK SMILES IDX 26 85 17 87 18 88 27 89 19 90 20 91 21 92 25 93 22 94 24 95
REMARK SMILES IDX 23 96
REMARK H PARENT 87 23 55 34 28 86
REMARK Flexibility Score: inf
ROOT
ATOM      1  C   UNL A   1      46.110  22.971  37.234  1.00  0.00     0.202 C 
ENDROOT
BRANCH   1   2
ATOM      2  C   UNL A   1      47.541  23.389  36.891  1.00  0.00     0.261 C 
BRANCH   2   3
ATOM      3  O   UNL A   1      47.558  24.575  36.094  1.00  0.00    -0.460 OA
BRANCH   3   4
ATOM      4  C   UNL A   1      46.832  25.702  36.273  1.00  0.00     0.338 C 
ATOM      5  O   UNL A   1      47.110  26.397  37.252  1.00  0.00    -0.246 OA
BRANCH   4   6
ATOM      6  C   UNL A   1      45.703  26.162  35.393  1.00  0.00     0.060 A 
ATOM      7  C   UNL A   1      45.882  27.414  34.776  1.00  0.00     0.016 A 
ATOM      8  C   UNL A   1      44.468  25.530  35.213  1.00  0.00     0.016 A 
ATOM      9  C   UNL A   1      44.845  28.034  34.077  1.00  0.00     0.010 A 
ATOM     10  C   UNL A   1      43.426  26.140  34.529  1.00  0.00     0.010 A 
ATOM     11  C   UNL A   1      43.603  27.405  33.980  1.00  0.00    -0.014 A 
BRANCH  11  12
ATOM     12  C   UNL A   1      42.485  27.971  33.215  1.00  0.00     0.031 A 
ATOM     13  C   UNL A   1      42.411  27.786  31.732  1.00  0.00     0.074 A 
ATOM     14  C   UNL A   1      41.655  28.792  33.882  1.00  0.00     0.049 A 
ATOM     15  N   UNL A   1      41.518  28.242  30.898  1.00  0.00    -0.248 NA
ATOM     16  C   UNL A   1      43.491  27.012  31.093  1.00  0.00     0.031 C 
ATOM     17  C   UNL A   1      41.776  29.108  35.308  1.00  0.00     0.029 A 
ATOM     18  N   UNL A   1      40.594  29.541  33.460  1.00  0.00    -0.354 N 
ATOM     19  C   UNL A   1      41.910  27.797  29.641  1.00  0.00     0.074 A 
ATOM     20  C   UNL A   1      43.155  27.084  29.810  1.00  0.00     0.031 C 
ATOM     21  C   UNL A   1      40.830  29.995  35.640  1.00  0.00     0.029 A 
ATOM     22  C   UNL A   1      40.048  30.320  34.453  1.00  0.00     0.049 A 
ATOM     23  H   UNL A   1      40.253  29.525  32.536  1.00  0.00     0.167 HD
ATOM     24  C   UNL A   1      41.257  27.964  28.468  1.00  0.00     0.034 A 
ATOM     25  C   UNL A   1      39.026  31.196  34.403  1.00  0.00     0.034 A 
ATOM     26  C   UNL A   1      40.023  28.704  28.369  1.00  0.00     0.049 A 
ATOM     27  C   UNL A   1      38.286  31.322  33.099  1.00  0.00     0.074 A 
ATOM     28  C   UNL A   1      39.212  28.869  27.264  1.00  0.00     0.029 A 
ATOM     29  N   UNL A   1      39.432  29.409  29.412  1.00  0.00    -0.354 N 
ATOM     30  N   UNL A   1      38.563  30.759  31.945  1.00  0.00    -0.248 NA
ATOM     31  C   UNL A   1      37.081  32.156  33.085  1.00  0.00     0.031 C 
ATOM     32  C   UNL A   1      38.179  29.735  27.614  1.00  0.00     0.029 A 
ATOM     33  C   UNL A   1      38.283  30.034  28.966  1.00  0.00     0.049 A 
ATOM     34  H   UNL A   1      39.780  29.455  30.331  1.00  0.00     0.167 HD
ATOM     35  C   UNL A   1      37.551  31.142  31.076  1.00  0.00     0.074 A 
ATOM     36  C   UNL A   1      36.644  31.971  31.845  1.00  0.00     0.031 C 
ATOM     37  C   UNL A   1      37.385  30.836  29.766  1.00  0.00     0.034 A 
BRANCH  24  38
ATOM     38  C   UNL A   1      41.788  27.316  27.210  1.00  0.00     0.023 A 
ATOM     39  C   UNL A   1      41.783  25.912  27.081  1.00  0.00     0.031 A 
ATOM     40  C   UNL A   1      42.483  28.065  26.244  1.00  0.00     0.131 A 
ATOM     41  C   UNL A   1      42.514  25.303  26.051  1.00  0.00     0.055 A 
ATOM     42  C   UNL A   1      43.169  27.456  25.192  1.00  0.00     0.041 A 
ATOM     43  F   UNL A   1      42.528  29.405  26.322  1.00  0.00    -0.206 F 
ATOM     44  C   UNL A   1      43.203  26.067  25.105  1.00  0.00     0.022 A 
BRANCH  41  45
ATOM     45  S   UNL A   1      42.682  23.499  25.957  1.00  0.00     0.124 S 
ATOM     46  O   UNL A   1      43.536  23.214  27.108  1.00  0.00    -0.237 OA
ATOM     47  O   UNL A   1      41.297  23.056  26.087  1.00  0.00    -0.237 OA
ATOM     48  O   UNL A   1      43.301  23.271  24.656  1.00  0.00    -0.744 OA
ENDBRANCH  41  45
ENDBRANCH  24  38
BRANCH  25  49
ATOM     49  C   UNL A   1      38.620  31.891  35.657  1.00  0.00     0.023 A 
ATOM     50  C   UNL A   1      38.114  31.165  36.752  1.00  0.00     0.031 A 
ATOM     51  C   UNL A   1      38.561  33.293  35.712  1.00  0.00     0.131 A 
ATOM     52  C   UNL A   1      37.504  31.841  37.817  1.00  0.00     0.055 A 
ATOM     53  C   UNL A   1      38.022  33.966  36.810  1.00  0.00     0.041 A 
ATOM     54  F   UNL A   1      38.999  34.030  34.679  1.00  0.00    -0.206 F 
ATOM     55  C   UNL A   1      37.470  33.239  37.860  1.00  0.00     0.022 A 
BRANCH  52  56
ATOM     56  S   UNL A   1      36.583  30.933  39.090  1.00  0.00     0.124 S 
ATOM     57  O   UNL A   1      35.423  31.793  39.298  1.00  0.00    -0.237 OA
ATOM     58  O   UNL A   1      36.314  29.662  38.418  1.00  0.00    -0.237 OA
ATOM     59  O   UNL A   1      37.521  30.853  40.205  1.00  0.00    -0.744 OA
ENDBRANCH  52  56
ENDBRANCH  25  49
BRANCH  37  60
ATOM     60  C   UNL A   1      36.173  31.375  29.049  1.00  0.00     0.023 A 
ATOM     61  C   UNL A   1      35.842  32.736  29.184  1.00  0.00     0.031 A 
ATOM     62  C   UNL A   1      35.253  30.518  28.426  1.00  0.00     0.131 A 
ATOM     63  C   UNL A   1      34.586  33.187  28.768  1.00  0.00     0.055 A 
ATOM     64  C   UNL A   1      34.026  30.986  27.955  1.00  0.00     0.041 A 
ATOM     65  F   UNL A   1      35.522  29.209  28.288  1.00  0.00    -0.206 F 
ATOM     66  C   UNL A   1      33.680  32.322  28.146  1.00  0.00     0.022 A 
BRANCH  63  67
ATOM     67  S   UNL A   1      34.036  34.876  29.133  1.00  0.00     0.124 S 
ATOM     68  O   UNL A   1      32.587  34.762  28.976  1.00  0.00    -0.237 OA
ATOM     69  O   UNL A   1      34.501  35.059  30.505  1.00  0.00    -0.237 OA
ATOM     70  O   UNL A   1      34.705  35.692  28.126  1.00  0.00    -0.744 OA
ENDBRANCH  63  67
ENDBRANCH  37  60
ENDBRANCH  11  12
ENDBRANCH   4   6
ENDBRANCH   3   4
ENDBRANCH   2   3
ENDBRANCH   1   2
BRANCH   1  71
ATOM     71  O   UNL A   1      45.929  21.571  37.423  1.00  0.00    -0.374 OA
BRANCH  71  72
ATOM     72  C   UNL A   1      46.211  20.737  36.298  1.00  0.00     0.202 C 
BRANCH  72  73
ATOM     73  C   UNL A   1      46.069  19.262  36.673  1.00  0.00     0.261 C 
BRANCH  73  74
ATOM     74  O   UNL A   1      45.617  19.156  38.033  1.00  0.00    -0.460 OA
BRANCH  74  75
ATOM     75  C   UNL A   1      46.459  18.492  38.859  1.00  0.00     0.338 C 
ATOM     76  O   UNL A   1      47.665  18.614  38.978  1.00  0.00    -0.246 OA
BRANCH  75  77
ATOM     77  C   UNL A   1      45.644  17.680  39.772  1.00  0.00     0.062 A 
ATOM     78  C   UNL A   1      45.938  17.655  41.139  1.00  0.00     0.016 A 
ATOM     79  C   UNL A   1      44.580  16.931  39.239  1.00  0.00     0.042 A 
ATOM     80  C   UNL A   1      45.091  16.963  41.993  1.00  0.00     0.017 A 
ATOM     81  C   UNL A   1      43.820  16.142  40.087  1.00  0.00     0.056 A 
ATOM     82  C   UNL A   1      44.019  16.246  41.453  1.00  0.00     0.064 A 
ATOM     83  N   UNL A   1      42.889  15.220  39.604  1.00  0.00    -0.307 N 
ATOM     84  C   UNL A   1      43.009  15.641  42.313  1.00  0.00     0.264 A 
ATOM     85  C   UNL A   1      42.198  14.353  40.420  1.00  0.00     0.329 A 
ATOM     86  H   UNL A   1      42.717  15.190  38.636  1.00  0.00     0.171 HD
ATOM     87  O   UNL A   1      42.804  16.150  43.411  1.00  0.00    -0.268 OA
ATOM     88  N   UNL A   1      42.324  14.559  41.786  1.00  0.00    -0.255 N 
ATOM     89  O   UNL A   1      41.496  13.478  39.916  1.00  0.00    -0.248 OA
BRANCH  88  90
ATOM     90  C   UNL A   1      41.556  13.739  42.715  1.00  0.00     0.168 C 
BRANCH  90  91
ATOM     91  C   UNL A   1      42.347  12.554  43.228  1.00  0.00    -0.010 A 
ATOM     92  C   UNL A   1      41.935  11.231  43.017  1.00  0.00     0.009 A 
ATOM     93  C   UNL A   1      43.524  12.730  43.944  1.00  0.00     0.116 A 
ATOM     94  C   UNL A   1      42.655  10.170  43.551  1.00  0.00     0.020 A 
ATOM     95  N   UNL A   1      44.266  11.715  44.450  1.00  0.00    -0.264 NA
ATOM     96  C   UNL A   1      43.806  10.461  44.254  1.00  0.00     0.111 A 
ENDBRANCH  90  91
ENDBRANCH  88  90
ENDBRANCH  75  77
ENDBRANCH  74  75
ENDBRANCH  73  74
ENDBRANCH  72  73
ENDBRANCH  71  72
ENDBRANCH   1  71
TORSDOF 19
ENDMDL
MODEL 2
REMARK VINA RESULT:     -12.6      1.942      2.229
REMARK SMILES O=C(OCCOCCOC(=O)c1ccc2c(=O)n(Cc3cccnc3)c(=O)[nH]c2c1)c1ccc(-c2c3nc(c(-c4cc(S(=O)(=O)[O-])ccc4F)c4ccc([nH]4)c(-c4cc(S(=O)(=O)[O-])ccc4F)c4nc(c(-c5cc(S(=O)(=O)[O-])ccc5F)c5ccc2[nH]5)C=C4)C=C3)cc1
REMARK SMILES IDX 5 1 4 2 3 3 2 4 1 5 31 6 32 7 93 8 33 9 92 10 34 11 35 12
REMARK SMILES IDX 36 13 86 14 37 15 91 16 85 17 87 18 38 19 90 20 84 21 83 22
REMARK SMILES IDX 39 24 71 25 51 26 70 27 52 28 55 29 69 30 88 31 53 32 54 33
REMARK SMILES IDX 68 35 89 36 56 37 40 38 41 39 49 40 42 41 48 42 50 43 47 44
REMARK SMILES IDX 43 45 44 46 45 47 46 48 72 49 73 50 81 51 74 52 80 53 82 54
REMARK SMILES IDX 79 55 75 56 76 57 77 58 78 59 57 60 58 61 66 62 59 63 65 64
REMARK SMILES IDX 67 65 64 66 60 67 61 68 62 69 63 70 6 71 7 72 8 73 9 74
REMARK SMILES IDX 10 75 11 76 12 77 13 78 30 79 14 80 29 81 15 82 28 83 16 84
REMARK SMILES IDX 26 85 17 87 18 88 27 89 19 90 20 91 21 92 25 93 22 94 24 95
REMARK SMILES IDX 23 96
REMARK H PARENT 87 23 55 34 28 86
REMARK Flexibility Score: inf
ROOT
ATOM      1  C   UNL A   1      45.950  22.998  37.195  1.00  0.00     0.202 C 
ENDROOT
BRANCH   1   2
ATOM      2  C   UNL A   1      47.360  23.507  36.896  1.00  0.00     0.261 C 
BRANCH   2   3
ATOM      3  O   UNL A   1      47.324  24.724  36.147  1.00  0.00    -0.460 OA
BRANCH   3   4
ATOM      4  C   UNL A   1      46.566  25.818  36.384  1.00  0.00     0.338 C 
ATOM      5  O   UNL A   1      46.802  26.450  37.416  1.00  0.00    -0.246 OA
BRANCH   4   6
ATOM      6  C   UNL A   1      45.449  26.313  35.508  1.00  0.00     0.060 A 
ATOM      7  C   UNL A   1      45.677  27.545  34.867  1.00  0.00     0.016 A 
ATOM      8  C   UNL A   1      44.184  25.735  35.353  1.00  0.00     0.016 A 
ATOM      9  C   UNL A   1      44.660  28.199  34.168  1.00  0.00     0.010 A 
ATOM     10  C   UNL A   1      43.163  26.379  34.670  1.00  0.00     0.010 A 
ATOM     11  C   UNL A   1      43.391  27.624  34.096  1.00  0.00    -0.014 A 
BRANCH  11  12
ATOM     12  C   UNL A   1      42.290  28.227  33.333  1.00  0.00     0.031 A 
ATOM     13  C   UNL A   1      42.157  27.971  31.865  1.00  0.00     0.074 A 
ATOM     14  C   UNL A   1      41.540  29.138  33.977  1.00  0.00     0.049 A 
ATOM     15  N   UNL A   1      41.271  28.444  31.032  1.00  0.00    -0.248 NA
ATOM     16  C   UNL A   1      43.161  27.091  31.239  1.00  0.00     0.031 C 
ATOM     17  C   UNL A   1      41.726  29.518  35.380  1.00  0.00     0.029 A 
ATOM     18  N   UNL A   1      40.519  29.936  33.545  1.00  0.00    -0.354 N 
ATOM     19  C   UNL A   1      41.592  27.909  29.790  1.00  0.00     0.074 A 
ATOM     20  C   UNL A   1      42.790  27.120  29.963  1.00  0.00     0.031 C 
ATOM     21  C   UNL A   1      40.854  30.484  35.690  1.00  0.00     0.029 A 
ATOM     22  C   UNL A   1      40.060  30.801  34.509  1.00  0.00     0.049 A 
ATOM     23  H   UNL A   1      40.150  29.896  32.633  1.00  0.00     0.167 HD
ATOM     24  C   UNL A   1      40.916  28.060  28.628  1.00  0.00     0.034 A 
ATOM     25  C   UNL A   1      39.099  31.744  34.440  1.00  0.00     0.034 A 
ATOM     26  C   UNL A   1      39.733  28.878  28.524  1.00  0.00     0.049 A 
ATOM     27  C   UNL A   1      38.328  31.852  33.153  1.00  0.00     0.074 A 
ATOM     28  C   UNL A   1      38.901  29.041  27.435  1.00  0.00     0.029 A 
ATOM     29  N   UNL A   1      39.225  29.676  29.543  1.00  0.00    -0.354 N 
ATOM     30  N   UNL A   1      38.530  31.213  32.024  1.00  0.00    -0.248 NA
ATOM     31  C   UNL A   1      37.183  32.767  33.127  1.00  0.00     0.031 C 
ATOM     32  C   UNL A   1      37.940  29.994  27.766  1.00  0.00     0.029 A 
ATOM     33  C   UNL A   1      38.107  30.355  29.096  1.00  0.00     0.049 A 
ATOM     34  H   UNL A   1      39.604  29.745  30.449  1.00  0.00     0.167 HD
ATOM     35  C   UNL A   1      37.519  31.620  31.163  1.00  0.00     0.074 A 
ATOM     36  C   UNL A   1      36.695  32.549  31.911  1.00  0.00     0.031 C 
ATOM     37  C   UNL A   1      37.292  31.258  29.876  1.00  0.00     0.034 A 
BRANCH  24  38
ATOM     38  C   UNL A   1      41.362  27.312  27.393  1.00  0.00     0.023 A 
ATOM     39  C   UNL A   1      41.299  25.904  27.357  1.00  0.00     0.031 A 
ATOM     40  C   UNL A   1      42.037  27.969  26.350  1.00  0.00     0.131 A 
ATOM     41  C   UNL A   1      41.957  25.201  26.338  1.00  0.00     0.055 A 
ATOM     42  C   UNL A   1      42.649  27.267  25.310  1.00  0.00     0.041 A 
ATOM     43  F   UNL A   1      42.135  29.309  26.337  1.00  0.00    -0.206 F 
ATOM     44  C   UNL A   1      42.628  25.875  25.312  1.00  0.00     0.022 A 
BRANCH  41  45
ATOM     45  S   UNL A   1      42.053  23.389  26.355  1.00  0.00     0.124 S 
ATOM     46  O   UNL A   1      40.642  23.011  26.318  1.00  0.00    -0.237 OA
ATOM     47  O   UNL A   1      42.804  23.112  25.134  1.00  0.00    -0.237 OA
ATOM     48  O   UNL A   1      42.742  23.087  27.605  1.00  0.00    -0.744 OA
ENDBRANCH  41  45
ENDBRANCH  24  38
BRANCH  25  49
ATOM     49  C   UNL A   1      38.780  32.529  35.666  1.00  0.00     0.023 A 
ATOM     50  C   UNL A   1      39.222  33.859  35.805  1.00  0.00     0.031 A 
ATOM     51  C   UNL A   1      38.191  31.910  36.779  1.00  0.00     0.131 A 
ATOM     52  C   UNL A   1      39.137  34.497  37.050  1.00  0.00     0.055 A 
ATOM     53  C   UNL A   1      38.038  32.575  37.998  1.00  0.00     0.041 A 
ATOM     54  F   UNL A   1      37.784  30.633  36.708  1.00  0.00    -0.206 F 
ATOM     55  C   UNL A   1      38.532  33.868  38.143  1.00  0.00     0.022 A 
BRANCH  52  56
ATOM     56  S   UNL A   1      39.962  36.087  37.338  1.00  0.00     0.124 S 
ATOM     57  O   UNL A   1      39.956  36.679  36.005  1.00  0.00    -0.237 OA
ATOM     58  O   UNL A   1      39.072  36.716  38.313  1.00  0.00    -0.237 OA
ATOM     59  O   UNL A   1      41.272  35.707  37.857  1.00  0.00    -0.744 OA
ENDBRANCH  52  56
ENDBRANCH  25  49
BRANCH  37  60
ATOM     60  C   UNL A   1      36.097  31.843  29.165  1.00  0.00     0.023 A 
ATOM     61  C   UNL A   1      35.085  30.984  28.700  1.00  0.00     0.031 A 
ATOM     62  C   UNL A   1      36.070  33.189  28.771  1.00  0.00     0.131 A 
ATOM     63  C   UNL A   1      34.126  31.465  27.804  1.00  0.00     0.055 A 
ATOM     64  C   UNL A   1      35.075  33.680  27.927  1.00  0.00     0.041 A 
ATOM     65  F   UNL A   1      37.024  34.041  29.181  1.00  0.00    -0.206 F 
ATOM     66  C   UNL A   1      34.110  32.811  27.422  1.00  0.00     0.022 A 
BRANCH  63  67
ATOM     67  S   UNL A   1      32.950  30.340  27.006  1.00  0.00     0.124 S 
ATOM     68  O   UNL A   1      31.768  31.189  26.866  1.00  0.00    -0.237 OA
ATOM     69  O   UNL A   1      33.635  30.015  25.758  1.00  0.00    -0.237 OA
ATOM     70  O   UNL A   1      32.813  29.240  27.955  1.00  0.00    -0.744 OA
ENDBRANCH  63  67
ENDBRANCH  37  60
ENDBRANCH  11  12
ENDBRANCH   4   6
ENDBRANCH   3   4
ENDBRANCH   2   3
ENDBRANCH   1   2
BRANCH   1  71
ATOM     71  O   UNL A   1      45.853  21.588  37.381  1.00  0.00    -0.374 OA
BRANCH  71  72
ATOM     72  C   UNL A   1      46.189  20.777  36.254  1.00  0.00     0.202 C 
BRANCH  72  73
ATOM     73  C   UNL A   1      46.075  19.293  36.608  1.00  0.00     0.261 C 
BRANCH  73  74
ATOM     74  O   UNL A   1      45.606  19.159  37.958  1.00  0.00    -0.460 OA
BRANCH  74  75
ATOM     75  C   UNL A   1      46.448  18.497  38.787  1.00  0.00     0.338 C 
ATOM     76  O   UNL A   1      47.654  18.621  38.907  1.00  0.00    -0.246 OA
BRANCH  75  77
ATOM     77  C   UNL A   1      45.633  17.684  39.699  1.00  0.00     0.062 A 
ATOM     78  C   UNL A   1      45.942  17.639  41.062  1.00  0.00     0.016 A 
ATOM     79  C   UNL A   1      44.554  16.955  39.169  1.00  0.00     0.042 A 
ATOM     80  C   UNL A   1      45.096  16.946  41.917  1.00  0.00     0.017 A 
ATOM     81  C   UNL A   1      43.794  16.165  40.016  1.00  0.00     0.056 A 
ATOM     82  C   UNL A   1      44.010  16.250  41.380  1.00  0.00     0.064 A 
ATOM     83  N   UNL A   1      42.846  15.261  39.533  1.00  0.00    -0.307 N 
ATOM     84  C   UNL A   1      43.002  15.646  42.244  1.00  0.00     0.264 A 
ATOM     85  C   UNL A   1      42.153  14.392  40.346  1.00  0.00     0.329 A 
ATOM     86  H   UNL A   1      42.663  15.244  38.566  1.00  0.00     0.171 HD
ATOM     87  O   UNL A   1      42.815  16.144  43.351  1.00  0.00    -0.268 OA
ATOM     88  N   UNL A   1      42.298  14.580  41.712  1.00  0.00    -0.255 N 
ATOM     89  O   UNL A   1      41.436  13.532  39.840  1.00  0.00    -0.248 OA
BRANCH  88  90
ATOM     90  C   UNL A   1      41.530  13.758  42.640  1.00  0.00     0.168 C 
BRANCH  90  91
ATOM     91  C   UNL A   1      42.319  12.569  43.147  1.00  0.00    -0.010 A 
ATOM     92  C   UNL A   1      41.888  11.248  42.957  1.00  0.00     0.009 A 
ATOM     93  C   UNL A   1      43.514  12.738  43.834  1.00  0.00     0.116 A 
ATOM     94  C   UNL A   1      42.608  10.184  43.484  1.00  0.00     0.020 A 
ATOM     95  N   UNL A   1      44.256  11.719  44.333  1.00  0.00    -0.264 NA
ATOM     96  C   UNL A   1      43.778  10.469  44.158  1.00  0.00     0.111 A 
ENDBRANCH  90  91
ENDBRANCH  88  90
ENDBRANCH  75  77
ENDBRANCH  74  75
ENDBRANCH  73  74
ENDBRANCH  72  73
ENDBRANCH  71  72
ENDBRANCH   1  71
TORSDOF 19
ENDMDL
MODEL 3
REMARK VINA RESULT:     -12.5      8.899     14.494
REMARK SMILES O=C(OCCOCCOC(=O)c1ccc2c(=O)n(Cc3cccnc3)c(=O)[nH]c2c1)c1ccc(-c2c3nc(c(-c4cc(S(=O)(=O)[O-])ccc4F)c4ccc([nH]4)c(-c4cc(S(=O)(=O)[O-])ccc4F)c4nc(c(-c5cc(S(=O)(=O)[O-])ccc5F)c5ccc2[nH]5)C=C4)C=C3)cc1
REMARK SMILES IDX 5 1 4 2 3 3 2 4 1 5 31 6 32 7 93 8 33 9 92 10 34 11 35 12
REMARK SMILES IDX 36 13 86 14 37 15 91 16 85 17 87 18 38 19 90 20 84 21 83 22
REMARK SMILES IDX 39 24 71 25 51 26 70 27 52 28 55 29 69 30 88 31 53 32 54 33
REMARK SMILES IDX 68 35 89 36 56 37 40 38 41 39 49 40 42 41 48 42 50 43 47 44
REMARK SMILES IDX 43 45 44 46 45 47 46 48 72 49 73 50 81 51 74 52 80 53 82 54
REMARK SMILES IDX 79 55 75 56 76 57 77 58 78 59 57 60 58 61 66 62 59 63 65 64
REMARK SMILES IDX 67 65 64 66 60 67 61 68 62 69 63 70 6 71 7 72 8 73 9 74
REMARK SMILES IDX 10 75 11 76 12 77 13 78 30 79 14 80 29 81 15 82 28 83 16 84
REMARK SMILES IDX 26 85 17 87 18 88 27 89 19 90 20 91 21 92 25 93 22 94 24 95
REMARK SMILES IDX 23 96
REMARK H PARENT 87 23 55 34 28 86
REMARK Flexibility Score: inf
ROOT
ATOM      1  C   UNL A   1      44.746  19.208  24.372  1.00  0.00     0.202 C 
ENDROOT
BRANCH   1   2
ATOM      2  C   UNL A   1      43.714  19.012  25.484  1.00  0.00     0.261 C 
BRANCH   2   3
ATOM      3  O   UNL A   1      42.480  19.660  25.166  1.00  0.00    -0.460 OA
BRANCH   3   4
ATOM      4  C   UNL A   1      41.594  20.216  26.023  1.00  0.00     0.338 C 
ATOM      5  O   UNL A   1      40.525  19.625  26.184  1.00  0.00    -0.246 OA
BRANCH   4   6
ATOM      6  C   UNL A   1      41.796  21.502  26.775  1.00  0.00     0.060 A 
ATOM      7  C   UNL A   1      42.000  22.647  25.982  1.00  0.00     0.016 A 
ATOM      8  C   UNL A   1      41.907  21.655  28.161  1.00  0.00     0.016 A 
ATOM      9  C   UNL A   1      42.372  23.867  26.550  1.00  0.00     0.010 A 
ATOM     10  C   UNL A   1      42.285  22.860  28.737  1.00  0.00     0.010 A 
ATOM     11  C   UNL A   1      42.543  23.963  27.931  1.00  0.00    -0.014 A 
BRANCH  11  12
ATOM     12  C   UNL A   1      42.878  25.226  28.603  1.00  0.00     0.031 A 
ATOM     13  C   UNL A   1      41.824  26.262  28.836  1.00  0.00     0.074 A 
ATOM     14  C   UNL A   1      44.183  25.459  28.826  1.00  0.00     0.049 A 
ATOM     15  N   UNL A   1      41.948  27.441  29.381  1.00  0.00    -0.248 NA
ATOM     16  C   UNL A   1      40.458  25.953  28.375  1.00  0.00     0.031 C 
ATOM     17  C   UNL A   1      45.259  24.525  28.487  1.00  0.00     0.029 A 
ATOM     18  N   UNL A   1      44.831  26.549  29.335  1.00  0.00    -0.354 N 
ATOM     19  C   UNL A   1      40.680  28.009  29.351  1.00  0.00     0.074 A 
ATOM     20  C   UNL A   1      39.809  27.071  28.680  1.00  0.00     0.031 C 
ATOM     21  C   UNL A   1      46.436  25.087  28.788  1.00  0.00     0.029 A 
ATOM     22  C   UNL A   1      46.199  26.421  29.327  1.00  0.00     0.049 A 
ATOM     23  H   UNL A   1      44.363  27.347  29.674  1.00  0.00     0.167 HD
ATOM     24  C   UNL A   1      40.298  29.200  29.865  1.00  0.00     0.034 A 
ATOM     25  C   UNL A   1      47.152  27.290  29.716  1.00  0.00     0.034 A 
ATOM     26  C   UNL A   1      41.227  30.096  30.509  1.00  0.00     0.049 A 
ATOM     27  C   UNL A   1      46.698  28.585  30.333  1.00  0.00     0.074 A 
ATOM     28  C   UNL A   1      40.958  31.286  31.155  1.00  0.00     0.029 A 
ATOM     29  N   UNL A   1      42.602  29.903  30.576  1.00  0.00    -0.354 N 
ATOM     30  N   UNL A   1      45.474  29.044  30.458  1.00  0.00    -0.248 NA
ATOM     31  C   UNL A   1      47.728  29.462  30.897  1.00  0.00     0.031 C 
ATOM     32  C   UNL A   1      42.171  31.851  31.540  1.00  0.00     0.029 A 
ATOM     33  C   UNL A   1      43.196  30.968  31.227  1.00  0.00     0.049 A 
ATOM     34  H   UNL A   1      43.082  29.124  30.215  1.00  0.00     0.167 HD
ATOM     35  C   UNL A   1      45.581  30.246  31.145  1.00  0.00     0.074 A 
ATOM     36  C   UNL A   1      46.991  30.433  31.424  1.00  0.00     0.031 C 
ATOM     37  C   UNL A   1      44.606  31.114  31.512  1.00  0.00     0.034 A 
BRANCH  24  38
ATOM     38  C   UNL A   1      38.843  29.607  29.829  1.00  0.00     0.023 A 
ATOM     39  C   UNL A   1      38.462  30.818  29.217  1.00  0.00     0.031 A 
ATOM     40  C   UNL A   1      37.875  28.910  30.574  1.00  0.00     0.131 A 
ATOM     41  C   UNL A   1      37.170  31.326  29.418  1.00  0.00     0.055 A 
ATOM     42  C   UNL A   1      36.576  29.396  30.731  1.00  0.00     0.041 A 
ATOM     43  F   UNL A   1      38.185  27.755  31.185  1.00  0.00    -0.206 F 
ATOM     44  C   UNL A   1      36.225  30.620  30.168  1.00  0.00     0.022 A 
BRANCH  41  45
ATOM     45  S   UNL A   1      36.698  32.965  28.800  1.00  0.00     0.124 S 
ATOM     46  O   UNL A   1      35.912  33.493  29.913  1.00  0.00    -0.237 OA
ATOM     47  O   UNL A   1      37.996  33.601  28.598  1.00  0.00    -0.237 OA
ATOM     48  O   UNL A   1      35.937  32.678  27.588  1.00  0.00    -0.744 OA
ENDBRANCH  41  45
ENDBRANCH  24  38
BRANCH  25  49
ATOM     49  C   UNL A   1      48.580  26.873  29.624  1.00  0.00     0.023 A 
ATOM     50  C   UNL A   1      49.366  27.233  28.512  1.00  0.00     0.031 A 
ATOM     51  C   UNL A   1      49.121  25.965  30.548  1.00  0.00     0.131 A 
ATOM     52  C   UNL A   1      50.616  26.630  28.316  1.00  0.00     0.055 A 
ATOM     53  C   UNL A   1      50.399  25.424  30.389  1.00  0.00     0.041 A 
ATOM     54  F   UNL A   1      48.399  25.564  31.605  1.00  0.00    -0.206 F 
ATOM     55  C   UNL A   1      51.144  25.740  29.257  1.00  0.00     0.022 A 
BRANCH  52  56
ATOM     56  S   UNL A   1      51.516  26.844  26.754  1.00  0.00     0.124 S 
ATOM     57  O   UNL A   1      51.002  25.738  25.954  1.00  0.00    -0.237 OA
ATOM     58  O   UNL A   1      51.086  28.178  26.338  1.00  0.00    -0.237 OA
ATOM     59  O   UNL A   1      52.918  26.743  27.147  1.00  0.00    -0.744 OA
ENDBRANCH  52  56
ENDBRANCH  25  49
BRANCH  37  60
ATOM     60  C   UNL A   1      44.996  32.354  32.275  1.00  0.00     0.023 A 
ATOM     61  C   UNL A   1      44.807  32.393  33.669  1.00  0.00     0.031 A 
ATOM     62  C   UNL A   1      45.342  33.541  31.609  1.00  0.00     0.131 A 
ATOM     63  C   UNL A   1      44.893  33.614  34.344  1.00  0.00     0.055 A 
ATOM     64  C   UNL A   1      45.490  34.744  32.298  1.00  0.00     0.041 A 
ATOM     65  F   UNL A   1      45.519  33.551  30.278  1.00  0.00    -0.206 F 
ATOM     66  C   UNL A   1      45.243  34.788  33.669  1.00  0.00     0.022 A 
BRANCH  63  67
ATOM     67  S   UNL A   1      44.432  33.743  36.094  1.00  0.00     0.124 S 
ATOM     68  O   UNL A   1      42.991  33.499  36.044  1.00  0.00    -0.237 OA
ATOM     69  O   UNL A   1      45.225  32.677  36.699  1.00  0.00    -0.237 OA
ATOM     70  O   UNL A   1      44.817  35.102  36.461  1.00  0.00    -0.744 OA
ENDBRANCH  63  67
ENDBRANCH  37  60
ENDBRANCH  11  12
ENDBRANCH   4   6
ENDBRANCH   3   4
ENDBRANCH   2   3
ENDBRANCH   1   2
BRANCH   1  71
ATOM     71  O   UNL A   1      45.696  20.241  24.618  1.00  0.00    -0.374 OA
BRANCH  71  72
ATOM     72  C   UNL A   1      45.270  21.575  24.334  1.00  0.00     0.202 C 
BRANCH  72  73
ATOM     73  C   UNL A   1      45.680  22.521  25.464  1.00  0.00     0.261 C 
BRANCH  73  74
ATOM     74  O   UNL A   1      45.397  23.875  25.078  1.00  0.00    -0.460 OA
BRANCH  74  75
ATOM     75  C   UNL A   1      46.455  24.553  24.572  1.00  0.00     0.338 C 
ATOM     76  O   UNL A   1      47.224  24.218  23.690  1.00  0.00    -0.246 OA
BRANCH  75  77
ATOM     77  C   UNL A   1      46.440  25.903  25.150  1.00  0.00     0.062 A 
ATOM     78  C   UNL A   1      47.642  26.540  25.472  1.00  0.00     0.016 A 
ATOM     79  C   UNL A   1      45.200  26.526  25.375  1.00  0.00     0.042 A 
ATOM     80  C   UNL A   1      47.605  27.853  25.919  1.00  0.00     0.017 A 
ATOM     81  C   UNL A   1      45.173  27.789  25.942  1.00  0.00     0.056 A 
ATOM     82  C   UNL A   1      46.366  28.471  26.110  1.00  0.00     0.064 A 
ATOM     83  N   UNL A   1      43.986  28.379  26.382  1.00  0.00    -0.307 N 
ATOM     84  C   UNL A   1      46.273  29.892  26.419  1.00  0.00     0.264 A 
ATOM     85  C   UNL A   1      43.946  29.586  27.041  1.00  0.00     0.329 A 
ATOM     86  H   UNL A   1      43.137  27.910  26.211  1.00  0.00     0.171 HD
ATOM     87  O   UNL A   1      47.175  30.629  26.030  1.00  0.00    -0.268 OA
ATOM     88  N   UNL A   1      45.133  30.301  27.090  1.00  0.00    -0.255 N 
ATOM     89  O   UNL A   1      42.884  29.979  27.520  1.00  0.00    -0.248 OA
BRANCH  88  90
ATOM     90  C   UNL A   1      45.154  31.628  27.694  1.00  0.00     0.168 C 
BRANCH  90  91
ATOM     91  C   UNL A   1      44.545  32.682  26.793  1.00  0.00    -0.010 A 
ATOM     92  C   UNL A   1      43.990  33.867  27.296  1.00  0.00     0.009 A 
ATOM     93  C   UNL A   1      44.504  32.514  25.415  1.00  0.00     0.116 A 
ATOM     94  C   UNL A   1      43.388  34.786  26.445  1.00  0.00     0.020 A 
ATOM     95  N   UNL A   1      43.953  33.406  24.555  1.00  0.00    -0.264 NA
ATOM     96  C   UNL A   1      43.396  34.513  25.092  1.00  0.00     0.111 A 
ENDBRANCH  90  91
ENDBRANCH  88  90
ENDBRANCH  75  77
ENDBRANCH  74  75
ENDBRANCH  73  74
ENDBRANCH  72  73
ENDBRANCH  71  72
ENDBRANCH   1  71
TORSDOF 19
ENDMDL
