MODEL 1
REMARK VINA RESULT:      -9.5      0.000      0.000
REMARK SMILES CCCCCCCCNC(=O)Oc1cccc(-c2ccc([C@@H](C)C(=O)OCCOCCOC(=O)c3ccc(-c4c5nc(c(-c6cc(S(=O)(=O)[O-])ccc6F)c6ccc([nH]6)c(-c6cc(S(=O)(=O)[O-])ccc6F)c6nc(c(-c7cc(S(=O)(=O)[O-])ccc7F)c7ccc4[nH]7)C=C6)C=C5)cc3)cc2F)c1
REMARK SMILES IDX 24 1 25 2 22 3 23 4 21 5 18 6 19 7 99 8 20 9 98 10 100 11
REMARK SMILES IDX 17 12 13 13 14 14 101 15 15 16 16 17 12 18 10 19 9 20 11 22
REMARK SMILES IDX 8 23 7 24 6 25 5 26 4 27 3 28 2 29 1 30 26 31 27 32 28 33
REMARK SMILES IDX 29 34 30 35 31 36 32 37 33 38 34 39 35 40 36 41 97 42 37 43
REMARK SMILES IDX 96 44 38 45 39 46 40 47 90 48 41 49 95 50 89 51 91 52 42 53
REMARK SMILES IDX 94 54 88 55 87 56 43 58 75 59 55 60 74 61 56 62 59 63 73 64
REMARK SMILES IDX 92 65 57 66 58 67 72 69 93 70 60 71 44 72 45 73 53 74 46 75
REMARK SMILES IDX 52 76 54 77 51 78 47 79 48 80 49 81 50 82 76 83 77 84 85 85
REMARK SMILES IDX 78 86 84 87 86 88 83 89 79 90 80 91 81 92 82 93 61 94 62 95
REMARK SMILES IDX 70 96 63 97 69 98 71 99 68 100 64 101 65 102 66 103 67 104
REMARK H PARENT 9 21 91 57 59 68
REMARK Flexibility Score: inf
ROOT
ATOM      1  C   UNL A   1      40.826  20.319  26.511  1.00  0.00     0.313 C 
ATOM      2  O   UNL A   1      40.890  20.290  27.736  1.00  0.00    -0.252 OA
ENDROOT
BRANCH   1   3
ATOM      3  C   UNL A   1      40.333  21.551  25.768  1.00  0.00     0.126 C 
ATOM      4  C   UNL A   1      41.167  22.757  26.191  1.00  0.00     0.025 C 
BRANCH   3   5
ATOM      5  C   UNL A   1      38.839  21.858  25.796  1.00  0.00    -0.031 A 
ATOM      6  C   UNL A   1      36.051  22.439  25.558  1.00  0.00     0.018 A 
ATOM      7  C   UNL A   1      36.959  23.393  26.048  1.00  0.00     0.012 A 
ATOM      8  C   UNL A   1      36.563  21.175  25.248  1.00  0.00     0.131 A 
ATOM      9  C   UNL A   1      38.329  23.111  26.162  1.00  0.00     0.005 A 
ATOM     10  C   UNL A   1      37.925  20.883  25.362  1.00  0.00     0.044 A 
ATOM     11  F   UNL A   1      35.755  20.211  24.776  1.00  0.00    -0.206 F 
BRANCH   6  12
ATOM     12  C   UNL A   1      34.638  22.789  25.315  1.00  0.00    -0.012 A 
ATOM     13  C   UNL A   1      32.468  23.575  26.066  1.00  0.00     0.133 A 
ATOM     14  C   UNL A   1      31.921  23.376  24.802  1.00  0.00     0.047 A 
ATOM     15  C   UNL A   1      33.805  23.273  26.337  1.00  0.00     0.056 A 
ATOM     16  C   UNL A   1      32.731  22.895  23.780  1.00  0.00     0.004 A 
ATOM     17  C   UNL A   1      34.076  22.607  24.036  1.00  0.00     0.009 A 
BRANCH  13  18
ATOM     18  O   UNL A   1      31.585  23.992  27.073  1.00  0.00    -0.410 OA
BRANCH  18  19
ATOM     19  C   UNL A   1      30.251  23.657  26.925  1.00  0.00     0.412 C 
ATOM     20  N   UNL A   1      29.490  24.674  26.423  1.00  0.00    -0.321 N 
ATOM     21  H   UNL A   1      28.535  24.482  26.285  1.00  0.00     0.167 HD
ATOM     22  O   UNL A   1      29.740  22.572  27.210  1.00  0.00    -0.224 OA
BRANCH  20  23
ATOM     23  C   UNL A   1      29.943  26.006  26.071  1.00  0.00     0.119 C 
BRANCH  23  24
ATOM     24  C   UNL A   1      29.547  26.383  24.643  1.00  0.00     0.021 C 
BRANCH  24  25
ATOM     25  C   UNL A   1      30.718  26.789  23.738  1.00  0.00     0.002 C 
BRANCH  25  26
ATOM     26  C   UNL A   1      30.805  26.039  22.404  1.00  0.00     0.000 C 
BRANCH  26  27
ATOM     27  C   UNL A   1      32.151  26.155  21.681  1.00  0.00    -0.000 C 
BRANCH  27  28
ATOM     28  C   UNL A   1      33.348  26.482  22.582  1.00  0.00    -0.000 C 
BRANCH  28  29
ATOM     29  C   UNL A   1      34.049  27.810  22.284  1.00  0.00    -0.003 C 
ATOM     30  C   UNL A   1      33.444  28.993  23.024  1.00  0.00     0.004 C 
ENDBRANCH  28  29
ENDBRANCH  27  28
ENDBRANCH  26  27
ENDBRANCH  25  26
ENDBRANCH  24  25
ENDBRANCH  23  24
ENDBRANCH  20  23
ENDBRANCH  18  19
ENDBRANCH  13  18
ENDBRANCH   6  12
ENDBRANCH   3   5
ENDBRANCH   1   3
BRANCH   1  31
ATOM     31  O   UNL A   1      41.145  19.281  25.697  1.00  0.00    -0.463 OA
BRANCH  31  32
ATOM     32  C   UNL A   1      42.423  18.663  25.933  1.00  0.00     0.261 C 
BRANCH  32  33
ATOM     33  C   UNL A   1      43.492  19.214  24.986  1.00  0.00     0.202 C 
BRANCH  33  34
ATOM     34  O   UNL A   1      44.726  18.499  24.940  1.00  0.00    -0.374 OA
BRANCH  34  35
ATOM     35  C   UNL A   1      45.927  19.264  24.829  1.00  0.00     0.202 C 
BRANCH  35  36
ATOM     36  C   UNL A   1      45.894  20.709  25.343  1.00  0.00     0.261 C 
BRANCH  36  37
ATOM     37  O   UNL A   1      46.267  21.664  24.336  1.00  0.00    -0.460 OA
BRANCH  37  38
ATOM     38  C   UNL A   1      45.284  22.531  23.983  1.00  0.00     0.338 C 
ATOM     39  O   UNL A   1      44.404  22.345  23.160  1.00  0.00    -0.246 OA
BRANCH  38  40
ATOM     40  C   UNL A   1      45.286  23.688  24.901  1.00  0.00     0.060 A 
ATOM     41  C   UNL A   1      46.493  24.008  25.538  1.00  0.00     0.016 A 
ATOM     42  C   UNL A   1      44.123  24.405  25.185  1.00  0.00     0.016 A 
ATOM     43  C   UNL A   1      46.534  25.021  26.495  1.00  0.00     0.010 A 
ATOM     44  C   UNL A   1      44.165  25.416  26.153  1.00  0.00     0.010 A 
ATOM     45  C   UNL A   1      45.362  25.707  26.834  1.00  0.00    -0.014 A 
BRANCH  45  46
ATOM     46  C   UNL A   1      45.350  26.620  28.007  1.00  0.00     0.031 A 
ATOM     47  C   UNL A   1      45.587  28.088  27.781  1.00  0.00     0.074 A 
ATOM     48  C   UNL A   1      45.117  26.155  29.247  1.00  0.00     0.049 A 
ATOM     49  N   UNL A   1      45.724  29.052  28.654  1.00  0.00    -0.248 NA
ATOM     50  C   UNL A   1      45.689  28.523  26.380  1.00  0.00     0.031 C 
ATOM     51  C   UNL A   1      44.805  24.766  29.581  1.00  0.00     0.029 A 
ATOM     52  N   UNL A   1      45.120  26.801  30.458  1.00  0.00    -0.354 N 
ATOM     53  C   UNL A   1      45.938  30.209  27.910  1.00  0.00     0.074 A 
ATOM     54  C   UNL A   1      45.946  29.815  26.517  1.00  0.00     0.031 C 
ATOM     55  C   UNL A   1      44.662  24.662  30.914  1.00  0.00     0.029 A 
ATOM     56  C   UNL A   1      44.922  25.962  31.531  1.00  0.00     0.049 A 
ATOM     57  H   UNL A   1      45.251  27.772  30.551  1.00  0.00     0.167 HD
ATOM     58  C   UNL A   1      46.107  31.480  28.350  1.00  0.00     0.034 A 
ATOM     59  C   UNL A   1      44.981  26.209  32.855  1.00  0.00     0.034 A 
ATOM     60  C   UNL A   1      46.109  31.852  29.744  1.00  0.00     0.049 A 
ATOM     61  C   UNL A   1      45.286  27.612  33.327  1.00  0.00     0.074 A 
ATOM     62  C   UNL A   1      46.264  33.110  30.301  1.00  0.00     0.029 A 
ATOM     63  N   UNL A   1      45.961  30.966  30.803  1.00  0.00    -0.354 N 
ATOM     64  N   UNL A   1      45.499  28.696  32.617  1.00  0.00    -0.248 NA
ATOM     65  C   UNL A   1      45.360  27.824  34.780  1.00  0.00     0.031 C 
ATOM     66  C   UNL A   1      46.289  32.973  31.693  1.00  0.00     0.029 A 
ATOM     67  C   UNL A   1      46.060  31.644  32.009  1.00  0.00     0.049 A 
ATOM     68  H   UNL A   1      45.809  29.997  30.712  1.00  0.00     0.167 HD
ATOM     69  C   UNL A   1      45.693  29.723  33.537  1.00  0.00     0.074 A 
ATOM     70  C   UNL A   1      45.570  29.131  34.852  1.00  0.00     0.031 C 
ATOM     71  C   UNL A   1      45.939  31.039  33.315  1.00  0.00     0.034 A 
BRANCH  58  72
ATOM     72  C   UNL A   1      46.363  32.546  27.310  1.00  0.00     0.023 A 
ATOM     73  C   UNL A   1      47.665  32.911  26.927  1.00  0.00     0.031 A 
ATOM     74  C   UNL A   1      45.286  33.229  26.718  1.00  0.00     0.131 A 
ATOM     75  C   UNL A   1      47.858  33.977  26.035  1.00  0.00     0.055 A 
ATOM     76  C   UNL A   1      45.483  34.235  25.770  1.00  0.00     0.041 A 
ATOM     77  F   UNL A   1      44.021  32.941  27.061  1.00  0.00    -0.206 F 
ATOM     78  C   UNL A   1      46.776  34.625  25.435  1.00  0.00     0.022 A 
BRANCH  75  79
ATOM     79  S   UNL A   1      49.542  34.602  25.783  1.00  0.00     0.124 S 
ATOM     80  O   UNL A   1      49.932  34.961  27.145  1.00  0.00    -0.237 OA
ATOM     81  O   UNL A   1      50.224  33.451  25.206  1.00  0.00    -0.237 OA
ATOM     82  O   UNL A   1      49.355  35.736  24.879  1.00  0.00    -0.744 OA
ENDBRANCH  75  79
ENDBRANCH  58  72
BRANCH  59  83
ATOM     83  C   UNL A   1      44.801  25.102  33.839  1.00  0.00     0.023 A 
ATOM     84  C   UNL A   1      45.841  24.202  34.119  1.00  0.00     0.031 A 
ATOM     85  C   UNL A   1      43.562  24.894  34.473  1.00  0.00     0.131 A 
ATOM     86  C   UNL A   1      45.611  23.111  34.973  1.00  0.00     0.055 A 
ATOM     87  C   UNL A   1      43.355  23.839  35.364  1.00  0.00     0.041 A 
ATOM     88  F   UNL A   1      42.531  25.722  34.238  1.00  0.00    -0.206 F 
ATOM     89  C   UNL A   1      44.380  22.932  35.608  1.00  0.00     0.022 A 
BRANCH  86  90
ATOM     90  S   UNL A   1      46.921  21.871  35.169  1.00  0.00     0.124 S 
ATOM     91  O   UNL A   1      46.600  20.929  34.104  1.00  0.00    -0.237 OA
ATOM     92  O   UNL A   1      48.125  22.672  34.977  1.00  0.00    -0.237 OA
ATOM     93  O   UNL A   1      46.716  21.373  36.528  1.00  0.00    -0.744 OA
ENDBRANCH  86  90
ENDBRANCH  59  83
BRANCH  71  94
ATOM     94  C   UNL A   1      46.030  31.943  34.522  1.00  0.00     0.023 A 
ATOM     95  C   UNL A   1      44.894  32.532  35.102  1.00  0.00     0.031 A 
ATOM     96  C   UNL A   1      47.282  32.200  35.111  1.00  0.00     0.131 A 
ATOM     97  C   UNL A   1      45.035  33.380  36.211  1.00  0.00     0.055 A 
ATOM     98  C   UNL A   1      47.411  32.999  36.248  1.00  0.00     0.041 A 
ATOM     99  F   UNL A   1      48.401  31.667  34.598  1.00  0.00    -0.206 F 
ATOM    100  C   UNL A   1      46.284  33.602  36.799  1.00  0.00     0.022 A 
BRANCH  97 101
ATOM    101  S   UNL A   1      43.572  34.246  36.843  1.00  0.00     0.124 S 
ATOM    102  O   UNL A   1      43.948  35.645  36.668  1.00  0.00    -0.237 OA
ATOM    103  O   UNL A   1      42.514  33.756  35.966  1.00  0.00    -0.237 OA
ATOM    104  O   UNL A   1      43.480  33.798  38.232  1.00  0.00    -0.744 OA
ENDBRANCH  97 101
ENDBRANCH  71  94
ENDBRANCH  45  46
ENDBRANCH  38  40
ENDBRANCH  37  38
ENDBRANCH  36  37
ENDBRANCH  35  36
ENDBRANCH  34  35
ENDBRANCH  33  34
ENDBRANCH  32  33
ENDBRANCH  31  32
ENDBRANCH   1  31
TORSDOF 28
ENDMDL
MODEL 2
REMARK VINA RESULT:      -9.4      4.808      8.060
REMARK SMILES CCCCCCCCNC(=O)Oc1cccc(-c2ccc([C@@H](C)C(=O)OCCOCCOC(=O)c3ccc(-c4c5nc(c(-c6cc(S(=O)(=O)[O-])ccc6F)c6ccc([nH]6)c(-c6cc(S(=O)(=O)[O-])ccc6F)c6nc(c(-c7cc(S(=O)(=O)[O-])ccc7F)c7ccc4[nH]7)C=C6)C=C5)cc3)cc2F)c1
REMARK SMILES IDX 24 1 25 2 22 3 23 4 21 5 18 6 19 7 99 8 20 9 98 10 100 11
REMARK SMILES IDX 17 12 13 13 14 14 101 15 15 16 16 17 12 18 10 19 9 20 11 22
REMARK SMILES IDX 8 23 7 24 6 25 5 26 4 27 3 28 2 29 1 30 26 31 27 32 28 33
REMARK SMILES IDX 29 34 30 35 31 36 32 37 33 38 34 39 35 40 36 41 97 42 37 43
REMARK SMILES IDX 96 44 38 45 39 46 40 47 90 48 41 49 95 50 89 51 91 52 42 53
REMARK SMILES IDX 94 54 88 55 87 56 43 58 75 59 55 60 74 61 56 62 59 63 73 64
REMARK SMILES IDX 92 65 57 66 58 67 72 69 93 70 60 71 44 72 45 73 53 74 46 75
REMARK SMILES IDX 52 76 54 77 51 78 47 79 48 80 49 81 50 82 76 83 77 84 85 85
REMARK SMILES IDX 78 86 84 87 86 88 83 89 79 90 80 91 81 92 82 93 61 94 62 95
REMARK SMILES IDX 70 96 63 97 69 98 71 99 68 100 64 101 65 102 66 103 67 104
REMARK H PARENT 9 21 91 57 59 68
REMARK Flexibility Score: inf
ROOT
ATOM      1  C   UNL A   1      39.032  21.962  26.141  1.00  0.00     0.313 C 
ATOM      2  O   UNL A   1      39.238  22.985  26.787  1.00  0.00    -0.252 OA
ENDROOT
BRANCH   1   3
ATOM      3  C   UNL A   1      37.621  21.502  25.807  1.00  0.00     0.126 C 
ATOM      4  C   UNL A   1      37.688  20.131  25.137  1.00  0.00     0.025 C 
BRANCH   3   5
ATOM      5  C   UNL A   1      36.714  22.461  25.044  1.00  0.00    -0.031 A 
ATOM      6  C   UNL A   1      34.794  24.152  23.771  1.00  0.00     0.018 A 
ATOM      7  C   UNL A   1      35.400  23.087  23.085  1.00  0.00     0.012 A 
ATOM      8  C   UNL A   1      35.215  24.384  25.085  1.00  0.00     0.131 A 
ATOM      9  C   UNL A   1      36.341  22.253  23.709  1.00  0.00     0.005 A 
ATOM     10  C   UNL A   1      36.154  23.562  25.714  1.00  0.00     0.044 A 
ATOM     11  F   UNL A   1      34.681  25.386  25.804  1.00  0.00    -0.206 F 
BRANCH   6  12
ATOM     12  C   UNL A   1      33.710  24.938  23.150  1.00  0.00    -0.012 A 
ATOM     13  C   UNL A   1      31.731  26.337  23.288  1.00  0.00     0.133 A 
ATOM     14  C   UNL A   1      31.616  26.369  21.901  1.00  0.00     0.047 A 
ATOM     15  C   UNL A   1      32.752  25.620  23.918  1.00  0.00     0.056 A 
ATOM     16  C   UNL A   1      32.555  25.697  21.127  1.00  0.00     0.004 A 
ATOM     17  C   UNL A   1      33.591  24.991  21.747  1.00  0.00     0.009 A 
BRANCH  13  18
ATOM     18  O   UNL A   1      30.714  26.971  24.017  1.00  0.00    -0.410 OA
BRANCH  18  19
ATOM     19  C   UNL A   1      30.062  26.222  24.980  1.00  0.00     0.412 C 
ATOM     20  N   UNL A   1      28.727  26.072  24.736  1.00  0.00    -0.321 N 
ATOM     21  H   UNL A   1      28.219  25.535  25.386  1.00  0.00     0.167 HD
ATOM     22  O   UNL A   1      30.578  25.724  25.981  1.00  0.00    -0.224 OA
BRANCH  20  23
ATOM     23  C   UNL A   1      27.979  26.622  23.622  1.00  0.00     0.119 C 
BRANCH  23  24
ATOM     24  C   UNL A   1      27.810  28.137  23.741  1.00  0.00     0.021 C 
BRANCH  24  25
ATOM     25  C   UNL A   1      28.079  28.916  22.447  1.00  0.00     0.002 C 
BRANCH  25  26
ATOM     26  C   UNL A   1      29.269  29.883  22.500  1.00  0.00     0.000 C 
BRANCH  26  27
ATOM     27  C   UNL A   1      29.675  30.335  23.907  1.00  0.00    -0.000 C 
BRANCH  27  28
ATOM     28  C   UNL A   1      31.086  29.921  24.342  1.00  0.00    -0.000 C 
BRANCH  28  29
ATOM     29  C   UNL A   1      31.467  30.301  25.775  1.00  0.00    -0.003 C 
ATOM     30  C   UNL A   1      31.624  29.101  26.698  1.00  0.00     0.004 C 
ENDBRANCH  28  29
ENDBRANCH  27  28
ENDBRANCH  26  27
ENDBRANCH  25  26
ENDBRANCH  24  25
ENDBRANCH  23  24
ENDBRANCH  20  23
ENDBRANCH  18  19
ENDBRANCH  13  18
ENDBRANCH   6  12
ENDBRANCH   3   5
ENDBRANCH   1   3
BRANCH   1  31
ATOM     31  O   UNL A   1      40.002  21.127  25.689  1.00  0.00    -0.463 OA
BRANCH  31  32
ATOM     32  C   UNL A   1      40.907  20.614  26.682  1.00  0.00     0.261 C 
BRANCH  32  33
ATOM     33  C   UNL A   1      42.207  20.114  26.048  1.00  0.00     0.202 C 
BRANCH  33  34
ATOM     34  O   UNL A   1      42.891  21.034  25.197  1.00  0.00    -0.374 OA
BRANCH  34  35
ATOM     35  C   UNL A   1      44.251  21.336  25.512  1.00  0.00     0.202 C 
BRANCH  35  36
ATOM     36  C   UNL A   1      44.972  22.356  24.621  1.00  0.00     0.261 C 
BRANCH  36  37
ATOM     37  O   UNL A   1      44.273  23.609  24.536  1.00  0.00    -0.460 OA
BRANCH  37  38
ATOM     38  C   UNL A   1      44.953  24.674  25.029  1.00  0.00     0.338 C 
ATOM     39  O   UNL A   1      46.028  25.099  24.643  1.00  0.00    -0.246 OA
BRANCH  38  40
ATOM     40  C   UNL A   1      44.103  25.408  25.987  1.00  0.00     0.060 A 
ATOM     41  C   UNL A   1      44.042  26.803  25.865  1.00  0.00     0.016 A 
ATOM     42  C   UNL A   1      43.431  24.758  27.024  1.00  0.00     0.016 A 
ATOM     43  C   UNL A   1      43.343  27.560  26.804  1.00  0.00     0.010 A 
ATOM     44  C   UNL A   1      42.737  25.521  27.970  1.00  0.00     0.010 A 
ATOM     45  C   UNL A   1      42.715  26.926  27.883  1.00  0.00    -0.014 A 
BRANCH  45  46
ATOM     46  C   UNL A   1      42.170  27.734  29.004  1.00  0.00     0.031 A 
ATOM     47  C   UNL A   1      42.918  27.758  30.309  1.00  0.00     0.074 A 
ATOM     48  C   UNL A   1      41.038  28.447  28.859  1.00  0.00     0.049 A 
ATOM     49  N   UNL A   1      42.584  28.304  31.449  1.00  0.00    -0.248 NA
ATOM     50  C   UNL A   1      44.216  27.066  30.327  1.00  0.00     0.031 C 
ATOM     51  C   UNL A   1      40.265  28.559  27.624  1.00  0.00     0.029 A 
ATOM     52  N   UNL A   1      40.337  29.203  29.766  1.00  0.00    -0.354 N 
ATOM     53  C   UNL A   1      43.625  28.015  32.326  1.00  0.00     0.074 A 
ATOM     54  C   UNL A   1      44.583  27.216  31.590  1.00  0.00     0.031 C 
ATOM     55  C   UNL A   1      39.185  29.325  27.856  1.00  0.00     0.029 A 
ATOM     56  C   UNL A   1      39.163  29.716  29.264  1.00  0.00     0.049 A 
ATOM     57  H   UNL A   1      40.644  29.361  30.687  1.00  0.00     0.167 HD
ATOM     58  C   UNL A   1      43.769  28.386  33.622  1.00  0.00     0.034 A 
ATOM     59  C   UNL A   1      38.171  30.390  29.880  1.00  0.00     0.034 A 
ATOM     60  C   UNL A   1      42.796  29.171  34.343  1.00  0.00     0.049 A 
ATOM     61  C   UNL A   1      38.296  30.694  31.356  1.00  0.00     0.074 A 
ATOM     62  C   UNL A   1      42.843  29.610  35.655  1.00  0.00     0.029 A 
ATOM     63  N   UNL A   1      41.594  29.626  33.818  1.00  0.00    -0.354 N 
ATOM     64  N   UNL A   1      39.278  30.406  32.179  1.00  0.00    -0.248 NA
ATOM     65  C   UNL A   1      37.178  31.413  31.985  1.00  0.00     0.031 C 
ATOM     66  C   UNL A   1      41.639  30.259  35.945  1.00  0.00     0.029 A 
ATOM     67  C   UNL A   1      40.875  30.305  34.790  1.00  0.00     0.049 A 
ATOM     68  H   UNL A   1      41.295  29.486  32.890  1.00  0.00     0.167 HD
ATOM     69  C   UNL A   1      38.912  30.943  33.412  1.00  0.00     0.074 A 
ATOM     70  C   UNL A   1      37.623  31.573  33.223  1.00  0.00     0.031 C 
ATOM     71  C   UNL A   1      39.587  30.926  34.590  1.00  0.00     0.034 A 
BRANCH  58  72
ATOM     72  C   UNL A   1      44.994  27.891  34.353  1.00  0.00     0.023 A 
ATOM     73  C   UNL A   1      44.999  26.675  35.058  1.00  0.00     0.031 A 
ATOM     74  C   UNL A   1      46.167  28.668  34.373  1.00  0.00     0.131 A 
ATOM     75  C   UNL A   1      46.126  26.306  35.808  1.00  0.00     0.055 A 
ATOM     76  C   UNL A   1      47.313  28.255  35.056  1.00  0.00     0.041 A 
ATOM     77  F   UNL A   1      46.216  29.850  33.739  1.00  0.00    -0.206 F 
ATOM     78  C   UNL A   1      47.291  27.075  35.792  1.00  0.00     0.022 A 
BRANCH  75  79
ATOM     79  S   UNL A   1      45.995  24.881  36.924  1.00  0.00     0.124 S 
ATOM     80  O   UNL A   1      45.221  25.441  38.029  1.00  0.00    -0.237 OA
ATOM     81  O   UNL A   1      45.310  23.895  36.098  1.00  0.00    -0.237 OA
ATOM     82  O   UNL A   1      47.387  24.568  37.245  1.00  0.00    -0.744 OA
ENDBRANCH  75  79
ENDBRANCH  58  72
BRANCH  59  83
ATOM     83  C   UNL A   1      36.943  30.783  29.129  1.00  0.00     0.023 A 
ATOM     84  C   UNL A   1      36.494  32.112  29.116  1.00  0.00     0.031 A 
ATOM     85  C   UNL A   1      36.168  29.819  28.458  1.00  0.00     0.131 A 
ATOM     86  C   UNL A   1      35.281  32.435  28.486  1.00  0.00     0.055 A 
ATOM     87  C   UNL A   1      34.991  30.154  27.786  1.00  0.00     0.041 A 
ATOM     88  F   UNL A   1      36.549  28.531  28.442  1.00  0.00    -0.206 F 
ATOM     89  C   UNL A   1      34.535  31.467  27.808  1.00  0.00     0.022 A 
BRANCH  86  90
ATOM     90  S   UNL A   1      34.643  34.125  28.644  1.00  0.00     0.124 S 
ATOM     91  O   UNL A   1      34.108  34.366  27.309  1.00  0.00    -0.237 OA
ATOM     92  O   UNL A   1      33.662  33.979  29.714  1.00  0.00    -0.237 OA
ATOM     93  O   UNL A   1      35.830  34.905  28.993  1.00  0.00    -0.744 OA
ENDBRANCH  86  90
ENDBRANCH  59  83
BRANCH  71  94
ATOM     94  C   UNL A   1      38.971  31.665  35.754  1.00  0.00     0.023 A 
ATOM     95  C   UNL A   1      38.256  31.001  36.766  1.00  0.00     0.031 A 
ATOM     96  C   UNL A   1      39.121  33.060  35.857  1.00  0.00     0.131 A 
ATOM     97  C   UNL A   1      37.686  31.736  37.817  1.00  0.00     0.055 A 
ATOM     98  C   UNL A   1      38.600  33.779  36.933  1.00  0.00     0.041 A 
ATOM     99  F   UNL A   1      39.790  33.746  34.918  1.00  0.00    -0.206 F 
ATOM    100  C   UNL A   1      37.870  33.119  37.916  1.00  0.00     0.022 A 
BRANCH  97 101
ATOM    101  S   UNL A   1      36.643  30.874  39.024  1.00  0.00     0.124 S 
ATOM    102  O   UNL A   1      35.544  31.817  39.204  1.00  0.00    -0.237 OA
ATOM    103  O   UNL A   1      36.311  29.636  38.325  1.00  0.00    -0.237 OA
ATOM    104  O   UNL A   1      37.518  30.713  40.183  1.00  0.00    -0.744 OA
ENDBRANCH  97 101
ENDBRANCH  71  94
ENDBRANCH  45  46
ENDBRANCH  38  40
ENDBRANCH  37  38
ENDBRANCH  36  37
ENDBRANCH  35  36
ENDBRANCH  34  35
ENDBRANCH  33  34
ENDBRANCH  32  33
ENDBRANCH  31  32
ENDBRANCH   1  31
TORSDOF 28
ENDMDL
MODEL 3
REMARK VINA RESULT:      -9.3      4.531      6.337
REMARK SMILES CCCCCCCCNC(=O)Oc1cccc(-c2ccc([C@@H](C)C(=O)OCCOCCOC(=O)c3ccc(-c4c5nc(c(-c6cc(S(=O)(=O)[O-])ccc6F)c6ccc([nH]6)c(-c6cc(S(=O)(=O)[O-])ccc6F)c6nc(c(-c7cc(S(=O)(=O)[O-])ccc7F)c7ccc4[nH]7)C=C6)C=C5)cc3)cc2F)c1
REMARK SMILES IDX 24 1 25 2 22 3 23 4 21 5 18 6 19 7 99 8 20 9 98 10 100 11
REMARK SMILES IDX 17 12 13 13 14 14 101 15 15 16 16 17 12 18 10 19 9 20 11 22
REMARK SMILES IDX 8 23 7 24 6 25 5 26 4 27 3 28 2 29 1 30 26 31 27 32 28 33
REMARK SMILES IDX 29 34 30 35 31 36 32 37 33 38 34 39 35 40 36 41 97 42 37 43
REMARK SMILES IDX 96 44 38 45 39 46 40 47 90 48 41 49 95 50 89 51 91 52 42 53
REMARK SMILES IDX 94 54 88 55 87 56 43 58 75 59 55 60 74 61 56 62 59 63 73 64
REMARK SMILES IDX 92 65 57 66 58 67 72 69 93 70 60 71 44 72 45 73 53 74 46 75
REMARK SMILES IDX 52 76 54 77 51 78 47 79 48 80 49 81 50 82 76 83 77 84 85 85
REMARK SMILES IDX 78 86 84 87 86 88 83 89 79 90 80 91 81 92 82 93 61 94 62 95
REMARK SMILES IDX 70 96 63 97 69 98 71 99 68 100 64 101 65 102 66 103 67 104
REMARK H PARENT 9 21 91 57 59 68
REMARK Flexibility Score: inf
ROOT
ATOM      1  C   UNL A   1      41.627  22.223  26.251  1.00  0.00     0.313 C 
ATOM      2  O   UNL A   1      41.705  23.239  26.934  1.00  0.00    -0.252 OA
ENDROOT
BRANCH   1   3
ATOM      3  C   UNL A   1      40.631  21.120  26.576  1.00  0.00     0.126 C 
ATOM      4  C   UNL A   1      41.301  19.764  26.365  1.00  0.00     0.025 C 
BRANCH   3   5
ATOM      5  C   UNL A   1      39.254  21.179  25.923  1.00  0.00    -0.031 A 
ATOM      6  C   UNL A   1      36.563  21.300  24.967  1.00  0.00     0.018 A 
ATOM      7  C   UNL A   1      37.327  20.126  24.858  1.00  0.00     0.012 A 
ATOM      8  C   UNL A   1      37.198  22.423  25.510  1.00  0.00     0.131 A 
ATOM      9  C   UNL A   1      38.648  20.063  25.330  1.00  0.00     0.005 A 
ATOM     10  C   UNL A   1      38.513  22.371  25.979  1.00  0.00     0.044 A 
ATOM     11  F   UNL A   1      36.531  23.581  25.645  1.00  0.00    -0.206 F 
BRANCH   6  12
ATOM     12  C   UNL A   1      35.136  21.316  24.592  1.00  0.00    -0.012 A 
ATOM     13  C   UNL A   1      33.177  22.416  23.675  1.00  0.00     0.133 A 
ATOM     14  C   UNL A   1      32.381  21.310  23.960  1.00  0.00     0.047 A 
ATOM     15  C   UNL A   1      34.537  22.438  23.997  1.00  0.00     0.056 A 
ATOM     16  C   UNL A   1      32.959  20.192  24.551  1.00  0.00     0.004 A 
ATOM     17  C   UNL A   1      34.323  20.197  24.861  1.00  0.00     0.009 A 
BRANCH  13  18
ATOM     18  O   UNL A   1      32.524  23.539  23.147  1.00  0.00    -0.410 OA
BRANCH  18  19
ATOM     19  C   UNL A   1      32.951  24.000  21.914  1.00  0.00     0.412 C 
ATOM     20  N   UNL A   1      32.860  25.356  21.782  1.00  0.00    -0.321 N 
ATOM     21  H   UNL A   1      33.165  25.737  20.927  1.00  0.00     0.167 HD
ATOM     22  O   UNL A   1      33.371  23.306  20.987  1.00  0.00    -0.224 OA
BRANCH  20  23
ATOM     23  C   UNL A   1      32.362  26.294  22.769  1.00  0.00     0.119 C 
BRANCH  23  24
ATOM     24  C   UNL A   1      33.474  26.796  23.691  1.00  0.00     0.021 C 
BRANCH  24  25
ATOM     25  C   UNL A   1      33.983  28.209  23.372  1.00  0.00     0.002 C 
BRANCH  25  26
ATOM     26  C   UNL A   1      33.543  29.301  24.354  1.00  0.00     0.000 C 
BRANCH  26  27
ATOM     27  C   UNL A   1      32.046  29.314  24.681  1.00  0.00    -0.000 C 
BRANCH  27  28
ATOM     28  C   UNL A   1      31.651  30.168  25.892  1.00  0.00    -0.000 C 
BRANCH  28  29
ATOM     29  C   UNL A   1      32.110  29.630  27.250  1.00  0.00    -0.003 C 
ATOM     30  C   UNL A   1      31.741  28.173  27.479  1.00  0.00     0.004 C 
ENDBRANCH  28  29
ENDBRANCH  27  28
ENDBRANCH  26  27
ENDBRANCH  25  26
ENDBRANCH  24  25
ENDBRANCH  23  24
ENDBRANCH  20  23
ENDBRANCH  18  19
ENDBRANCH  13  18
ENDBRANCH   6  12
ENDBRANCH   3   5
ENDBRANCH   1   3
BRANCH   1  31
ATOM     31  O   UNL A   1      42.412  21.954  25.178  1.00  0.00    -0.463 OA
BRANCH  31  32
ATOM     32  C   UNL A   1      43.824  21.860  25.435  1.00  0.00     0.261 C 
BRANCH  32  33
ATOM     33  C   UNL A   1      44.624  21.764  24.134  1.00  0.00     0.202 C 
BRANCH  33  34
ATOM     34  O   UNL A   1      45.343  22.935  23.745  1.00  0.00    -0.374 OA
BRANCH  34  35
ATOM     35  C   UNL A   1      46.024  23.659  24.770  1.00  0.00     0.202 C 
BRANCH  35  36
ATOM     36  C   UNL A   1      45.534  25.080  25.076  1.00  0.00     0.261 C 
BRANCH  36  37
ATOM     37  O   UNL A   1      44.400  25.097  25.960  1.00  0.00    -0.460 OA
BRANCH  37  38
ATOM     38  C   UNL A   1      43.359  25.857  25.535  1.00  0.00     0.338 C 
ATOM     39  O   UNL A   1      42.549  25.570  24.670  1.00  0.00    -0.246 OA
BRANCH  38  40
ATOM     40  C   UNL A   1      43.198  27.023  26.425  1.00  0.00     0.060 A 
ATOM     41  C   UNL A   1      42.511  28.136  25.919  1.00  0.00     0.016 A 
ATOM     42  C   UNL A   1      43.759  27.059  27.702  1.00  0.00     0.016 A 
ATOM     43  C   UNL A   1      42.418  29.306  26.671  1.00  0.00     0.010 A 
ATOM     44  C   UNL A   1      43.674  28.238  28.452  1.00  0.00     0.010 A 
ATOM     45  C   UNL A   1      43.030  29.376  27.929  1.00  0.00    -0.014 A 
BRANCH  45  46
ATOM     46  C   UNL A   1      43.134  30.680  28.631  1.00  0.00     0.031 A 
ATOM     47  C   UNL A   1      44.273  31.600  28.283  1.00  0.00     0.074 A 
ATOM     48  C   UNL A   1      42.225  31.048  29.552  1.00  0.00     0.049 A 
ATOM     49  N   UNL A   1      44.624  32.734  28.831  1.00  0.00    -0.248 NA
ATOM     50  C   UNL A   1      45.131  31.177  27.166  1.00  0.00     0.031 C 
ATOM     51  C   UNL A   1      41.042  30.274  29.923  1.00  0.00     0.029 A 
ATOM     52  N   UNL A   1      42.163  32.163  30.351  1.00  0.00    -0.354 N 
ATOM     53  C   UNL A   1      45.751  33.158  28.134  1.00  0.00     0.074 A 
ATOM     54  C   UNL A   1      46.041  32.139  27.147  1.00  0.00     0.031 C 
ATOM     55  C   UNL A   1      40.379  30.932  30.891  1.00  0.00     0.029 A 
ATOM     56  C   UNL A   1      41.116  32.144  31.243  1.00  0.00     0.049 A 
ATOM     57  H   UNL A   1      42.808  32.904  30.292  1.00  0.00     0.167 HD
ATOM     58  C   UNL A   1      46.474  34.293  28.301  1.00  0.00     0.034 A 
ATOM     59  C   UNL A   1      40.811  32.988  32.249  1.00  0.00     0.034 A 
ATOM     60  C   UNL A   1      46.177  35.292  29.300  1.00  0.00     0.049 A 
ATOM     61  C   UNL A   1      41.696  34.189  32.494  1.00  0.00     0.074 A 
ATOM     62  C   UNL A   1      46.837  36.482  29.553  1.00  0.00     0.029 A 
ATOM     63  N   UNL A   1      45.142  35.211  30.222  1.00  0.00    -0.354 N 
ATOM     64  N   UNL A   1      42.767  34.575  31.838  1.00  0.00    -0.248 NA
ATOM     65  C   UNL A   1      41.332  35.067  33.616  1.00  0.00     0.031 C 
ATOM     66  C   UNL A   1      46.252  37.080  30.672  1.00  0.00     0.029 A 
ATOM     67  C   UNL A   1      45.169  36.310  31.068  1.00  0.00     0.049 A 
ATOM     68  H   UNL A   1      44.484  34.480  30.269  1.00  0.00     0.167 HD
ATOM     69  C   UNL A   1      43.178  35.760  32.444  1.00  0.00     0.074 A 
ATOM     70  C   UNL A   1      42.242  36.026  33.515  1.00  0.00     0.031 C 
ATOM     71  C   UNL A   1      44.230  36.561  32.135  1.00  0.00     0.034 A 
BRANCH  58  72
ATOM     72  C   UNL A   1      47.686  34.480  27.421  1.00  0.00     0.023 A 
ATOM     73  C   UNL A   1      48.971  34.084  27.832  1.00  0.00     0.031 A 
ATOM     74  C   UNL A   1      47.559  35.093  26.162  1.00  0.00     0.131 A 
ATOM     75  C   UNL A   1      50.083  34.372  27.026  1.00  0.00     0.055 A 
ATOM     76  C   UNL A   1      48.659  35.303  25.329  1.00  0.00     0.041 A 
ATOM     77  F   UNL A   1      46.362  35.514  25.724  1.00  0.00    -0.206 F 
ATOM     78  C   UNL A   1      49.933  34.956  25.767  1.00  0.00     0.022 A 
BRANCH  75  79
ATOM     79  S   UNL A   1      51.742  34.105  27.711  1.00  0.00     0.124 S 
ATOM     80  O   UNL A   1      51.837  35.188  28.687  1.00  0.00    -0.237 OA
ATOM     81  O   UNL A   1      51.645  32.757  28.258  1.00  0.00    -0.237 OA
ATOM     82  O   UNL A   1      52.619  34.246  26.549  1.00  0.00    -0.744 OA
ENDBRANCH  75  79
ENDBRANCH  58  72
BRANCH  59  83
ATOM     83  C   UNL A   1      39.647  32.713  33.141  1.00  0.00     0.023 A 
ATOM     84  C   UNL A   1      38.380  33.250  32.870  1.00  0.00     0.031 A 
ATOM     85  C   UNL A   1      39.802  31.951  34.315  1.00  0.00     0.131 A 
ATOM     86  C   UNL A   1      37.329  33.058  33.781  1.00  0.00     0.055 A 
ATOM     87  C   UNL A   1      38.740  31.716  35.190  1.00  0.00     0.041 A 
ATOM     88  F   UNL A   1      40.995  31.416  34.626  1.00  0.00    -0.206 F 
ATOM     89  C   UNL A   1      37.497  32.282  34.931  1.00  0.00     0.022 A 
BRANCH  86  90
ATOM     90  S   UNL A   1      35.758  33.916  33.488  1.00  0.00     0.124 S 
ATOM     91  O   UNL A   1      36.113  35.297  33.794  1.00  0.00    -0.237 OA
ATOM     92  O   UNL A   1      35.507  33.613  32.083  1.00  0.00    -0.237 OA
ATOM     93  O   UNL A   1      34.842  33.280  34.434  1.00  0.00    -0.744 OA
ENDBRANCH  86  90
ENDBRANCH  59  83
BRANCH  71  94
ATOM     94  C   UNL A   1      44.388  37.837  32.928  1.00  0.00     0.023 A 
ATOM     95  C   UNL A   1      43.737  39.028  32.564  1.00  0.00     0.031 A 
ATOM     96  C   UNL A   1      45.193  37.849  34.082  1.00  0.00     0.131 A 
ATOM     97  C   UNL A   1      43.932  40.192  33.324  1.00  0.00     0.055 A 
ATOM     98  C   UNL A   1      45.340  38.995  34.866  1.00  0.00     0.041 A 
ATOM     99  F   UNL A   1      45.841  36.741  34.475  1.00  0.00    -0.206 F 
ATOM    100  C   UNL A   1      44.714  40.177  34.483  1.00  0.00     0.022 A 
BRANCH  97 101
ATOM    101  S   UNL A   1      43.204  41.748  32.745  1.00  0.00     0.124 S 
ATOM    102  O   UNL A   1      41.947  41.296  32.158  1.00  0.00    -0.237 OA
ATOM    103  O   UNL A   1      43.090  42.520  33.978  1.00  0.00    -0.237 OA
ATOM    104  O   UNL A   1      44.187  42.254  31.788  1.00  0.00    -0.744 OA
ENDBRANCH  97 101
ENDBRANCH  71  94
ENDBRANCH  45  46
ENDBRANCH  38  40
ENDBRANCH  37  38
ENDBRANCH  36  37
ENDBRANCH  35  36
ENDBRANCH  34  35
ENDBRANCH  33  34
ENDBRANCH  32  33
ENDBRANCH  31  32
ENDBRANCH   1  31
TORSDOF 28
ENDMDL
