MODEL 1
REMARK VINA RESULT:     -10.9      0.000      0.000
REMARK SMILES O=C(OCCOCCOC(=O)[C@@]1([NH2+]C2CC2)CCC[C@@H](Sc2ncn[nH]2)C1)c1ccc(-c2c3nc(c(-c4cc(S(=O)(=O)[O-])ccc4F)c4ccc([nH]4)c(-c4cc(S(=O)(=O)[O-])ccc4F)c4nc(c(-c5cc(S(=O)(=O)[O-])ccc5F)c5ccc2[nH]5)C=C4)C=C3)cc1
REMARK SMILES IDX 5 1 4 2 3 3 2 4 1 5 28 6 29 7 90 8 30 9 89 10 31 11 32 12
REMARK SMILES IDX 33 13 83 14 34 15 88 16 82 17 84 18 35 19 87 20 81 21 80 22
REMARK SMILES IDX 36 24 68 25 48 26 67 27 49 28 52 29 66 30 85 31 50 32 51 33
REMARK SMILES IDX 65 35 86 36 53 37 37 38 38 39 46 40 39 41 45 42 47 43 44 44
REMARK SMILES IDX 40 45 41 46 42 47 43 48 69 49 70 50 78 51 71 52 77 53 79 54
REMARK SMILES IDX 76 55 72 56 73 57 74 58 75 59 54 60 55 61 63 62 56 63 62 64
REMARK SMILES IDX 64 65 61 66 57 67 58 68 59 69 60 70 6 71 7 72 8 73 9 74
REMARK SMILES IDX 10 75 11 76 12 77 17 78 27 79 18 80 20 81 19 82 13 83 14 86
REMARK SMILES IDX 15 87 16 88 21 89 22 90 23 91 26 92 24 93 25 94
REMARK H PARENT 84 23 52 34 13 84 13 85 26 95
REMARK Flexibility Score: inf
ROOT
ATOM      1  C   UNL A   1      35.009  22.945  24.504  1.00  0.00     0.202 C 
ENDROOT
BRANCH   1   2
ATOM      2  C   UNL A   1      35.758  21.652  24.801  1.00  0.00     0.261 C 
BRANCH   2   3
ATOM      3  O   UNL A   1      36.666  21.844  25.905  1.00  0.00    -0.460 OA
BRANCH   3   4
ATOM      4  C   UNL A   1      38.017  21.692  25.832  1.00  0.00     0.338 C 
ATOM      5  O   UNL A   1      38.513  20.702  25.306  1.00  0.00    -0.246 OA
BRANCH   4   6
ATOM      6  C   UNL A   1      38.888  22.774  26.337  1.00  0.00     0.060 A 
ATOM      7  C   UNL A   1      38.571  24.102  26.098  1.00  0.00     0.016 A 
ATOM      8  C   UNL A   1      40.024  22.488  27.085  1.00  0.00     0.016 A 
ATOM      9  C   UNL A   1      39.465  25.113  26.302  1.00  0.00     0.010 A 
ATOM     10  C   UNL A   1      40.815  23.548  27.543  1.00  0.00     0.010 A 
ATOM     11  C   UNL A   1      40.535  24.866  27.137  1.00  0.00    -0.014 A 
BRANCH  11  12
ATOM     12  C   UNL A   1      41.312  26.039  27.561  1.00  0.00     0.031 A 
ATOM     13  C   UNL A   1      40.676  26.989  28.511  1.00  0.00     0.074 A 
ATOM     14  C   UNL A   1      42.600  26.151  27.170  1.00  0.00     0.049 A 
ATOM     15  N   UNL A   1      41.059  28.183  28.856  1.00  0.00    -0.248 NA
ATOM     16  C   UNL A   1      39.427  26.539  29.146  1.00  0.00     0.031 C 
ATOM     17  C   UNL A   1      43.343  25.162  26.372  1.00  0.00     0.029 A 
ATOM     18  N   UNL A   1      43.532  27.120  27.419  1.00  0.00    -0.354 N 
ATOM     19  C   UNL A   1      40.063  28.659  29.695  1.00  0.00     0.074 A 
ATOM     20  C   UNL A   1      39.058  27.625  29.804  1.00  0.00     0.031 C 
ATOM     21  C   UNL A   1      44.621  25.546  26.255  1.00  0.00     0.029 A 
ATOM     22  C   UNL A   1      44.751  26.875  26.824  1.00  0.00     0.049 A 
ATOM     23  H   UNL A   1      43.351  27.915  27.970  1.00  0.00     0.167 HD
ATOM     24  C   UNL A   1      40.011  29.870  30.293  1.00  0.00     0.034 A 
ATOM     25  C   UNL A   1      45.821  27.678  26.688  1.00  0.00     0.034 A 
ATOM     26  C   UNL A   1      41.060  30.844  30.135  1.00  0.00     0.049 A 
ATOM     27  C   UNL A   1      45.687  29.063  27.258  1.00  0.00     0.074 A 
ATOM     28  C   UNL A   1      41.120  32.145  30.595  1.00  0.00     0.029 A 
ATOM     29  N   UNL A   1      42.255  30.605  29.454  1.00  0.00    -0.354 N 
ATOM     30  N   UNL A   1      44.682  29.581  27.934  1.00  0.00    -0.248 NA
ATOM     31  C   UNL A   1      46.804  29.981  27.032  1.00  0.00     0.031 C 
ATOM     32  C   UNL A   1      42.318  32.708  30.138  1.00  0.00     0.029 A 
ATOM     33  C   UNL A   1      43.047  31.737  29.466  1.00  0.00     0.049 A 
ATOM     34  H   UNL A   1      42.496  29.752  29.026  1.00  0.00     0.167 HD
ATOM     35  C   UNL A   1      45.057  30.882  28.234  1.00  0.00     0.074 A 
ATOM     36  C   UNL A   1      46.390  31.058  27.682  1.00  0.00     0.031 C 
ATOM     37  C   UNL A   1      44.373  31.850  28.897  1.00  0.00     0.034 A 
BRANCH  24  38
ATOM     38  C   UNL A   1      38.745  30.204  31.039  1.00  0.00     0.023 A 
ATOM     39  C   UNL A   1      37.779  31.081  30.513  1.00  0.00     0.031 A 
ATOM     40  C   UNL A   1      38.564  29.741  32.354  1.00  0.00     0.131 A 
ATOM     41  C   UNL A   1      36.735  31.542  31.329  1.00  0.00     0.055 A 
ATOM     42  C   UNL A   1      37.470  30.130  33.130  1.00  0.00     0.041 A 
ATOM     43  F   UNL A   1      39.473  28.934  32.926  1.00  0.00    -0.206 F 
ATOM     44  C   UNL A   1      36.558  31.051  32.625  1.00  0.00     0.022 A 
BRANCH  41  45
ATOM     45  S   UNL A   1      35.721  32.927  30.741  1.00  0.00     0.124 S 
ATOM     46  O   UNL A   1      36.528  33.432  29.632  1.00  0.00    -0.237 OA
ATOM     47  O   UNL A   1      34.470  32.273  30.375  1.00  0.00    -0.237 OA
ATOM     48  O   UNL A   1      35.645  33.814  31.901  1.00  0.00    -0.744 OA
ENDBRANCH  41  45
ENDBRANCH  24  38
BRANCH  25  49
ATOM     49  C   UNL A   1      47.026  27.248  25.917  1.00  0.00     0.023 A 
ATOM     50  C   UNL A   1      47.231  27.680  24.597  1.00  0.00     0.031 A 
ATOM     51  C   UNL A   1      47.973  26.360  26.465  1.00  0.00     0.131 A 
ATOM     52  C   UNL A   1      48.321  27.189  23.858  1.00  0.00     0.055 A 
ATOM     53  C   UNL A   1      49.092  25.928  25.750  1.00  0.00     0.041 A 
ATOM     54  F   UNL A   1      47.832  25.902  27.720  1.00  0.00    -0.206 F 
ATOM     55  C   UNL A   1      49.262  26.330  24.430  1.00  0.00     0.022 A 
BRANCH  52  56
ATOM     56  S   UNL A   1      48.433  27.607  22.097  1.00  0.00     0.124 S 
ATOM     57  O   UNL A   1      47.126  28.205  21.851  1.00  0.00    -0.237 OA
ATOM     58  O   UNL A   1      49.572  28.519  22.074  1.00  0.00    -0.237 OA
ATOM     59  O   UNL A   1      48.658  26.314  21.454  1.00  0.00    -0.744 OA
ENDBRANCH  52  56
ENDBRANCH  25  49
BRANCH  37  60
ATOM     60  C   UNL A   1      45.099  33.151  29.102  1.00  0.00     0.023 A 
ATOM     61  C   UNL A   1      44.895  34.249  28.252  1.00  0.00     0.031 A 
ATOM     62  C   UNL A   1      46.008  33.282  30.165  1.00  0.00     0.131 A 
ATOM     63  C   UNL A   1      45.641  35.419  28.446  1.00  0.00     0.055 A 
ATOM     64  C   UNL A   1      46.692  34.473  30.396  1.00  0.00     0.041 A 
ATOM     65  F   UNL A   1      46.238  32.255  30.999  1.00  0.00    -0.206 F 
ATOM     66  C   UNL A   1      46.519  35.546  29.525  1.00  0.00     0.022 A 
BRANCH  63  67
ATOM     67  S   UNL A   1      45.518  36.736  27.208  1.00  0.00     0.124 S 
ATOM     68  O   UNL A   1      46.705  36.496  26.393  1.00  0.00    -0.237 OA
ATOM     69  O   UNL A   1      44.238  36.447  26.570  1.00  0.00    -0.237 OA
ATOM     70  O   UNL A   1      45.551  37.959  28.007  1.00  0.00    -0.744 OA
ENDBRANCH  63  67
ENDBRANCH  37  60
ENDBRANCH  11  12
ENDBRANCH   4   6
ENDBRANCH   3   4
ENDBRANCH   2   3
ENDBRANCH   1   2
BRANCH   1  71
ATOM     71  O   UNL A   1      33.645  22.967  24.867  1.00  0.00    -0.374 OA
BRANCH  71  72
ATOM     72  C   UNL A   1      33.305  23.554  26.115  1.00  0.00     0.202 C 
BRANCH  72  73
ATOM     73  C   UNL A   1      32.372  24.712  25.811  1.00  0.00     0.261 C 
BRANCH  73  74
ATOM     74  O   UNL A   1      33.057  25.913  26.197  1.00  0.00    -0.459 OA
BRANCH  74  75
ATOM     75  C   UNL A   1      32.307  27.008  26.554  1.00  0.00     0.368 C 
ATOM     76  O   UNL A   1      31.456  27.017  27.438  1.00  0.00    -0.245 OA
BRANCH  75  77
ATOM     77  C   UNL A   1      32.666  28.178  25.598  1.00  0.00     0.195 C 
ATOM     78  C   UNL A   1      33.813  27.812  24.630  1.00  0.00     0.081 C 
ATOM     79  C   UNL A   1      31.347  28.371  24.792  1.00  0.00     0.096 C 
ATOM     80  C   UNL A   1      33.977  28.798  23.487  1.00  0.00     0.008 C 
ATOM     81  C   UNL A   1      31.471  29.133  23.471  1.00  0.00     0.061 C 
ATOM     82  C   UNL A   1      32.718  28.802  22.642  1.00  0.00     0.015 C 
BRANCH  77  83
ATOM     83  N   UNL A   1      32.962  29.443  26.301  1.00  0.00    -0.330 N 
ATOM     84  H   UNL A   1      32.060  29.806  26.608  1.00  0.00     0.347 HD
ATOM     85  H   UNL A   1      33.513  29.930  25.594  1.00  0.00     0.347 HD
BRANCH  83  86
ATOM     86  C   UNL A   1      33.847  29.550  27.464  1.00  0.00     0.183 C 
ATOM     87  C   UNL A   1      35.317  29.274  27.607  1.00  0.00     0.071 C 
ATOM     88  C   UNL A   1      34.870  30.674  27.394  1.00  0.00     0.071 C 
ENDBRANCH  83  86
ENDBRANCH  77  83
BRANCH  81  89
ATOM     89  S   UNL A   1      29.962  28.918  22.437  1.00  0.00    -0.083 SA
BRANCH  89  90
ATOM     90  C   UNL A   1      29.207  30.468  22.537  1.00  0.00     0.183 A 
ATOM     91  N   UNL A   1      28.418  30.945  23.466  1.00  0.00    -0.210 NA
ATOM     92  N   UNL A   1      29.364  31.391  21.554  1.00  0.00    -0.254 N 
ATOM     93  C   UNL A   1      28.106  32.189  22.993  1.00  0.00     0.247 A 
ATOM     94  N   UNL A   1      28.655  32.505  21.815  1.00  0.00    -0.162 NA
ATOM     95  H   UNL A   1      29.924  31.263  20.754  1.00  0.00     0.192 HD
ENDBRANCH  89  90
ENDBRANCH  81  89
ENDBRANCH  75  77
ENDBRANCH  74  75
ENDBRANCH  73  74
ENDBRANCH  72  73
ENDBRANCH  71  72
ENDBRANCH   1  71
TORSDOF 21
ENDMDL
MODEL 2
REMARK VINA RESULT:     -10.8      1.942      2.226
REMARK SMILES O=C(OCCOCCOC(=O)[C@@]1([NH2+]C2CC2)CCC[C@@H](Sc2ncn[nH]2)C1)c1ccc(-c2c3nc(c(-c4cc(S(=O)(=O)[O-])ccc4F)c4ccc([nH]4)c(-c4cc(S(=O)(=O)[O-])ccc4F)c4nc(c(-c5cc(S(=O)(=O)[O-])ccc5F)c5ccc2[nH]5)C=C4)C=C3)cc1
REMARK SMILES IDX 5 1 4 2 3 3 2 4 1 5 28 6 29 7 90 8 30 9 89 10 31 11 32 12
REMARK SMILES IDX 33 13 83 14 34 15 88 16 82 17 84 18 35 19 87 20 81 21 80 22
REMARK SMILES IDX 36 24 68 25 48 26 67 27 49 28 52 29 66 30 85 31 50 32 51 33
REMARK SMILES IDX 65 35 86 36 53 37 37 38 38 39 46 40 39 41 45 42 47 43 44 44
REMARK SMILES IDX 40 45 41 46 42 47 43 48 69 49 70 50 78 51 71 52 77 53 79 54
REMARK SMILES IDX 76 55 72 56 73 57 74 58 75 59 54 60 55 61 63 62 56 63 62 64
REMARK SMILES IDX 64 65 61 66 57 67 58 68 59 69 60 70 6 71 7 72 8 73 9 74
REMARK SMILES IDX 10 75 11 76 12 77 17 78 27 79 18 80 20 81 19 82 13 83 14 86
REMARK SMILES IDX 15 87 16 88 21 89 22 90 23 91 26 92 24 93 25 94
REMARK H PARENT 84 23 52 34 13 84 13 85 26 95
REMARK Flexibility Score: inf
ROOT
ATOM      1  C   UNL A   1      35.015  22.871  24.601  1.00  0.00     0.202 C 
ENDROOT
BRANCH   1   2
ATOM      2  C   UNL A   1      35.771  21.570  24.841  1.00  0.00     0.261 C 
BRANCH   2   3
ATOM      3  O   UNL A   1      36.690  21.723  25.941  1.00  0.00    -0.460 OA
BRANCH   3   4
ATOM      4  C   UNL A   1      38.040  21.581  25.848  1.00  0.00     0.338 C 
ATOM      5  O   UNL A   1      38.536  20.603  25.299  1.00  0.00    -0.246 OA
BRANCH   4   6
ATOM      6  C   UNL A   1      38.911  22.661  26.357  1.00  0.00     0.060 A 
ATOM      7  C   UNL A   1      38.605  23.989  26.106  1.00  0.00     0.016 A 
ATOM      8  C   UNL A   1      40.036  22.373  27.121  1.00  0.00     0.016 A 
ATOM      9  C   UNL A   1      39.503  24.996  26.316  1.00  0.00     0.010 A 
ATOM     10  C   UNL A   1      40.827  23.431  27.582  1.00  0.00     0.010 A 
ATOM     11  C   UNL A   1      40.560  24.748  27.166  1.00  0.00    -0.014 A 
BRANCH  11  12
ATOM     12  C   UNL A   1      41.339  25.919  27.593  1.00  0.00     0.031 A 
ATOM     13  C   UNL A   1      40.683  26.898  28.498  1.00  0.00     0.074 A 
ATOM     14  C   UNL A   1      42.642  26.005  27.247  1.00  0.00     0.049 A 
ATOM     15  N   UNL A   1      41.071  28.094  28.831  1.00  0.00    -0.248 NA
ATOM     16  C   UNL A   1      39.405  26.480  29.096  1.00  0.00     0.031 C 
ATOM     17  C   UNL A   1      43.399  24.987  26.499  1.00  0.00     0.029 A 
ATOM     18  N   UNL A   1      43.578  26.965  27.509  1.00  0.00    -0.354 N 
ATOM     19  C   UNL A   1      40.052  28.603  29.622  1.00  0.00     0.074 A 
ATOM     20  C   UNL A   1      39.028  27.586  29.716  1.00  0.00     0.031 C 
ATOM     21  C   UNL A   1      44.686  25.351  26.420  1.00  0.00     0.029 A 
ATOM     22  C   UNL A   1      44.814  26.690  26.965  1.00  0.00     0.049 A 
ATOM     23  H   UNL A   1      43.389  27.774  28.036  1.00  0.00     0.167 HD
ATOM     24  C   UNL A   1      39.996  29.828  30.192  1.00  0.00     0.034 A 
ATOM     25  C   UNL A   1      45.901  27.475  26.852  1.00  0.00     0.034 A 
ATOM     26  C   UNL A   1      41.065  30.783  30.051  1.00  0.00     0.049 A 
ATOM     27  C   UNL A   1      45.766  28.874  27.386  1.00  0.00     0.074 A 
ATOM     28  C   UNL A   1      41.127  32.092  30.485  1.00  0.00     0.029 A 
ATOM     29  N   UNL A   1      42.280  30.512  29.420  1.00  0.00    -0.354 N 
ATOM     30  N   UNL A   1      44.746  29.421  28.013  1.00  0.00    -0.248 NA
ATOM     31  C   UNL A   1      46.905  29.771  27.181  1.00  0.00     0.031 C 
ATOM     32  C   UNL A   1      42.349  32.628  30.060  1.00  0.00     0.029 A 
ATOM     33  C   UNL A   1      43.088  31.633  29.437  1.00  0.00     0.049 A 
ATOM     34  H   UNL A   1      42.524  29.646  29.020  1.00  0.00     0.167 HD
ATOM     35  C   UNL A   1      45.129  30.723  28.299  1.00  0.00     0.074 A 
ATOM     36  C   UNL A   1      46.483  30.868  27.793  1.00  0.00     0.031 C 
ATOM     37  C   UNL A   1      44.435  31.715  28.915  1.00  0.00     0.034 A 
BRANCH  24  38
ATOM     38  C   UNL A   1      38.709  30.196  30.883  1.00  0.00     0.023 A 
ATOM     39  C   UNL A   1      37.777  31.077  30.305  1.00  0.00     0.031 A 
ATOM     40  C   UNL A   1      38.472  29.761  32.199  1.00  0.00     0.131 A 
ATOM     41  C   UNL A   1      36.711  31.570  31.072  1.00  0.00     0.055 A 
ATOM     42  C   UNL A   1      37.356  30.182  32.925  1.00  0.00     0.041 A 
ATOM     43  F   UNL A   1      39.345  28.952  32.820  1.00  0.00    -0.206 F 
ATOM     44  C   UNL A   1      36.479  31.107  32.369  1.00  0.00     0.022 A 
BRANCH  41  45
ATOM     45  S   UNL A   1      35.743  32.960  30.420  1.00  0.00     0.124 S 
ATOM     46  O   UNL A   1      36.081  34.022  31.364  1.00  0.00    -0.237 OA
ATOM     47  O   UNL A   1      36.274  33.111  29.070  1.00  0.00    -0.237 OA
ATOM     48  O   UNL A   1      34.363  32.483  30.498  1.00  0.00    -0.744 OA
ENDBRANCH  41  45
ENDBRANCH  24  38
BRANCH  25  49
ATOM     49  C   UNL A   1      47.126  27.010  26.135  1.00  0.00     0.023 A 
ATOM     50  C   UNL A   1      48.155  26.345  26.819  1.00  0.00     0.031 A 
ATOM     51  C   UNL A   1      47.315  27.261  24.761  1.00  0.00     0.131 A 
ATOM     52  C   UNL A   1      49.339  26.000  26.145  1.00  0.00     0.055 A 
ATOM     53  C   UNL A   1      48.465  26.856  24.080  1.00  0.00     0.041 A 
ATOM     54  F   UNL A   1      46.373  27.900  24.048  1.00  0.00    -0.206 F 
ATOM     55  C   UNL A   1      49.495  26.236  24.777  1.00  0.00     0.022 A 
BRANCH  52  56
ATOM     56  S   UNL A   1      50.723  25.333  27.109  1.00  0.00     0.124 S 
ATOM     57  O   UNL A   1      51.135  26.500  27.882  1.00  0.00    -0.237 OA
ATOM     58  O   UNL A   1      50.081  24.259  27.859  1.00  0.00    -0.237 OA
ATOM     59  O   UNL A   1      51.672  24.898  26.086  1.00  0.00    -0.744 OA
ENDBRANCH  52  56
ENDBRANCH  25  49
BRANCH  37  60
ATOM     60  C   UNL A   1      45.173  33.009  29.118  1.00  0.00     0.023 A 
ATOM     61  C   UNL A   1      45.946  33.243  30.266  1.00  0.00     0.031 A 
ATOM     62  C   UNL A   1      45.092  34.019  28.144  1.00  0.00     0.131 A 
ATOM     63  C   UNL A   1      46.564  34.488  30.439  1.00  0.00     0.055 A 
ATOM     64  C   UNL A   1      45.768  35.227  28.289  1.00  0.00     0.041 A 
ATOM     65  F   UNL A   1      44.359  33.840  27.033  1.00  0.00    -0.206 F 
ATOM     66  C   UNL A   1      46.500  35.471  29.449  1.00  0.00     0.022 A 
BRANCH  63  67
ATOM     67  S   UNL A   1      47.370  34.838  32.023  1.00  0.00     0.124 S 
ATOM     68  O   UNL A   1      47.002  36.232  32.248  1.00  0.00    -0.237 OA
ATOM     69  O   UNL A   1      46.748  33.864  32.913  1.00  0.00    -0.237 OA
ATOM     70  O   UNL A   1      48.786  34.607  31.744  1.00  0.00    -0.744 OA
ENDBRANCH  63  67
ENDBRANCH  37  60
ENDBRANCH  11  12
ENDBRANCH   4   6
ENDBRANCH   3   4
ENDBRANCH   2   3
ENDBRANCH   1   2
BRANCH   1  71
ATOM     71  O   UNL A   1      33.656  22.877  24.984  1.00  0.00    -0.374 OA
BRANCH  71  72
ATOM     72  C   UNL A   1      33.322  23.496  26.218  1.00  0.00     0.202 C 
BRANCH  72  73
ATOM     73  C   UNL A   1      32.242  24.518  25.913  1.00  0.00     0.261 C 
BRANCH  73  74
ATOM     74  O   UNL A   1      32.775  25.805  26.259  1.00  0.00    -0.459 OA
BRANCH  74  75
ATOM     75  C   UNL A   1      31.898  26.848  26.444  1.00  0.00     0.368 C 
ATOM     76  O   UNL A   1      30.904  26.809  27.163  1.00  0.00    -0.245 OA
BRANCH  75  77
ATOM     77  C   UNL A   1      32.339  28.024  25.531  1.00  0.00     0.195 C 
ATOM     78  C   UNL A   1      33.490  27.627  24.580  1.00  0.00     0.081 C 
ATOM     79  C   UNL A   1      31.052  28.307  24.701  1.00  0.00     0.096 C 
ATOM     80  C   UNL A   1      33.732  28.635  23.470  1.00  0.00     0.008 C 
ATOM     81  C   UNL A   1      31.248  29.098  23.406  1.00  0.00     0.061 C 
ATOM     82  C   UNL A   1      32.496  28.727  22.596  1.00  0.00     0.015 C 
BRANCH  77  83
ATOM     83  N   UNL A   1      32.682  29.252  26.278  1.00  0.00    -0.330 N 
ATOM     84  H   UNL A   1      31.812  29.564  26.709  1.00  0.00     0.347 HD
ATOM     85  H   UNL A   1      33.133  29.801  25.546  1.00  0.00     0.347 HD
BRANCH  83  86
ATOM     86  C   UNL A   1      33.693  29.317  27.336  1.00  0.00     0.183 C 
ATOM     87  C   UNL A   1      35.188  29.443  27.257  1.00  0.00     0.071 C 
ATOM     88  C   UNL A   1      34.378  30.666  27.491  1.00  0.00     0.071 C 
ENDBRANCH  83  86
ENDBRANCH  77  83
BRANCH  81  89
ATOM     89  S   UNL A   1      29.755  28.990  22.331  1.00  0.00    -0.083 SA
BRANCH  89  90
ATOM     90  C   UNL A   1      29.180  30.618  22.312  1.00  0.00     0.183 A 
ATOM     91  N   UNL A   1      28.469  31.234  21.401  1.00  0.00    -0.210 NA
ATOM     92  N   UNL A   1      29.469  31.477  23.322  1.00  0.00    -0.254 N 
ATOM     93  C   UNL A   1      28.352  32.498  21.907  1.00  0.00     0.247 A 
ATOM     94  N   UNL A   1      28.960  32.700  23.081  1.00  0.00    -0.162 NA
ATOM     95  H   UNL A   1      29.984  31.239  24.127  1.00  0.00     0.192 HD
ENDBRANCH  89  90
ENDBRANCH  81  89
ENDBRANCH  75  77
ENDBRANCH  74  75
ENDBRANCH  73  74
ENDBRANCH  72  73
ENDBRANCH  71  72
ENDBRANCH   1  71
TORSDOF 21
ENDMDL
MODEL 3
REMARK VINA RESULT:     -10.8      5.525     10.648
REMARK SMILES O=C(OCCOCCOC(=O)[C@@]1([NH2+]C2CC2)CCC[C@@H](Sc2ncn[nH]2)C1)c1ccc(-c2c3nc(c(-c4cc(S(=O)(=O)[O-])ccc4F)c4ccc([nH]4)c(-c4cc(S(=O)(=O)[O-])ccc4F)c4nc(c(-c5cc(S(=O)(=O)[O-])ccc5F)c5ccc2[nH]5)C=C4)C=C3)cc1
REMARK SMILES IDX 5 1 4 2 3 3 2 4 1 5 28 6 29 7 90 8 30 9 89 10 31 11 32 12
REMARK SMILES IDX 33 13 83 14 34 15 88 16 82 17 84 18 35 19 87 20 81 21 80 22
REMARK SMILES IDX 36 24 68 25 48 26 67 27 49 28 52 29 66 30 85 31 50 32 51 33
REMARK SMILES IDX 65 35 86 36 53 37 37 38 38 39 46 40 39 41 45 42 47 43 44 44
REMARK SMILES IDX 40 45 41 46 42 47 43 48 69 49 70 50 78 51 71 52 77 53 79 54
REMARK SMILES IDX 76 55 72 56 73 57 74 58 75 59 54 60 55 61 63 62 56 63 62 64
REMARK SMILES IDX 64 65 61 66 57 67 58 68 59 69 60 70 6 71 7 72 8 73 9 74
REMARK SMILES IDX 10 75 11 76 12 77 17 78 27 79 18 80 20 81 19 82 13 83 14 86
REMARK SMILES IDX 15 87 16 88 21 89 22 90 23 91 26 92 24 93 25 94
REMARK H PARENT 84 23 52 34 13 84 13 85 26 95
REMARK Flexibility Score: inf
ROOT
ATOM      1  C   UNL A   1      31.178  29.506  24.512  1.00  0.00     0.202 C 
ENDROOT
BRANCH   1   2
ATOM      2  C   UNL A   1      31.802  29.385  25.897  1.00  0.00     0.261 C 
BRANCH   2   3
ATOM      3  O   UNL A   1      33.058  30.093  25.942  1.00  0.00    -0.460 OA
BRANCH   3   4
ATOM      4  C   UNL A   1      33.392  31.019  26.881  1.00  0.00     0.338 C 
ATOM      5  O   UNL A   1      32.617  31.922  27.180  1.00  0.00    -0.246 OA
BRANCH   4   6
ATOM      6  C   UNL A   1      34.680  30.886  27.594  1.00  0.00     0.060 A 
ATOM      7  C   UNL A   1      35.120  29.645  28.023  1.00  0.00     0.016 A 
ATOM      8  C   UNL A   1      35.488  31.993  27.824  1.00  0.00     0.016 A 
ATOM      9  C   UNL A   1      36.151  29.503  28.907  1.00  0.00     0.010 A 
ATOM     10  C   UNL A   1      36.700  31.814  28.501  1.00  0.00     0.010 A 
ATOM     11  C   UNL A   1      37.023  30.561  29.053  1.00  0.00    -0.014 A 
BRANCH  11  12
ATOM     12  C   UNL A   1      38.267  30.282  29.784  1.00  0.00     0.031 A 
ATOM     13  C   UNL A   1      39.311  29.476  29.098  1.00  0.00     0.074 A 
ATOM     14  C   UNL A   1      38.464  30.854  30.991  1.00  0.00     0.049 A 
ATOM     15  N   UNL A   1      40.376  28.921  29.596  1.00  0.00    -0.248 NA
ATOM     16  C   UNL A   1      39.119  29.249  27.656  1.00  0.00     0.031 C 
ATOM     17  C   UNL A   1      37.548  31.799  31.651  1.00  0.00     0.029 A 
ATOM     18  N   UNL A   1      39.512  30.768  31.865  1.00  0.00    -0.354 N 
ATOM     19  C   UNL A   1      40.949  28.218  28.546  1.00  0.00     0.074 A 
ATOM     20  C   UNL A   1      40.110  28.416  27.385  1.00  0.00     0.031 C 
ATOM     21  C   UNL A   1      38.102  32.245  32.786  1.00  0.00     0.029 A 
ATOM     22  C   UNL A   1      39.329  31.504  33.015  1.00  0.00     0.049 A 
ATOM     23  H   UNL A   1      40.318  30.232  31.690  1.00  0.00     0.167 HD
ATOM     24  C   UNL A   1      42.070  27.464  28.584  1.00  0.00     0.034 A 
ATOM     25  C   UNL A   1      40.038  31.510  34.158  1.00  0.00     0.034 A 
ATOM     26  C   UNL A   1      42.853  27.323  29.785  1.00  0.00     0.049 A 
ATOM     27  C   UNL A   1      41.210  30.568  34.214  1.00  0.00     0.074 A 
ATOM     28  C   UNL A   1      43.958  26.529  30.017  1.00  0.00     0.029 A 
ATOM     29  N   UNL A   1      42.601  28.016  30.970  1.00  0.00    -0.354 N 
ATOM     30  N   UNL A   1      41.680  29.782  33.269  1.00  0.00    -0.248 NA
ATOM     31  C   UNL A   1      41.932  30.490  35.485  1.00  0.00     0.031 C 
ATOM     32  C   UNL A   1      44.332  26.694  31.357  1.00  0.00     0.029 A 
ATOM     33  C   UNL A   1      43.517  27.654  31.940  1.00  0.00     0.049 A 
ATOM     34  H   UNL A   1      41.874  28.668  31.096  1.00  0.00     0.167 HD
ATOM     35  C   UNL A   1      42.770  29.129  33.825  1.00  0.00     0.074 A 
ATOM     36  C   UNL A   1      42.897  29.634  35.181  1.00  0.00     0.031 C 
ATOM     37  C   UNL A   1      43.592  28.196  33.279  1.00  0.00     0.034 A 
BRANCH  24  38
ATOM     38  C   UNL A   1      42.401  26.678  27.342  1.00  0.00     0.023 A 
ATOM     39  C   UNL A   1      42.012  25.335  27.183  1.00  0.00     0.031 A 
ATOM     40  C   UNL A   1      43.233  27.241  26.358  1.00  0.00     0.131 A 
ATOM     41  C   UNL A   1      42.534  24.577  26.125  1.00  0.00     0.055 A 
ATOM     42  C   UNL A   1      43.672  26.507  25.255  1.00  0.00     0.041 A 
ATOM     43  F   UNL A   1      43.671  28.505  26.474  1.00  0.00    -0.206 F 
ATOM     44  C   UNL A   1      43.338  25.161  25.144  1.00  0.00     0.022 A 
BRANCH  41  45
ATOM     45  S   UNL A   1      42.297  22.778  26.148  1.00  0.00     0.124 S 
ATOM     46  O   UNL A   1      43.128  22.387  27.285  1.00  0.00    -0.237 OA
ATOM     47  O   UNL A   1      40.857  22.649  26.335  1.00  0.00    -0.237 OA
ATOM     48  O   UNL A   1      42.798  22.348  24.844  1.00  0.00    -0.744 OA
ENDBRANCH  41  45
ENDBRANCH  24  38
BRANCH  25  49
ATOM     49  C   UNL A   1      39.613  32.323  35.336  1.00  0.00     0.023 A 
ATOM     50  C   UNL A   1      38.867  31.750  36.378  1.00  0.00     0.031 A 
ATOM     51  C   UNL A   1      39.903  33.699  35.424  1.00  0.00     0.131 A 
ATOM     52  C   UNL A   1      38.398  32.554  37.431  1.00  0.00     0.055 A 
ATOM     53  C   UNL A   1      39.492  34.480  36.507  1.00  0.00     0.041 A 
ATOM     54  F   UNL A   1      40.605  34.312  34.457  1.00  0.00    -0.206 F 
ATOM     55  C   UNL A   1      38.718  33.911  37.511  1.00  0.00     0.022 A 
BRANCH  52  56
ATOM     56  S   UNL A   1      37.266  31.821  38.644  1.00  0.00     0.124 S 
ATOM     57  O   UNL A   1      38.040  31.931  39.876  1.00  0.00    -0.237 OA
ATOM     58  O   UNL A   1      36.100  32.691  38.536  1.00  0.00    -0.237 OA
ATOM     59  O   UNL A   1      37.074  30.458  38.150  1.00  0.00    -0.744 OA
ENDBRANCH  52  56
ENDBRANCH  25  49
BRANCH  37  60
ATOM     60  C   UNL A   1      44.727  27.726  34.147  1.00  0.00     0.023 A 
ATOM     61  C   UNL A   1      44.569  26.668  35.055  1.00  0.00     0.031 A 
ATOM     62  C   UNL A   1      45.981  28.354  34.057  1.00  0.00     0.131 A 
ATOM     63  C   UNL A   1      45.638  26.306  35.886  1.00  0.00     0.055 A 
ATOM     64  C   UNL A   1      47.059  27.942  34.834  1.00  0.00     0.041 A 
ATOM     65  F   UNL A   1      46.175  29.374  33.205  1.00  0.00    -0.206 F 
ATOM     66  C   UNL A   1      46.887  26.920  35.765  1.00  0.00     0.022 A 
BRANCH  63  67
ATOM     67  S   UNL A   1      45.340  25.090  37.195  1.00  0.00     0.124 S 
ATOM     68  O   UNL A   1      43.904  24.862  37.074  1.00  0.00    -0.237 OA
ATOM     69  O   UNL A   1      46.198  23.981  36.794  1.00  0.00    -0.237 OA
ATOM     70  O   UNL A   1      45.757  25.788  38.410  1.00  0.00    -0.744 OA
ENDBRANCH  63  67
ENDBRANCH  37  60
ENDBRANCH  11  12
ENDBRANCH   4   6
ENDBRANCH   3   4
ENDBRANCH   2   3
ENDBRANCH   1   2
BRANCH   1  71
ATOM     71  O   UNL A   1      31.186  28.335  23.724  1.00  0.00    -0.374 OA
BRANCH  71  72
ATOM     72  C   UNL A   1      31.832  27.188  24.257  1.00  0.00     0.202 C 
BRANCH  72  73
ATOM     73  C   UNL A   1      32.590  26.545  23.110  1.00  0.00     0.261 C 
BRANCH  73  74
ATOM     74  O   UNL A   1      33.540  25.640  23.692  1.00  0.00    -0.459 OA
BRANCH  74  75
ATOM     75  C   UNL A   1      33.673  24.387  23.140  1.00  0.00     0.368 C 
ATOM     76  O   UNL A   1      33.740  24.153  21.938  1.00  0.00    -0.245 OA
BRANCH  75  77
ATOM     77  C   UNL A   1      33.635  23.342  24.289  1.00  0.00     0.195 C 
ATOM     78  C   UNL A   1      32.456  23.580  25.258  1.00  0.00     0.081 C 
ATOM     79  C   UNL A   1      33.417  22.005  23.520  1.00  0.00     0.096 C 
ATOM     80  C   UNL A   1      32.201  22.413  26.196  1.00  0.00     0.008 C 
ATOM     81  C   UNL A   1      32.893  20.831  24.350  1.00  0.00     0.061 C 
ATOM     82  C   UNL A   1      31.820  21.189  25.385  1.00  0.00     0.015 C 
BRANCH  77  83
ATOM     83  N   UNL A   1      34.908  23.240  25.033  1.00  0.00    -0.330 N 
ATOM     84  H   UNL A   1      34.706  22.657  25.844  1.00  0.00     0.347 HD
ATOM     85  H   UNL A   1      35.147  24.226  25.139  1.00  0.00     0.347 HD
BRANCH  83  86
ATOM     86  C   UNL A   1      36.152  22.713  24.466  1.00  0.00     0.183 C 
ATOM     87  C   UNL A   1      37.505  22.509  25.087  1.00  0.00     0.071 C 
ATOM     88  C   UNL A   1      36.577  21.353  24.997  1.00  0.00     0.071 C 
ENDBRANCH  83  86
ENDBRANCH  77  83
BRANCH  81  89
ATOM     89  S   UNL A   1      32.282  19.473  23.265  1.00  0.00    -0.083 SA
BRANCH  89  90
ATOM     90  C   UNL A   1      32.747  18.054  24.131  1.00  0.00     0.183 A 
ATOM     91  N   UNL A   1      33.006  17.910  25.406  1.00  0.00    -0.210 NA
ATOM     92  N   UNL A   1      32.925  16.868  23.493  1.00  0.00    -0.254 N 
ATOM     93  C   UNL A   1      33.352  16.591  25.501  1.00  0.00     0.247 A 
ATOM     94  N   UNL A   1      33.328  15.911  24.350  1.00  0.00    -0.162 NA
ATOM     95  H   UNL A   1      32.778  16.726  22.530  1.00  0.00     0.192 HD
ENDBRANCH  89  90
ENDBRANCH  81  89
ENDBRANCH  75  77
ENDBRANCH  74  75
ENDBRANCH  73  74
ENDBRANCH  72  73
ENDBRANCH  71  72
ENDBRANCH   1  71
TORSDOF 21
ENDMDL
