MODEL 1
REMARK VINA RESULT:     -11.8      0.000      0.000
REMARK SMILES O=C(Cn1c2ccccc2c(=O)c2ccccc21)N[C@@H](Cc1ccccc1)C(=O)OCCOCCOC(=O)c1ccc(-c2c3nc(c(-c4cc(S(=O)(=O)[O-])ccc4F)c4ccc([nH]4)c(-c4cc(S(=O)(=O)[O-])ccc4F)c4nc(c(-c5cc(S(=O)(=O)[O-])ccc5F)c5ccc2[nH]5)C=C4)C=C3)cc1
REMARK SMILES IDX 33 1 32 2 31 3 30 4 28 5 29 6 20 7 19 8 1 9 2 10 3 12 4 13
REMARK SMILES IDX 5 14 18 15 6 16 10 17 13 18 17 19 7 20 9 21 11 22 14 23
REMARK SMILES IDX 16 24 8 25 12 26 15 27 21 28 22 29 23 30 27 31 24 32 26 33
REMARK SMILES IDX 25 34 34 35 35 36 36 37 37 38 38 39 39 40 40 41 101 42 41 43
REMARK SMILES IDX 100 44 42 45 43 46 44 47 94 48 45 49 99 50 93 51 95 52 46 53
REMARK SMILES IDX 98 54 92 55 91 56 47 58 79 59 59 60 78 61 60 62 63 63 77 64
REMARK SMILES IDX 96 65 61 66 62 67 76 69 97 70 64 71 48 72 49 73 57 74 50 75
REMARK SMILES IDX 56 76 58 77 55 78 51 79 52 80 53 81 54 82 80 83 81 84 89 85
REMARK SMILES IDX 82 86 88 87 90 88 87 89 83 90 84 91 85 92 86 93 65 94 66 95
REMARK SMILES IDX 74 96 67 97 73 98 75 99 72 100 68 101 69 102 70 103 71 104
REMARK H PARENT 19 11 95 57 63 68
REMARK Flexibility Score: inf
ROOT
ATOM      1  O   UNL A   1      29.999  30.105  24.075  1.00  0.00    -0.374 OA
ENDROOT
BRANCH   1   2
ATOM      2  C   UNL A   1      29.549  29.048  23.222  1.00  0.00     0.202 C 
BRANCH   2   3
ATOM      3  C   UNL A   1      30.443  28.833  22.008  1.00  0.00     0.261 C 
BRANCH   3   4
ATOM      4  O   UNL A   1      30.966  27.494  22.033  1.00  0.00    -0.462 OA
BRANCH   4   5
ATOM      5  C   UNL A   1      32.269  27.384  22.394  1.00  0.00     0.329 C 
ATOM      6  O   UNL A   1      33.084  28.301  22.381  1.00  0.00    -0.250 OA
BRANCH   5   7
ATOM      7  C   UNL A   1      32.668  25.933  22.671  1.00  0.00     0.196 C 
BRANCH   7   8
ATOM      8  N   UNL A   1      33.541  25.663  23.834  1.00  0.00    -0.341 N 
ATOM      9  O   UNL A   1      34.660  23.937  22.858  1.00  0.00    -0.273 OA
ATOM     10  C   UNL A   1      34.391  24.573  23.881  1.00  0.00     0.240 C 
ATOM     11  H   UNL A   1      33.516  26.280  24.601  1.00  0.00     0.164 HD
BRANCH  10  12
ATOM     12  C   UNL A   1      34.823  24.025  25.264  1.00  0.00     0.222 C 
BRANCH  12  13
ATOM     13  N   UNL A   1      35.665  22.803  25.276  1.00  0.00    -0.331 N 
ATOM     14  C   UNL A   1      35.091  21.524  25.036  1.00  0.00     0.053 A 
ATOM     15  C   UNL A   1      36.999  22.911  25.740  1.00  0.00     0.053 A 
ATOM     16  C   UNL A   1      33.713  21.247  25.027  1.00  0.00     0.027 A 
ATOM     17  C   UNL A   1      35.933  20.399  24.881  1.00  0.00     0.046 A 
ATOM     18  C   UNL A   1      37.873  21.818  25.622  1.00  0.00     0.046 A 
ATOM     19  C   UNL A   1      37.511  24.038  26.398  1.00  0.00     0.027 A 
ATOM     20  C   UNL A   1      33.215  19.938  24.876  1.00  0.00     0.002 A 
ATOM     21  C   UNL A   1      35.446  19.094  24.699  1.00  0.00     0.014 A 
ATOM     22  C   UNL A   1      37.390  20.577  24.998  1.00  0.00     0.197 A 
ATOM     23  C   UNL A   1      39.176  21.849  26.129  1.00  0.00     0.014 A 
ATOM     24  C   UNL A   1      38.839  24.109  26.828  1.00  0.00     0.002 A 
ATOM     25  C   UNL A   1      34.080  18.863  24.706  1.00  0.00     0.001 A 
ATOM     26  O   UNL A   1      38.169  19.702  24.635  1.00  0.00    -0.288 OA
ATOM     27  C   UNL A   1      39.671  23.012  26.701  1.00  0.00     0.001 A 
ENDBRANCH  12  13
ENDBRANCH  10  12
ENDBRANCH   7   8
BRANCH   7  28
ATOM     28  C   UNL A   1      31.371  25.091  22.727  1.00  0.00     0.072 C 
BRANCH  28  29
ATOM     29  C   UNL A   1      30.906  24.672  24.110  1.00  0.00    -0.045 A 
ATOM     30  C   UNL A   1      30.323  25.601  24.981  1.00  0.00     0.004 A 
ATOM     31  C   UNL A   1      31.068  23.351  24.554  1.00  0.00     0.004 A 
ATOM     32  C   UNL A   1      29.887  25.213  26.250  1.00  0.00     0.000 A 
ATOM     33  C   UNL A   1      30.637  22.967  25.827  1.00  0.00     0.000 A 
ATOM     34  C   UNL A   1      30.036  23.895  26.671  1.00  0.00     0.000 A 
ENDBRANCH  28  29
ENDBRANCH   7  28
ENDBRANCH   5   7
ENDBRANCH   4   5
ENDBRANCH   3   4
ENDBRANCH   2   3
ENDBRANCH   1   2
BRANCH   1  35
ATOM     35  C   UNL A   1      31.106  29.776  24.918  1.00  0.00     0.202 C 
BRANCH  35  36
ATOM     36  C   UNL A   1      31.400  30.808  26.014  1.00  0.00     0.261 C 
BRANCH  36  37
ATOM     37  O   UNL A   1      32.763  30.736  26.466  1.00  0.00    -0.460 OA
BRANCH  37  38
ATOM     38  C   UNL A   1      33.236  31.805  27.160  1.00  0.00     0.338 C 
ATOM     39  O   UNL A   1      32.680  32.873  27.345  1.00  0.00    -0.246 OA
BRANCH  38  40
ATOM     40  C   UNL A   1      34.480  31.380  27.841  1.00  0.00     0.060 A 
ATOM     41  C   UNL A   1      35.461  32.319  28.123  1.00  0.00     0.016 A 
ATOM     42  C   UNL A   1      34.701  30.035  28.152  1.00  0.00     0.016 A 
ATOM     43  C   UNL A   1      36.699  31.903  28.618  1.00  0.00     0.010 A 
ATOM     44  C   UNL A   1      35.918  29.635  28.734  1.00  0.00     0.010 A 
ATOM     45  C   UNL A   1      36.947  30.562  28.967  1.00  0.00    -0.014 A 
BRANCH  45  46
ATOM     46  C   UNL A   1      38.239  30.183  29.637  1.00  0.00     0.031 A 
ATOM     47  C   UNL A   1      39.287  29.329  28.959  1.00  0.00     0.074 A 
ATOM     48  C   UNL A   1      38.493  30.635  30.885  1.00  0.00     0.049 A 
ATOM     49  N   UNL A   1      40.398  28.842  29.457  1.00  0.00    -0.248 NA
ATOM     50  C   UNL A   1      39.063  28.963  27.552  1.00  0.00     0.031 C 
ATOM     51  C   UNL A   1      37.581  31.466  31.671  1.00  0.00     0.029 A 
ATOM     52  N   UNL A   1      39.590  30.496  31.706  1.00  0.00    -0.354 N 
ATOM     53  C   UNL A   1      40.972  28.065  28.456  1.00  0.00     0.074 A 
ATOM     54  C   UNL A   1      40.086  28.150  27.313  1.00  0.00     0.031 C 
ATOM     55  C   UNL A   1      38.194  31.861  32.791  1.00  0.00     0.029 A 
ATOM     56  C   UNL A   1      39.485  31.188  32.893  1.00  0.00     0.049 A 
ATOM     57  H   UNL A   1      40.377  29.956  31.466  1.00  0.00     0.167 HD
ATOM     58  C   UNL A   1      42.124  27.348  28.488  1.00  0.00     0.034 A 
ATOM     59  C   UNL A   1      40.293  31.252  33.973  1.00  0.00     0.034 A 
ATOM     60  C   UNL A   1      43.034  27.318  29.611  1.00  0.00     0.049 A 
ATOM     61  C   UNL A   1      41.562  30.449  33.985  1.00  0.00     0.074 A 
ATOM     62  C   UNL A   1      44.239  26.639  29.713  1.00  0.00     0.029 A 
ATOM     63  N   UNL A   1      42.864  27.995  30.810  1.00  0.00    -0.354 N 
ATOM     64  N   UNL A   1      42.067  29.698  33.036  1.00  0.00    -0.248 NA
ATOM     65  C   UNL A   1      42.360  30.473  35.219  1.00  0.00     0.031 C 
ATOM     66  C   UNL A   1      44.765  26.858  30.986  1.00  0.00     0.029 A 
ATOM     67  C   UNL A   1      43.931  27.733  31.659  1.00  0.00     0.049 A 
ATOM     68  H   UNL A   1      42.100  28.576  31.026  1.00  0.00     0.167 HD
ATOM     69  C   UNL A   1      43.236  29.157  33.560  1.00  0.00     0.074 A 
ATOM     70  C   UNL A   1      43.389  29.701  34.892  1.00  0.00     0.031 C 
ATOM     71  C   UNL A   1      44.092  28.273  32.988  1.00  0.00     0.034 A 
BRANCH  58  72
ATOM     72  C   UNL A   1      42.511  26.517  27.284  1.00  0.00     0.023 A 
ATOM     73  C   UNL A   1      42.584  25.113  27.401  1.00  0.00     0.031 A 
ATOM     74  C   UNL A   1      42.971  27.106  26.095  1.00  0.00     0.131 A 
ATOM     75  C   UNL A   1      43.146  24.353  26.368  1.00  0.00     0.055 A 
ATOM     76  C   UNL A   1      43.493  26.339  25.050  1.00  0.00     0.041 A 
ATOM     77  F   UNL A   1      42.926  28.439  25.931  1.00  0.00    -0.206 F 
ATOM     78  C   UNL A   1      43.597  24.958  25.191  1.00  0.00     0.022 A 
BRANCH  75  79
ATOM     79  S   UNL A   1      43.393  22.563  26.542  1.00  0.00     0.124 S 
ATOM     80  O   UNL A   1      42.778  22.304  27.843  1.00  0.00    -0.237 OA
ATOM     81  O   UNL A   1      42.662  22.039  25.391  1.00  0.00    -0.237 OA
ATOM     82  O   UNL A   1      44.842  22.402  26.497  1.00  0.00    -0.744 OA
ENDBRANCH  75  79
ENDBRANCH  58  72
BRANCH  59  83
ATOM     83  C   UNL A   1      39.898  32.120  35.125  1.00  0.00     0.023 A 
ATOM     84  C   UNL A   1      39.209  31.581  36.228  1.00  0.00     0.031 A 
ATOM     85  C   UNL A   1      40.069  33.512  35.071  1.00  0.00     0.131 A 
ATOM     86  C   UNL A   1      38.610  32.436  37.161  1.00  0.00     0.055 A 
ATOM     87  C   UNL A   1      39.556  34.355  36.059  1.00  0.00     0.041 A 
ATOM     88  F   UNL A   1      40.720  34.075  34.041  1.00  0.00    -0.206 F 
ATOM     89  C   UNL A   1      38.794  33.820  37.094  1.00  0.00     0.022 A 
BRANCH  86  90
ATOM     90  S   UNL A   1      37.406  31.791  38.358  1.00  0.00     0.124 S 
ATOM     91  O   UNL A   1      37.172  30.442  37.854  1.00  0.00    -0.237 OA
ATOM     92  O   UNL A   1      38.152  31.879  39.610  1.00  0.00    -0.237 OA
ATOM     93  O   UNL A   1      36.282  32.715  38.244  1.00  0.00    -0.744 OA
ENDBRANCH  86  90
ENDBRANCH  59  83
BRANCH  71  94
ATOM     94  C   UNL A   1      45.289  27.810  33.784  1.00  0.00     0.023 A 
ATOM     95  C   UNL A   1      45.150  26.782  34.737  1.00  0.00     0.031 A 
ATOM     96  C   UNL A   1      46.524  28.475  33.699  1.00  0.00     0.131 A 
ATOM     97  C   UNL A   1      46.216  26.477  35.593  1.00  0.00     0.055 A 
ATOM     98  C   UNL A   1      47.598  28.136  34.524  1.00  0.00     0.041 A 
ATOM     99  F   UNL A   1      46.704  29.467  32.811  1.00  0.00    -0.206 F 
ATOM    100  C   UNL A   1      47.442  27.142  35.485  1.00  0.00     0.022 A 
BRANCH  97 101
ATOM    101  S   UNL A   1      46.027  25.262  36.927  1.00  0.00     0.124 S 
ATOM    102  O   UNL A   1      46.881  25.825  37.970  1.00  0.00    -0.237 OA
ATOM    103  O   UNL A   1      44.593  25.323  37.196  1.00  0.00    -0.237 OA
ATOM    104  O   UNL A   1      46.504  24.016  36.339  1.00  0.00    -0.744 OA
ENDBRANCH  97 101
ENDBRANCH  71  94
ENDBRANCH  45  46
ENDBRANCH  38  40
ENDBRANCH  37  38
ENDBRANCH  36  37
ENDBRANCH  35  36
ENDBRANCH   1  35
TORSDOF 22
ENDMDL
MODEL 2
REMARK VINA RESULT:     -11.5      2.299      7.925
REMARK SMILES O=C(Cn1c2ccccc2c(=O)c2ccccc21)N[C@@H](Cc1ccccc1)C(=O)OCCOCCOC(=O)c1ccc(-c2c3nc(c(-c4cc(S(=O)(=O)[O-])ccc4F)c4ccc([nH]4)c(-c4cc(S(=O)(=O)[O-])ccc4F)c4nc(c(-c5cc(S(=O)(=O)[O-])ccc5F)c5ccc2[nH]5)C=C4)C=C3)cc1
REMARK SMILES IDX 33 1 32 2 31 3 30 4 28 5 29 6 20 7 19 8 1 9 2 10 3 12 4 13
REMARK SMILES IDX 5 14 18 15 6 16 10 17 13 18 17 19 7 20 9 21 11 22 14 23
REMARK SMILES IDX 16 24 8 25 12 26 15 27 21 28 22 29 23 30 27 31 24 32 26 33
REMARK SMILES IDX 25 34 34 35 35 36 36 37 37 38 38 39 39 40 40 41 101 42 41 43
REMARK SMILES IDX 100 44 42 45 43 46 44 47 94 48 45 49 99 50 93 51 95 52 46 53
REMARK SMILES IDX 98 54 92 55 91 56 47 58 79 59 59 60 78 61 60 62 63 63 77 64
REMARK SMILES IDX 96 65 61 66 62 67 76 69 97 70 64 71 48 72 49 73 57 74 50 75
REMARK SMILES IDX 56 76 58 77 55 78 51 79 52 80 53 81 54 82 80 83 81 84 89 85
REMARK SMILES IDX 82 86 88 87 90 88 87 89 83 90 84 91 85 92 86 93 65 94 66 95
REMARK SMILES IDX 74 96 67 97 73 98 75 99 72 100 68 101 69 102 70 103 71 104
REMARK H PARENT 19 11 95 57 63 68
REMARK Flexibility Score: inf
ROOT
ATOM      1  O   UNL A   1      31.728  31.143  26.678  1.00  0.00    -0.374 OA
ENDROOT
BRANCH   1   2
ATOM      2  C   UNL A   1      32.937  30.540  27.146  1.00  0.00     0.202 C 
BRANCH   2   3
ATOM      3  C   UNL A   1      33.599  29.640  26.110  1.00  0.00     0.261 C 
BRANCH   3   4
ATOM      4  O   UNL A   1      32.702  29.449  25.002  1.00  0.00    -0.462 OA
BRANCH   4   5
ATOM      5  C   UNL A   1      33.227  28.797  23.934  1.00  0.00     0.329 C 
ATOM      6  O   UNL A   1      34.290  29.078  23.389  1.00  0.00    -0.250 OA
BRANCH   5   7
ATOM      7  C   UNL A   1      32.260  27.756  23.365  1.00  0.00     0.196 C 
BRANCH   7   8
ATOM      8  N   UNL A   1      32.654  26.333  23.432  1.00  0.00    -0.341 N 
ATOM      9  O   UNL A   1      33.451  26.236  21.302  1.00  0.00    -0.273 OA
ATOM     10  C   UNL A   1      33.103  25.637  22.324  1.00  0.00     0.240 C 
ATOM     11  H   UNL A   1      32.595  25.863  24.296  1.00  0.00     0.164 HD
BRANCH  10  12
ATOM     12  C   UNL A   1      32.953  24.097  22.300  1.00  0.00     0.222 C 
BRANCH  12  13
ATOM     13  N   UNL A   1      33.180  23.372  23.574  1.00  0.00    -0.331 N 
ATOM     14  C   UNL A   1      32.190  23.374  24.597  1.00  0.00     0.053 A 
ATOM     15  C   UNL A   1      34.475  22.864  23.837  1.00  0.00     0.053 A 
ATOM     16  C   UNL A   1      31.070  24.223  24.633  1.00  0.00     0.027 A 
ATOM     17  C   UNL A   1      32.352  22.540  25.726  1.00  0.00     0.046 A 
ATOM     18  C   UNL A   1      34.693  22.041  24.955  1.00  0.00     0.046 A 
ATOM     19  C   UNL A   1      35.612  23.191  23.085  1.00  0.00     0.027 A 
ATOM     20  C   UNL A   1      30.179  24.237  25.724  1.00  0.00     0.002 A 
ATOM     21  C   UNL A   1      31.452  22.525  26.805  1.00  0.00     0.014 A 
ATOM     22  C   UNL A   1      33.560  21.705  25.829  1.00  0.00     0.197 A 
ATOM     23  C   UNL A   1      35.965  21.575  25.297  1.00  0.00     0.014 A 
ATOM     24  C   UNL A   1      36.872  22.656  23.369  1.00  0.00     0.002 A 
ATOM     25  C   UNL A   1      30.365  23.384  26.806  1.00  0.00     0.001 A 
ATOM     26  O   UNL A   1      33.636  20.795  26.647  1.00  0.00    -0.288 OA
ATOM     27  C   UNL A   1      37.051  21.853  24.481  1.00  0.00     0.001 A 
ENDBRANCH  12  13
ENDBRANCH  10  12
ENDBRANCH   7   8
BRANCH   7  28
ATOM     28  C   UNL A   1      30.876  27.993  24.017  1.00  0.00     0.072 C 
BRANCH  28  29
ATOM     29  C   UNL A   1      29.875  28.778  23.190  1.00  0.00    -0.045 A 
ATOM     30  C   UNL A   1      28.498  28.583  23.358  1.00  0.00     0.004 A 
ATOM     31  C   UNL A   1      30.305  29.701  22.224  1.00  0.00     0.004 A 
ATOM     32  C   UNL A   1      27.576  29.312  22.603  1.00  0.00     0.000 A 
ATOM     33  C   UNL A   1      29.381  30.424  21.465  1.00  0.00     0.000 A 
ATOM     34  C   UNL A   1      28.016  30.238  21.661  1.00  0.00     0.000 A 
ENDBRANCH  28  29
ENDBRANCH   7  28
ENDBRANCH   5   7
ENDBRANCH   4   5
ENDBRANCH   3   4
ENDBRANCH   2   3
ENDBRANCH   1   2
BRANCH   1  35
ATOM     35  C   UNL A   1      31.702  32.572  26.728  1.00  0.00     0.202 C 
BRANCH  35  36
ATOM     36  C   UNL A   1      32.883  33.204  27.476  1.00  0.00     0.261 C 
BRANCH  36  37
ATOM     37  O   UNL A   1      32.449  34.197  28.422  1.00  0.00    -0.460 OA
BRANCH  37  38
ATOM     38  C   UNL A   1      33.362  35.134  28.790  1.00  0.00     0.338 C 
ATOM     39  O   UNL A   1      33.241  36.346  28.740  1.00  0.00    -0.246 OA
BRANCH  38  40
ATOM     40  C   UNL A   1      34.475  34.431  29.465  1.00  0.00     0.060 A 
ATOM     41  C   UNL A   1      34.225  33.697  30.616  1.00  0.00     0.016 A 
ATOM     42  C   UNL A   1      35.785  34.543  28.990  1.00  0.00     0.016 A 
ATOM     43  C   UNL A   1      35.289  33.165  31.346  1.00  0.00     0.010 A 
ATOM     44  C   UNL A   1      36.844  33.928  29.683  1.00  0.00     0.010 A 
ATOM     45  C   UNL A   1      36.617  33.236  30.883  1.00  0.00    -0.014 A 
BRANCH  45  46
ATOM     46  C   UNL A   1      37.713  32.519  31.623  1.00  0.00     0.031 A 
ATOM     47  C   UNL A   1      38.112  32.882  33.036  1.00  0.00     0.074 A 
ATOM     48  C   UNL A   1      38.358  31.497  31.019  1.00  0.00     0.049 A 
ATOM     49  N   UNL A   1      39.106  32.417  33.754  1.00  0.00    -0.248 NA
ATOM     50  C   UNL A   1      37.309  33.899  33.733  1.00  0.00     0.031 C 
ATOM     51  C   UNL A   1      38.089  31.030  29.659  1.00  0.00     0.029 A 
ATOM     52  N   UNL A   1      39.343  30.644  31.464  1.00  0.00    -0.354 N 
ATOM     53  C   UNL A   1      39.090  33.121  34.954  1.00  0.00     0.074 A 
ATOM     54  C   UNL A   1      37.979  34.046  34.870  1.00  0.00     0.031 C 
ATOM     55  C   UNL A   1      38.789  29.915  29.425  1.00  0.00     0.029 A 
ATOM     56  C   UNL A   1      39.683  29.668  30.552  1.00  0.00     0.049 A 
ATOM     57  H   UNL A   1      39.764  30.722  32.350  1.00  0.00     0.167 HD
ATOM     58  C   UNL A   1      39.924  33.010  36.019  1.00  0.00     0.034 A 
ATOM     59  C   UNL A   1      40.630  28.705  30.574  1.00  0.00     0.034 A 
ATOM     60  C   UNL A   1      40.993  32.041  36.120  1.00  0.00     0.049 A 
ATOM     61  C   UNL A   1      41.541  28.602  31.764  1.00  0.00     0.074 A 
ATOM     62  C   UNL A   1      41.865  31.842  37.179  1.00  0.00     0.029 A 
ATOM     63  N   UNL A   1      41.330  31.105  35.154  1.00  0.00    -0.354 N 
ATOM     64  N   UNL A   1      41.524  29.301  32.873  1.00  0.00    -0.248 NA
ATOM     65  C   UNL A   1      42.618  27.604  31.701  1.00  0.00     0.031 C 
ATOM     66  C   UNL A   1      42.761  30.831  36.832  1.00  0.00     0.029 A 
ATOM     67  C   UNL A   1      42.407  30.343  35.587  1.00  0.00     0.049 A 
ATOM     68  H   UNL A   1      40.873  30.996  34.289  1.00  0.00     0.167 HD
ATOM     69  C   UNL A   1      42.588  28.832  33.636  1.00  0.00     0.074 A 
ATOM     70  C   UNL A   1      43.201  27.759  32.883  1.00  0.00     0.031 C 
ATOM     71  C   UNL A   1      43.024  29.270  34.843  1.00  0.00     0.034 A 
BRANCH  58  72
ATOM     72  C   UNL A   1      39.747  33.943  37.196  1.00  0.00     0.023 A 
ATOM     73  C   UNL A   1      39.101  33.480  38.362  1.00  0.00     0.031 A 
ATOM     74  C   UNL A   1      40.048  35.312  37.108  1.00  0.00     0.131 A 
ATOM     75  C   UNL A   1      38.737  34.384  39.368  1.00  0.00     0.055 A 
ATOM     76  C   UNL A   1      39.720  36.204  38.132  1.00  0.00     0.041 A 
ATOM     77  F   UNL A   1      40.661  35.807  36.019  1.00  0.00    -0.206 F 
ATOM     78  C   UNL A   1      39.048  35.743  39.261  1.00  0.00     0.022 A 
BRANCH  75  79
ATOM     79  S   UNL A   1      37.776  33.851  40.811  1.00  0.00     0.124 S 
ATOM     80  O   UNL A   1      38.718  32.959  41.483  1.00  0.00    -0.237 OA
ATOM     81  O   UNL A   1      37.520  35.116  41.494  1.00  0.00    -0.237 OA
ATOM     82  O   UNL A   1      36.606  33.198  40.233  1.00  0.00    -0.744 OA
ENDBRANCH  75  79
ENDBRANCH  58  72
BRANCH  59  83
ATOM     83  C   UNL A   1      40.744  27.773  29.411  1.00  0.00     0.023 A 
ATOM     84  C   UNL A   1      41.715  27.982  28.413  1.00  0.00     0.031 A 
ATOM     85  C   UNL A   1      39.797  26.756  29.205  1.00  0.00     0.131 A 
ATOM     86  C   UNL A   1      41.639  27.276  27.207  1.00  0.00     0.055 A 
ATOM     87  C   UNL A   1      39.787  25.985  28.041  1.00  0.00     0.041 A 
ATOM     88  F   UNL A   1      38.851  26.516  30.126  1.00  0.00    -0.206 F 
ATOM     89  C   UNL A   1      40.691  26.265  27.020  1.00  0.00     0.022 A 
BRANCH  86  90
ATOM     90  S   UNL A   1      42.626  27.795  25.774  1.00  0.00     0.124 S 
ATOM     91  O   UNL A   1      42.222  29.187  25.616  1.00  0.00    -0.237 OA
ATOM     92  O   UNL A   1      43.988  27.582  26.256  1.00  0.00    -0.237 OA
ATOM     93  O   UNL A   1      42.199  26.886  24.715  1.00  0.00    -0.744 OA
ENDBRANCH  86  90
ENDBRANCH  59  83
BRANCH  71  94
ATOM     94  C   UNL A   1      44.234  28.608  35.457  1.00  0.00     0.023 A 
ATOM     95  C   UNL A   1      44.073  27.571  36.396  1.00  0.00     0.031 A 
ATOM     96  C   UNL A   1      45.531  29.093  35.217  1.00  0.00     0.131 A 
ATOM     97  C   UNL A   1      45.187  27.080  37.090  1.00  0.00     0.055 A 
ATOM     98  C   UNL A   1      46.644  28.569  35.878  1.00  0.00     0.041 A 
ATOM     99  F   UNL A   1      45.736  30.085  34.336  1.00  0.00    -0.206 F 
ATOM    100  C   UNL A   1      46.472  27.567  36.829  1.00  0.00     0.022 A 
BRANCH  97 101
ATOM    101  S   UNL A   1      45.000  25.850  38.411  1.00  0.00     0.124 S 
ATOM    102  O   UNL A   1      44.440  26.653  39.495  1.00  0.00    -0.237 OA
ATOM    103  O   UNL A   1      44.080  24.890  37.807  1.00  0.00    -0.237 OA
ATOM    104  O   UNL A   1      46.357  25.365  38.635  1.00  0.00    -0.744 OA
ENDBRANCH  97 101
ENDBRANCH  71  94
ENDBRANCH  45  46
ENDBRANCH  38  40
ENDBRANCH  37  38
ENDBRANCH  36  37
ENDBRANCH  35  36
ENDBRANCH   1  35
TORSDOF 22
ENDMDL
MODEL 3
REMARK VINA RESULT:     -11.3      1.892      2.271
REMARK SMILES O=C(Cn1c2ccccc2c(=O)c2ccccc21)N[C@@H](Cc1ccccc1)C(=O)OCCOCCOC(=O)c1ccc(-c2c3nc(c(-c4cc(S(=O)(=O)[O-])ccc4F)c4ccc([nH]4)c(-c4cc(S(=O)(=O)[O-])ccc4F)c4nc(c(-c5cc(S(=O)(=O)[O-])ccc5F)c5ccc2[nH]5)C=C4)C=C3)cc1
REMARK SMILES IDX 33 1 32 2 31 3 30 4 28 5 29 6 20 7 19 8 1 9 2 10 3 12 4 13
REMARK SMILES IDX 5 14 18 15 6 16 10 17 13 18 17 19 7 20 9 21 11 22 14 23
REMARK SMILES IDX 16 24 8 25 12 26 15 27 21 28 22 29 23 30 27 31 24 32 26 33
REMARK SMILES IDX 25 34 34 35 35 36 36 37 37 38 38 39 39 40 40 41 101 42 41 43
REMARK SMILES IDX 100 44 42 45 43 46 44 47 94 48 45 49 99 50 93 51 95 52 46 53
REMARK SMILES IDX 98 54 92 55 91 56 47 58 79 59 59 60 78 61 60 62 63 63 77 64
REMARK SMILES IDX 96 65 61 66 62 67 76 69 97 70 64 71 48 72 49 73 57 74 50 75
REMARK SMILES IDX 56 76 58 77 55 78 51 79 52 80 53 81 54 82 80 83 81 84 89 85
REMARK SMILES IDX 82 86 88 87 90 88 87 89 83 90 84 91 85 92 86 93 65 94 66 95
REMARK SMILES IDX 74 96 67 97 73 98 75 99 72 100 68 101 69 102 70 103 71 104
REMARK H PARENT 19 11 95 57 63 68
REMARK Flexibility Score: inf
ROOT
ATOM      1  O   UNL A   1      30.703  29.284  24.262  1.00  0.00    -0.374 OA
ENDROOT
BRANCH   1   2
ATOM      2  C   UNL A   1      30.311  28.088  23.583  1.00  0.00     0.202 C 
BRANCH   2   3
ATOM      3  C   UNL A   1      30.614  28.117  22.091  1.00  0.00     0.261 C 
BRANCH   3   4
ATOM      4  O   UNL A   1      31.191  26.859  21.699  1.00  0.00    -0.462 OA
BRANCH   4   5
ATOM      5  C   UNL A   1      32.483  26.672  22.068  1.00  0.00     0.329 C 
ATOM      6  O   UNL A   1      33.389  27.483  21.902  1.00  0.00    -0.250 OA
BRANCH   5   7
ATOM      7  C   UNL A   1      32.735  25.250  22.576  1.00  0.00     0.196 C 
BRANCH   7   8
ATOM      8  N   UNL A   1      33.584  25.082  23.775  1.00  0.00    -0.341 N 
ATOM      9  O   UNL A   1      35.019  23.602  22.808  1.00  0.00    -0.273 OA
ATOM     10  C   UNL A   1      34.600  24.145  23.835  1.00  0.00     0.240 C 
ATOM     11  H   UNL A   1      33.421  25.656  24.558  1.00  0.00     0.164 HD
BRANCH  10  12
ATOM     12  C   UNL A   1      35.051  23.623  25.221  1.00  0.00     0.222 C 
BRANCH  12  13
ATOM     13  N   UNL A   1      35.945  22.438  25.241  1.00  0.00    -0.331 N 
ATOM     14  C   UNL A   1      35.428  21.135  24.995  1.00  0.00     0.053 A 
ATOM     15  C   UNL A   1      37.268  22.603  25.718  1.00  0.00     0.053 A 
ATOM     16  C   UNL A   1      34.063  20.800  24.973  1.00  0.00     0.027 A 
ATOM     17  C   UNL A   1      36.320  20.048  24.848  1.00  0.00     0.046 A 
ATOM     18  C   UNL A   1      38.190  21.548  25.609  1.00  0.00     0.046 A 
ATOM     19  C   UNL A   1      37.725  23.750  26.382  1.00  0.00     0.027 A 
ATOM     20  C   UNL A   1      33.624  19.471  24.817  1.00  0.00     0.002 A 
ATOM     21  C   UNL A   1      35.891  18.723  24.662  1.00  0.00     0.014 A 
ATOM     22  C   UNL A   1      37.767  20.288  24.980  1.00  0.00     0.197 A 
ATOM     23  C   UNL A   1      39.484  21.636  26.128  1.00  0.00     0.014 A 
ATOM     24  C   UNL A   1      39.044  23.878  26.825  1.00  0.00     0.002 A 
ATOM     25  C   UNL A   1      34.536  18.434  24.655  1.00  0.00     0.001 A 
ATOM     26  O   UNL A   1      38.585  19.448  24.624  1.00  0.00    -0.288 OA
ATOM     27  C   UNL A   1      39.923  22.818  26.705  1.00  0.00     0.001 A 
ENDBRANCH  12  13
ENDBRANCH  10  12
ENDBRANCH   7   8
BRANCH   7  28
ATOM     28  C   UNL A   1      31.359  24.564  22.754  1.00  0.00     0.072 C 
BRANCH  28  29
ATOM     29  C   UNL A   1      31.012  24.121  24.163  1.00  0.00    -0.045 A 
ATOM     30  C   UNL A   1      30.549  25.043  25.110  1.00  0.00     0.004 A 
ATOM     31  C   UNL A   1      31.165  22.782  24.554  1.00  0.00     0.004 A 
ATOM     32  C   UNL A   1      30.220  24.632  26.405  1.00  0.00     0.000 A 
ATOM     33  C   UNL A   1      30.843  22.375  25.852  1.00  0.00     0.000 A 
ATOM     34  C   UNL A   1      30.359  23.298  26.774  1.00  0.00     0.000 A 
ENDBRANCH  28  29
ENDBRANCH   7  28
ENDBRANCH   5   7
ENDBRANCH   4   5
ENDBRANCH   3   4
ENDBRANCH   2   3
ENDBRANCH   1   2
BRANCH   1  35
ATOM     35  C   UNL A   1      31.782  29.133  25.188  1.00  0.00     0.202 C 
BRANCH  35  36
ATOM     36  C   UNL A   1      32.032  30.356  26.079  1.00  0.00     0.261 C 
BRANCH  36  37
ATOM     37  O   UNL A   1      33.368  30.367  26.612  1.00  0.00    -0.460 OA
BRANCH  37  38
ATOM     38  C   UNL A   1      33.790  31.525  27.185  1.00  0.00     0.338 C 
ATOM     39  O   UNL A   1      33.208  32.595  27.208  1.00  0.00    -0.246 OA
BRANCH  38  40
ATOM     40  C   UNL A   1      35.007  31.216  27.968  1.00  0.00     0.060 A 
ATOM     41  C   UNL A   1      35.170  29.949  28.511  1.00  0.00     0.016 A 
ATOM     42  C   UNL A   1      35.969  32.201  28.215  1.00  0.00     0.016 A 
ATOM     43  C   UNL A   1      36.232  29.697  29.381  1.00  0.00     0.010 A 
ATOM     44  C   UNL A   1      37.085  31.913  29.021  1.00  0.00     0.010 A 
ATOM     45  C   UNL A   1      37.232  30.657  29.631  1.00  0.00    -0.014 A 
BRANCH  45  46
ATOM     46  C   UNL A   1      38.438  30.293  30.453  1.00  0.00     0.031 A 
ATOM     47  C   UNL A   1      39.562  29.438  29.912  1.00  0.00     0.074 A 
ATOM     48  C   UNL A   1      38.539  30.757  31.718  1.00  0.00     0.049 A 
ATOM     49  N   UNL A   1      40.609  28.962  30.543  1.00  0.00    -0.248 NA
ATOM     50  C   UNL A   1      39.508  29.057  28.492  1.00  0.00     0.031 C 
ATOM     51  C   UNL A   1      37.537  31.591  32.382  1.00  0.00     0.029 A 
ATOM     52  N   UNL A   1      39.533  30.633  32.663  1.00  0.00    -0.354 N 
ATOM     53  C   UNL A   1      41.301  28.179  29.625  1.00  0.00     0.074 A 
ATOM     54  C   UNL A   1      40.556  28.248  28.385  1.00  0.00     0.031 C 
ATOM     55  C   UNL A   1      38.011  32.000  33.563  1.00  0.00     0.029 A 
ATOM     56  C   UNL A   1      39.284  31.336  33.823  1.00  0.00     0.049 A 
ATOM     57  H   UNL A   1      40.345  30.095  32.524  1.00  0.00     0.167 HD
ATOM     58  C   UNL A   1      42.445  27.470  29.800  1.00  0.00     0.034 A 
ATOM     59  C   UNL A   1      39.958  31.415  34.990  1.00  0.00     0.034 A 
ATOM     60  C   UNL A   1      43.216  27.456  31.024  1.00  0.00     0.049 A 
ATOM     61  C   UNL A   1      41.222  30.620  35.160  1.00  0.00     0.074 A 
ATOM     62  C   UNL A   1      44.404  26.786  31.274  1.00  0.00     0.029 A 
ATOM     63  N   UNL A   1      42.901  28.143  32.186  1.00  0.00    -0.354 N 
ATOM     64  N   UNL A   1      41.839  29.862  34.285  1.00  0.00    -0.248 NA
ATOM     65  C   UNL A   1      41.868  30.660  36.480  1.00  0.00     0.031 C 
ATOM     66  C   UNL A   1      44.774  27.020  32.598  1.00  0.00     0.029 A 
ATOM     67  C   UNL A   1      43.862  27.896  33.158  1.00  0.00     0.049 A 
ATOM     68  H   UNL A   1      42.114  28.722  32.305  1.00  0.00     0.167 HD
ATOM     69  C   UNL A   1      42.941  29.333  34.949  1.00  0.00     0.074 A 
ATOM     70  C   UNL A   1      42.932  29.891  36.284  1.00  0.00     0.031 C 
ATOM     71  C   UNL A   1      43.862  28.450  34.492  1.00  0.00     0.034 A 
BRANCH  58  72
ATOM     72  C   UNL A   1      42.976  26.630  28.659  1.00  0.00     0.023 A 
ATOM     73  C   UNL A   1      44.063  27.102  27.895  1.00  0.00     0.031 A 
ATOM     74  C   UNL A   1      42.312  25.473  28.220  1.00  0.00     0.131 A 
ATOM     75  C   UNL A   1      44.424  26.447  26.710  1.00  0.00     0.055 A 
ATOM     76  C   UNL A   1      42.702  24.799  27.059  1.00  0.00     0.041 A 
ATOM     77  F   UNL A   1      41.269  24.981  28.909  1.00  0.00    -0.206 F 
ATOM     78  C   UNL A   1      43.752  25.295  26.291  1.00  0.00     0.022 A 
BRANCH  75  79
ATOM     79  S   UNL A   1      45.719  27.108  25.625  1.00  0.00     0.124 S 
ATOM     80  O   UNL A   1      46.761  27.462  26.586  1.00  0.00    -0.237 OA
ATOM     81  O   UNL A   1      46.020  25.961  24.772  1.00  0.00    -0.237 OA
ATOM     82  O   UNL A   1      45.078  28.238  24.960  1.00  0.00    -0.744 OA
ENDBRANCH  75  79
ENDBRANCH  58  72
BRANCH  59  83
ATOM     83  C   UNL A   1      39.426  32.291  36.078  1.00  0.00     0.023 A 
ATOM     84  C   UNL A   1      39.974  33.567  36.308  1.00  0.00     0.031 A 
ATOM     85  C   UNL A   1      38.471  31.811  36.990  1.00  0.00     0.131 A 
ATOM     86  C   UNL A   1      39.661  34.260  37.483  1.00  0.00     0.055 A 
ATOM     87  C   UNL A   1      38.087  32.550  38.110  1.00  0.00     0.041 A 
ATOM     88  F   UNL A   1      37.918  30.601  36.815  1.00  0.00    -0.206 F 
ATOM     89  C   UNL A   1      38.707  33.768  38.378  1.00  0.00     0.022 A 
BRANCH  86  90
ATOM     90  S   UNL A   1      40.636  35.707  37.985  1.00  0.00     0.124 S 
ATOM     91  O   UNL A   1      41.983  35.318  37.582  1.00  0.00    -0.237 OA
ATOM     92  O   UNL A   1      40.021  36.771  37.197  1.00  0.00    -0.237 OA
ATOM     93  O   UNL A   1      40.405  35.794  39.423  1.00  0.00    -0.744 OA
ENDBRANCH  86  90
ENDBRANCH  59  83
BRANCH  71  94
ATOM     94  C   UNL A   1      44.958  28.001  35.428  1.00  0.00     0.023 A 
ATOM     95  C   UNL A   1      44.715  26.977  36.363  1.00  0.00     0.031 A 
ATOM     96  C   UNL A   1      46.189  28.678  35.488  1.00  0.00     0.131 A 
ATOM     97  C   UNL A   1      45.673  26.685  37.343  1.00  0.00     0.055 A 
ATOM     98  C   UNL A   1      47.159  28.353  36.438  1.00  0.00     0.041 A 
ATOM     99  F   UNL A   1      46.466  29.667  34.624  1.00  0.00    -0.206 F 
ATOM    100  C   UNL A   1      46.897  27.361  37.379  1.00  0.00     0.022 A 
BRANCH  97 101
ATOM    101  S   UNL A   1      45.336  25.474  38.651  1.00  0.00     0.124 S 
ATOM    102  O   UNL A   1      44.517  24.489  37.947  1.00  0.00    -0.237 OA
ATOM    103  O   UNL A   1      46.679  25.027  39.009  1.00  0.00    -0.237 OA
ATOM    104  O   UNL A   1      44.638  26.246  39.673  1.00  0.00    -0.744 OA
ENDBRANCH  97 101
ENDBRANCH  71  94
ENDBRANCH  45  46
ENDBRANCH  38  40
ENDBRANCH  37  38
ENDBRANCH  36  37
ENDBRANCH  35  36
ENDBRANCH   1  35
TORSDOF 22
ENDMDL
