MODEL 1
REMARK VINA RESULT:     -11.7      0.000      0.000
REMARK SMILES O=C(OCCOCCOC(=O)[C@@H]1C=C[C@H](NC(=O)[C@@H]2Cc3ccccc3O2)C1)c1ccc(-c2c3nc(c(-c4cc(S(=O)(=O)[O-])ccc4F)c4ccc([nH]4)c(-c4cc(S(=O)(=O)[O-])ccc4F)c4nc(c(-c5cc(S(=O)(=O)[O-])ccc5F)c5ccc2[nH]5)C=C4)C=C3)cc1
REMARK SMILES IDX 5 1 4 2 3 3 2 4 1 5 29 6 30 7 91 8 31 9 90 10 32 11 33 12
REMARK SMILES IDX 34 13 84 14 35 15 89 16 83 17 85 18 36 19 88 20 82 21 81 22
REMARK SMILES IDX 37 24 69 25 49 26 68 27 50 28 53 29 67 30 86 31 51 32 52 33
REMARK SMILES IDX 66 35 87 36 54 37 38 38 39 39 47 40 40 41 46 42 48 43 45 44
REMARK SMILES IDX 41 45 42 46 43 47 44 48 70 49 71 50 79 51 72 52 78 53 80 54
REMARK SMILES IDX 77 55 73 56 74 57 75 58 76 59 55 60 56 61 64 62 57 63 63 64
REMARK SMILES IDX 65 65 62 66 58 67 59 68 60 69 61 70 6 71 7 72 8 73 9 74
REMARK SMILES IDX 10 75 11 76 12 77 13 78 28 79 14 80 15 81 16 82 17 83 18 85
REMARK SMILES IDX 19 86 20 87 27 88 21 89 26 90 22 91 25 92 23 93 24 94
REMARK H PARENT 85 23 53 34 16 84
REMARK Flexibility Score: inf
ROOT
ATOM      1  C   UNL A   1      31.499  29.517  24.822  1.00  0.00     0.202 C 
ENDROOT
BRANCH   1   2
ATOM      2  C   UNL A   1      31.618  30.611  25.879  1.00  0.00     0.261 C 
BRANCH   2   3
ATOM      3  O   UNL A   1      32.781  30.396  26.682  1.00  0.00    -0.460 OA
BRANCH   3   4
ATOM      4  C   UNL A   1      33.472  31.391  27.292  1.00  0.00     0.338 C 
ATOM      5  O   UNL A   1      33.003  32.524  27.339  1.00  0.00    -0.246 OA
BRANCH   4   6
ATOM      6  C   UNL A   1      34.743  31.111  28.007  1.00  0.00     0.060 A 
ATOM      7  C   UNL A   1      35.092  29.858  28.521  1.00  0.00     0.016 A 
ATOM      8  C   UNL A   1      35.670  32.153  28.084  1.00  0.00     0.016 A 
ATOM      9  C   UNL A   1      36.297  29.636  29.145  1.00  0.00     0.010 A 
ATOM     10  C   UNL A   1      36.918  31.925  28.657  1.00  0.00     0.010 A 
ATOM     11  C   UNL A   1      37.226  30.660  29.179  1.00  0.00    -0.014 A 
BRANCH  11  12
ATOM     12  C   UNL A   1      38.498  30.395  29.851  1.00  0.00     0.031 A 
ATOM     13  C   UNL A   1      39.466  29.507  29.157  1.00  0.00     0.074 A 
ATOM     14  C   UNL A   1      38.763  31.003  31.017  1.00  0.00     0.049 A 
ATOM     15  N   UNL A   1      40.521  28.911  29.624  1.00  0.00    -0.248 NA
ATOM     16  C   UNL A   1      39.184  29.242  27.737  1.00  0.00     0.031 C 
ATOM     17  C   UNL A   1      37.913  32.016  31.655  1.00  0.00     0.029 A 
ATOM     18  N   UNL A   1      39.813  30.859  31.878  1.00  0.00    -0.354 N 
ATOM     19  C   UNL A   1      40.998  28.137  28.575  1.00  0.00     0.074 A 
ATOM     20  C   UNL A   1      40.113  28.346  27.449  1.00  0.00     0.031 C 
ATOM     21  C   UNL A   1      38.471  32.388  32.816  1.00  0.00     0.029 A 
ATOM     22  C   UNL A   1      39.646  31.560  33.049  1.00  0.00     0.049 A 
ATOM     23  H   UNL A   1      40.606  30.310  31.680  1.00  0.00     0.167 HD
ATOM     24  C   UNL A   1      42.069  27.310  28.592  1.00  0.00     0.034 A 
ATOM     25  C   UNL A   1      40.322  31.461  34.207  1.00  0.00     0.034 A 
ATOM     26  C   UNL A   1      42.879  27.152  29.774  1.00  0.00     0.049 A 
ATOM     27  C   UNL A   1      41.445  30.459  34.251  1.00  0.00     0.074 A 
ATOM     28  C   UNL A   1      43.958  26.319  29.987  1.00  0.00     0.029 A 
ATOM     29  N   UNL A   1      42.672  27.853  30.965  1.00  0.00    -0.354 N 
ATOM     30  N   UNL A   1      41.854  29.642  33.303  1.00  0.00    -0.248 NA
ATOM     31  C   UNL A   1      42.190  30.349  35.507  1.00  0.00     0.031 C 
ATOM     32  C   UNL A   1      44.352  26.459  31.323  1.00  0.00     0.029 A 
ATOM     33  C   UNL A   1      43.585  27.452  31.921  1.00  0.00     0.049 A 
ATOM     34  H   UNL A   1      41.975  28.535  31.101  1.00  0.00     0.167 HD
ATOM     35  C   UNL A   1      42.925  28.939  33.836  1.00  0.00     0.074 A 
ATOM     36  C   UNL A   1      43.094  29.430  35.194  1.00  0.00     0.031 C 
ATOM     37  C   UNL A   1      43.707  27.987  33.262  1.00  0.00     0.034 A 
BRANCH  24  38
ATOM     38  C   UNL A   1      42.289  26.462  27.363  1.00  0.00     0.023 A 
ATOM     39  C   UNL A   1      41.802  25.146  27.270  1.00  0.00     0.031 A 
ATOM     40  C   UNL A   1      43.136  26.920  26.338  1.00  0.00     0.131 A 
ATOM     41  C   UNL A   1      42.275  24.295  26.257  1.00  0.00     0.055 A 
ATOM     42  C   UNL A   1      43.513  26.101  25.272  1.00  0.00     0.041 A 
ATOM     43  F   UNL A   1      43.663  28.153  26.384  1.00  0.00    -0.206 F 
ATOM     44  C   UNL A   1      43.106  24.771  25.242  1.00  0.00     0.022 A 
BRANCH  41  45
ATOM     45  S   UNL A   1      41.982  22.510  26.426  1.00  0.00     0.124 S 
ATOM     46  O   UNL A   1      42.806  22.184  27.588  1.00  0.00    -0.237 OA
ATOM     47  O   UNL A   1      40.540  22.443  26.629  1.00  0.00    -0.237 OA
ATOM     48  O   UNL A   1      42.462  21.961  25.160  1.00  0.00    -0.744 OA
ENDBRANCH  41  45
ENDBRANCH  24  38
BRANCH  25  49
ATOM     49  C   UNL A   1      39.886  32.246  35.396  1.00  0.00     0.023 A 
ATOM     50  C   UNL A   1      39.004  31.710  36.344  1.00  0.00     0.031 A 
ATOM     51  C   UNL A   1      40.380  33.546  35.620  1.00  0.00     0.131 A 
ATOM     52  C   UNL A   1      38.631  32.474  37.463  1.00  0.00     0.055 A 
ATOM     53  C   UNL A   1      40.047  34.283  36.758  1.00  0.00     0.041 A 
ATOM     54  F   UNL A   1      41.229  34.111  34.746  1.00  0.00    -0.206 F 
ATOM     55  C   UNL A   1      39.160  33.748  37.685  1.00  0.00     0.022 A 
BRANCH  52  56
ATOM     56  S   UNL A   1      37.394  31.800  38.606  1.00  0.00     0.124 S 
ATOM     57  O   UNL A   1      38.125  31.798  39.868  1.00  0.00    -0.237 OA
ATOM     58  O   UNL A   1      36.312  32.771  38.491  1.00  0.00    -0.237 OA
ATOM     59  O   UNL A   1      37.104  30.479  38.052  1.00  0.00    -0.744 OA
ENDBRANCH  52  56
ENDBRANCH  25  49
BRANCH  37  60
ATOM     60  C   UNL A   1      44.862  27.479  34.081  1.00  0.00     0.023 A 
ATOM     61  C   UNL A   1      46.113  28.114  34.078  1.00  0.00     0.031 A 
ATOM     62  C   UNL A   1      44.670  26.373  34.928  1.00  0.00     0.131 A 
ATOM     63  C   UNL A   1      47.138  27.619  34.894  1.00  0.00     0.055 A 
ATOM     64  C   UNL A   1      45.674  25.924  35.781  1.00  0.00     0.041 A 
ATOM     65  F   UNL A   1      43.489  25.733  34.959  1.00  0.00    -0.206 F 
ATOM     66  C   UNL A   1      46.919  26.544  35.763  1.00  0.00     0.022 A 
BRANCH  63  67
ATOM     67  S   UNL A   1      48.786  28.361  34.768  1.00  0.00     0.124 S 
ATOM     68  O   UNL A   1      49.154  28.519  36.171  1.00  0.00    -0.237 OA
ATOM     69  O   UNL A   1      49.530  27.349  34.024  1.00  0.00    -0.237 OA
ATOM     70  O   UNL A   1      48.545  29.608  34.046  1.00  0.00    -0.744 OA
ENDBRANCH  63  67
ENDBRANCH  37  60
ENDBRANCH  11  12
ENDBRANCH   4   6
ENDBRANCH   3   4
ENDBRANCH   2   3
ENDBRANCH   1   2
BRANCH   1  71
ATOM     71  O   UNL A   1      30.277  29.510  24.091  1.00  0.00    -0.374 OA
BRANCH  71  72
ATOM     72  C   UNL A   1      30.348  29.158  22.713  1.00  0.00     0.202 C 
BRANCH  72  73
ATOM     73  C   UNL A   1      30.448  27.640  22.603  1.00  0.00     0.261 C 
BRANCH  73  74
ATOM     74  O   UNL A   1      29.758  27.068  23.732  1.00  0.00    -0.463 OA
BRANCH  74  75
ATOM     75  C   UNL A   1      30.128  25.779  24.013  1.00  0.00     0.312 C 
ATOM     76  O   UNL A   1      29.971  24.842  23.249  1.00  0.00    -0.252 OA
BRANCH  75  77
ATOM     77  C   UNL A   1      30.693  25.684  25.435  1.00  0.00     0.124 C 
ATOM     78  C   UNL A   1      32.181  25.850  25.593  1.00  0.00    -0.014 C 
ATOM     79  C   UNL A   1      30.514  24.252  25.932  1.00  0.00     0.048 C 
ATOM     80  C   UNL A   1      32.820  24.680  25.715  1.00  0.00    -0.006 C 
ATOM     81  C   UNL A   1      31.867  23.558  25.693  1.00  0.00     0.106 C 
BRANCH  81  82
ATOM     82  N   UNL A   1      31.918  22.712  24.515  1.00  0.00    -0.347 N 
ATOM     83  C   UNL A   1      32.354  21.489  24.125  1.00  0.00     0.261 C 
ATOM     84  H   UNL A   1      31.503  23.176  23.752  1.00  0.00     0.164 HD
ATOM     85  O   UNL A   1      32.313  21.325  22.892  1.00  0.00    -0.271 OA
BRANCH  83  86
ATOM     86  C   UNL A   1      32.819  20.305  25.014  1.00  0.00     0.266 C 
ATOM     87  C   UNL A   1      34.211  19.848  24.510  1.00  0.00     0.095 C 
ATOM     88  O   UNL A   1      32.000  19.151  25.203  1.00  0.00    -0.480 OA
ATOM     89  C   UNL A   1      34.126  18.394  24.765  1.00  0.00    -0.002 A 
ATOM     90  C   UNL A   1      32.837  18.075  25.145  1.00  0.00     0.123 A 
ATOM     91  C   UNL A   1      35.089  17.412  24.629  1.00  0.00     0.008 A 
ATOM     92  C   UNL A   1      32.450  16.775  25.402  1.00  0.00     0.047 A 
ATOM     93  C   UNL A   1      34.721  16.087  24.885  1.00  0.00     0.001 A 
ATOM     94  C   UNL A   1      33.409  15.769  25.267  1.00  0.00     0.004 A 
ENDBRANCH  83  86
ENDBRANCH  81  82
ENDBRANCH  75  77
ENDBRANCH  74  75
ENDBRANCH  73  74
ENDBRANCH  72  73
ENDBRANCH  71  72
ENDBRANCH   1  71
TORSDOF 19
ENDMDL
MODEL 2
REMARK VINA RESULT:     -11.6      4.739     10.184
REMARK SMILES O=C(OCCOCCOC(=O)[C@@H]1C=C[C@H](NC(=O)[C@@H]2Cc3ccccc3O2)C1)c1ccc(-c2c3nc(c(-c4cc(S(=O)(=O)[O-])ccc4F)c4ccc([nH]4)c(-c4cc(S(=O)(=O)[O-])ccc4F)c4nc(c(-c5cc(S(=O)(=O)[O-])ccc5F)c5ccc2[nH]5)C=C4)C=C3)cc1
REMARK SMILES IDX 5 1 4 2 3 3 2 4 1 5 29 6 30 7 91 8 31 9 90 10 32 11 33 12
REMARK SMILES IDX 34 13 84 14 35 15 89 16 83 17 85 18 36 19 88 20 82 21 81 22
REMARK SMILES IDX 37 24 69 25 49 26 68 27 50 28 53 29 67 30 86 31 51 32 52 33
REMARK SMILES IDX 66 35 87 36 54 37 38 38 39 39 47 40 40 41 46 42 48 43 45 44
REMARK SMILES IDX 41 45 42 46 43 47 44 48 70 49 71 50 79 51 72 52 78 53 80 54
REMARK SMILES IDX 77 55 73 56 74 57 75 58 76 59 55 60 56 61 64 62 57 63 63 64
REMARK SMILES IDX 65 65 62 66 58 67 59 68 60 69 61 70 6 71 7 72 8 73 9 74
REMARK SMILES IDX 10 75 11 76 12 77 13 78 28 79 14 80 15 81 16 82 17 83 18 85
REMARK SMILES IDX 19 86 20 87 27 88 21 89 26 90 22 91 25 92 23 93 24 94
REMARK H PARENT 85 23 53 34 16 84
REMARK Flexibility Score: inf
ROOT
ATOM      1  C   UNL A   1      35.261  21.233  24.622  1.00  0.00     0.202 C 
ENDROOT
BRANCH   1   2
ATOM      2  C   UNL A   1      36.617  20.756  25.134  1.00  0.00     0.261 C 
BRANCH   2   3
ATOM      3  O   UNL A   1      37.347  21.852  25.691  1.00  0.00    -0.460 OA
BRANCH   3   4
ATOM      4  C   UNL A   1      38.646  21.777  26.073  1.00  0.00     0.338 C 
ATOM      5  O   UNL A   1      39.261  20.722  25.952  1.00  0.00    -0.246 OA
BRANCH   4   6
ATOM      6  C   UNL A   1      39.377  22.984  26.534  1.00  0.00     0.060 A 
ATOM      7  C   UNL A   1      39.072  24.287  26.128  1.00  0.00     0.016 A 
ATOM      8  C   UNL A   1      40.371  22.794  27.498  1.00  0.00     0.016 A 
ATOM      9  C   UNL A   1      39.753  25.380  26.609  1.00  0.00     0.010 A 
ATOM     10  C   UNL A   1      41.026  23.897  28.040  1.00  0.00     0.010 A 
ATOM     11  C   UNL A   1      40.705  25.188  27.595  1.00  0.00    -0.014 A 
BRANCH  11  12
ATOM     12  C   UNL A   1      41.415  26.369  28.086  1.00  0.00     0.031 A 
ATOM     13  C   UNL A   1      40.639  27.348  28.889  1.00  0.00     0.074 A 
ATOM     14  C   UNL A   1      42.731  26.488  27.850  1.00  0.00     0.049 A 
ATOM     15  N   UNL A   1      40.937  28.569  29.215  1.00  0.00    -0.248 NA
ATOM     16  C   UNL A   1      39.330  26.881  29.373  1.00  0.00     0.031 C 
ATOM     17  C   UNL A   1      43.571  25.469  27.212  1.00  0.00     0.029 A 
ATOM     18  N   UNL A   1      43.593  27.514  28.112  1.00  0.00    -0.354 N 
ATOM     19  C   UNL A   1      39.822  29.051  29.886  1.00  0.00     0.074 A 
ATOM     20  C   UNL A   1      38.845  27.984  29.919  1.00  0.00     0.031 C 
ATOM     21  C   UNL A   1      44.825  25.932  27.116  1.00  0.00     0.029 A 
ATOM     22  C   UNL A   1      44.844  27.312  27.582  1.00  0.00     0.049 A 
ATOM     23  H   UNL A   1      43.342  28.315  28.627  1.00  0.00     0.167 HD
ATOM     24  C   UNL A   1      39.649  30.294  30.393  1.00  0.00     0.034 A 
ATOM     25  C   UNL A   1      45.851  28.185  27.412  1.00  0.00     0.034 A 
ATOM     26  C   UNL A   1      40.677  31.299  30.290  1.00  0.00     0.049 A 
ATOM     27  C   UNL A   1      45.609  29.596  27.881  1.00  0.00     0.074 A 
ATOM     28  C   UNL A   1      40.650  32.619  30.692  1.00  0.00     0.029 A 
ATOM     29  N   UNL A   1      41.932  31.080  29.718  1.00  0.00    -0.354 N 
ATOM     30  N   UNL A   1      44.525  30.103  28.430  1.00  0.00    -0.248 NA
ATOM     31  C   UNL A   1      46.704  30.553  27.706  1.00  0.00     0.031 C 
ATOM     32  C   UNL A   1      41.853  33.213  30.295  1.00  0.00     0.029 A 
ATOM     33  C   UNL A   1      42.675  32.244  29.733  1.00  0.00     0.049 A 
ATOM     34  H   UNL A   1      42.242  30.218  29.357  1.00  0.00     0.167 HD
ATOM     35  C   UNL A   1      44.815  31.435  28.693  1.00  0.00     0.074 A 
ATOM     36  C   UNL A   1      46.179  31.649  28.238  1.00  0.00     0.031 C 
ATOM     37  C   UNL A   1      44.039  32.392  29.267  1.00  0.00     0.034 A 
BRANCH  24  38
ATOM     38  C   UNL A   1      38.280  30.615  30.944  1.00  0.00     0.023 A 
ATOM     39  C   UNL A   1      37.264  31.163  30.141  1.00  0.00     0.031 A 
ATOM     40  C   UNL A   1      38.043  30.524  32.327  1.00  0.00     0.131 A 
ATOM     41  C   UNL A   1      36.123  31.722  30.740  1.00  0.00     0.055 A 
ATOM     42  C   UNL A   1      36.856  30.980  32.904  1.00  0.00     0.041 A 
ATOM     43  F   UNL A   1      38.985  30.043  33.153  1.00  0.00    -0.206 F 
ATOM     44  C   UNL A   1      35.900  31.611  32.114  1.00  0.00     0.022 A 
BRANCH  41  45
ATOM     45  S   UNL A   1      35.063  32.801  29.735  1.00  0.00     0.124 S 
ATOM     46  O   UNL A   1      34.406  31.836  28.857  1.00  0.00    -0.237 OA
ATOM     47  O   UNL A   1      34.212  33.432  30.738  1.00  0.00    -0.237 OA
ATOM     48  O   UNL A   1      36.011  33.692  29.070  1.00  0.00    -0.744 OA
ENDBRANCH  41  45
ENDBRANCH  24  38
BRANCH  25  49
ATOM     49  C   UNL A   1      47.091  27.769  26.698  1.00  0.00     0.023 A 
ATOM     50  C   UNL A   1      47.200  27.863  25.304  1.00  0.00     0.031 A 
ATOM     51  C   UNL A   1      48.209  27.296  27.414  1.00  0.00     0.131 A 
ATOM     52  C   UNL A   1      48.393  27.478  24.668  1.00  0.00     0.055 A 
ATOM     53  C   UNL A   1      49.409  26.962  26.784  1.00  0.00     0.041 A 
ATOM     54  F   UNL A   1      48.163  27.186  28.752  1.00  0.00    -0.206 F 
ATOM     55  C   UNL A   1      49.503  27.046  25.399  1.00  0.00     0.022 A 
BRANCH  52  56
ATOM     56  S   UNL A   1      48.459  27.495  22.855  1.00  0.00     0.124 S 
ATOM     57  O   UNL A   1      49.723  28.180  22.611  1.00  0.00    -0.237 OA
ATOM     58  O   UNL A   1      48.427  26.072  22.536  1.00  0.00    -0.237 OA
ATOM     59  O   UNL A   1      47.262  28.244  22.478  1.00  0.00    -0.744 OA
ENDBRANCH  52  56
ENDBRANCH  25  49
BRANCH  37  60
ATOM     60  C   UNL A   1      44.684  33.730  29.504  1.00  0.00     0.023 A 
ATOM     61  C   UNL A   1      44.617  34.767  28.560  1.00  0.00     0.031 A 
ATOM     62  C   UNL A   1      45.318  33.979  30.734  1.00  0.00     0.131 A 
ATOM     63  C   UNL A   1      45.201  36.006  28.855  1.00  0.00     0.055 A 
ATOM     64  C   UNL A   1      45.842  35.231  31.044  1.00  0.00     0.041 A 
ATOM     65  F   UNL A   1      45.408  33.014  31.663  1.00  0.00    -0.206 F 
ATOM     66  C   UNL A   1      45.791  36.252  30.100  1.00  0.00     0.022 A 
BRANCH  63  67
ATOM     67  S   UNL A   1      45.232  37.281  27.569  1.00  0.00     0.124 S 
ATOM     68  O   UNL A   1      46.115  36.685  26.573  1.00  0.00    -0.237 OA
ATOM     69  O   UNL A   1      43.825  37.384  27.195  1.00  0.00    -0.237 OA
ATOM     70  O   UNL A   1      45.776  38.449  28.260  1.00  0.00    -0.744 OA
ENDBRANCH  63  67
ENDBRANCH  37  60
ENDBRANCH  11  12
ENDBRANCH   4   6
ENDBRANCH   3   4
ENDBRANCH   2   3
ENDBRANCH   1   2
BRANCH   1  71
ATOM     71  O   UNL A   1      34.179  21.083  25.535  1.00  0.00    -0.374 OA
BRANCH  71  72
ATOM     72  C   UNL A   1      33.038  20.366  25.077  1.00  0.00     0.202 C 
BRANCH  72  73
ATOM     73  C   UNL A   1      31.991  21.368  24.604  1.00  0.00     0.261 C 
BRANCH  73  74
ATOM     74  O   UNL A   1      32.157  22.578  25.370  1.00  0.00    -0.463 OA
BRANCH  74  75
ATOM     75  C   UNL A   1      31.313  23.592  25.000  1.00  0.00     0.312 C 
ATOM     76  O   UNL A   1      30.767  23.661  23.913  1.00  0.00    -0.252 OA
BRANCH  75  77
ATOM     77  C   UNL A   1      31.217  24.640  26.114  1.00  0.00     0.124 C 
ATOM     78  C   UNL A   1      30.289  25.802  25.883  1.00  0.00    -0.014 C 
ATOM     79  C   UNL A   1      32.558  25.364  26.212  1.00  0.00     0.048 C 
ATOM     80  C   UNL A   1      30.933  26.905  25.481  1.00  0.00    -0.006 C 
ATOM     81  C   UNL A   1      32.385  26.668  25.412  1.00  0.00     0.106 C 
BRANCH  81  82
ATOM     82  N   UNL A   1      32.956  26.644  24.078  1.00  0.00    -0.347 N 
ATOM     83  C   UNL A   1      32.615  26.899  22.791  1.00  0.00     0.261 C 
ATOM     84  H   UNL A   1      33.893  26.345  24.121  1.00  0.00     0.164 HD
ATOM     85  O   UNL A   1      33.471  26.516  21.973  1.00  0.00    -0.271 OA
BRANCH  83  86
ATOM     86  C   UNL A   1      31.360  27.639  22.256  1.00  0.00     0.266 C 
ATOM     87  C   UNL A   1      31.466  29.125  22.678  1.00  0.00     0.095 C 
ATOM     88  O   UNL A   1      30.042  27.173  22.548  1.00  0.00    -0.480 OA
ATOM     89  C   UNL A   1      30.039  29.445  22.898  1.00  0.00    -0.002 A 
ATOM     90  C   UNL A   1      29.296  28.284  22.818  1.00  0.00     0.123 A 
ATOM     91  C   UNL A   1      29.437  30.654  23.196  1.00  0.00     0.008 A 
ATOM     92  C   UNL A   1      27.933  28.271  23.032  1.00  0.00     0.047 A 
ATOM     93  C   UNL A   1      28.056  30.666  23.416  1.00  0.00     0.001 A 
ATOM     94  C   UNL A   1      27.307  29.481  23.336  1.00  0.00     0.004 A 
ENDBRANCH  83  86
ENDBRANCH  81  82
ENDBRANCH  75  77
ENDBRANCH  74  75
ENDBRANCH  73  74
ENDBRANCH  72  73
ENDBRANCH  71  72
ENDBRANCH   1  71
TORSDOF 19
ENDMDL
MODEL 3
REMARK VINA RESULT:     -11.5      2.584      8.209
REMARK SMILES O=C(OCCOCCOC(=O)[C@@H]1C=C[C@H](NC(=O)[C@@H]2Cc3ccccc3O2)C1)c1ccc(-c2c3nc(c(-c4cc(S(=O)(=O)[O-])ccc4F)c4ccc([nH]4)c(-c4cc(S(=O)(=O)[O-])ccc4F)c4nc(c(-c5cc(S(=O)(=O)[O-])ccc5F)c5ccc2[nH]5)C=C4)C=C3)cc1
REMARK SMILES IDX 5 1 4 2 3 3 2 4 1 5 29 6 30 7 91 8 31 9 90 10 32 11 33 12
REMARK SMILES IDX 34 13 84 14 35 15 89 16 83 17 85 18 36 19 88 20 82 21 81 22
REMARK SMILES IDX 37 24 69 25 49 26 68 27 50 28 53 29 67 30 86 31 51 32 52 33
REMARK SMILES IDX 66 35 87 36 54 37 38 38 39 39 47 40 40 41 46 42 48 43 45 44
REMARK SMILES IDX 41 45 42 46 43 47 44 48 70 49 71 50 79 51 72 52 78 53 80 54
REMARK SMILES IDX 77 55 73 56 74 57 75 58 76 59 55 60 56 61 64 62 57 63 63 64
REMARK SMILES IDX 65 65 62 66 58 67 59 68 60 69 61 70 6 71 7 72 8 73 9 74
REMARK SMILES IDX 10 75 11 76 12 77 13 78 28 79 14 80 15 81 16 82 17 83 18 85
REMARK SMILES IDX 19 86 20 87 27 88 21 89 26 90 22 91 25 92 23 93 24 94
REMARK H PARENT 85 23 53 34 16 84
REMARK Flexibility Score: inf
ROOT
ATOM      1  C   UNL A   1      31.859  31.616  26.926  1.00  0.00     0.202 C 
ENDROOT
BRANCH   1   2
ATOM      2  C   UNL A   1      31.965  33.127  26.741  1.00  0.00     0.261 C 
BRANCH   2   3
ATOM      3  O   UNL A   1      32.528  33.728  27.909  1.00  0.00    -0.460 OA
BRANCH   3   4
ATOM      4  C   UNL A   1      33.804  34.183  27.984  1.00  0.00     0.338 C 
ATOM      5  O   UNL A   1      34.084  35.296  27.549  1.00  0.00    -0.246 OA
BRANCH   4   6
ATOM      6  C   UNL A   1      34.853  33.403  28.689  1.00  0.00     0.060 A 
ATOM      7  C   UNL A   1      36.215  33.719  28.659  1.00  0.00     0.016 A 
ATOM      8  C   UNL A   1      34.423  32.346  29.494  1.00  0.00     0.016 A 
ATOM      9  C   UNL A   1      37.148  32.989  29.356  1.00  0.00     0.010 A 
ATOM     10  C   UNL A   1      35.350  31.638  30.255  1.00  0.00     0.010 A 
ATOM     11  C   UNL A   1      36.710  31.972  30.186  1.00  0.00    -0.014 A 
BRANCH  11  12
ATOM     12  C   UNL A   1      37.726  31.211  30.914  1.00  0.00     0.031 A 
ATOM     13  C   UNL A   1      37.948  31.559  32.341  1.00  0.00     0.074 A 
ATOM     14  C   UNL A   1      38.362  30.205  30.294  1.00  0.00     0.049 A 
ATOM     15  N   UNL A   1      38.933  31.240  33.125  1.00  0.00    -0.248 NA
ATOM     16  C   UNL A   1      36.916  32.407  32.959  1.00  0.00     0.031 C 
ATOM     17  C   UNL A   1      38.057  29.716  28.944  1.00  0.00     0.029 A 
ATOM     18  N   UNL A   1      39.396  29.416  30.709  1.00  0.00    -0.354 N 
ATOM     19  C   UNL A   1      38.681  31.905  34.317  1.00  0.00     0.074 A 
ATOM     20  C   UNL A   1      37.448  32.642  34.146  1.00  0.00     0.031 C 
ATOM     21  C   UNL A   1      38.901  28.721  28.638  1.00  0.00     0.029 A 
ATOM     22  C   UNL A   1      39.867  28.586  29.719  1.00  0.00     0.049 A 
ATOM     23  H   UNL A   1      39.766  29.440  31.621  1.00  0.00     0.167 HD
ATOM     24  C   UNL A   1      39.451  31.903  35.430  1.00  0.00     0.034 A 
ATOM     25  C   UNL A   1      41.006  27.874  29.672  1.00  0.00     0.034 A 
ATOM     26  C   UNL A   1      40.679  31.151  35.495  1.00  0.00     0.049 A 
ATOM     27  C   UNL A   1      41.910  27.965  30.873  1.00  0.00     0.074 A 
ATOM     28  C   UNL A   1      41.606  31.082  36.515  1.00  0.00     0.029 A 
ATOM     29  N   UNL A   1      41.155  30.337  34.464  1.00  0.00    -0.354 N 
ATOM     30  N   UNL A   1      41.743  28.666  31.975  1.00  0.00    -0.248 NA
ATOM     31  C   UNL A   1      43.151  27.188  30.833  1.00  0.00     0.031 C 
ATOM     32  C   UNL A   1      42.674  30.293  36.071  1.00  0.00     0.029 A 
ATOM     33  C   UNL A   1      42.372  29.785  34.813  1.00  0.00     0.049 A 
ATOM     34  H   UNL A   1      40.688  30.180  33.612  1.00  0.00     0.167 HD
ATOM     35  C   UNL A   1      42.845  28.395  32.774  1.00  0.00     0.074 A 
ATOM     36  C   UNL A   1      43.671  27.464  32.022  1.00  0.00     0.031 C 
ATOM     37  C   UNL A   1      43.147  28.855  34.017  1.00  0.00     0.034 A 
BRANCH  24  38
ATOM     38  C   UNL A   1      39.032  32.833  36.543  1.00  0.00     0.023 A 
ATOM     39  C   UNL A   1      39.478  34.165  36.608  1.00  0.00     0.031 A 
ATOM     40  C   UNL A   1      38.310  32.331  37.640  1.00  0.00     0.131 A 
ATOM     41  C   UNL A   1      39.319  34.900  37.795  1.00  0.00     0.055 A 
ATOM     42  C   UNL A   1      38.057  33.107  38.774  1.00  0.00     0.041 A 
ATOM     43  F   UNL A   1      37.885  31.058  37.658  1.00  0.00    -0.206 F 
ATOM     44  C   UNL A   1      38.588  34.389  38.869  1.00  0.00     0.022 A 
BRANCH  41  45
ATOM     45  S   UNL A   1      40.283  36.425  37.999  1.00  0.00     0.124 S 
ATOM     46  O   UNL A   1      40.566  36.785  36.611  1.00  0.00    -0.237 OA
ATOM     47  O   UNL A   1      39.351  37.297  38.705  1.00  0.00    -0.237 OA
ATOM     48  O   UNL A   1      41.446  35.996  38.772  1.00  0.00    -0.744 OA
ENDBRANCH  41  45
ENDBRANCH  24  38
BRANCH  25  49
ATOM     49  C   UNL A   1      41.372  27.129  28.434  1.00  0.00     0.023 A 
ATOM     50  C   UNL A   1      41.052  25.774  28.273  1.00  0.00     0.031 A 
ATOM     51  C   UNL A   1      42.025  27.781  27.370  1.00  0.00     0.131 A 
ATOM     52  C   UNL A   1      41.398  25.111  27.083  1.00  0.00     0.055 A 
ATOM     53  C   UNL A   1      42.321  27.133  26.170  1.00  0.00     0.041 A 
ATOM     54  F   UNL A   1      42.355  29.080  27.467  1.00  0.00    -0.206 F 
ATOM     55  C   UNL A   1      42.012  25.785  26.025  1.00  0.00     0.022 A 
BRANCH  52  56
ATOM     56  S   UNL A   1      41.081  23.330  26.955  1.00  0.00     0.124 S 
ATOM     57  O   UNL A   1      39.656  23.303  26.644  1.00  0.00    -0.237 OA
ATOM     58  O   UNL A   1      41.981  22.937  25.877  1.00  0.00    -0.237 OA
ATOM     59  O   UNL A   1      41.439  22.824  28.279  1.00  0.00    -0.744 OA
ENDBRANCH  52  56
ENDBRANCH  25  49
BRANCH  37  60
ATOM     60  C   UNL A   1      44.383  28.292  34.663  1.00  0.00     0.023 A 
ATOM     61  C   UNL A   1      44.355  27.111  35.421  1.00  0.00     0.031 A 
ATOM     62  C   UNL A   1      45.619  28.927  34.451  1.00  0.00     0.131 A 
ATOM     63  C   UNL A   1      45.547  26.613  35.963  1.00  0.00     0.055 A 
ATOM     64  C   UNL A   1      46.808  28.393  34.941  1.00  0.00     0.041 A 
ATOM     65  F   UNL A   1      45.690  30.061  33.734  1.00  0.00    -0.206 F 
ATOM     66  C   UNL A   1      46.775  27.232  35.708  1.00  0.00     0.022 A 
BRANCH  63  67
ATOM     67  S   UNL A   1      45.469  25.172  37.059  1.00  0.00     0.124 S 
ATOM     68  O   UNL A   1      44.989  25.763  38.303  1.00  0.00    -0.237 OA
ATOM     69  O   UNL A   1      44.528  24.299  36.363  1.00  0.00    -0.237 OA
ATOM     70  O   UNL A   1      46.849  24.693  37.092  1.00  0.00    -0.744 OA
ENDBRANCH  63  67
ENDBRANCH  37  60
ENDBRANCH  11  12
ENDBRANCH   4   6
ENDBRANCH   3   4
ENDBRANCH   2   3
ENDBRANCH   1   2
BRANCH   1  71
ATOM     71  O   UNL A   1      32.995  30.871  26.503  1.00  0.00    -0.374 OA
BRANCH  71  72
ATOM     72  C   UNL A   1      33.340  29.723  27.271  1.00  0.00     0.202 C 
BRANCH  72  73
ATOM     73  C   UNL A   1      34.244  28.828  26.430  1.00  0.00     0.261 C 
BRANCH  73  74
ATOM     74  O   UNL A   1      33.413  27.844  25.781  1.00  0.00    -0.463 OA
BRANCH  74  75
ATOM     75  C   UNL A   1      33.139  28.127  24.469  1.00  0.00     0.312 C 
ATOM     76  O   UNL A   1      33.971  28.111  23.580  1.00  0.00    -0.252 OA
BRANCH  75  77
ATOM     77  C   UNL A   1      31.668  28.526  24.307  1.00  0.00     0.124 C 
ATOM     78  C   UNL A   1      30.636  27.468  24.592  1.00  0.00    -0.014 C 
ATOM     79  C   UNL A   1      31.400  28.790  22.827  1.00  0.00     0.048 C 
ATOM     80  C   UNL A   1      30.164  26.894  23.479  1.00  0.00    -0.006 C 
ATOM     81  C   UNL A   1      30.775  27.493  22.281  1.00  0.00     0.106 C 
BRANCH  81  82
ATOM     82  N   UNL A   1      31.689  26.639  21.546  1.00  0.00    -0.347 N 
ATOM     83  C   UNL A   1      32.517  25.583  21.740  1.00  0.00     0.261 C 
ATOM     84  H   UNL A   1      31.718  26.915  20.601  1.00  0.00     0.164 HD
ATOM     85  O   UNL A   1      33.248  25.348  20.760  1.00  0.00    -0.271 OA
BRANCH  83  86
ATOM     86  C   UNL A   1      32.604  24.642  22.971  1.00  0.00     0.266 C 
ATOM     87  C   UNL A   1      34.092  24.535  23.384  1.00  0.00     0.095 C 
ATOM     88  O   UNL A   1      32.041  23.330  22.945  1.00  0.00    -0.480 OA
ATOM     89  C   UNL A   1      34.139  23.137  23.864  1.00  0.00    -0.002 A 
ATOM     90  C   UNL A   1      32.941  22.516  23.569  1.00  0.00     0.123 A 
ATOM     91  C   UNL A   1      35.168  22.441  24.469  1.00  0.00     0.008 A 
ATOM     92  C   UNL A   1      32.715  21.186  23.856  1.00  0.00     0.047 A 
ATOM     93  C   UNL A   1      34.963  21.091  24.772  1.00  0.00     0.001 A 
ATOM     94  C   UNL A   1      33.744  20.465  24.466  1.00  0.00     0.004 A 
ENDBRANCH  83  86
ENDBRANCH  81  82
ENDBRANCH  75  77
ENDBRANCH  74  75
ENDBRANCH  73  74
ENDBRANCH  72  73
ENDBRANCH  71  72
ENDBRANCH   1  71
TORSDOF 19
ENDMDL
