MODEL 1
REMARK VINA RESULT:     -10.7      0.000      0.000
REMARK SMILES O=C(OCCOCCOC(=O)c1cc2sc(Cl)cc2s1)c1ccc(-c2c3nc(c(-c4cc(S(=O)(=O)[O-])ccc4F)c4ccc([nH]4)c(-c4cc(S(=O)(=O)[O-])ccc4F)c4nc(c(-c5cc(S(=O)(=O)[O-])ccc5F)c5ccc2[nH]5)C=C4)C=C3)cc1
REMARK SMILES IDX 4 1 3 2 2 3 1 4 21 5 22 6 83 7 23 8 82 9 24 10 25 11 26 12
REMARK SMILES IDX 76 13 27 14 81 15 75 16 77 17 28 18 80 19 74 20 73 21 29 23
REMARK SMILES IDX 61 24 41 25 60 26 42 27 45 28 59 29 78 30 43 31 44 32 58 34
REMARK SMILES IDX 79 35 46 36 30 37 31 38 39 39 32 40 38 41 40 42 37 43 33 44
REMARK SMILES IDX 34 45 35 46 36 47 62 48 63 49 71 50 64 51 70 52 72 53 69 54
REMARK SMILES IDX 65 55 66 56 67 57 68 58 47 59 48 60 56 61 49 62 55 63 57 64
REMARK SMILES IDX 54 65 50 66 51 67 52 68 53 69 5 70 6 71 7 72 8 73 9 74 10 75
REMARK SMILES IDX 11 76 12 77 13 78 20 79 14 80 19 81 15 82 18 83 16 84 17 85
REMARK H PARENT 77 22 45 33
REMARK Flexibility Score: inf
ROOT
ATOM      1  C   UNL A   1      34.763  34.232  28.133  1.00  0.00     0.261 C 
ENDROOT
BRANCH   1   2
ATOM      2  O   UNL A   1      35.458  33.017  27.785  1.00  0.00    -0.460 OA
BRANCH   2   3
ATOM      3  C   UNL A   1      35.477  31.921  28.576  1.00  0.00     0.338 C 
ATOM      4  O   UNL A   1      34.442  31.428  29.015  1.00  0.00    -0.246 OA
BRANCH   3   5
ATOM      5  C   UNL A   1      36.756  31.166  28.626  1.00  0.00     0.060 A 
ATOM      6  C   UNL A   1      36.893  29.861  28.161  1.00  0.00     0.016 A 
ATOM      7  C   UNL A   1      37.844  31.782  29.270  1.00  0.00     0.016 A 
ATOM      8  C   UNL A   1      38.038  29.140  28.437  1.00  0.00     0.010 A 
ATOM      9  C   UNL A   1      39.005  31.062  29.540  1.00  0.00     0.010 A 
ATOM     10  C   UNL A   1      39.070  29.722  29.173  1.00  0.00    -0.014 A 
BRANCH  10  11
ATOM     11  C   UNL A   1      40.196  28.853  29.488  1.00  0.00     0.031 A 
ATOM     12  C   UNL A   1      40.519  28.735  30.935  1.00  0.00     0.074 A 
ATOM     13  C   UNL A   1      40.917  28.195  28.561  1.00  0.00     0.049 A 
ATOM     14  N   UNL A   1      41.586  29.128  31.550  1.00  0.00    -0.248 NA
ATOM     15  C   UNL A   1      39.466  28.226  31.824  1.00  0.00     0.031 C 
ATOM     16  C   UNL A   1      40.620  28.009  27.142  1.00  0.00     0.029 A 
ATOM     17  N   UNL A   1      42.054  27.468  28.741  1.00  0.00    -0.354 N 
ATOM     18  C   UNL A   1      41.429  28.746  32.881  1.00  0.00     0.074 A 
ATOM     19  C   UNL A   1      40.058  28.325  33.015  1.00  0.00     0.031 C 
ATOM     20  C   UNL A   1      41.422  27.041  26.645  1.00  0.00     0.029 A 
ATOM     21  C   UNL A   1      42.380  26.654  27.667  1.00  0.00     0.049 A 
ATOM     22  H   UNL A   1      42.598  27.518  29.560  1.00  0.00     0.167 HD
ATOM     23  C   UNL A   1      42.489  28.639  33.728  1.00  0.00     0.034 A 
ATOM     24  C   UNL A   1      43.325  25.680  27.643  1.00  0.00     0.034 A 
ATOM     25  C   UNL A   1      43.618  29.407  33.260  1.00  0.00     0.049 A 
ATOM     26  C   UNL A   1      44.316  26.004  28.698  1.00  0.00     0.074 A 
ATOM     27  C   UNL A   1      43.824  30.747  32.989  1.00  0.00     0.029 A 
ATOM     28  N   UNL A   1      44.667  28.749  32.661  1.00  0.00    -0.354 N 
ATOM     29  N   UNL A   1      45.092  27.053  28.660  1.00  0.00    -0.248 NA
ATOM     30  C   UNL A   1      44.139  25.415  30.017  1.00  0.00     0.031 C 
ATOM     31  C   UNL A   1      44.657  30.764  31.833  1.00  0.00     0.029 A 
ATOM     32  C   UNL A   1      44.960  29.439  31.509  1.00  0.00     0.049 A 
ATOM     33  H   UNL A   1      45.119  27.941  32.992  1.00  0.00     0.167 HD
ATOM     34  C   UNL A   1      45.157  27.502  29.970  1.00  0.00     0.074 A 
ATOM     35  C   UNL A   1      44.634  26.400  30.773  1.00  0.00     0.031 C 
ATOM     36  C   UNL A   1      45.376  28.818  30.267  1.00  0.00     0.034 A 
BRANCH  23  37
ATOM     37  C   UNL A   1      42.609  27.597  34.818  1.00  0.00     0.023 A 
ATOM     38  C   UNL A   1      43.334  26.423  34.532  1.00  0.00     0.031 A 
ATOM     39  C   UNL A   1      41.828  27.564  35.996  1.00  0.00     0.131 A 
ATOM     40  C   UNL A   1      43.198  25.276  35.335  1.00  0.00     0.055 A 
ATOM     41  C   UNL A   1      41.751  26.444  36.828  1.00  0.00     0.041 A 
ATOM     42  F   UNL A   1      41.024  28.570  36.359  1.00  0.00    -0.206 F 
ATOM     43  C   UNL A   1      42.412  25.280  36.484  1.00  0.00     0.022 A 
BRANCH  40  44
ATOM     44  S   UNL A   1      43.915  23.718  34.747  1.00  0.00     0.124 S 
ATOM     45  O   UNL A   1      44.833  24.185  33.713  1.00  0.00    -0.237 OA
ATOM     46  O   UNL A   1      44.527  23.192  35.963  1.00  0.00    -0.237 OA
ATOM     47  O   UNL A   1      42.756  22.975  34.259  1.00  0.00    -0.744 OA
ENDBRANCH  40  44
ENDBRANCH  23  37
BRANCH  24  48
ATOM     48  C   UNL A   1      43.181  24.342  27.011  1.00  0.00     0.023 A 
ATOM     49  C   UNL A   1      44.082  23.856  26.043  1.00  0.00     0.031 A 
ATOM     50  C   UNL A   1      42.250  23.415  27.535  1.00  0.00     0.131 A 
ATOM     51  C   UNL A   1      44.023  22.504  25.635  1.00  0.00     0.055 A 
ATOM     52  C   UNL A   1      42.191  22.084  27.122  1.00  0.00     0.041 A 
ATOM     53  F   UNL A   1      41.419  23.751  28.533  1.00  0.00    -0.206 F 
ATOM     54  C   UNL A   1      43.084  21.619  26.172  1.00  0.00     0.022 A 
BRANCH  51  55
ATOM     55  S   UNL A   1      45.243  21.847  24.453  1.00  0.00     0.124 S 
ATOM     56  O   UNL A   1      45.389  22.954  23.513  1.00  0.00    -0.237 OA
ATOM     57  O   UNL A   1      46.390  21.568  25.310  1.00  0.00    -0.237 OA
ATOM     58  O   UNL A   1      44.585  20.660  23.907  1.00  0.00    -0.744 OA
ENDBRANCH  51  55
ENDBRANCH  24  48
BRANCH  36  59
ATOM     59  C   UNL A   1      45.857  29.748  29.172  1.00  0.00     0.023 A 
ATOM     60  C   UNL A   1      45.012  30.494  28.318  1.00  0.00     0.031 A 
ATOM     61  C   UNL A   1      47.240  29.995  29.100  1.00  0.00     0.131 A 
ATOM     62  C   UNL A   1      45.568  31.445  27.437  1.00  0.00     0.055 A 
ATOM     63  C   UNL A   1      47.783  30.949  28.241  1.00  0.00     0.041 A 
ATOM     64  F   UNL A   1      48.091  29.339  29.908  1.00  0.00    -0.206 F 
ATOM     65  C   UNL A   1      46.947  31.677  27.403  1.00  0.00     0.022 A 
BRANCH  62  66
ATOM     66  S   UNL A   1      44.500  32.410  26.319  1.00  0.00     0.124 S 
ATOM     67  O   UNL A   1      45.424  32.900  25.304  1.00  0.00    -0.237 OA
ATOM     68  O   UNL A   1      43.525  31.416  25.875  1.00  0.00    -0.237 OA
ATOM     69  O   UNL A   1      43.947  33.450  27.189  1.00  0.00    -0.744 OA
ENDBRANCH  62  66
ENDBRANCH  36  59
ENDBRANCH  10  11
ENDBRANCH   3   5
ENDBRANCH   2   3
ENDBRANCH   1   2
BRANCH   1  70
ATOM     70  C   UNL A   1      33.269  34.245  27.841  1.00  0.00     0.202 C 
BRANCH  70  71
ATOM     71  O   UNL A   1      32.521  35.196  28.595  1.00  0.00    -0.374 OA
BRANCH  71  72
ATOM     72  C   UNL A   1      33.275  36.297  29.110  1.00  0.00     0.202 C 
BRANCH  72  73
ATOM     73  C   UNL A   1      33.037  36.665  30.581  1.00  0.00     0.261 C 
BRANCH  73  74
ATOM     74  O   UNL A   1      33.393  35.586  31.469  1.00  0.00    -0.459 OA
BRANCH  74  75
ATOM     75  C   UNL A   1      33.792  35.965  32.722  1.00  0.00     0.348 C 
ATOM     76  O   UNL A   1      33.287  36.860  33.371  1.00  0.00    -0.245 OA
BRANCH  75  77
ATOM     77  C   UNL A   1      34.823  35.052  33.194  1.00  0.00     0.114 A 
ATOM     78  C   UNL A   1      35.326  34.867  34.467  1.00  0.00     0.047 A 
ATOM     79  S   UNL A   1      35.589  34.060  32.014  1.00  0.00    -0.127 S 
ATOM     80  C   UNL A   1      36.347  33.865  34.475  1.00  0.00     0.048 A 
ATOM     81  C   UNL A   1      36.633  33.385  33.225  1.00  0.00     0.047 A 
ATOM     82  S   UNL A   1      37.332  33.100  35.702  1.00  0.00    -0.122 S 
ATOM     83  C   UNL A   1      37.709  32.445  33.216  1.00  0.00     0.052 A 
ATOM     84  C   UNL A   1      38.120  32.204  34.498  1.00  0.00     0.095 A 
ATOM     85  Cl  UNL A   1      39.337  31.076  34.959  1.00  0.00    -0.072 Cl
ENDBRANCH  75  77
ENDBRANCH  74  75
ENDBRANCH  73  74
ENDBRANCH  72  73
ENDBRANCH  71  72
ENDBRANCH  70  71
ENDBRANCH   1  70
TORSDOF 17
ENDMDL
MODEL 2
REMARK VINA RESULT:     -10.6      1.904      2.246
REMARK SMILES O=C(OCCOCCOC(=O)c1cc2sc(Cl)cc2s1)c1ccc(-c2c3nc(c(-c4cc(S(=O)(=O)[O-])ccc4F)c4ccc([nH]4)c(-c4cc(S(=O)(=O)[O-])ccc4F)c4nc(c(-c5cc(S(=O)(=O)[O-])ccc5F)c5ccc2[nH]5)C=C4)C=C3)cc1
REMARK SMILES IDX 4 1 3 2 2 3 1 4 21 5 22 6 83 7 23 8 82 9 24 10 25 11 26 12
REMARK SMILES IDX 76 13 27 14 81 15 75 16 77 17 28 18 80 19 74 20 73 21 29 23
REMARK SMILES IDX 61 24 41 25 60 26 42 27 45 28 59 29 78 30 43 31 44 32 58 34
REMARK SMILES IDX 79 35 46 36 30 37 31 38 39 39 32 40 38 41 40 42 37 43 33 44
REMARK SMILES IDX 34 45 35 46 36 47 62 48 63 49 71 50 64 51 70 52 72 53 69 54
REMARK SMILES IDX 65 55 66 56 67 57 68 58 47 59 48 60 56 61 49 62 55 63 57 64
REMARK SMILES IDX 54 65 50 66 51 67 52 68 53 69 5 70 6 71 7 72 8 73 9 74 10 75
REMARK SMILES IDX 11 76 12 77 13 78 20 79 14 80 19 81 15 82 18 83 16 84 17 85
REMARK H PARENT 77 22 45 33
REMARK Flexibility Score: inf
ROOT
ATOM      1  C   UNL A   1      33.515  33.699  28.140  1.00  0.00     0.261 C 
ENDROOT
BRANCH   1   2
ATOM      2  O   UNL A   1      34.727  32.941  28.334  1.00  0.00    -0.460 OA
BRANCH   2   3
ATOM      3  C   UNL A   1      34.792  31.598  28.191  1.00  0.00     0.338 C 
ATOM      4  O   UNL A   1      33.831  30.948  27.790  1.00  0.00    -0.246 OA
BRANCH   3   5
ATOM      5  C   UNL A   1      36.149  30.995  28.235  1.00  0.00     0.060 A 
ATOM      6  C   UNL A   1      36.415  29.679  27.865  1.00  0.00     0.016 A 
ATOM      7  C   UNL A   1      37.186  31.777  28.775  1.00  0.00     0.016 A 
ATOM      8  C   UNL A   1      37.644  29.113  28.138  1.00  0.00     0.010 A 
ATOM      9  C   UNL A   1      38.431  31.214  29.041  1.00  0.00     0.010 A 
ATOM     10  C   UNL A   1      38.633  29.863  28.774  1.00  0.00    -0.014 A 
BRANCH  10  11
ATOM     11  C   UNL A   1      39.862  29.152  29.098  1.00  0.00     0.031 A 
ATOM     12  C   UNL A   1      40.188  29.078  30.547  1.00  0.00     0.074 A 
ATOM     13  C   UNL A   1      40.670  28.595  28.177  1.00  0.00     0.049 A 
ATOM     14  N   UNL A   1      41.189  29.610  31.170  1.00  0.00    -0.248 NA
ATOM     15  C   UNL A   1      39.206  28.434  31.430  1.00  0.00     0.031 C 
ATOM     16  C   UNL A   1      40.411  28.371  26.755  1.00  0.00     0.029 A 
ATOM     17  N   UNL A   1      41.893  28.027  28.365  1.00  0.00    -0.354 N 
ATOM     18  C   UNL A   1      41.074  29.210  32.499  1.00  0.00     0.074 A 
ATOM     19  C   UNL A   1      39.771  28.610  32.624  1.00  0.00     0.031 C 
ATOM     20  C   UNL A   1      41.338  27.518  26.265  1.00  0.00     0.029 A 
ATOM     21  C   UNL A   1      42.332  27.262  27.295  1.00  0.00     0.049 A 
ATOM     22  H   UNL A   1      42.420  28.148  29.188  1.00  0.00     0.167 HD
ATOM     23  C   UNL A   1      42.134  29.245  33.354  1.00  0.00     0.034 A 
ATOM     24  C   UNL A   1      43.399  26.423  27.277  1.00  0.00     0.034 A 
ATOM     25  C   UNL A   1      43.153  30.156  32.893  1.00  0.00     0.049 A 
ATOM     26  C   UNL A   1      44.330  26.876  28.339  1.00  0.00     0.074 A 
ATOM     27  C   UNL A   1      43.181  31.512  32.622  1.00  0.00     0.029 A 
ATOM     28  N   UNL A   1      44.285  29.644  32.301  1.00  0.00    -0.354 N 
ATOM     29  N   UNL A   1      44.959  28.019  28.306  1.00  0.00    -0.248 NA
ATOM     30  C   UNL A   1      44.223  26.269  29.658  1.00  0.00     0.031 C 
ATOM     31  C   UNL A   1      44.013  31.639  31.472  1.00  0.00     0.029 A 
ATOM     32  C   UNL A   1      44.492  30.366  31.151  1.00  0.00     0.049 A 
ATOM     33  H   UNL A   1      44.838  28.903  32.637  1.00  0.00     0.167 HD
ATOM     34  C   UNL A   1      44.955  28.473  29.616  1.00  0.00     0.074 A 
ATOM     35  C   UNL A   1      44.578  27.311  30.416  1.00  0.00     0.031 C 
ATOM     36  C   UNL A   1      44.995  29.806  29.912  1.00  0.00     0.034 A 
BRANCH  23  37
ATOM     37  C   UNL A   1      42.383  28.229  34.446  1.00  0.00     0.023 A 
ATOM     38  C   UNL A   1      43.126  27.077  34.118  1.00  0.00     0.031 A 
ATOM     39  C   UNL A   1      41.705  28.188  35.685  1.00  0.00     0.131 A 
ATOM     40  C   UNL A   1      43.102  25.940  34.947  1.00  0.00     0.055 A 
ATOM     41  C   UNL A   1      41.740  27.082  36.538  1.00  0.00     0.041 A 
ATOM     42  F   UNL A   1      40.895  29.170  36.099  1.00  0.00    -0.206 F 
ATOM     43  C   UNL A   1      42.414  25.936  36.157  1.00  0.00     0.022 A 
BRANCH  40  44
ATOM     44  S   UNL A   1      43.827  24.400  34.324  1.00  0.00     0.124 S 
ATOM     45  O   UNL A   1      44.155  24.760  32.949  1.00  0.00    -0.237 OA
ATOM     46  O   UNL A   1      44.956  24.213  35.230  1.00  0.00    -0.237 OA
ATOM     47  O   UNL A   1      42.742  23.432  34.472  1.00  0.00    -0.744 OA
ENDBRANCH  40  44
ENDBRANCH  23  37
BRANCH  24  48
ATOM     48  C   UNL A   1      43.438  25.078  26.646  1.00  0.00     0.023 A 
ATOM     49  C   UNL A   1      42.636  24.007  27.084  1.00  0.00     0.031 A 
ATOM     50  C   UNL A   1      44.129  24.897  25.424  1.00  0.00     0.131 A 
ATOM     51  C   UNL A   1      42.556  22.821  26.318  1.00  0.00     0.055 A 
ATOM     52  C   UNL A   1      44.053  23.721  24.677  1.00  0.00     0.041 A 
ATOM     53  F   UNL A   1      44.836  25.894  24.869  1.00  0.00    -0.206 F 
ATOM     54  C   UNL A   1      43.259  22.677  25.119  1.00  0.00     0.022 A 
BRANCH  51  55
ATOM     55  S   UNL A   1      41.450  21.468  26.832  1.00  0.00     0.124 S 
ATOM     56  O   UNL A   1      40.824  21.084  25.572  1.00  0.00    -0.237 OA
ATOM     57  O   UNL A   1      42.380  20.507  27.414  1.00  0.00    -0.237 OA
ATOM     58  O   UNL A   1      40.552  22.109  27.794  1.00  0.00    -0.744 OA
ENDBRANCH  51  55
ENDBRANCH  24  48
BRANCH  36  59
ATOM     59  C   UNL A   1      45.356  30.791  28.820  1.00  0.00     0.023 A 
ATOM     60  C   UNL A   1      46.674  31.183  28.489  1.00  0.00     0.031 A 
ATOM     61  C   UNL A   1      44.314  31.234  27.985  1.00  0.00     0.131 A 
ATOM     62  C   UNL A   1      46.902  31.988  27.355  1.00  0.00     0.055 A 
ATOM     63  C   UNL A   1      44.547  32.015  26.854  1.00  0.00     0.041 A 
ATOM     64  F   UNL A   1      43.044  30.870  28.230  1.00  0.00    -0.206 F 
ATOM     65  C   UNL A   1      45.845  32.398  26.536  1.00  0.00     0.022 A 
BRANCH  62  66
ATOM     66  S   UNL A   1      48.591  32.514  26.914  1.00  0.00     0.124 S 
ATOM     67  O   UNL A   1      49.255  31.266  26.561  1.00  0.00    -0.237 OA
ATOM     68  O   UNL A   1      48.356  33.450  25.817  1.00  0.00    -0.237 OA
ATOM     69  O   UNL A   1      49.085  33.138  28.143  1.00  0.00    -0.744 OA
ENDBRANCH  62  66
ENDBRANCH  36  59
ENDBRANCH  10  11
ENDBRANCH   3   5
ENDBRANCH   2   3
ENDBRANCH   1   2
BRANCH   1  70
ATOM     70  C   UNL A   1      33.410  34.991  28.939  1.00  0.00     0.202 C 
BRANCH  70  71
ATOM     71  O   UNL A   1      32.716  34.873  30.178  1.00  0.00    -0.374 OA
BRANCH  71  72
ATOM     72  C   UNL A   1      32.889  35.967  31.082  1.00  0.00     0.202 C 
BRANCH  72  73
ATOM     73  C   UNL A   1      32.747  35.654  32.578  1.00  0.00     0.261 C 
BRANCH  73  74
ATOM     74  O   UNL A   1      33.996  35.229  33.158  1.00  0.00    -0.459 OA
BRANCH  74  75
ATOM     75  C   UNL A   1      34.157  33.874  33.278  1.00  0.00     0.348 C 
ATOM     76  O   UNL A   1      33.332  33.045  32.947  1.00  0.00    -0.245 OA
BRANCH  75  77
ATOM     77  C   UNL A   1      35.507  33.591  33.743  1.00  0.00     0.114 A 
ATOM     78  C   UNL A   1      36.296  34.278  34.644  1.00  0.00     0.047 A 
ATOM     79  S   UNL A   1      36.296  32.221  33.061  1.00  0.00    -0.127 S 
ATOM     80  C   UNL A   1      37.570  33.646  34.798  1.00  0.00     0.048 A 
ATOM     81  C   UNL A   1      37.733  32.567  33.973  1.00  0.00     0.047 A 
ATOM     82  S   UNL A   1      38.985  33.922  35.789  1.00  0.00    -0.122 S 
ATOM     83  C   UNL A   1      39.033  31.982  34.061  1.00  0.00     0.052 A 
ATOM     84  C   UNL A   1      39.757  32.617  35.032  1.00  0.00     0.095 A 
ATOM     85  Cl  UNL A   1      41.349  32.185  35.532  1.00  0.00    -0.072 Cl
ENDBRANCH  75  77
ENDBRANCH  74  75
ENDBRANCH  73  74
ENDBRANCH  72  73
ENDBRANCH  71  72
ENDBRANCH  70  71
ENDBRANCH   1  70
TORSDOF 17
ENDMDL
MODEL 3
REMARK VINA RESULT:     -10.6      3.662      5.673
REMARK SMILES O=C(OCCOCCOC(=O)c1cc2sc(Cl)cc2s1)c1ccc(-c2c3nc(c(-c4cc(S(=O)(=O)[O-])ccc4F)c4ccc([nH]4)c(-c4cc(S(=O)(=O)[O-])ccc4F)c4nc(c(-c5cc(S(=O)(=O)[O-])ccc5F)c5ccc2[nH]5)C=C4)C=C3)cc1
REMARK SMILES IDX 4 1 3 2 2 3 1 4 21 5 22 6 83 7 23 8 82 9 24 10 25 11 26 12
REMARK SMILES IDX 76 13 27 14 81 15 75 16 77 17 28 18 80 19 74 20 73 21 29 23
REMARK SMILES IDX 61 24 41 25 60 26 42 27 45 28 59 29 78 30 43 31 44 32 58 34
REMARK SMILES IDX 79 35 46 36 30 37 31 38 39 39 32 40 38 41 40 42 37 43 33 44
REMARK SMILES IDX 34 45 35 46 36 47 62 48 63 49 71 50 64 51 70 52 72 53 69 54
REMARK SMILES IDX 65 55 66 56 67 57 68 58 47 59 48 60 56 61 49 62 55 63 57 64
REMARK SMILES IDX 54 65 50 66 51 67 52 68 53 69 5 70 6 71 7 72 8 73 9 74 10 75
REMARK SMILES IDX 11 76 12 77 13 78 20 79 14 80 19 81 15 82 18 83 16 84 17 85
REMARK H PARENT 77 22 45 33
REMARK Flexibility Score: inf
ROOT
ATOM      1  C   UNL A   1      32.827  31.126  26.774  1.00  0.00     0.261 C 
ENDROOT
BRANCH   1   2
ATOM      2  O   UNL A   1      33.777  31.085  27.859  1.00  0.00    -0.460 OA
BRANCH   2   3
ATOM      3  C   UNL A   1      34.970  31.720  27.825  1.00  0.00     0.338 C 
ATOM      4  O   UNL A   1      35.053  32.916  27.562  1.00  0.00    -0.246 OA
BRANCH   3   5
ATOM      5  C   UNL A   1      36.121  30.994  28.421  1.00  0.00     0.060 A 
ATOM      6  C   UNL A   1      37.296  31.623  28.826  1.00  0.00     0.016 A 
ATOM      7  C   UNL A   1      36.039  29.591  28.479  1.00  0.00     0.016 A 
ATOM      8  C   UNL A   1      38.406  30.874  29.161  1.00  0.00     0.010 A 
ATOM      9  C   UNL A   1      37.153  28.833  28.829  1.00  0.00     0.010 A 
ATOM     10  C   UNL A   1      38.351  29.481  29.110  1.00  0.00    -0.014 A 
BRANCH  10  11
ATOM     11  C   UNL A   1      39.598  28.784  29.397  1.00  0.00     0.031 A 
ATOM     12  C   UNL A   1      39.981  28.735  30.833  1.00  0.00     0.074 A 
ATOM     13  C   UNL A   1      40.374  28.219  28.453  1.00  0.00     0.049 A 
ATOM     14  N   UNL A   1      41.001  29.284  31.407  1.00  0.00    -0.248 NA
ATOM     15  C   UNL A   1      39.039  28.098  31.763  1.00  0.00     0.031 C 
ATOM     16  C   UNL A   1      40.060  27.970  27.047  1.00  0.00     0.029 A 
ATOM     17  N   UNL A   1      41.608  27.662  28.602  1.00  0.00    -0.354 N 
ATOM     18  C   UNL A   1      40.942  28.904  32.746  1.00  0.00     0.074 A 
ATOM     19  C   UNL A   1      39.649  28.297  32.932  1.00  0.00     0.031 C 
ATOM     20  C   UNL A   1      40.975  27.116  26.533  1.00  0.00     0.029 A 
ATOM     21  C   UNL A   1      42.010  26.884  27.527  1.00  0.00     0.049 A 
ATOM     22  H   UNL A   1      42.165  27.800  29.402  1.00  0.00     0.167 HD
ATOM     23  C   UNL A   1      42.033  28.961  33.558  1.00  0.00     0.034 A 
ATOM     24  C   UNL A   1      43.081  26.051  27.481  1.00  0.00     0.034 A 
ATOM     25  C   UNL A   1      43.027  29.871  33.044  1.00  0.00     0.049 A 
ATOM     26  C   UNL A   1      44.050  26.528  28.499  1.00  0.00     0.074 A 
ATOM     27  C   UNL A   1      43.034  31.223  32.751  1.00  0.00     0.029 A 
ATOM     28  N   UNL A   1      44.138  29.358  32.416  1.00  0.00    -0.354 N 
ATOM     29  N   UNL A   1      44.669  27.675  28.423  1.00  0.00    -0.248 NA
ATOM     30  C   UNL A   1      44.000  25.941  29.830  1.00  0.00     0.031 C 
ATOM     31  C   UNL A   1      43.819  31.338  31.567  1.00  0.00     0.029 A 
ATOM     32  C   UNL A   1      44.294  30.063  31.248  1.00  0.00     0.049 A 
ATOM     33  H   UNL A   1      44.710  28.626  32.741  1.00  0.00     0.167 HD
ATOM     34  C   UNL A   1      44.712  28.150  29.725  1.00  0.00     0.074 A 
ATOM     35  C   UNL A   1      44.375  26.997  30.557  1.00  0.00     0.031 C 
ATOM     36  C   UNL A   1      44.754  29.487  29.999  1.00  0.00     0.034 A 
BRANCH  23  37
ATOM     37  C   UNL A   1      42.333  27.964  34.655  1.00  0.00     0.023 A 
ATOM     38  C   UNL A   1      43.069  26.810  34.316  1.00  0.00     0.031 A 
ATOM     39  C   UNL A   1      41.706  27.940  35.922  1.00  0.00     0.131 A 
ATOM     40  C   UNL A   1      43.084  25.687  35.163  1.00  0.00     0.055 A 
ATOM     41  C   UNL A   1      41.782  26.847  36.790  1.00  0.00     0.041 A 
ATOM     42  F   UNL A   1      40.909  28.924  36.353  1.00  0.00    -0.206 F 
ATOM     43  C   UNL A   1      42.448  25.700  36.400  1.00  0.00     0.022 A 
BRANCH  40  44
ATOM     44  S   UNL A   1      43.793  24.141  34.536  1.00  0.00     0.124 S 
ATOM     45  O   UNL A   1      42.620  23.274  34.491  1.00  0.00    -0.237 OA
ATOM     46  O   UNL A   1      44.335  24.561  33.248  1.00  0.00    -0.237 OA
ATOM     47  O   UNL A   1      44.787  23.790  35.547  1.00  0.00    -0.744 OA
ENDBRANCH  40  44
ENDBRANCH  23  37
BRANCH  24  48
ATOM     48  C   UNL A   1      43.107  24.697  26.870  1.00  0.00     0.023 A 
ATOM     49  C   UNL A   1      44.073  24.308  25.922  1.00  0.00     0.031 A 
ATOM     50  C   UNL A   1      42.286  23.673  27.398  1.00  0.00     0.131 A 
ATOM     51  C   UNL A   1      44.181  22.952  25.535  1.00  0.00     0.055 A 
ATOM     52  C   UNL A   1      42.391  22.339  27.006  1.00  0.00     0.041 A 
ATOM     53  F   UNL A   1      41.406  23.923  28.380  1.00  0.00    -0.206 F 
ATOM     54  C   UNL A   1      43.347  21.970  26.075  1.00  0.00     0.022 A 
BRANCH  51  55
ATOM     55  S   UNL A   1      45.487  22.429  24.379  1.00  0.00     0.124 S 
ATOM     56  O   UNL A   1      44.741  21.640  23.405  1.00  0.00    -0.237 OA
ATOM     57  O   UNL A   1      46.020  23.703  23.911  1.00  0.00    -0.237 OA
ATOM     58  O   UNL A   1      46.401  21.658  25.223  1.00  0.00    -0.744 OA
ENDBRANCH  51  55
ENDBRANCH  24  48
BRANCH  36  59
ATOM     59  C   UNL A   1      45.064  30.458  28.878  1.00  0.00     0.023 A 
ATOM     60  C   UNL A   1      46.356  30.932  28.555  1.00  0.00     0.031 A 
ATOM     61  C   UNL A   1      44.009  30.795  28.010  1.00  0.00     0.131 A 
ATOM     62  C   UNL A   1      46.548  31.712  27.396  1.00  0.00     0.055 A 
ATOM     63  C   UNL A   1      44.207  31.552  26.856  1.00  0.00     0.041 A 
ATOM     64  F   UNL A   1      42.763  30.350  28.248  1.00  0.00    -0.206 F 
ATOM     65  C   UNL A   1      45.480  32.016  26.546  1.00  0.00     0.022 A 
BRANCH  62  66
ATOM     66  S   UNL A   1      48.203  32.343  26.965  1.00  0.00     0.124 S 
ATOM     67  O   UNL A   1      48.649  32.994  28.191  1.00  0.00    -0.237 OA
ATOM     68  O   UNL A   1      48.918  31.125  26.587  1.00  0.00    -0.237 OA
ATOM     69  O   UNL A   1      47.940  33.258  25.853  1.00  0.00    -0.744 OA
ENDBRANCH  62  66
ENDBRANCH  36  59
ENDBRANCH  10  11
ENDBRANCH   3   5
ENDBRANCH   2   3
ENDBRANCH   1   2
BRANCH   1  70
ATOM     70  C   UNL A   1      32.971  30.029  25.728  1.00  0.00     0.202 C 
BRANCH  70  71
ATOM     71  O   UNL A   1      31.946  29.039  25.755  1.00  0.00    -0.374 OA
BRANCH  71  72
ATOM     72  C   UNL A   1      32.198  27.921  26.610  1.00  0.00     0.202 C 
BRANCH  72  73
ATOM     73  C   UNL A   1      31.133  26.816  26.630  1.00  0.00     0.261 C 
BRANCH  73  74
ATOM     74  O   UNL A   1      31.539  25.666  25.860  1.00  0.00    -0.459 OA
BRANCH  74  75
ATOM     75  C   UNL A   1      31.636  24.494  26.561  1.00  0.00     0.348 C 
ATOM     76  O   UNL A   1      30.725  23.976  27.176  1.00  0.00    -0.245 OA
BRANCH  75  77
ATOM     77  C   UNL A   1      32.955  23.915  26.349  1.00  0.00     0.114 A 
ATOM     78  C   UNL A   1      34.171  24.536  26.147  1.00  0.00     0.047 A 
ATOM     79  S   UNL A   1      33.054  22.197  26.294  1.00  0.00    -0.127 S 
ATOM     80  C   UNL A   1      35.215  23.574  25.971  1.00  0.00     0.048 A 
ATOM     81  C   UNL A   1      34.757  22.284  25.969  1.00  0.00     0.047 A 
ATOM     82  S   UNL A   1      36.949  23.644  25.749  1.00  0.00    -0.122 S 
ATOM     83  C   UNL A   1      35.782  21.323  25.710  1.00  0.00     0.052 A 
ATOM     84  C   UNL A   1      36.991  21.954  25.615  1.00  0.00     0.095 A 
ATOM     85  Cl  UNL A   1      38.509  21.172  25.390  1.00  0.00    -0.072 Cl
ENDBRANCH  75  77
ENDBRANCH  74  75
ENDBRANCH  73  74
ENDBRANCH  72  73
ENDBRANCH  71  72
ENDBRANCH  70  71
ENDBRANCH   1  70
TORSDOF 17
ENDMDL
