MODEL 1
REMARK VINA RESULT:     -11.2      0.000      0.000
REMARK SMILES C[C@@H](NC(=O)N1CC[N@@H+]2CCCC[C@H]2C1)C(=O)OCCOCCOC(=O)c1ccc(-c2c3nc(c(-c4cc(S(=O)(=O)[O-])ccc4F)c4ccc([nH]4)c(-c4cc(S(=O)(=O)[O-])ccc4F)c4nc(c(-c5cc(S(=O)(=O)[O-])ccc5F)c5ccc2[nH]5)C=C4)C=C3)cc1
REMARK SMILES IDX 22 1 21 2 20 3 19 4 18 5 16 6 17 7 2 8 1 9 3 10 4 11 5 13
REMARK SMILES IDX 6 14 7 15 15 16 8 17 14 18 9 19 13 20 10 21 12 23 11 24
REMARK SMILES IDX 23 25 24 26 25 27 26 28 27 29 28 30 89 31 29 32 88 33 30 34
REMARK SMILES IDX 31 35 32 36 82 37 33 38 87 39 81 40 83 41 34 42 86 43 80 44
REMARK SMILES IDX 79 45 35 47 67 48 47 49 66 50 48 51 51 52 65 53 84 54 49 55
REMARK SMILES IDX 50 56 64 58 85 59 52 60 36 61 37 62 45 63 38 64 44 65 46 66
REMARK SMILES IDX 43 67 39 68 40 69 41 70 42 71 68 72 69 73 77 74 70 75 76 76
REMARK SMILES IDX 78 77 75 78 71 79 72 80 73 81 74 82 53 83 54 84 62 85 55 86
REMARK SMILES IDX 61 87 63 88 60 89 56 90 57 91 58 92 59 93
REMARK H PARENT 3 12 9 22 83 46 51 57
REMARK Flexibility Score: inf
ROOT
ATOM      1  C   UNL A   1      37.605  20.298  25.033  1.00  0.00     0.202 C 
ENDROOT
BRANCH   1   2
ATOM      2  O   UNL A   1      37.594  21.551  24.378  1.00  0.00    -0.374 OA
BRANCH   2   3
ATOM      3  C   UNL A   1      36.546  22.471  24.620  1.00  0.00     0.202 C 
BRANCH   3   4
ATOM      4  C   UNL A   1      35.244  22.430  23.816  1.00  0.00     0.261 C 
BRANCH   4   5
ATOM      5  O   UNL A   1      33.997  22.531  24.479  1.00  0.00    -0.462 OA
BRANCH   5   6
ATOM      6  C   UNL A   1      33.499  21.374  24.979  1.00  0.00     0.328 C 
ATOM      7  O   UNL A   1      33.532  20.293  24.406  1.00  0.00    -0.250 OA
BRANCH   6   8
ATOM      8  C   UNL A   1      32.797  21.635  26.313  1.00  0.00     0.190 C 
ATOM      9  C   UNL A   1      33.585  22.589  27.226  1.00  0.00     0.043 C 
BRANCH   8  10
ATOM     10  N   UNL A   1      31.369  21.985  26.218  1.00  0.00    -0.325 N 
ATOM     11  C   UNL A   1      30.822  23.206  26.471  1.00  0.00     0.318 C 
ATOM     12  H   UNL A   1      30.751  21.268  25.947  1.00  0.00     0.166 HD
ATOM     13  O   UNL A   1      29.993  23.283  27.375  1.00  0.00    -0.249 OA
BRANCH  11  14
ATOM     14  N   UNL A   1      31.172  24.272  25.681  1.00  0.00    -0.313 N 
ATOM     15  C   UNL A   1      30.807  24.379  24.267  1.00  0.00     0.183 C 
ATOM     16  C   UNL A   1      31.308  25.589  26.306  1.00  0.00     0.186 C 
ATOM     17  C   UNL A   1      31.718  25.337  23.452  1.00  0.00     0.284 C 
ATOM     18  C   UNL A   1      32.420  26.383  25.604  1.00  0.00     0.203 C 
ATOM     19  N   UNL A   1      32.222  26.546  24.143  1.00  0.00    -0.330 N 
ATOM     20  C   UNL A   1      32.605  27.777  26.207  1.00  0.00     0.067 C 
ATOM     21  C   UNL A   1      33.450  27.072  23.519  1.00  0.00     0.262 C 
ATOM     22  H   UNL A   1      31.472  27.228  24.030  1.00  0.00     0.348 HD
ATOM     23  C   UNL A   1      33.899  28.380  25.664  1.00  0.00     0.012 C 
ATOM     24  C   UNL A   1      33.913  28.395  24.138  1.00  0.00     0.062 C 
ENDBRANCH  11  14
ENDBRANCH   8  10
ENDBRANCH   6   8
ENDBRANCH   5   6
ENDBRANCH   4   5
ENDBRANCH   3   4
ENDBRANCH   2   3
ENDBRANCH   1   2
BRANCH   1  25
ATOM     25  C   UNL A   1      38.951  19.584  25.193  1.00  0.00     0.261 C 
BRANCH  25  26
ATOM     26  O   UNL A   1      39.560  19.697  26.494  1.00  0.00    -0.460 OA
BRANCH  26  27
ATOM     27  C   UNL A   1      40.843  20.150  26.492  1.00  0.00     0.338 C 
ATOM     28  O   UNL A   1      41.801  19.584  25.998  1.00  0.00    -0.246 OA
BRANCH  27  29
ATOM     29  C   UNL A   1      40.944  21.521  27.056  1.00  0.00     0.060 A 
ATOM     30  C   UNL A   1      40.173  22.530  26.459  1.00  0.00     0.016 A 
ATOM     31  C   UNL A   1      41.843  21.848  28.075  1.00  0.00     0.016 A 
ATOM     32  C   UNL A   1      40.343  23.866  26.834  1.00  0.00     0.010 A 
ATOM     33  C   UNL A   1      42.017  23.193  28.443  1.00  0.00     0.010 A 
ATOM     34  C   UNL A   1      41.293  24.217  27.803  1.00  0.00    -0.014 A 
BRANCH  34  35
ATOM     35  C   UNL A   1      41.671  25.648  27.983  1.00  0.00     0.031 A 
ATOM     36  C   UNL A   1      42.998  26.111  27.441  1.00  0.00     0.074 A 
ATOM     37  C   UNL A   1      40.853  26.541  28.574  1.00  0.00     0.049 A 
ATOM     38  N   UNL A   1      43.573  27.283  27.529  1.00  0.00    -0.248 NA
ATOM     39  C   UNL A   1      43.778  25.110  26.699  1.00  0.00     0.031 C 
ATOM     40  C   UNL A   1      39.518  26.249  29.086  1.00  0.00     0.029 A 
ATOM     41  N   UNL A   1      41.026  27.880  28.841  1.00  0.00    -0.354 N 
ATOM     42  C   UNL A   1      44.788  27.159  26.864  1.00  0.00     0.074 A 
ATOM     43  C   UNL A   1      44.872  25.790  26.397  1.00  0.00     0.031 C 
ATOM     44  C   UNL A   1      38.986  27.375  29.592  1.00  0.00     0.029 A 
ATOM     45  C   UNL A   1      39.967  28.458  29.506  1.00  0.00     0.049 A 
ATOM     46  H   UNL A   1      41.835  28.379  28.581  1.00  0.00     0.167 HD
ATOM     47  C   UNL A   1      45.748  28.096  26.662  1.00  0.00     0.034 A 
ATOM     48  C   UNL A   1      39.823  29.699  30.022  1.00  0.00     0.034 A 
ATOM     49  C   UNL A   1      45.674  29.450  27.153  1.00  0.00     0.049 A 
ATOM     50  C   UNL A   1      40.960  30.692  29.892  1.00  0.00     0.074 A 
ATOM     51  C   UNL A   1      46.604  30.467  27.020  1.00  0.00     0.029 A 
ATOM     52  N   UNL A   1      44.619  29.975  27.889  1.00  0.00    -0.354 N 
ATOM     53  N   UNL A   1      42.115  30.555  29.283  1.00  0.00    -0.248 NA
ATOM     54  C   UNL A   1      40.777  32.003  30.531  1.00  0.00     0.031 C 
ATOM     55  C   UNL A   1      46.153  31.575  27.744  1.00  0.00     0.029 A 
ATOM     56  C   UNL A   1      44.895  31.286  28.249  1.00  0.00     0.049 A 
ATOM     57  H   UNL A   1      43.796  29.489  28.121  1.00  0.00     0.167 HD
ATOM     58  C   UNL A   1      42.777  31.773  29.438  1.00  0.00     0.074 A 
ATOM     59  C   UNL A   1      41.888  32.636  30.185  1.00  0.00     0.031 C 
ATOM     60  C   UNL A   1      44.007  32.145  28.999  1.00  0.00     0.034 A 
BRANCH  47  61
ATOM     61  C   UNL A   1      46.999  27.654  25.940  1.00  0.00     0.023 A 
ATOM     62  C   UNL A   1      47.217  27.948  24.583  1.00  0.00     0.031 A 
ATOM     63  C   UNL A   1      47.966  26.884  26.611  1.00  0.00     0.131 A 
ATOM     64  C   UNL A   1      48.330  27.409  23.922  1.00  0.00     0.055 A 
ATOM     65  C   UNL A   1      49.117  26.424  25.969  1.00  0.00     0.041 A 
ATOM     66  F   UNL A   1      47.800  26.548  27.899  1.00  0.00    -0.206 F 
ATOM     67  C   UNL A   1      49.296  26.671  24.611  1.00  0.00     0.022 A 
BRANCH  64  68
ATOM     68  S   UNL A   1      48.412  27.544  22.114  1.00  0.00     0.124 S 
ATOM     69  O   UNL A   1      49.573  28.411  21.936  1.00  0.00    -0.237 OA
ATOM     70  O   UNL A   1      48.581  26.155  21.702  1.00  0.00    -0.237 OA
ATOM     71  O   UNL A   1      47.131  28.149  21.759  1.00  0.00    -0.744 OA
ENDBRANCH  64  68
ENDBRANCH  47  61
BRANCH  48  72
ATOM     72  C   UNL A   1      38.590  30.075  30.784  1.00  0.00     0.023 A 
ATOM     73  C   UNL A   1      37.557  30.817  30.187  1.00  0.00     0.031 A 
ATOM     74  C   UNL A   1      38.473  29.778  32.155  1.00  0.00     0.131 A 
ATOM     75  C   UNL A   1      36.485  31.282  30.967  1.00  0.00     0.055 A 
ATOM     76  C   UNL A   1      37.371  30.184  32.910  1.00  0.00     0.041 A 
ATOM     77  F   UNL A   1      39.436  29.088  32.786  1.00  0.00    -0.206 F 
ATOM     78  C   UNL A   1      36.376  30.955  32.320  1.00  0.00     0.022 A 
BRANCH  75  79
ATOM     79  S   UNL A   1      35.285  32.420  30.215  1.00  0.00     0.124 S 
ATOM     80  O   UNL A   1      34.343  32.622  31.310  1.00  0.00    -0.237 OA
ATOM     81  O   UNL A   1      36.125  33.561  29.870  1.00  0.00    -0.237 OA
ATOM     82  O   UNL A   1      34.766  31.663  29.076  1.00  0.00    -0.744 OA
ENDBRANCH  75  79
ENDBRANCH  48  72
BRANCH  60  83
ATOM     83  C   UNL A   1      44.445  33.570  29.261  1.00  0.00     0.023 A 
ATOM     84  C   UNL A   1      44.030  34.642  28.453  1.00  0.00     0.031 A 
ATOM     85  C   UNL A   1      45.291  33.857  30.350  1.00  0.00     0.131 A 
ATOM     86  C   UNL A   1      44.499  35.940  28.714  1.00  0.00     0.055 A 
ATOM     87  C   UNL A   1      45.702  35.157  30.643  1.00  0.00     0.041 A 
ATOM     88  F   UNL A   1      45.725  32.874  31.156  1.00  0.00    -0.206 F 
ATOM     89  C   UNL A   1      45.317  36.207  29.815  1.00  0.00     0.022 A 
BRANCH  86  90
ATOM     90  S   UNL A   1      44.103  37.267  27.541  1.00  0.00     0.124 S 
ATOM     91  O   UNL A   1      45.418  37.600  27.004  1.00  0.00    -0.237 OA
ATOM     92  O   UNL A   1      43.186  36.607  26.619  1.00  0.00    -0.237 OA
ATOM     93  O   UNL A   1      43.498  38.300  28.382  1.00  0.00    -0.744 OA
ENDBRANCH  86  90
ENDBRANCH  60  83
ENDBRANCH  34  35
ENDBRANCH  27  29
ENDBRANCH  26  27
ENDBRANCH  25  26
ENDBRANCH   1  25
TORSDOF 19
ENDMDL
MODEL 2
REMARK VINA RESULT:     -11.0      1.596      8.117
REMARK SMILES C[C@@H](NC(=O)N1CC[N@@H+]2CCCC[C@H]2C1)C(=O)OCCOCCOC(=O)c1ccc(-c2c3nc(c(-c4cc(S(=O)(=O)[O-])ccc4F)c4ccc([nH]4)c(-c4cc(S(=O)(=O)[O-])ccc4F)c4nc(c(-c5cc(S(=O)(=O)[O-])ccc5F)c5ccc2[nH]5)C=C4)C=C3)cc1
REMARK SMILES IDX 22 1 21 2 20 3 19 4 18 5 16 6 17 7 2 8 1 9 3 10 4 11 5 13
REMARK SMILES IDX 6 14 7 15 15 16 8 17 14 18 9 19 13 20 10 21 12 23 11 24
REMARK SMILES IDX 23 25 24 26 25 27 26 28 27 29 28 30 89 31 29 32 88 33 30 34
REMARK SMILES IDX 31 35 32 36 82 37 33 38 87 39 81 40 83 41 34 42 86 43 80 44
REMARK SMILES IDX 79 45 35 47 67 48 47 49 66 50 48 51 51 52 65 53 84 54 49 55
REMARK SMILES IDX 50 56 64 58 85 59 52 60 36 61 37 62 45 63 38 64 44 65 46 66
REMARK SMILES IDX 43 67 39 68 40 69 41 70 42 71 68 72 69 73 77 74 70 75 76 76
REMARK SMILES IDX 78 77 75 78 71 79 72 80 73 81 74 82 53 83 54 84 62 85 55 86
REMARK SMILES IDX 61 87 63 88 60 89 56 90 57 91 58 92 59 93
REMARK H PARENT 3 12 9 22 83 46 51 57
REMARK Flexibility Score: inf
ROOT
ATOM      1  C   UNL A   1      35.783  21.132  24.993  1.00  0.00     0.202 C 
ENDROOT
BRANCH   1   2
ATOM      2  O   UNL A   1      35.314  21.801  26.147  1.00  0.00    -0.374 OA
BRANCH   2   3
ATOM      3  C   UNL A   1      35.379  23.212  26.227  1.00  0.00     0.202 C 
BRANCH   3   4
ATOM      4  C   UNL A   1      34.133  24.083  26.049  1.00  0.00     0.261 C 
BRANCH   4   5
ATOM      5  O   UNL A   1      34.264  25.441  25.671  1.00  0.00    -0.462 OA
BRANCH   5   6
ATOM      6  C   UNL A   1      33.679  25.786  24.497  1.00  0.00     0.328 C 
ATOM      7  O   UNL A   1      34.124  26.608  23.708  1.00  0.00    -0.250 OA
BRANCH   6   8
ATOM      8  C   UNL A   1      32.332  25.076  24.353  1.00  0.00     0.190 C 
ATOM      9  C   UNL A   1      31.144  25.952  24.785  1.00  0.00     0.043 C 
BRANCH   8  10
ATOM     10  N   UNL A   1      32.106  24.406  23.060  1.00  0.00    -0.325 N 
ATOM     11  C   UNL A   1      32.691  23.249  22.642  1.00  0.00     0.318 C 
ATOM     12  H   UNL A   1      31.474  24.835  22.440  1.00  0.00     0.166 HD
ATOM     13  O   UNL A   1      33.384  23.295  21.627  1.00  0.00    -0.249 OA
BRANCH  11  14
ATOM     14  N   UNL A   1      32.441  22.088  23.328  1.00  0.00    -0.313 N 
ATOM     15  C   UNL A   1      31.825  22.055  24.657  1.00  0.00     0.183 C 
ATOM     16  C   UNL A   1      32.143  20.875  22.564  1.00  0.00     0.186 C 
ATOM     17  C   UNL A   1      32.120  20.757  25.455  1.00  0.00     0.284 C 
ATOM     18  C   UNL A   1      32.704  19.648  23.300  1.00  0.00     0.203 C 
ATOM     19  N   UNL A   1      32.207  19.493  24.689  1.00  0.00    -0.330 N 
ATOM     20  C   UNL A   1      32.415  18.343  22.554  1.00  0.00     0.067 C 
ATOM     21  C   UNL A   1      32.993  18.465  25.398  1.00  0.00     0.262 C 
ATOM     22  H   UNL A   1      31.240  19.180  24.614  1.00  0.00     0.348 HD
ATOM     23  C   UNL A   1      33.242  17.224  23.182  1.00  0.00     0.012 C 
ATOM     24  C   UNL A   1      32.985  17.111  24.681  1.00  0.00     0.062 C 
ENDBRANCH  11  14
ENDBRANCH   8  10
ENDBRANCH   6   8
ENDBRANCH   5   6
ENDBRANCH   4   5
ENDBRANCH   3   4
ENDBRANCH   2   3
ENDBRANCH   1   2
BRANCH   1  25
ATOM     25  C   UNL A   1      37.244  20.669  24.977  1.00  0.00     0.261 C 
BRANCH  25  26
ATOM     26  O   UNL A   1      38.225  21.712  25.141  1.00  0.00    -0.460 OA
BRANCH  26  27
ATOM     27  C   UNL A   1      39.220  21.433  26.025  1.00  0.00     0.338 C 
ATOM     28  O   UNL A   1      39.775  20.357  26.162  1.00  0.00    -0.246 OA
BRANCH  27  29
ATOM     29  C   UNL A   1      39.675  22.651  26.745  1.00  0.00     0.060 A 
ATOM     30  C   UNL A   1      39.066  23.870  26.413  1.00  0.00     0.016 A 
ATOM     31  C   UNL A   1      40.741  22.632  27.649  1.00  0.00     0.016 A 
ATOM     32  C   UNL A   1      39.558  25.072  26.932  1.00  0.00     0.010 A 
ATOM     33  C   UNL A   1      41.238  23.843  28.162  1.00  0.00     0.010 A 
ATOM     34  C   UNL A   1      40.672  25.075  27.782  1.00  0.00    -0.014 A 
BRANCH  34  35
ATOM     35  C   UNL A   1      41.362  26.361  28.091  1.00  0.00     0.031 A 
ATOM     36  C   UNL A   1      40.587  27.431  28.816  1.00  0.00     0.074 A 
ATOM     37  C   UNL A   1      42.655  26.578  27.784  1.00  0.00     0.049 A 
ATOM     38  N   UNL A   1      40.945  28.647  29.138  1.00  0.00    -0.248 NA
ATOM     39  C   UNL A   1      39.222  27.073  29.229  1.00  0.00     0.031 C 
ATOM     40  C   UNL A   1      43.541  25.611  27.143  1.00  0.00     0.029 A 
ATOM     41  N   UNL A   1      43.451  27.685  27.973  1.00  0.00    -0.354 N 
ATOM     42  C   UNL A   1      39.846  29.206  29.783  1.00  0.00     0.074 A 
ATOM     43  C   UNL A   1      38.805  28.199  29.785  1.00  0.00     0.031 C 
ATOM     44  C   UNL A   1      44.761  26.159  27.005  1.00  0.00     0.029 A 
ATOM     45  C   UNL A   1      44.730  27.543  27.482  1.00  0.00     0.049 A 
ATOM     46  H   UNL A   1      43.134  28.505  28.418  1.00  0.00     0.167 HD
ATOM     47  C   UNL A   1      39.714  30.444  30.321  1.00  0.00     0.034 A 
ATOM     48  C   UNL A   1      45.742  28.434  27.389  1.00  0.00     0.034 A 
ATOM     49  C   UNL A   1      40.744  31.455  30.291  1.00  0.00     0.049 A 
ATOM     50  C   UNL A   1      45.529  29.850  27.885  1.00  0.00     0.074 A 
ATOM     51  C   UNL A   1      40.697  32.746  30.789  1.00  0.00     0.029 A 
ATOM     52  N   UNL A   1      41.999  31.298  29.717  1.00  0.00    -0.354 N 
ATOM     53  N   UNL A   1      44.477  30.375  28.471  1.00  0.00    -0.248 NA
ATOM     54  C   UNL A   1      46.638  30.796  27.696  1.00  0.00     0.031 C 
ATOM     55  C   UNL A   1      41.888  33.394  30.442  1.00  0.00     0.029 A 
ATOM     56  C   UNL A   1      42.718  32.480  29.813  1.00  0.00     0.049 A 
ATOM     57  H   UNL A   1      42.330  30.469  29.302  1.00  0.00     0.167 HD
ATOM     58  C   UNL A   1      44.814  31.700  28.749  1.00  0.00     0.074 A 
ATOM     59  C   UNL A   1      46.169  31.890  28.280  1.00  0.00     0.031 C 
ATOM     60  C   UNL A   1      44.071  32.669  29.341  1.00  0.00     0.034 A 
BRANCH  47  61
ATOM     61  C   UNL A   1      38.372  30.794  30.918  1.00  0.00     0.023 A 
ATOM     62  C   UNL A   1      37.352  31.388  30.154  1.00  0.00     0.031 A 
ATOM     63  C   UNL A   1      38.127  30.573  32.285  1.00  0.00     0.131 A 
ATOM     64  C   UNL A   1      36.169  31.812  30.779  1.00  0.00     0.055 A 
ATOM     65  C   UNL A   1      36.913  30.917  32.882  1.00  0.00     0.041 A 
ATOM     66  F   UNL A   1      39.072  30.033  33.070  1.00  0.00    -0.206 F 
ATOM     67  C   UNL A   1      35.932  31.557  32.131  1.00  0.00     0.022 A 
BRANCH  64  68
ATOM     68  S   UNL A   1      35.019  32.851  29.836  1.00  0.00     0.124 S 
ATOM     69  O   UNL A   1      35.920  33.852  29.272  1.00  0.00    -0.237 OA
ATOM     70  O   UNL A   1      34.443  31.903  28.889  1.00  0.00    -0.237 OA
ATOM     71  O   UNL A   1      34.099  33.354  30.854  1.00  0.00    -0.744 OA
ENDBRANCH  64  68
ENDBRANCH  47  61
BRANCH  48  72
ATOM     72  C   UNL A   1      47.035  28.062  26.733  1.00  0.00     0.023 A 
ATOM     73  C   UNL A   1      47.189  28.108  25.337  1.00  0.00     0.031 A 
ATOM     74  C   UNL A   1      48.109  27.560  27.492  1.00  0.00     0.131 A 
ATOM     75  C   UNL A   1      48.362  27.611  24.743  1.00  0.00     0.055 A 
ATOM     76  C   UNL A   1      49.299  27.131  26.901  1.00  0.00     0.041 A 
ATOM     77  F   UNL A   1      48.015  27.475  28.828  1.00  0.00    -0.206 F 
ATOM     78  C   UNL A   1      49.424  27.140  25.517  1.00  0.00     0.022 A 
BRANCH  75  79
ATOM     79  S   UNL A   1      48.438  27.483  22.933  1.00  0.00     0.124 S 
ATOM     80  O   UNL A   1      49.730  28.094  22.647  1.00  0.00    -0.237 OA
ATOM     81  O   UNL A   1      48.349  26.041  22.728  1.00  0.00    -0.237 OA
ATOM     82  O   UNL A   1      47.273  28.246  22.488  1.00  0.00    -0.744 OA
ENDBRANCH  75  79
ENDBRANCH  48  72
BRANCH  60  83
ATOM     83  C   UNL A   1      44.727  34.013  29.574  1.00  0.00     0.023 A 
ATOM     84  C   UNL A   1      44.724  35.027  28.600  1.00  0.00     0.031 A 
ATOM     85  C   UNL A   1      45.363  34.282  30.801  1.00  0.00     0.131 A 
ATOM     86  C   UNL A   1      45.384  36.241  28.851  1.00  0.00     0.055 A 
ATOM     87  C   UNL A   1      45.962  35.513  31.068  1.00  0.00     0.041 A 
ATOM     88  F   UNL A   1      45.403  33.351  31.768  1.00  0.00    -0.206 F 
ATOM     89  C   UNL A   1      45.986  36.498  30.085  1.00  0.00     0.022 A 
BRANCH  86  90
ATOM     90  S   UNL A   1      45.529  37.453  27.507  1.00  0.00     0.124 S 
ATOM     91  O   UNL A   1      46.408  38.456  28.097  1.00  0.00    -0.237 OA
ATOM     92  O   UNL A   1      46.103  36.656  26.428  1.00  0.00    -0.237 OA
ATOM     93  O   UNL A   1      44.151  37.889  27.287  1.00  0.00    -0.744 OA
ENDBRANCH  86  90
ENDBRANCH  60  83
ENDBRANCH  34  35
ENDBRANCH  27  29
ENDBRANCH  26  27
ENDBRANCH  25  26
ENDBRANCH   1  25
TORSDOF 19
ENDMDL
MODEL 3
REMARK VINA RESULT:     -11.0      1.244      7.661
REMARK SMILES C[C@@H](NC(=O)N1CC[N@@H+]2CCCC[C@H]2C1)C(=O)OCCOCCOC(=O)c1ccc(-c2c3nc(c(-c4cc(S(=O)(=O)[O-])ccc4F)c4ccc([nH]4)c(-c4cc(S(=O)(=O)[O-])ccc4F)c4nc(c(-c5cc(S(=O)(=O)[O-])ccc5F)c5ccc2[nH]5)C=C4)C=C3)cc1
REMARK SMILES IDX 22 1 21 2 20 3 19 4 18 5 16 6 17 7 2 8 1 9 3 10 4 11 5 13
REMARK SMILES IDX 6 14 7 15 15 16 8 17 14 18 9 19 13 20 10 21 12 23 11 24
REMARK SMILES IDX 23 25 24 26 25 27 26 28 27 29 28 30 89 31 29 32 88 33 30 34
REMARK SMILES IDX 31 35 32 36 82 37 33 38 87 39 81 40 83 41 34 42 86 43 80 44
REMARK SMILES IDX 79 45 35 47 67 48 47 49 66 50 48 51 51 52 65 53 84 54 49 55
REMARK SMILES IDX 50 56 64 58 85 59 52 60 36 61 37 62 45 63 38 64 44 65 46 66
REMARK SMILES IDX 43 67 39 68 40 69 41 70 42 71 68 72 69 73 77 74 70 75 76 76
REMARK SMILES IDX 78 77 75 78 71 79 72 80 73 81 74 82 53 83 54 84 62 85 55 86
REMARK SMILES IDX 61 87 63 88 60 89 56 90 57 91 58 92 59 93
REMARK H PARENT 3 12 9 22 83 46 51 57
REMARK Flexibility Score: inf
ROOT
ATOM      1  C   UNL A   1      36.404  19.566  24.525  1.00  0.00     0.202 C 
ENDROOT
BRANCH   1   2
ATOM      2  O   UNL A   1      35.495  18.599  25.012  1.00  0.00    -0.374 OA
BRANCH   2   3
ATOM      3  C   UNL A   1      34.226  18.446  24.405  1.00  0.00     0.202 C 
BRANCH   3   4
ATOM      4  C   UNL A   1      32.933  18.520  25.222  1.00  0.00     0.261 C 
BRANCH   4   5
ATOM      5  O   UNL A   1      32.153  19.702  25.210  1.00  0.00    -0.462 OA
BRANCH   5   6
ATOM      6  C   UNL A   1      32.746  20.805  25.731  1.00  0.00     0.328 C 
ATOM      7  O   UNL A   1      33.496  20.806  26.697  1.00  0.00    -0.250 OA
BRANCH   6   8
ATOM      8  C   UNL A   1      32.258  22.058  25.001  1.00  0.00     0.190 C 
ATOM      9  C   UNL A   1      32.349  21.933  23.471  1.00  0.00     0.043 C 
BRANCH   8  10
ATOM     10  N   UNL A   1      30.960  22.588  25.454  1.00  0.00    -0.325 N 
ATOM     11  C   UNL A   1      30.768  23.693  26.225  1.00  0.00     0.318 C 
ATOM     12  H   UNL A   1      30.155  22.095  25.174  1.00  0.00     0.166 HD
ATOM     13  O   UNL A   1      30.220  23.540  27.315  1.00  0.00    -0.249 OA
BRANCH  11  14
ATOM     14  N   UNL A   1      31.139  24.921  25.738  1.00  0.00    -0.313 N 
ATOM     15  C   UNL A   1      32.425  25.553  26.045  1.00  0.00     0.183 C 
ATOM     16  C   UNL A   1      30.632  25.336  24.429  1.00  0.00     0.186 C 
ATOM     17  C   UNL A   1      32.428  27.094  25.863  1.00  0.00     0.284 C 
ATOM     18  C   UNL A   1      30.411  26.857  24.417  1.00  0.00     0.203 C 
ATOM     19  N   UNL A   1      31.619  27.649  24.755  1.00  0.00    -0.330 N 
ATOM     20  C   UNL A   1      29.889  27.355  23.068  1.00  0.00     0.067 C 
ATOM     21  C   UNL A   1      31.253  29.060  24.984  1.00  0.00     0.262 C 
ATOM     22  H   UNL A   1      32.234  27.592  23.944  1.00  0.00     0.348 HD
ATOM     23  C   UNL A   1      29.422  28.800  23.225  1.00  0.00     0.012 C 
ATOM     24  C   UNL A   1      30.527  29.688  23.789  1.00  0.00     0.062 C 
ENDBRANCH  11  14
ENDBRANCH   8  10
ENDBRANCH   6   8
ENDBRANCH   5   6
ENDBRANCH   4   5
ENDBRANCH   3   4
ENDBRANCH   2   3
ENDBRANCH   1   2
BRANCH   1  25
ATOM     25  C   UNL A   1      36.679  20.795  25.398  1.00  0.00     0.261 C 
BRANCH  25  26
ATOM     26  O   UNL A   1      37.863  21.543  25.056  1.00  0.00    -0.460 OA
BRANCH  26  27
ATOM     27  C   UNL A   1      38.956  21.272  25.821  1.00  0.00     0.338 C 
ATOM     28  O   UNL A   1      39.562  20.216  25.855  1.00  0.00    -0.246 OA
BRANCH  27  29
ATOM     29  C   UNL A   1      39.438  22.480  26.539  1.00  0.00     0.060 A 
ATOM     30  C   UNL A   1      38.922  23.723  26.144  1.00  0.00     0.016 A 
ATOM     31  C   UNL A   1      40.445  22.424  27.507  1.00  0.00     0.016 A 
ATOM     32  C   UNL A   1      39.451  24.908  26.665  1.00  0.00     0.010 A 
ATOM     33  C   UNL A   1      40.980  23.617  28.022  1.00  0.00     0.010 A 
ATOM     34  C   UNL A   1      40.511  24.869  27.581  1.00  0.00    -0.014 A 
BRANCH  34  35
ATOM     35  C   UNL A   1      41.255  26.121  27.904  1.00  0.00     0.031 A 
ATOM     36  C   UNL A   1      40.536  27.203  28.666  1.00  0.00     0.074 A 
ATOM     37  C   UNL A   1      42.550  26.296  27.574  1.00  0.00     0.049 A 
ATOM     38  N   UNL A   1      40.946  28.398  29.006  1.00  0.00    -0.248 NA
ATOM     39  C   UNL A   1      39.167  26.888  29.099  1.00  0.00     0.031 C 
ATOM     40  C   UNL A   1      43.386  25.311  26.896  1.00  0.00     0.029 A 
ATOM     41  N   UNL A   1      43.390  27.368  27.770  1.00  0.00    -0.354 N 
ATOM     42  C   UNL A   1      39.883  28.984  29.685  1.00  0.00     0.074 A 
ATOM     43  C   UNL A   1      38.804  28.017  29.688  1.00  0.00     0.031 C 
ATOM     44  C   UNL A   1      44.622  25.816  26.744  1.00  0.00     0.029 A 
ATOM     45  C   UNL A   1      44.653  27.189  27.250  1.00  0.00     0.049 A 
ATOM     46  H   UNL A   1      43.113  28.189  28.238  1.00  0.00     0.167 HD
ATOM     47  C   UNL A   1      39.808  30.214  30.252  1.00  0.00     0.034 A 
ATOM     48  C   UNL A   1      45.696  28.043  27.155  1.00  0.00     0.034 A 
ATOM     49  C   UNL A   1      40.875  31.185  30.222  1.00  0.00     0.049 A 
ATOM     50  C   UNL A   1      45.547  29.455  27.685  1.00  0.00     0.074 A 
ATOM     51  C   UNL A   1      40.888  32.466  30.748  1.00  0.00     0.029 A 
ATOM     52  N   UNL A   1      42.112  30.994  29.619  1.00  0.00    -0.354 N 
ATOM     53  N   UNL A   1      44.528  30.006  28.303  1.00  0.00    -0.248 NA
ATOM     54  C   UNL A   1      46.688  30.363  27.494  1.00  0.00     0.031 C 
ATOM     55  C   UNL A   1      42.095  33.077  30.391  1.00  0.00     0.029 A 
ATOM     56  C   UNL A   1      42.877  32.146  29.726  1.00  0.00     0.049 A 
ATOM     57  H   UNL A   1      42.403  30.163  29.181  1.00  0.00     0.167 HD
ATOM     58  C   UNL A   1      44.920  31.311  28.602  1.00  0.00     0.074 A 
ATOM     59  C   UNL A   1      46.273  31.460  28.110  1.00  0.00     0.031 C 
ATOM     60  C   UNL A   1      44.226  32.295  29.230  1.00  0.00     0.034 A 
BRANCH  47  61
ATOM     61  C   UNL A   1      38.492  30.601  30.884  1.00  0.00     0.023 A 
ATOM     62  C   UNL A   1      37.466  31.213  30.144  1.00  0.00     0.031 A 
ATOM     63  C   UNL A   1      38.282  30.397  32.259  1.00  0.00     0.131 A 
ATOM     64  C   UNL A   1      36.312  31.670  30.797  1.00  0.00     0.055 A 
ATOM     65  C   UNL A   1      37.094  30.776  32.887  1.00  0.00     0.041 A 
ATOM     66  F   UNL A   1      39.236  29.842  33.022  1.00  0.00    -0.206 F 
ATOM     67  C   UNL A   1      36.107  31.433  32.159  1.00  0.00     0.022 A 
BRANCH  64  68
ATOM     68  S   UNL A   1      35.159  32.728  29.878  1.00  0.00     0.124 S 
ATOM     69  O   UNL A   1      34.658  31.805  28.863  1.00  0.00    -0.237 OA
ATOM     70  O   UNL A   1      34.206  33.124  30.908  1.00  0.00    -0.237 OA
ATOM     71  O   UNL A   1      36.011  33.800  29.370  1.00  0.00    -0.744 OA
ENDBRANCH  64  68
ENDBRANCH  47  61
BRANCH  48  72
ATOM     72  C   UNL A   1      46.961  27.637  26.465  1.00  0.00     0.023 A 
ATOM     73  C   UNL A   1      47.172  27.906  25.102  1.00  0.00     0.031 A 
ATOM     74  C   UNL A   1      47.940  26.884  27.141  1.00  0.00     0.131 A 
ATOM     75  C   UNL A   1      48.301  27.382  24.449  1.00  0.00     0.055 A 
ATOM     76  C   UNL A   1      49.093  26.424  26.503  1.00  0.00     0.041 A 
ATOM     77  F   UNL A   1      47.787  26.580  28.439  1.00  0.00    -0.206 F 
ATOM     78  C   UNL A   1      49.271  26.658  25.144  1.00  0.00     0.022 A 
BRANCH  75  79
ATOM     79  S   UNL A   1      48.429  27.562  22.646  1.00  0.00     0.124 S 
ATOM     80  O   UNL A   1      48.478  26.171  22.213  1.00  0.00    -0.237 OA
ATOM     81  O   UNL A   1      47.207  28.293  22.327  1.00  0.00    -0.237 OA
ATOM     82  O   UNL A   1      49.668  28.316  22.467  1.00  0.00    -0.744 OA
ENDBRANCH  75  79
ENDBRANCH  48  72
BRANCH  60  83
ATOM     83  C   UNL A   1      44.938  33.607  29.477  1.00  0.00     0.023 A 
ATOM     84  C   UNL A   1      44.914  34.660  28.546  1.00  0.00     0.031 A 
ATOM     85  C   UNL A   1      45.648  33.807  30.677  1.00  0.00     0.131 A 
ATOM     86  C   UNL A   1      45.627  35.842  28.806  1.00  0.00     0.055 A 
ATOM     87  C   UNL A   1      46.301  35.007  30.957  1.00  0.00     0.041 A 
ATOM     88  F   UNL A   1      45.711  32.836  31.603  1.00  0.00    -0.206 F 
ATOM     89  C   UNL A   1      46.303  36.030  30.014  1.00  0.00     0.022 A 
BRANCH  86  90
ATOM     90  S   UNL A   1      45.737  37.102  27.504  1.00  0.00     0.124 S 
ATOM     91  O   UNL A   1      46.780  36.557  26.642  1.00  0.00    -0.237 OA
ATOM     92  O   UNL A   1      44.387  37.101  26.952  1.00  0.00    -0.237 OA
ATOM     93  O   UNL A   1      46.106  38.316  28.231  1.00  0.00    -0.744 OA
ENDBRANCH  86  90
ENDBRANCH  60  83
ENDBRANCH  34  35
ENDBRANCH  27  29
ENDBRANCH  26  27
ENDBRANCH  25  26
ENDBRANCH   1  25
TORSDOF 19
ENDMDL
