MODEL 1
REMARK VINA RESULT:     -11.4      0.000      0.000
REMARK SMILES C[C@H]1c2ccc(O)cc2OC(=O)[C@@H]1CC(=O)N[C@@H](CC1=c2ccccc2=NC1)C(=O)OCCOCCOC(=O)c1ccc(-c2c3nc(c(-c4cc(S(=O)(=O)[O-])ccc4F)c4ccc([nH]4)c(-c4cc(S(=O)(=O)[O-])ccc4F)c4nc(c(-c5cc(S(=O)(=O)[O-])ccc5F)c5ccc2[nH]5)C=C4)C=C3)cc1
REMARK SMILES IDX 33 1 32 2 31 3 29 4 30 5 18 6 17 7 15 8 16 9 14 11 13 12
REMARK SMILES IDX 1 13 2 14 3 15 4 16 9 17 11 18 5 19 8 20 10 21 12 22 6 23
REMARK SMILES IDX 7 24 19 26 20 27 21 28 28 29 22 30 26 31 27 32 23 33 25 34
REMARK SMILES IDX 24 35 34 36 35 37 36 38 37 39 38 40 39 41 40 42 41 43 102 44
REMARK SMILES IDX 42 45 101 46 43 47 44 48 45 49 95 50 46 51 100 52 94 53
REMARK SMILES IDX 96 54 47 55 99 56 93 57 92 58 48 60 80 61 60 62 79 63 61 64
REMARK SMILES IDX 64 65 78 66 97 67 62 68 63 69 77 71 98 72 65 73 49 74 50 75
REMARK SMILES IDX 58 76 51 77 57 78 59 79 56 80 52 81 53 82 54 83 55 84 81 85
REMARK SMILES IDX 82 86 90 87 83 88 89 89 91 90 88 91 84 92 85 93 86 94 87 95
REMARK SMILES IDX 66 96 67 97 75 98 68 99 74 100 76 101 73 102 69 103 70 104
REMARK SMILES IDX 71 105 72 106
REMARK H PARENT 17 10 7 25 96 59 64 70
REMARK Flexibility Score: inf
ROOT
ATOM      1  C   UNL A   1      37.492  22.136  25.513  1.00  0.00     0.202 C 
ENDROOT
BRANCH   1   2
ATOM      2  C   UNL A   1      37.017  23.473  24.937  1.00  0.00     0.261 C 
BRANCH   2   3
ATOM      3  O   UNL A   1      35.956  23.316  23.985  1.00  0.00    -0.462 OA
BRANCH   3   4
ATOM      4  C   UNL A   1      34.894  24.126  24.209  1.00  0.00     0.329 C 
ATOM      5  O   UNL A   1      34.780  24.893  25.161  1.00  0.00    -0.250 OA
BRANCH   4   6
ATOM      6  C   UNL A   1      33.801  24.017  23.154  1.00  0.00     0.196 C 
BRANCH   6   7
ATOM      7  N   UNL A   1      33.878  24.637  21.822  1.00  0.00    -0.342 N 
ATOM      8  C   UNL A   1      33.094  25.643  21.318  1.00  0.00     0.221 C 
ATOM      9  O   UNL A   1      32.973  25.754  20.098  1.00  0.00    -0.275 OA
ATOM     10  H   UNL A   1      34.576  24.288  21.221  1.00  0.00     0.164 HD
BRANCH   8  11
ATOM     11  C   UNL A   1      32.501  26.702  22.246  1.00  0.00     0.116 C 
BRANCH  11  12
ATOM     12  C   UNL A   1      30.991  26.627  22.573  1.00  0.00     0.116 C 
ATOM     13  C   UNL A   1      28.906  27.905  23.357  1.00  0.00     0.014 C 
ATOM     14  C   UNL A   1      30.429  27.952  23.159  1.00  0.00     0.034 C 
ATOM     15  C   UNL A   1      31.110  28.218  24.482  1.00  0.00    -0.001 A 
ATOM     16  C   UNL A   1      31.335  29.508  24.967  1.00  0.00     0.011 A 
ATOM     17  C   UNL A   1      31.567  27.131  25.235  1.00  0.00     0.138 A 
ATOM     18  C   UNL A   1      30.667  25.592  23.620  1.00  0.00     0.315 C 
ATOM     19  C   UNL A   1      32.067  29.693  26.146  1.00  0.00     0.047 A 
ATOM     20  C   UNL A   1      32.332  27.298  26.382  1.00  0.00     0.093 A 
ATOM     21  O   UNL A   1      31.234  25.817  24.867  1.00  0.00    -0.426 OA
ATOM     22  O   UNL A   1      29.955  24.619  23.403  1.00  0.00    -0.251 OA
ATOM     23  C   UNL A   1      32.582  28.589  26.825  1.00  0.00     0.119 A 
BRANCH  23  24
ATOM     24  O   UNL A   1      33.335  28.735  27.952  1.00  0.00    -0.508 OA
ATOM     25  H   UNL A   1      33.302  29.536  28.437  1.00  0.00     0.293 HD
ENDBRANCH  23  24
ENDBRANCH  11  12
ENDBRANCH   8  11
ENDBRANCH   6   7
BRANCH   6  26
ATOM     26  C   UNL A   1      33.416  22.530  23.057  1.00  0.00     0.070 C 
BRANCH  26  27
ATOM     27  C   UNL A   1      32.570  21.865  24.150  1.00  0.00    -0.037 C 
ATOM     28  C   UNL A   1      32.655  22.296  25.416  1.00  0.00     0.001 A 
ATOM     29  C   UNL A   1      32.898  20.379  24.168  1.00  0.00     0.174 C 
ATOM     30  C   UNL A   1      31.647  22.767  26.330  1.00  0.00     0.010 A 
ATOM     31  C   UNL A   1      33.581  21.288  25.997  1.00  0.00     0.065 A 
ATOM     32  N   UNL A   1      33.817  20.212  25.317  1.00  0.00    -0.280 NA
ATOM     33  C   UNL A   1      31.967  22.779  27.638  1.00  0.00     0.001 A 
ATOM     34  C   UNL A   1      34.114  21.656  27.322  1.00  0.00     0.028 A 
ATOM     35  C   UNL A   1      33.304  22.411  28.086  1.00  0.00     0.002 A 
ENDBRANCH  26  27
ENDBRANCH   6  26
ENDBRANCH   4   6
ENDBRANCH   3   4
ENDBRANCH   2   3
ENDBRANCH   1   2
BRANCH   1  36
ATOM     36  O   UNL A   1      37.924  21.137  24.594  1.00  0.00    -0.374 OA
BRANCH  36  37
ATOM     37  C   UNL A   1      37.808  19.764  24.965  1.00  0.00     0.202 C 
BRANCH  37  38
ATOM     38  C   UNL A   1      38.888  19.131  25.857  1.00  0.00     0.261 C 
BRANCH  38  39
ATOM     39  O   UNL A   1      40.235  19.387  25.413  1.00  0.00    -0.460 OA
BRANCH  39  40
ATOM     40  C   UNL A   1      41.145  19.549  26.410  1.00  0.00     0.338 C 
ATOM     41  O   UNL A   1      41.874  18.696  26.882  1.00  0.00    -0.246 OA
BRANCH  40  42
ATOM     42  C   UNL A   1      41.271  20.976  26.753  1.00  0.00     0.060 A 
ATOM     43  C   UNL A   1      41.616  21.364  28.045  1.00  0.00     0.016 A 
ATOM     44  C   UNL A   1      41.175  21.924  25.726  1.00  0.00     0.016 A 
ATOM     45  C   UNL A   1      41.888  22.713  28.300  1.00  0.00     0.010 A 
ATOM     46  C   UNL A   1      41.431  23.271  25.990  1.00  0.00     0.010 A 
ATOM     47  C   UNL A   1      41.803  23.677  27.277  1.00  0.00    -0.014 A 
BRANCH  47  48
ATOM     48  C   UNL A   1      42.246  25.073  27.524  1.00  0.00     0.031 A 
ATOM     49  C   UNL A   1      41.331  26.097  28.129  1.00  0.00     0.074 A 
ATOM     50  C   UNL A   1      43.496  25.420  27.155  1.00  0.00     0.049 A 
ATOM     51  N   UNL A   1      41.597  27.331  28.469  1.00  0.00    -0.248 NA
ATOM     52  C   UNL A   1      39.940  25.689  28.380  1.00  0.00     0.031 C 
ATOM     53  C   UNL A   1      44.448  24.519  26.504  1.00  0.00     0.029 A 
ATOM     54  N   UNL A   1      44.179  26.605  27.267  1.00  0.00    -0.354 N 
ATOM     55  C   UNL A   1      40.418  27.847  28.992  1.00  0.00     0.074 A 
ATOM     56  C   UNL A   1      39.419  26.806  28.875  1.00  0.00     0.031 C 
ATOM     57  C   UNL A   1      45.599  25.175  26.298  1.00  0.00     0.029 A 
ATOM     58  C   UNL A   1      45.460  26.552  26.768  1.00  0.00     0.049 A 
ATOM     59  H   UNL A   1      43.788  27.416  27.666  1.00  0.00     0.167 HD
ATOM     60  C   UNL A   1      40.201  29.070  29.534  1.00  0.00     0.034 A 
ATOM     61  C   UNL A   1      46.419  27.498  26.698  1.00  0.00     0.034 A 
ATOM     62  C   UNL A   1      41.208  30.100  29.625  1.00  0.00     0.049 A 
ATOM     63  C   UNL A   1      46.146  28.857  27.294  1.00  0.00     0.074 A 
ATOM     64  C   UNL A   1      41.098  31.351  30.207  1.00  0.00     0.029 A 
ATOM     65  N   UNL A   1      42.495  30.013  29.114  1.00  0.00    -0.354 N 
ATOM     66  N   UNL A   1      45.065  29.287  27.900  1.00  0.00    -0.248 NA
ATOM     67  C   UNL A   1      47.224  29.853  27.217  1.00  0.00     0.031 C 
ATOM     68  C   UNL A   1      42.285  32.046  29.981  1.00  0.00     0.029 A 
ATOM     69  C   UNL A   1      43.175  31.201  29.338  1.00  0.00     0.049 A 
ATOM     70  H   UNL A   1      42.871  29.225  28.660  1.00  0.00     0.167 HD
ATOM     71  C   UNL A   1      45.343  30.591  28.302  1.00  0.00     0.074 A 
ATOM     72  C   UNL A   1      46.703  30.870  27.892  1.00  0.00     0.031 C 
ATOM     73  C   UNL A   1      44.539  31.474  28.947  1.00  0.00     0.034 A 
BRANCH  60  74
ATOM     74  C   UNL A   1      38.842  29.382  30.116  1.00  0.00     0.023 A 
ATOM     75  C   UNL A   1      37.921  30.160  29.389  1.00  0.00     0.031 A 
ATOM     76  C   UNL A   1      38.531  29.059  31.449  1.00  0.00     0.131 A 
ATOM     77  C   UNL A   1      36.757  30.628  30.014  1.00  0.00     0.055 A 
ATOM     78  C   UNL A   1      37.350  29.491  32.054  1.00  0.00     0.041 A 
ATOM     79  F   UNL A   1      39.380  28.325  32.188  1.00  0.00    -0.206 F 
ATOM     80  C   UNL A   1      36.464  30.293  31.339  1.00  0.00     0.022 A 
BRANCH  77  81
ATOM     81  S   UNL A   1      35.621  31.756  29.160  1.00  0.00     0.124 S 
ATOM     82  O   UNL A   1      34.728  32.160  30.245  1.00  0.00    -0.237 OA
ATOM     83  O   UNL A   1      36.528  32.796  28.681  1.00  0.00    -0.237 OA
ATOM     84  O   UNL A   1      35.010  30.925  28.130  1.00  0.00    -0.744 OA
ENDBRANCH  77  81
ENDBRANCH  60  74
BRANCH  61  85
ATOM     85  C   UNL A   1      47.742  27.147  26.104  1.00  0.00     0.023 A 
ATOM     86  C   UNL A   1      48.750  26.549  26.882  1.00  0.00     0.031 A 
ATOM     87  C   UNL A   1      48.057  27.506  24.782  1.00  0.00     0.131 A 
ATOM     88  C   UNL A   1      50.039  26.394  26.357  1.00  0.00     0.055 A 
ATOM     89  C   UNL A   1      49.322  27.280  24.238  1.00  0.00     0.041 A 
ATOM     90  F   UNL A   1      47.137  28.095  24.004  1.00  0.00    -0.206 F 
ATOM     91  C   UNL A   1      50.327  26.737  25.033  1.00  0.00     0.022 A 
BRANCH  88  92
ATOM     92  S   UNL A   1      51.417  25.875  27.417  1.00  0.00     0.124 S 
ATOM     93  O   UNL A   1      52.072  27.146  27.709  1.00  0.00    -0.237 OA
ATOM     94  O   UNL A   1      50.713  25.255  28.538  1.00  0.00    -0.237 OA
ATOM     95  O   UNL A   1      52.173  24.954  26.575  1.00  0.00    -0.744 OA
ENDBRANCH  88  92
ENDBRANCH  61  85
BRANCH  73  96
ATOM     96  C   UNL A   1      45.080  32.846  29.280  1.00  0.00     0.023 A 
ATOM     97  C   UNL A   1      45.047  33.868  28.312  1.00  0.00     0.031 A 
ATOM     98  C   UNL A   1      45.777  33.091  30.477  1.00  0.00     0.131 A 
ATOM     99  C   UNL A   1      45.741  35.065  28.532  1.00  0.00     0.055 A 
ATOM    100  C   UNL A   1      46.419  34.307  30.717  1.00  0.00     0.041 A 
ATOM    101  F   UNL A   1      45.850  32.146  31.428  1.00  0.00    -0.206 F 
ATOM    102  C   UNL A   1      46.418  35.294  29.734  1.00  0.00     0.022 A 
BRANCH  99 103
ATOM    103  S   UNL A   1      45.879  36.323  27.232  1.00  0.00     0.124 S 
ATOM    104  O   UNL A   1      47.278  36.727  27.350  1.00  0.00    -0.237 OA
ATOM    105  O   UNL A   1      45.549  35.561  26.031  1.00  0.00    -0.237 OA
ATOM    106  O   UNL A   1      44.905  37.338  27.619  1.00  0.00    -0.744 OA
ENDBRANCH  99 103
ENDBRANCH  73  96
ENDBRANCH  47  48
ENDBRANCH  40  42
ENDBRANCH  39  40
ENDBRANCH  38  39
ENDBRANCH  37  38
ENDBRANCH  36  37
ENDBRANCH   1  36
TORSDOF 23
ENDMDL
MODEL 2
REMARK VINA RESULT:     -11.3      1.695      2.470
REMARK SMILES C[C@H]1c2ccc(O)cc2OC(=O)[C@@H]1CC(=O)N[C@@H](CC1=c2ccccc2=NC1)C(=O)OCCOCCOC(=O)c1ccc(-c2c3nc(c(-c4cc(S(=O)(=O)[O-])ccc4F)c4ccc([nH]4)c(-c4cc(S(=O)(=O)[O-])ccc4F)c4nc(c(-c5cc(S(=O)(=O)[O-])ccc5F)c5ccc2[nH]5)C=C4)C=C3)cc1
REMARK SMILES IDX 33 1 32 2 31 3 29 4 30 5 18 6 17 7 15 8 16 9 14 11 13 12
REMARK SMILES IDX 1 13 2 14 3 15 4 16 9 17 11 18 5 19 8 20 10 21 12 22 6 23
REMARK SMILES IDX 7 24 19 26 20 27 21 28 28 29 22 30 26 31 27 32 23 33 25 34
REMARK SMILES IDX 24 35 34 36 35 37 36 38 37 39 38 40 39 41 40 42 41 43 102 44
REMARK SMILES IDX 42 45 101 46 43 47 44 48 45 49 95 50 46 51 100 52 94 53
REMARK SMILES IDX 96 54 47 55 99 56 93 57 92 58 48 60 80 61 60 62 79 63 61 64
REMARK SMILES IDX 64 65 78 66 97 67 62 68 63 69 77 71 98 72 65 73 49 74 50 75
REMARK SMILES IDX 58 76 51 77 57 78 59 79 56 80 52 81 53 82 54 83 55 84 81 85
REMARK SMILES IDX 82 86 90 87 83 88 89 89 91 90 88 91 84 92 85 93 86 94 87 95
REMARK SMILES IDX 66 96 67 97 75 98 68 99 74 100 76 101 73 102 69 103 70 104
REMARK SMILES IDX 71 105 72 106
REMARK H PARENT 17 10 7 25 96 59 64 70
REMARK Flexibility Score: inf
ROOT
ATOM      1  C   UNL A   1      38.076  22.451  26.093  1.00  0.00     0.202 C 
ENDROOT
BRANCH   1   2
ATOM      2  C   UNL A   1      37.327  23.687  25.585  1.00  0.00     0.261 C 
BRANCH   2   3
ATOM      3  O   UNL A   1      36.248  23.351  24.702  1.00  0.00    -0.462 OA
BRANCH   3   4
ATOM      4  C   UNL A   1      35.039  23.801  25.116  1.00  0.00     0.329 C 
ATOM      5  O   UNL A   1      34.772  24.152  26.263  1.00  0.00    -0.250 OA
BRANCH   4   6
ATOM      6  C   UNL A   1      33.985  23.843  24.018  1.00  0.00     0.196 C 
BRANCH   6   7
ATOM      7  N   UNL A   1      34.108  24.646  22.791  1.00  0.00    -0.342 N 
ATOM      8  C   UNL A   1      33.584  25.890  22.548  1.00  0.00     0.221 C 
ATOM      9  O   UNL A   1      33.388  26.241  21.384  1.00  0.00    -0.275 OA
ATOM     10  H   UNL A   1      34.627  24.242  22.058  1.00  0.00     0.164 HD
BRANCH   8  11
ATOM     11  C   UNL A   1      33.389  26.885  23.691  1.00  0.00     0.116 C 
BRANCH  11  12
ATOM     12  C   UNL A   1      32.511  26.459  24.892  1.00  0.00     0.116 C 
ATOM     13  C   UNL A   1      30.191  25.690  25.680  1.00  0.00     0.014 C 
ATOM     14  C   UNL A   1      31.022  26.237  24.508  1.00  0.00     0.034 C 
ATOM     15  C   UNL A   1      30.445  27.553  24.041  1.00  0.00    -0.001 A 
ATOM     16  C   UNL A   1      29.424  27.634  23.091  1.00  0.00     0.011 A 
ATOM     17  C   UNL A   1      30.980  28.741  24.551  1.00  0.00     0.138 A 
ATOM     18  C   UNL A   1      32.462  27.500  25.982  1.00  0.00     0.315 C 
ATOM     19  C   UNL A   1      29.007  28.884  22.619  1.00  0.00     0.047 A 
ATOM     20  C   UNL A   1      30.608  29.987  24.061  1.00  0.00     0.093 A 
ATOM     21  O   UNL A   1      31.899  28.714  25.613  1.00  0.00    -0.426 OA
ATOM     22  O   UNL A   1      32.881  27.303  27.116  1.00  0.00    -0.251 OA
ATOM     23  C   UNL A   1      29.623  30.045  23.086  1.00  0.00     0.119 A 
BRANCH  23  24
ATOM     24  O   UNL A   1      29.270  31.275  22.616  1.00  0.00    -0.508 OA
ATOM     25  H   UNL A   1      29.084  31.971  23.215  1.00  0.00     0.293 HD
ENDBRANCH  23  24
ENDBRANCH  11  12
ENDBRANCH   8  11
ENDBRANCH   6   7
BRANCH   6  26
ATOM     26  C   UNL A   1      33.612  22.384  23.696  1.00  0.00     0.070 C 
BRANCH  26  27
ATOM     27  C   UNL A   1      33.784  21.280  24.746  1.00  0.00    -0.037 C 
ATOM     28  C   UNL A   1      34.006  20.017  24.358  1.00  0.00     0.001 A 
ATOM     29  C   UNL A   1      32.540  21.258  25.622  1.00  0.00     0.174 C 
ATOM     30  C   UNL A   1      35.065  19.096  24.681  1.00  0.00     0.010 A 
ATOM     31  C   UNL A   1      32.641  19.440  24.472  1.00  0.00     0.065 A 
ATOM     32  N   UNL A   1      31.744  20.117  25.115  1.00  0.00    -0.280 NA
ATOM     33  C   UNL A   1      34.832  17.791  24.443  1.00  0.00     0.001 A 
ATOM     34  C   UNL A   1      32.490  18.122  23.829  1.00  0.00     0.028 A 
ATOM     35  C   UNL A   1      33.593  17.354  23.809  1.00  0.00     0.002 A 
ENDBRANCH  26  27
ENDBRANCH   6  26
ENDBRANCH   4   6
ENDBRANCH   3   4
ENDBRANCH   2   3
ENDBRANCH   1   2
BRANCH   1  36
ATOM     36  O   UNL A   1      38.752  21.647  25.132  1.00  0.00    -0.374 OA
BRANCH  36  37
ATOM     37  C   UNL A   1      38.496  20.244  25.105  1.00  0.00     0.202 C 
BRANCH  37  38
ATOM     38  C   UNL A   1      39.397  19.297  25.914  1.00  0.00     0.261 C 
BRANCH  38  39
ATOM     39  O   UNL A   1      40.784  19.339  25.526  1.00  0.00    -0.460 OA
BRANCH  39  40
ATOM     40  C   UNL A   1      41.655  19.584  26.540  1.00  0.00     0.338 C 
ATOM     41  O   UNL A   1      42.407  18.786  27.068  1.00  0.00    -0.246 OA
BRANCH  40  42
ATOM     42  C   UNL A   1      41.707  21.028  26.825  1.00  0.00     0.060 A 
ATOM     43  C   UNL A   1      41.866  21.486  28.130  1.00  0.00     0.016 A 
ATOM     44  C   UNL A   1      41.732  21.924  25.748  1.00  0.00     0.016 A 
ATOM     45  C   UNL A   1      42.076  22.851  28.351  1.00  0.00     0.010 A 
ATOM     46  C   UNL A   1      41.925  23.288  25.976  1.00  0.00     0.010 A 
ATOM     47  C   UNL A   1      42.112  23.763  27.280  1.00  0.00    -0.014 A 
BRANCH  47  48
ATOM     48  C   UNL A   1      42.492  25.180  27.513  1.00  0.00     0.031 A 
ATOM     49  C   UNL A   1      41.536  26.164  28.123  1.00  0.00     0.074 A 
ATOM     50  C   UNL A   1      43.719  25.583  27.129  1.00  0.00     0.049 A 
ATOM     51  N   UNL A   1      41.746  27.411  28.453  1.00  0.00    -0.248 NA
ATOM     52  C   UNL A   1      40.169  25.692  28.392  1.00  0.00     0.031 C 
ATOM     53  C   UNL A   1      44.705  24.725  26.471  1.00  0.00     0.029 A 
ATOM     54  N   UNL A   1      44.346  26.801  27.226  1.00  0.00    -0.354 N 
ATOM     55  C   UNL A   1      40.550  27.874  28.986  1.00  0.00     0.074 A 
ATOM     56  C   UNL A   1      39.600  26.787  28.887  1.00  0.00     0.031 C 
ATOM     57  C   UNL A   1      45.821  25.433  26.249  1.00  0.00     0.029 A 
ATOM     58  C   UNL A   1      45.623  26.805  26.713  1.00  0.00     0.049 A 
ATOM     59  H   UNL A   1      43.922  27.595  27.624  1.00  0.00     0.167 HD
ATOM     60  C   UNL A   1      40.282  29.089  29.524  1.00  0.00     0.034 A 
ATOM     61  C   UNL A   1      46.535  27.795  26.626  1.00  0.00     0.034 A 
ATOM     62  C   UNL A   1      41.240  30.166  29.597  1.00  0.00     0.049 A 
ATOM     63  C   UNL A   1      46.205  29.143  27.218  1.00  0.00     0.074 A 
ATOM     64  C   UNL A   1      41.077  31.414  30.174  1.00  0.00     0.029 A 
ATOM     65  N   UNL A   1      42.524  30.137  29.073  1.00  0.00    -0.354 N 
ATOM     66  N   UNL A   1      45.112  29.525  27.834  1.00  0.00    -0.248 NA
ATOM     67  C   UNL A   1      47.234  30.188  27.122  1.00  0.00     0.031 C 
ATOM     68  C   UNL A   1      42.228  32.163  29.931  1.00  0.00     0.029 A 
ATOM     69  C   UNL A   1      43.150  31.356  29.282  1.00  0.00     0.049 A 
ATOM     70  H   UNL A   1      42.932  29.364  28.618  1.00  0.00     0.167 HD
ATOM     71  C   UNL A   1      45.332  30.843  28.225  1.00  0.00     0.074 A 
ATOM     72  C   UNL A   1      46.673  31.184  27.798  1.00  0.00     0.031 C 
ATOM     73  C   UNL A   1      44.494  31.692  28.874  1.00  0.00     0.034 A 
BRANCH  60  74
ATOM     74  C   UNL A   1      38.916  29.340  30.120  1.00  0.00     0.023 A 
ATOM     75  C   UNL A   1      37.975  30.126  29.429  1.00  0.00     0.031 A 
ATOM     76  C   UNL A   1      38.615  28.949  31.437  1.00  0.00     0.131 A 
ATOM     77  C   UNL A   1      36.801  30.536  30.075  1.00  0.00     0.055 A 
ATOM     78  C   UNL A   1      37.424  29.324  32.061  1.00  0.00     0.041 A 
ATOM     79  F   UNL A   1      39.483  28.205  32.142  1.00  0.00    -0.206 F 
ATOM     80  C   UNL A   1      36.518  30.135  31.384  1.00  0.00     0.022 A 
BRANCH  77  81
ATOM     81  S   UNL A   1      35.636  31.673  29.272  1.00  0.00     0.124 S 
ATOM     82  O   UNL A   1      34.823  32.117  30.404  1.00  0.00    -0.237 OA
ATOM     83  O   UNL A   1      36.531  32.682  28.714  1.00  0.00    -0.237 OA
ATOM     84  O   UNL A   1      34.941  30.835  28.301  1.00  0.00    -0.744 OA
ENDBRANCH  77  81
ENDBRANCH  60  74
BRANCH  61  85
ATOM     85  C   UNL A   1      47.867  27.502  26.019  1.00  0.00     0.023 A 
ATOM     86  C   UNL A   1      48.089  27.681  24.641  1.00  0.00     0.031 A 
ATOM     87  C   UNL A   1      48.898  26.934  26.784  1.00  0.00     0.131 A 
ATOM     88  C   UNL A   1      49.283  27.232  24.062  1.00  0.00     0.055 A 
ATOM     89  C   UNL A   1      50.117  26.557  26.216  1.00  0.00     0.041 A 
ATOM     90  F   UNL A   1      48.730  26.726  28.099  1.00  0.00    -0.206 F 
ATOM     91  C   UNL A   1      50.306  26.689  24.844  1.00  0.00     0.022 A 
BRANCH  88  92
ATOM     92  S   UNL A   1      49.488  27.205  22.259  1.00  0.00     0.124 S 
ATOM     93  O   UNL A   1      50.926  27.000  22.119  1.00  0.00    -0.237 OA
ATOM     94  O   UNL A   1      48.648  26.070  21.881  1.00  0.00    -0.237 OA
ATOM     95  O   UNL A   1      48.992  28.510  21.837  1.00  0.00    -0.744 OA
ENDBRANCH  88  92
ENDBRANCH  61  85
BRANCH  73  96
ATOM     96  C   UNL A   1      44.974  33.090  29.193  1.00  0.00     0.023 A 
ATOM     97  C   UNL A   1      44.797  34.124  28.254  1.00  0.00     0.031 A 
ATOM     98  C   UNL A   1      45.750  33.358  30.335  1.00  0.00     0.131 A 
ATOM     99  C   UNL A   1      45.430  35.359  28.444  1.00  0.00     0.055 A 
ATOM    100  C   UNL A   1      46.331  34.608  30.549  1.00  0.00     0.041 A 
ATOM    101  F   UNL A   1      45.960  32.404  31.256  1.00  0.00    -0.206 F 
ATOM    102  C   UNL A   1      46.188  35.610  29.593  1.00  0.00     0.022 A 
BRANCH  99 103
ATOM    103  S   UNL A   1      45.382  36.646  27.166  1.00  0.00     0.124 S 
ATOM    104  O   UNL A   1      43.961  36.683  26.828  1.00  0.00    -0.237 OA
ATOM    105  O   UNL A   1      45.884  37.813  27.885  1.00  0.00    -0.237 OA
ATOM    106  O   UNL A   1      46.255  36.131  26.116  1.00  0.00    -0.744 OA
ENDBRANCH  99 103
ENDBRANCH  73  96
ENDBRANCH  47  48
ENDBRANCH  40  42
ENDBRANCH  39  40
ENDBRANCH  38  39
ENDBRANCH  37  38
ENDBRANCH  36  37
ENDBRANCH   1  36
TORSDOF 23
ENDMDL
MODEL 3
REMARK VINA RESULT:     -10.9      1.874      7.577
REMARK SMILES C[C@H]1c2ccc(O)cc2OC(=O)[C@@H]1CC(=O)N[C@@H](CC1=c2ccccc2=NC1)C(=O)OCCOCCOC(=O)c1ccc(-c2c3nc(c(-c4cc(S(=O)(=O)[O-])ccc4F)c4ccc([nH]4)c(-c4cc(S(=O)(=O)[O-])ccc4F)c4nc(c(-c5cc(S(=O)(=O)[O-])ccc5F)c5ccc2[nH]5)C=C4)C=C3)cc1
REMARK SMILES IDX 33 1 32 2 31 3 29 4 30 5 18 6 17 7 15 8 16 9 14 11 13 12
REMARK SMILES IDX 1 13 2 14 3 15 4 16 9 17 11 18 5 19 8 20 10 21 12 22 6 23
REMARK SMILES IDX 7 24 19 26 20 27 21 28 28 29 22 30 26 31 27 32 23 33 25 34
REMARK SMILES IDX 24 35 34 36 35 37 36 38 37 39 38 40 39 41 40 42 41 43 102 44
REMARK SMILES IDX 42 45 101 46 43 47 44 48 45 49 95 50 46 51 100 52 94 53
REMARK SMILES IDX 96 54 47 55 99 56 93 57 92 58 48 60 80 61 60 62 79 63 61 64
REMARK SMILES IDX 64 65 78 66 97 67 62 68 63 69 77 71 98 72 65 73 49 74 50 75
REMARK SMILES IDX 58 76 51 77 57 78 59 79 56 80 52 81 53 82 54 83 55 84 81 85
REMARK SMILES IDX 82 86 90 87 83 88 89 89 91 90 88 91 84 92 85 93 86 94 87 95
REMARK SMILES IDX 66 96 67 97 75 98 68 99 74 100 76 101 73 102 69 103 70 104
REMARK SMILES IDX 71 105 72 106
REMARK H PARENT 17 10 7 25 96 59 64 70
REMARK Flexibility Score: inf
ROOT
ATOM      1  C   UNL A   1      38.708  22.891  26.547  1.00  0.00     0.202 C 
ENDROOT
BRANCH   1   2
ATOM      2  C   UNL A   1      37.774  24.100  26.445  1.00  0.00     0.261 C 
BRANCH   2   3
ATOM      3  O   UNL A   1      36.789  23.950  25.414  1.00  0.00    -0.462 OA
BRANCH   3   4
ATOM      4  C   UNL A   1      35.667  23.308  25.817  1.00  0.00     0.329 C 
ATOM      5  O   UNL A   1      35.382  23.048  26.984  1.00  0.00    -0.250 OA
BRANCH   4   6
ATOM      6  C   UNL A   1      34.738  22.911  24.677  1.00  0.00     0.196 C 
BRANCH   6   7
ATOM      7  N   UNL A   1      34.480  23.750  23.496  1.00  0.00    -0.342 N 
ATOM      8  C   UNL A   1      33.459  24.646  23.312  1.00  0.00     0.221 C 
ATOM      9  O   UNL A   1      33.115  24.936  22.166  1.00  0.00    -0.275 OA
ATOM     10  H   UNL A   1      35.116  23.656  22.750  1.00  0.00     0.164 HD
BRANCH   8  11
ATOM     11  C   UNL A   1      32.856  25.390  24.503  1.00  0.00     0.116 C 
BRANCH  11  12
ATOM     12  C   UNL A   1      31.321  25.353  24.690  1.00  0.00     0.116 C 
ATOM     13  C   UNL A   1      29.091  26.574  24.328  1.00  0.00     0.014 C 
ATOM     14  C   UNL A   1      30.623  26.672  24.259  1.00  0.00     0.034 C 
ATOM     15  C   UNL A   1      31.106  27.786  25.159  1.00  0.00    -0.001 A 
ATOM     16  C   UNL A   1      31.203  29.112  24.731  1.00  0.00     0.011 A 
ATOM     17  C   UNL A   1      31.509  27.472  26.461  1.00  0.00     0.138 A 
ATOM     18  C   UNL A   1      30.908  25.167  26.128  1.00  0.00     0.315 C 
ATOM     19  C   UNL A   1      31.759  30.079  25.576  1.00  0.00     0.047 A 
ATOM     20  C   UNL A   1      32.103  28.410  27.295  1.00  0.00     0.093 A 
ATOM     21  O   UNL A   1      31.291  26.188  26.987  1.00  0.00    -0.426 OA
ATOM     22  O   UNL A   1      30.279  24.194  26.525  1.00  0.00    -0.251 OA
ATOM     23  C   UNL A   1      32.231  29.714  26.837  1.00  0.00     0.119 A 
BRANCH  23  24
ATOM     24  O   UNL A   1      32.817  30.622  27.667  1.00  0.00    -0.508 OA
ATOM     25  H   UNL A   1      32.786  31.535  27.461  1.00  0.00     0.293 HD
ENDBRANCH  23  24
ENDBRANCH  11  12
ENDBRANCH   8  11
ENDBRANCH   6   7
BRANCH   6  26
ATOM     26  C   UNL A   1      35.113  21.474  24.270  1.00  0.00     0.070 C 
BRANCH  26  27
ATOM     27  C   UNL A   1      34.555  20.270  25.039  1.00  0.00    -0.037 C 
ATOM     28  C   UNL A   1      34.402  19.093  24.417  1.00  0.00     0.001 A 
ATOM     29  C   UNL A   1      33.194  20.652  25.600  1.00  0.00     0.174 C 
ATOM     30  C   UNL A   1      34.906  17.780  24.728  1.00  0.00     0.010 A 
ATOM     31  C   UNL A   1      32.950  19.128  24.097  1.00  0.00     0.065 A 
ATOM     32  N   UNL A   1      32.218  20.025  24.678  1.00  0.00    -0.280 NA
ATOM     33  C   UNL A   1      34.290  16.736  24.141  1.00  0.00     0.001 A 
ATOM     34  C   UNL A   1      32.520  18.091  23.141  1.00  0.00     0.028 A 
ATOM     35  C   UNL A   1      33.220  16.943  23.173  1.00  0.00     0.002 A 
ENDBRANCH  26  27
ENDBRANCH   6  26
ENDBRANCH   4   6
ENDBRANCH   3   4
ENDBRANCH   2   3
ENDBRANCH   1   2
BRANCH   1  36
ATOM     36  O   UNL A   1      38.930  22.126  25.366  1.00  0.00    -0.374 OA
BRANCH  36  37
ATOM     37  C   UNL A   1      38.438  20.788  25.310  1.00  0.00     0.202 C 
BRANCH  37  38
ATOM     38  C   UNL A   1      39.330  19.636  25.801  1.00  0.00     0.261 C 
BRANCH  38  39
ATOM     39  O   UNL A   1      40.683  19.698  25.313  1.00  0.00    -0.460 OA
BRANCH  39  40
ATOM     40  C   UNL A   1      41.642  19.555  26.266  1.00  0.00     0.338 C 
ATOM     41  O   UNL A   1      42.053  18.512  26.742  1.00  0.00    -0.246 OA
BRANCH  40  42
ATOM     42  C   UNL A   1      42.274  20.856  26.547  1.00  0.00     0.060 A 
ATOM     43  C   UNL A   1      42.450  21.791  25.530  1.00  0.00     0.016 A 
ATOM     44  C   UNL A   1      42.564  21.187  27.877  1.00  0.00     0.016 A 
ATOM     45  C   UNL A   1      42.900  23.075  25.857  1.00  0.00     0.010 A 
ATOM     46  C   UNL A   1      43.029  22.465  28.196  1.00  0.00     0.010 A 
ATOM     47  C   UNL A   1      43.189  23.426  27.189  1.00  0.00    -0.014 A 
BRANCH  47  48
ATOM     48  C   UNL A   1      43.512  24.832  27.541  1.00  0.00     0.031 A 
ATOM     49  C   UNL A   1      44.901  25.382  27.400  1.00  0.00     0.074 A 
ATOM     50  C   UNL A   1      42.527  25.609  28.032  1.00  0.00     0.049 A 
ATOM     51  N   UNL A   1      45.321  26.604  27.598  1.00  0.00    -0.248 NA
ATOM     52  C   UNL A   1      45.956  24.443  26.989  1.00  0.00     0.031 C 
ATOM     53  C   UNL A   1      41.154  25.158  28.267  1.00  0.00     0.029 A 
ATOM     54  N   UNL A   1      42.518  26.925  28.423  1.00  0.00    -0.354 N 
ATOM     55  C   UNL A   1      46.682  26.593  27.321  1.00  0.00     0.074 A 
ATOM     56  C   UNL A   1      47.029  25.227  26.991  1.00  0.00     0.031 C 
ATOM     57  C   UNL A   1      40.431  26.185  28.735  1.00  0.00     0.029 A 
ATOM     58  C   UNL A   1      41.291  27.359  28.869  1.00  0.00     0.049 A 
ATOM     59  H   UNL A   1      43.314  27.503  28.388  1.00  0.00     0.167 HD
ATOM     60  C   UNL A   1      47.551  27.633  27.325  1.00  0.00     0.034 A 
ATOM     61  C   UNL A   1      40.896  28.564  29.331  1.00  0.00     0.034 A 
ATOM     62  C   UNL A   1      47.187  28.985  27.675  1.00  0.00     0.049 A 
ATOM     63  C   UNL A   1      41.888  29.700  29.341  1.00  0.00     0.074 A 
ATOM     64  C   UNL A   1      47.986  30.116  27.655  1.00  0.00     0.029 A 
ATOM     65  N   UNL A   1      45.936  29.392  28.118  1.00  0.00    -0.354 N 
ATOM     66  N   UNL A   1      43.141  29.702  28.954  1.00  0.00    -0.248 NA
ATOM     67  C   UNL A   1      41.413  31.002  29.831  1.00  0.00     0.031 C 
ATOM     68  C   UNL A   1      47.245  31.185  28.158  1.00  0.00     0.029 A 
ATOM     69  C   UNL A   1      45.954  30.747  28.408  1.00  0.00     0.049 A 
ATOM     70  H   UNL A   1      45.152  28.804  28.213  1.00  0.00     0.167 HD
ATOM     71  C   UNL A   1      43.595  31.007  29.125  1.00  0.00     0.074 A 
ATOM     72  C   UNL A   1      42.474  31.773  29.627  1.00  0.00     0.031 C 
ATOM     73  C   UNL A   1      44.831  31.518  28.890  1.00  0.00     0.034 A 
BRANCH  60  74
ATOM     74  C   UNL A   1      48.983  27.391  26.908  1.00  0.00     0.023 A 
ATOM     75  C   UNL A   1      49.985  27.217  27.882  1.00  0.00     0.031 A 
ATOM     76  C   UNL A   1      49.378  27.507  25.563  1.00  0.00     0.131 A 
ATOM     77  C   UNL A   1      51.334  27.213  27.501  1.00  0.00     0.055 A 
ATOM     78  C   UNL A   1      50.720  27.458  25.184  1.00  0.00     0.041 A 
ATOM     79  F   UNL A   1      48.460  27.681  24.597  1.00  0.00    -0.206 F 
ATOM     80  C   UNL A   1      51.705  27.326  26.158  1.00  0.00     0.022 A 
BRANCH  77  81
ATOM     81  S   UNL A   1      52.659  27.143  28.739  1.00  0.00     0.124 S 
ATOM     82  O   UNL A   1      52.107  26.204  29.714  1.00  0.00    -0.237 OA
ATOM     83  O   UNL A   1      53.782  26.638  27.954  1.00  0.00    -0.237 OA
ATOM     84  O   UNL A   1      52.778  28.520  29.203  1.00  0.00    -0.744 OA
ENDBRANCH  77  81
ENDBRANCH  60  74
BRANCH  61  85
ATOM     85  C   UNL A   1      39.474  28.752  29.743  1.00  0.00     0.023 A 
ATOM     86  C   UNL A   1      38.561  29.422  28.908  1.00  0.00     0.031 A 
ATOM     87  C   UNL A   1      39.037  28.366  31.020  1.00  0.00     0.131 A 
ATOM     88  C   UNL A   1      37.285  29.747  29.386  1.00  0.00     0.055 A 
ATOM     89  C   UNL A   1      37.739  28.624  31.465  1.00  0.00     0.041 A 
ATOM     90  F   UNL A   1      39.874  27.740  31.862  1.00  0.00    -0.206 F 
ATOM     91  C   UNL A   1      36.861  29.335  30.652  1.00  0.00     0.022 A 
BRANCH  88  92
ATOM     92  S   UNL A   1      36.187  30.836  28.437  1.00  0.00     0.124 S 
ATOM     93  O   UNL A   1      35.114  31.093  29.392  1.00  0.00    -0.237 OA
ATOM     94  O   UNL A   1      37.066  31.969  28.154  1.00  0.00    -0.237 OA
ATOM     95  O   UNL A   1      35.821  30.031  27.277  1.00  0.00    -0.744 OA
ENDBRANCH  88  92
ENDBRANCH  61  85
BRANCH  73  96
ATOM     96  C   UNL A   1      45.076  32.987  29.154  1.00  0.00     0.023 A 
ATOM     97  C   UNL A   1      45.459  33.414  30.440  1.00  0.00     0.031 A 
ATOM     98  C   UNL A   1      44.767  33.967  28.195  1.00  0.00     0.131 A 
ATOM     99  C   UNL A   1      45.472  34.780  30.749  1.00  0.00     0.055 A 
ATOM    100  C   UNL A   1      44.836  35.330  28.491  1.00  0.00     0.041 A 
ATOM    101  F   UNL A   1      44.384  33.614  26.958  1.00  0.00    -0.206 F 
ATOM    102  C   UNL A   1      45.172  35.741  29.778  1.00  0.00     0.022 A 
BRANCH  99 103
ATOM    103  S   UNL A   1      45.773  35.357  32.443  1.00  0.00     0.124 S 
ATOM    104  O   UNL A   1      47.232  35.427  32.483  1.00  0.00    -0.237 OA
ATOM    105  O   UNL A   1      45.085  36.645  32.456  1.00  0.00    -0.237 OA
ATOM    106  O   UNL A   1      45.179  34.319  33.279  1.00  0.00    -0.744 OA
ENDBRANCH  99 103
ENDBRANCH  73  96
ENDBRANCH  47  48
ENDBRANCH  40  42
ENDBRANCH  39  40
ENDBRANCH  38  39
ENDBRANCH  37  38
ENDBRANCH  36  37
ENDBRANCH   1  36
TORSDOF 23
ENDMDL
