MODEL 1
REMARK VINA RESULT:     -11.8      0.000      0.000
REMARK SMILES CC(C)CN(C)c1cc2c(cc1Cl)C=C(C(=O)OCCOCCOC(=O)c1ccc(-c3c4nc(c(-c5cc(S(=O)(=O)[O-])ccc5F)c5ccc([nH]5)c(-c5cc(S(=O)(=O)[O-])ccc5F)c5nc(c(-c6cc(S(=O)(=O)[O-])ccc6F)c6ccc3[nH]6)C=C5)C=C4)cc1)[C@H](C(F)(F)F)O2
REMARK SMILES IDX 21 1 20 2 19 3 18 4 16 5 17 6 15 7 7 8 8 9 12 10 9 11 11 12
REMARK SMILES IDX 13 13 10 14 95 15 14 16 90 17 5 18 6 19 4 20 2 21 1 22 3 23
REMARK SMILES IDX 91 24 92 25 93 26 94 27 22 28 23 29 24 30 25 31 26 32 27 33
REMARK SMILES IDX 28 34 89 35 29 36 88 37 30 38 31 39 32 40 82 41 33 42 87 43
REMARK SMILES IDX 81 44 83 45 34 46 86 47 80 48 79 49 35 51 67 52 47 53 66 54
REMARK SMILES IDX 48 55 51 56 65 57 84 58 49 59 50 60 64 62 85 63 52 64 36 65
REMARK SMILES IDX 37 66 45 67 38 68 44 69 46 70 43 71 39 72 40 73 41 74 42 75
REMARK SMILES IDX 68 76 69 77 77 78 70 79 76 80 78 81 75 82 71 83 72 84 73 85
REMARK SMILES IDX 74 86 53 87 54 88 62 89 55 90 61 91 63 92 60 93 56 94 57 95
REMARK SMILES IDX 58 96 59 97
REMARK H PARENT 83 50 51 61
REMARK Flexibility Score: inf
ROOT
ATOM      1  O   UNL A   1      35.497  21.469  26.482  1.00  0.00    -0.374 OA
ENDROOT
BRANCH   1   2
ATOM      2  C   UNL A   1      34.169  21.683  26.955  1.00  0.00     0.202 C 
BRANCH   2   3
ATOM      3  C   UNL A   1      33.265  22.605  26.133  1.00  0.00     0.261 C 
BRANCH   3   4
ATOM      4  O   UNL A   1      33.574  23.988  26.362  1.00  0.00    -0.460 OA
BRANCH   4   5
ATOM      5  C   UNL A   1      34.260  24.577  25.366  1.00  0.00     0.338 C 
ATOM      6  O   UNL A   1      35.461  24.472  25.158  1.00  0.00    -0.246 OA
BRANCH   5   7
ATOM      7  C   UNL A   1      33.359  25.269  24.423  1.00  0.00     0.087 C 
ATOM      8  C   UNL A   1      30.038  28.862  23.259  1.00  0.00     0.059 A 
ATOM      9  C   UNL A   1      30.241  27.533  22.823  1.00  0.00     0.074 A 
ATOM     10  C   UNL A   1      30.986  29.383  24.167  1.00  0.00     0.065 A 
ATOM     11  C   UNL A   1      31.330  26.772  23.267  1.00  0.00     0.130 A 
ATOM     12  C   UNL A   1      32.146  28.680  24.486  1.00  0.00     0.034 A 
ATOM     13  Cl  UNL A   1      30.724  30.826  25.090  1.00  0.00    -0.082 Cl
ATOM     14  C   UNL A   1      32.307  27.370  24.050  1.00  0.00     0.019 A 
ATOM     15  O   UNL A   1      31.346  25.444  22.945  1.00  0.00    -0.475 OA
ATOM     16  C   UNL A   1      33.400  26.597  24.584  1.00  0.00     0.027 C 
ATOM     17  C   UNL A   1      32.358  24.562  23.545  1.00  0.00     0.316 C 
BRANCH   8  18
ATOM     18  N   UNL A   1      28.918  29.599  22.843  1.00  0.00    -0.373 N 
ATOM     19  C   UNL A   1      27.628  28.924  22.979  1.00  0.00     0.143 C 
BRANCH  18  20
ATOM     20  C   UNL A   1      29.068  30.511  21.685  1.00  0.00     0.119 C 
BRANCH  20  21
ATOM     21  C   UNL A   1      28.172  31.765  21.769  1.00  0.00     0.002 C 
ATOM     22  C   UNL A   1      28.761  32.828  22.704  1.00  0.00     0.009 C 
ATOM     23  C   UNL A   1      27.928  32.403  20.399  1.00  0.00     0.009 C 
ENDBRANCH  20  21
ENDBRANCH  18  20
ENDBRANCH   8  18
BRANCH  17  24
ATOM     24  C   UNL A   1      32.976  23.761  22.380  1.00  0.00     0.430 C 
ATOM     25  F   UNL A   1      32.837  24.372  21.187  1.00  0.00    -0.167 F 
ATOM     26  F   UNL A   1      34.311  23.595  22.565  1.00  0.00    -0.167 F 
ATOM     27  F   UNL A   1      32.433  22.523  22.282  1.00  0.00    -0.167 F 
ENDBRANCH  17  24
ENDBRANCH   5   7
ENDBRANCH   4   5
ENDBRANCH   3   4
ENDBRANCH   2   3
ENDBRANCH   1   2
BRANCH   1  28
ATOM     28  C   UNL A   1      35.679  20.736  25.271  1.00  0.00     0.202 C 
BRANCH  28  29
ATOM     29  C   UNL A   1      37.052  20.116  24.979  1.00  0.00     0.261 C 
BRANCH  29  30
ATOM     30  O   UNL A   1      38.114  21.084  24.987  1.00  0.00    -0.460 OA
BRANCH  30  31
ATOM     31  C   UNL A   1      39.109  20.841  25.877  1.00  0.00     0.338 C 
ATOM     32  O   UNL A   1      39.626  19.760  26.123  1.00  0.00    -0.246 OA
BRANCH  31  33
ATOM     33  C   UNL A   1      39.654  22.125  26.358  1.00  0.00     0.060 A 
ATOM     34  C   UNL A   1      40.867  22.186  27.043  1.00  0.00     0.016 A 
ATOM     35  C   UNL A   1      38.934  23.295  26.078  1.00  0.00     0.016 A 
ATOM     36  C   UNL A   1      41.371  23.432  27.428  1.00  0.00     0.010 A 
ATOM     37  C   UNL A   1      39.438  24.536  26.468  1.00  0.00     0.010 A 
ATOM     38  C   UNL A   1      40.670  24.617  27.132  1.00  0.00    -0.014 A 
BRANCH  38  39
ATOM     39  C   UNL A   1      41.285  25.942  27.400  1.00  0.00     0.031 A 
ATOM     40  C   UNL A   1      40.579  26.982  28.220  1.00  0.00     0.074 A 
ATOM     41  C   UNL A   1      42.497  26.205  26.869  1.00  0.00     0.049 A 
ATOM     42  N   UNL A   1      41.012  28.158  28.597  1.00  0.00    -0.248 NA
ATOM     43  C   UNL A   1      39.215  26.671  28.673  1.00  0.00     0.031 C 
ATOM     44  C   UNL A   1      43.255  25.278  26.027  1.00  0.00     0.029 A 
ATOM     45  N   UNL A   1      43.309  27.307  26.964  1.00  0.00    -0.354 N 
ATOM     46  C   UNL A   1      39.988  28.720  29.348  1.00  0.00     0.074 A 
ATOM     47  C   UNL A   1      38.889  27.779  29.331  1.00  0.00     0.031 C 
ATOM     48  C   UNL A   1      44.437  25.831  25.719  1.00  0.00     0.029 A 
ATOM     49  C   UNL A   1      44.509  27.168  26.304  1.00  0.00     0.049 A 
ATOM     50  H   UNL A   1      43.057  28.122  27.456  1.00  0.00     0.167 HD
ATOM     51  C   UNL A   1      39.983  29.904  30.008  1.00  0.00     0.034 A 
ATOM     52  C   UNL A   1      45.555  28.014  26.190  1.00  0.00     0.034 A 
ATOM     53  C   UNL A   1      41.092  30.827  30.015  1.00  0.00     0.049 A 
ATOM     54  C   UNL A   1      45.494  29.344  26.902  1.00  0.00     0.074 A 
ATOM     55  C   UNL A   1      41.192  32.028  30.695  1.00  0.00     0.029 A 
ATOM     56  N   UNL A   1      42.280  30.665  29.318  1.00  0.00    -0.354 N 
ATOM     57  N   UNL A   1      44.565  29.812  27.701  1.00  0.00    -0.248 NA
ATOM     58  C   UNL A   1      46.630  30.258  26.711  1.00  0.00     0.031 C 
ATOM     59  C   UNL A   1      42.401  32.628  30.350  1.00  0.00     0.029 A 
ATOM     60  C   UNL A   1      43.102  31.762  29.527  1.00  0.00     0.049 A 
ATOM     61  H   UNL A   1      42.507  29.887  28.760  1.00  0.00     0.167 HD
ATOM     62  C   UNL A   1      45.024  31.051  28.141  1.00  0.00     0.074 A 
ATOM     63  C   UNL A   1      46.325  31.248  27.539  1.00  0.00     0.031 C 
ATOM     64  C   UNL A   1      44.418  31.943  28.963  1.00  0.00     0.034 A 
BRANCH  51  65
ATOM     65  C   UNL A   1      38.777  30.287  30.832  1.00  0.00     0.023 A 
ATOM     66  C   UNL A   1      37.824  31.184  30.310  1.00  0.00     0.031 A 
ATOM     67  C   UNL A   1      38.696  29.949  32.194  1.00  0.00     0.131 A 
ATOM     68  C   UNL A   1      36.877  31.765  31.161  1.00  0.00     0.055 A 
ATOM     69  C   UNL A   1      37.720  30.495  33.027  1.00  0.00     0.041 A 
ATOM     70  F   UNL A   1      39.585  29.102  32.740  1.00  0.00    -0.206 F 
ATOM     71  C   UNL A   1      36.817  31.422  32.516  1.00  0.00     0.022 A 
BRANCH  68  72
ATOM     72  S   UNL A   1      35.753  33.061  30.568  1.00  0.00     0.124 S 
ATOM     73  O   UNL A   1      34.444  32.488  30.879  1.00  0.00    -0.237 OA
ATOM     74  O   UNL A   1      36.146  34.202  31.388  1.00  0.00    -0.237 OA
ATOM     75  O   UNL A   1      36.059  33.165  29.146  1.00  0.00    -0.744 OA
ENDBRANCH  68  72
ENDBRANCH  51  65
BRANCH  52  76
ATOM     76  C   UNL A   1      46.774  27.594  25.434  1.00  0.00     0.023 A 
ATOM     77  C   UNL A   1      46.987  27.996  24.103  1.00  0.00     0.031 A 
ATOM     78  C   UNL A   1      47.718  26.732  26.018  1.00  0.00     0.131 A 
ATOM     79  C   UNL A   1      48.085  27.497  23.390  1.00  0.00     0.055 A 
ATOM     80  C   UNL A   1      48.851  26.300  25.329  1.00  0.00     0.041 A 
ATOM     81  F   UNL A   1      47.552  26.303  27.279  1.00  0.00    -0.206 F 
ATOM     82  C   UNL A   1      49.032  26.671  24.002  1.00  0.00     0.022 A 
BRANCH  79  83
ATOM     83  S   UNL A   1      48.256  27.804  21.609  1.00  0.00     0.124 S 
ATOM     84  O   UNL A   1      48.565  26.472  21.100  1.00  0.00    -0.237 OA
ATOM     85  O   UNL A   1      46.932  28.319  21.267  1.00  0.00    -0.237 OA
ATOM     86  O   UNL A   1      49.338  28.779  21.531  1.00  0.00    -0.744 OA
ENDBRANCH  79  83
ENDBRANCH  52  76
BRANCH  64  87
ATOM     87  C   UNL A   1      45.139  33.225  29.316  1.00  0.00     0.023 A 
ATOM     88  C   UNL A   1      44.962  34.371  28.513  1.00  0.00     0.031 A 
ATOM     89  C   UNL A   1      46.118  33.268  30.322  1.00  0.00     0.131 A 
ATOM     90  C   UNL A   1      45.791  35.486  28.693  1.00  0.00     0.055 A 
ATOM     91  C   UNL A   1      46.899  34.405  30.539  1.00  0.00     0.041 A 
ATOM     92  F   UNL A   1      46.339  32.200  31.106  1.00  0.00    -0.206 F 
ATOM     93  C   UNL A   1      46.750  35.513  29.710  1.00  0.00     0.022 A 
BRANCH  90  94
ATOM     94  S   UNL A   1      45.731  36.892  27.548  1.00  0.00     0.124 S 
ATOM     95  O   UNL A   1      44.295  37.035  27.320  1.00  0.00    -0.237 OA
ATOM     96  O   UNL A   1      46.344  37.956  28.338  1.00  0.00    -0.237 OA
ATOM     97  O   UNL A   1      46.501  36.442  26.394  1.00  0.00    -0.744 OA
ENDBRANCH  90  94
ENDBRANCH  64  87
ENDBRANCH  38  39
ENDBRANCH  31  33
ENDBRANCH  30  31
ENDBRANCH  29  30
ENDBRANCH  28  29
ENDBRANCH   1  28
TORSDOF 21
ENDMDL
MODEL 2
REMARK VINA RESULT:     -11.6      1.446      7.370
REMARK SMILES CC(C)CN(C)c1cc2c(cc1Cl)C=C(C(=O)OCCOCCOC(=O)c1ccc(-c3c4nc(c(-c5cc(S(=O)(=O)[O-])ccc5F)c5ccc([nH]5)c(-c5cc(S(=O)(=O)[O-])ccc5F)c5nc(c(-c6cc(S(=O)(=O)[O-])ccc6F)c6ccc3[nH]6)C=C5)C=C4)cc1)[C@H](C(F)(F)F)O2
REMARK SMILES IDX 21 1 20 2 19 3 18 4 16 5 17 6 15 7 7 8 8 9 12 10 9 11 11 12
REMARK SMILES IDX 13 13 10 14 95 15 14 16 90 17 5 18 6 19 4 20 2 21 1 22 3 23
REMARK SMILES IDX 91 24 92 25 93 26 94 27 22 28 23 29 24 30 25 31 26 32 27 33
REMARK SMILES IDX 28 34 89 35 29 36 88 37 30 38 31 39 32 40 82 41 33 42 87 43
REMARK SMILES IDX 81 44 83 45 34 46 86 47 80 48 79 49 35 51 67 52 47 53 66 54
REMARK SMILES IDX 48 55 51 56 65 57 84 58 49 59 50 60 64 62 85 63 52 64 36 65
REMARK SMILES IDX 37 66 45 67 38 68 44 69 46 70 43 71 39 72 40 73 41 74 42 75
REMARK SMILES IDX 68 76 69 77 77 78 70 79 76 80 78 81 75 82 71 83 72 84 73 85
REMARK SMILES IDX 74 86 53 87 54 88 62 89 55 90 61 91 63 92 60 93 56 94 57 95
REMARK SMILES IDX 58 96 59 97
REMARK H PARENT 83 50 51 61
REMARK Flexibility Score: inf
ROOT
ATOM      1  O   UNL A   1      34.939  21.115  26.981  1.00  0.00    -0.374 OA
ENDROOT
BRANCH   1   2
ATOM      2  C   UNL A   1      33.906  21.981  27.444  1.00  0.00     0.202 C 
BRANCH   2   3
ATOM      3  C   UNL A   1      33.155  22.808  26.398  1.00  0.00     0.261 C 
BRANCH   3   4
ATOM      4  O   UNL A   1      33.552  24.188  26.431  1.00  0.00    -0.460 OA
BRANCH   4   5
ATOM      5  C   UNL A   1      34.224  24.600  25.342  1.00  0.00     0.338 C 
ATOM      6  O   UNL A   1      35.388  24.335  25.071  1.00  0.00    -0.246 OA
BRANCH   5   7
ATOM      7  C   UNL A   1      33.341  25.307  24.395  1.00  0.00     0.087 C 
ATOM      8  C   UNL A   1      30.052  28.930  23.227  1.00  0.00     0.059 A 
ATOM      9  C   UNL A   1      30.256  27.605  22.777  1.00  0.00     0.074 A 
ATOM     10  C   UNL A   1      30.989  29.435  24.155  1.00  0.00     0.065 A 
ATOM     11  C   UNL A   1      31.335  26.834  23.228  1.00  0.00     0.130 A 
ATOM     12  C   UNL A   1      32.141  28.723  24.482  1.00  0.00     0.034 A 
ATOM     13  Cl  UNL A   1      30.719  30.867  25.092  1.00  0.00    -0.082 Cl
ATOM     14  C   UNL A   1      32.303  27.418  24.032  1.00  0.00     0.019 A 
ATOM     15  O   UNL A   1      31.350  25.510  22.890  1.00  0.00    -0.475 OA
ATOM     16  C   UNL A   1      33.385  26.633  24.573  1.00  0.00     0.027 C 
ATOM     17  C   UNL A   1      32.350  24.616  23.493  1.00  0.00     0.316 C 
BRANCH   8  18
ATOM     18  N   UNL A   1      28.941  29.677  22.803  1.00  0.00    -0.373 N 
ATOM     19  C   UNL A   1      27.641  29.030  22.971  1.00  0.00     0.143 C 
BRANCH  18  20
ATOM     20  C   UNL A   1      29.096  30.556  21.620  1.00  0.00     0.119 C 
BRANCH  20  21
ATOM     21  C   UNL A   1      28.202  31.813  21.668  1.00  0.00     0.002 C 
ATOM     22  C   UNL A   1      28.772  32.886  22.602  1.00  0.00     0.009 C 
ATOM     23  C   UNL A   1      27.992  32.433  20.284  1.00  0.00     0.009 C 
ENDBRANCH  20  21
ENDBRANCH  18  20
ENDBRANCH   8  18
BRANCH  17  24
ATOM     24  C   UNL A   1      32.982  23.826  22.328  1.00  0.00     0.430 C 
ATOM     25  F   UNL A   1      33.080  24.548  21.193  1.00  0.00    -0.167 F 
ATOM     26  F   UNL A   1      34.246  23.440  22.638  1.00  0.00    -0.167 F 
ATOM     27  F   UNL A   1      32.280  22.702  22.049  1.00  0.00    -0.167 F 
ENDBRANCH  17  24
ENDBRANCH   5   7
ENDBRANCH   4   5
ENDBRANCH   3   4
ENDBRANCH   2   3
ENDBRANCH   1   2
BRANCH   1  28
ATOM     28  C   UNL A   1      35.039  20.862  25.579  1.00  0.00     0.202 C 
BRANCH  28  29
ATOM     29  C   UNL A   1      36.392  20.427  25.000  1.00  0.00     0.261 C 
BRANCH  29  30
ATOM     30  O   UNL A   1      37.401  21.443  25.115  1.00  0.00    -0.460 OA
BRANCH  30  31
ATOM     31  C   UNL A   1      38.520  21.071  25.786  1.00  0.00     0.338 C 
ATOM     32  O   UNL A   1      39.044  19.966  25.783  1.00  0.00    -0.246 OA
BRANCH  31  33
ATOM     33  C   UNL A   1      39.165  22.269  26.356  1.00  0.00     0.060 A 
ATOM     34  C   UNL A   1      40.306  22.169  27.151  1.00  0.00     0.016 A 
ATOM     35  C   UNL A   1      38.619  23.524  26.049  1.00  0.00     0.016 A 
ATOM     36  C   UNL A   1      40.915  23.337  27.620  1.00  0.00     0.010 A 
ATOM     37  C   UNL A   1      39.226  24.686  26.523  1.00  0.00     0.010 A 
ATOM     38  C   UNL A   1      40.390  24.604  27.299  1.00  0.00    -0.014 A 
BRANCH  38  39
ATOM     39  C   UNL A   1      41.130  25.839  27.665  1.00  0.00     0.031 A 
ATOM     40  C   UNL A   1      42.552  26.056  27.236  1.00  0.00     0.074 A 
ATOM     41  C   UNL A   1      40.499  26.764  28.416  1.00  0.00     0.049 A 
ATOM     42  N   UNL A   1      43.309  27.108  27.420  1.00  0.00    -0.248 NA
ATOM     43  C   UNL A   1      43.214  24.959  26.516  1.00  0.00     0.031 C 
ATOM     44  C   UNL A   1      39.129  26.637  28.916  1.00  0.00     0.029 A 
ATOM     45  N   UNL A   1      40.909  27.990  28.878  1.00  0.00    -0.354 N 
ATOM     46  C   UNL A   1      44.527  26.812  26.821  1.00  0.00     0.074 A 
ATOM     47  C   UNL A   1      44.428  25.461  26.314  1.00  0.00     0.031 C 
ATOM     48  C   UNL A   1      38.798  27.756  29.576  1.00  0.00     0.029 A 
ATOM     49  C   UNL A   1      39.940  28.666  29.586  1.00  0.00     0.049 A 
ATOM     50  H   UNL A   1      41.811  28.352  28.720  1.00  0.00     0.167 HD
ATOM     51  C   UNL A   1      45.614  27.610  26.691  1.00  0.00     0.034 A 
ATOM     52  C   UNL A   1      39.963  29.884  30.167  1.00  0.00     0.034 A 
ATOM     53  C   UNL A   1      45.691  28.957  27.203  1.00  0.00     0.049 A 
ATOM     54  C   UNL A   1      41.209  30.727  30.040  1.00  0.00     0.074 A 
ATOM     55  C   UNL A   1      46.737  29.855  27.075  1.00  0.00     0.029 A 
ATOM     56  N   UNL A   1      44.703  29.600  27.933  1.00  0.00    -0.354 N 
ATOM     57  N   UNL A   1      42.311  30.477  29.374  1.00  0.00    -0.248 NA
ATOM     58  C   UNL A   1      41.213  32.025  30.731  1.00  0.00     0.031 C 
ATOM     59  C   UNL A   1      46.416  31.006  27.792  1.00  0.00     0.029 A 
ATOM     60  C   UNL A   1      45.131  30.869  28.290  1.00  0.00     0.049 A 
ATOM     61  H   UNL A   1      43.827  29.213  28.162  1.00  0.00     0.167 HD
ATOM     62  C   UNL A   1      43.118  31.601  29.529  1.00  0.00     0.074 A 
ATOM     63  C   UNL A   1      42.367  32.543  30.332  1.00  0.00     0.031 C 
ATOM     64  C   UNL A   1      44.368  31.827  29.053  1.00  0.00     0.034 A 
BRANCH  51  65
ATOM     65  C   UNL A   1      46.817  27.104  25.931  1.00  0.00     0.023 A 
ATOM     66  C   UNL A   1      47.864  26.459  26.618  1.00  0.00     0.031 A 
ATOM     67  C   UNL A   1      47.023  27.461  24.587  1.00  0.00     0.131 A 
ATOM     68  C   UNL A   1      49.093  26.255  25.979  1.00  0.00     0.055 A 
ATOM     69  C   UNL A   1      48.235  27.212  23.941  1.00  0.00     0.041 A 
ATOM     70  F   UNL A   1      46.057  28.083  23.891  1.00  0.00    -0.206 F 
ATOM     71  C   UNL A   1      49.283  26.625  24.644  1.00  0.00     0.022 A 
BRANCH  68  72
ATOM     72  S   UNL A   1      50.522  25.598  26.884  1.00  0.00     0.124 S 
ATOM     73  O   UNL A   1      51.448  25.286  25.796  1.00  0.00    -0.237 OA
ATOM     74  O   UNL A   1      50.901  26.732  27.720  1.00  0.00    -0.237 OA
ATOM     75  O   UNL A   1      49.986  24.439  27.590  1.00  0.00    -0.744 OA
ENDBRANCH  68  72
ENDBRANCH  51  65
BRANCH  52  76
ATOM     76  C   UNL A   1      38.742  30.405  30.854  1.00  0.00     0.023 A 
ATOM     77  C   UNL A   1      37.751  31.113  30.151  1.00  0.00     0.031 A 
ATOM     78  C   UNL A   1      38.579  30.249  32.241  1.00  0.00     0.131 A 
ATOM     79  C   UNL A   1      36.672  31.680  30.845  1.00  0.00     0.055 A 
ATOM     80  C   UNL A   1      37.463  30.748  32.916  1.00  0.00     0.041 A 
ATOM     81  F   UNL A   1      39.505  29.597  32.962  1.00  0.00    -0.206 F 
ATOM     82  C   UNL A   1      36.510  31.481  32.219  1.00  0.00     0.022 A 
BRANCH  79  83
ATOM     83  S   UNL A   1      35.511  32.796  30.009  1.00  0.00     0.124 S 
ATOM     84  O   UNL A   1      34.808  31.886  29.111  1.00  0.00    -0.237 OA
ATOM     85  O   UNL A   1      34.727  33.306  31.132  1.00  0.00    -0.237 OA
ATOM     86  O   UNL A   1      36.379  33.776  29.366  1.00  0.00    -0.744 OA
ENDBRANCH  79  83
ENDBRANCH  52  76
BRANCH  64  87
ATOM     87  C   UNL A   1      45.035  33.154  29.340  1.00  0.00     0.023 A 
ATOM     88  C   UNL A   1      44.776  34.262  28.508  1.00  0.00     0.031 A 
ATOM     89  C   UNL A   1      46.043  33.278  30.312  1.00  0.00     0.131 A 
ATOM     90  C   UNL A   1      45.554  35.421  28.624  1.00  0.00     0.055 A 
ATOM     91  C   UNL A   1      46.773  34.458  30.465  1.00  0.00     0.041 A 
ATOM     92  F   UNL A   1      46.341  32.249  31.121  1.00  0.00    -0.206 F 
ATOM     93  C   UNL A   1      46.542  35.529  29.608  1.00  0.00     0.022 A 
BRANCH  90  94
ATOM     94  S   UNL A   1      45.388  36.785  27.438  1.00  0.00     0.124 S 
ATOM     95  O   UNL A   1      46.262  37.800  28.021  1.00  0.00    -0.237 OA
ATOM     96  O   UNL A   1      45.875  36.177  26.204  1.00  0.00    -0.237 OA
ATOM     97  O   UNL A   1      43.964  37.103  27.463  1.00  0.00    -0.744 OA
ENDBRANCH  90  94
ENDBRANCH  64  87
ENDBRANCH  38  39
ENDBRANCH  31  33
ENDBRANCH  30  31
ENDBRANCH  29  30
ENDBRANCH  28  29
ENDBRANCH   1  28
TORSDOF 21
ENDMDL
MODEL 3
REMARK VINA RESULT:     -11.1      5.297      8.739
REMARK SMILES CC(C)CN(C)c1cc2c(cc1Cl)C=C(C(=O)OCCOCCOC(=O)c1ccc(-c3c4nc(c(-c5cc(S(=O)(=O)[O-])ccc5F)c5ccc([nH]5)c(-c5cc(S(=O)(=O)[O-])ccc5F)c5nc(c(-c6cc(S(=O)(=O)[O-])ccc6F)c6ccc3[nH]6)C=C5)C=C4)cc1)[C@H](C(F)(F)F)O2
REMARK SMILES IDX 21 1 20 2 19 3 18 4 16 5 17 6 15 7 7 8 8 9 12 10 9 11 11 12
REMARK SMILES IDX 13 13 10 14 95 15 14 16 90 17 5 18 6 19 4 20 2 21 1 22 3 23
REMARK SMILES IDX 91 24 92 25 93 26 94 27 22 28 23 29 24 30 25 31 26 32 27 33
REMARK SMILES IDX 28 34 89 35 29 36 88 37 30 38 31 39 32 40 82 41 33 42 87 43
REMARK SMILES IDX 81 44 83 45 34 46 86 47 80 48 79 49 35 51 67 52 47 53 66 54
REMARK SMILES IDX 48 55 51 56 65 57 84 58 49 59 50 60 64 62 85 63 52 64 36 65
REMARK SMILES IDX 37 66 45 67 38 68 44 69 46 70 43 71 39 72 40 73 41 74 42 75
REMARK SMILES IDX 68 76 69 77 77 78 70 79 76 80 78 81 75 82 71 83 72 84 73 85
REMARK SMILES IDX 74 86 53 87 54 88 62 89 55 90 61 91 63 92 60 93 56 94 57 95
REMARK SMILES IDX 58 96 59 97
REMARK H PARENT 83 50 51 61
REMARK Flexibility Score: inf
ROOT
ATOM      1  O   UNL A   1      32.317  29.982  25.580  1.00  0.00    -0.374 OA
ENDROOT
BRANCH   1   2
ATOM      2  C   UNL A   1      32.197  29.205  24.390  1.00  0.00     0.202 C 
BRANCH   2   3
ATOM      3  C   UNL A   1      30.841  28.554  24.105  1.00  0.00     0.261 C 
BRANCH   3   4
ATOM      4  O   UNL A   1      30.887  27.132  24.298  1.00  0.00    -0.460 OA
BRANCH   4   5
ATOM      5  C   UNL A   1      31.443  26.451  23.280  1.00  0.00     0.338 C 
ATOM      6  O   UNL A   1      31.420  26.774  22.100  1.00  0.00    -0.246 OA
BRANCH   5   7
ATOM      7  C   UNL A   1      32.243  25.310  23.764  1.00  0.00     0.087 C 
ATOM      8  C   UNL A   1      33.147  20.384  24.236  1.00  0.00     0.059 A 
ATOM      9  C   UNL A   1      33.399  21.512  25.050  1.00  0.00     0.074 A 
ATOM     10  C   UNL A   1      32.587  20.633  22.964  1.00  0.00     0.065 A 
ATOM     11  C   UNL A   1      33.110  22.812  24.615  1.00  0.00     0.130 A 
ATOM     12  C   UNL A   1      32.444  21.931  22.476  1.00  0.00     0.034 A 
ATOM     13  Cl  UNL A   1      31.873  19.397  21.982  1.00  0.00    -0.082 Cl
ATOM     14  C   UNL A   1      32.689  23.016  23.309  1.00  0.00     0.019 A 
ATOM     15  O   UNL A   1      33.209  23.820  25.530  1.00  0.00    -0.475 OA
ATOM     16  C   UNL A   1      32.313  24.331  22.853  1.00  0.00     0.027 C 
ATOM     17  C   UNL A   1      32.733  25.169  25.183  1.00  0.00     0.316 C 
BRANCH   8  18
ATOM     18  N   UNL A   1      33.398  19.083  24.700  1.00  0.00    -0.373 N 
ATOM     19  C   UNL A   1      32.571  18.639  25.821  1.00  0.00     0.143 C 
BRANCH  18  20
ATOM     20  C   UNL A   1      34.793  18.583  24.668  1.00  0.00     0.119 C 
BRANCH  20  21
ATOM     21  C   UNL A   1      34.925  17.169  24.063  1.00  0.00     0.002 C 
ATOM     22  C   UNL A   1      34.961  16.084  25.146  1.00  0.00     0.009 C 
ATOM     23  C   UNL A   1      33.792  16.844  23.085  1.00  0.00     0.009 C 
ENDBRANCH  20  21
ENDBRANCH  18  20
ENDBRANCH   8  18
BRANCH  17  24
ATOM     24  C   UNL A   1      33.866  26.139  25.573  1.00  0.00     0.430 C 
ATOM     25  F   UNL A   1      34.297  26.891  24.540  1.00  0.00    -0.167 F 
ATOM     26  F   UNL A   1      33.445  27.013  26.524  1.00  0.00    -0.167 F 
ATOM     27  F   UNL A   1      34.933  25.481  26.086  1.00  0.00    -0.167 F 
ENDBRANCH  17  24
ENDBRANCH   5   7
ENDBRANCH   4   5
ENDBRANCH   3   4
ENDBRANCH   2   3
ENDBRANCH   1   2
BRANCH   1  28
ATOM     28  C   UNL A   1      31.259  30.880  25.917  1.00  0.00     0.202 C 
BRANCH  28  29
ATOM     29  C   UNL A   1      31.595  32.168  26.680  1.00  0.00     0.261 C 
BRANCH  29  30
ATOM     30  O   UNL A   1      32.993  32.495  26.634  1.00  0.00    -0.460 OA
BRANCH  30  31
ATOM     31  C   UNL A   1      33.449  33.227  27.681  1.00  0.00     0.338 C 
ATOM     32  O   UNL A   1      32.852  34.119  28.267  1.00  0.00    -0.246 OA
BRANCH  31  33
ATOM     33  C   UNL A   1      34.707  32.636  28.176  1.00  0.00     0.060 A 
ATOM     34  C   UNL A   1      35.910  33.338  28.117  1.00  0.00     0.016 A 
ATOM     35  C   UNL A   1      34.657  31.355  28.743  1.00  0.00     0.016 A 
ATOM     36  C   UNL A   1      37.065  32.759  28.652  1.00  0.00     0.010 A 
ATOM     37  C   UNL A   1      35.812  30.778  29.271  1.00  0.00     0.010 A 
ATOM     38  C   UNL A   1      37.023  31.482  29.246  1.00  0.00    -0.014 A 
BRANCH  38  39
ATOM     39  C   UNL A   1      38.213  30.943  29.953  1.00  0.00     0.031 A 
ATOM     40  C   UNL A   1      38.588  31.413  31.328  1.00  0.00     0.074 A 
ATOM     41  C   UNL A   1      38.972  30.026  29.319  1.00  0.00     0.049 A 
ATOM     42  N   UNL A   1      39.556  30.991  32.100  1.00  0.00    -0.248 NA
ATOM     43  C   UNL A   1      37.781  32.495  31.913  1.00  0.00     0.031 C 
ATOM     44  C   UNL A   1      38.719  29.526  27.967  1.00  0.00     0.029 A 
ATOM     45  N   UNL A   1      40.093  29.343  29.721  1.00  0.00    -0.354 N 
ATOM     46  C   UNL A   1      39.465  31.735  33.269  1.00  0.00     0.074 A 
ATOM     47  C   UNL A   1      38.380  32.675  33.086  1.00  0.00     0.031 C 
ATOM     48  C   UNL A   1      39.628  28.586  27.669  1.00  0.00     0.029 A 
ATOM     49  C   UNL A   1      40.557  28.443  28.788  1.00  0.00     0.049 A 
ATOM     50  H   UNL A   1      40.527  29.483  30.594  1.00  0.00     0.167 HD
ATOM     51  C   UNL A   1      40.209  31.623  34.396  1.00  0.00     0.034 A 
ATOM     52  C   UNL A   1      41.602  27.590  28.829  1.00  0.00     0.034 A 
ATOM     53  C   UNL A   1      41.287  30.677  34.560  1.00  0.00     0.049 A 
ATOM     54  C   UNL A   1      42.437  27.525  30.086  1.00  0.00     0.074 A 
ATOM     55  C   UNL A   1      42.063  30.461  35.684  1.00  0.00     0.029 A 
ATOM     56  N   UNL A   1      41.742  29.799  33.588  1.00  0.00    -0.354 N 
ATOM     57  N   UNL A   1      42.268  28.156  31.223  1.00  0.00    -0.248 NA
ATOM     58  C   UNL A   1      43.598  26.622  30.072  1.00  0.00     0.031 C 
ATOM     59  C   UNL A   1      43.036  29.514  35.370  1.00  0.00     0.029 A 
ATOM     60  C   UNL A   1      42.812  29.066  34.079  1.00  0.00     0.049 A 
ATOM     61  H   UNL A   1      41.363  29.709  32.684  1.00  0.00     0.167 HD
ATOM     62  C   UNL A   1      43.270  27.693  32.072  1.00  0.00     0.074 A 
ATOM     63  C   UNL A   1      44.027  26.712  31.324  1.00  0.00     0.031 C 
ATOM     64  C   UNL A   1      43.541  28.055  33.351  1.00  0.00     0.034 A 
BRANCH  51  65
ATOM     65  C   UNL A   1      39.887  32.494  35.587  1.00  0.00     0.023 A 
ATOM     66  C   UNL A   1      39.029  32.017  36.596  1.00  0.00     0.031 A 
ATOM     67  C   UNL A   1      40.241  33.854  35.602  1.00  0.00     0.131 A 
ATOM     68  C   UNL A   1      38.498  32.908  37.536  1.00  0.00     0.055 A 
ATOM     69  C   UNL A   1      39.747  34.729  36.571  1.00  0.00     0.041 A 
ATOM     70  F   UNL A   1      41.053  34.359  34.658  1.00  0.00    -0.206 F 
ATOM     71  C   UNL A   1      38.855  34.260  37.532  1.00  0.00     0.022 A 
BRANCH  68  72
ATOM     72  S   UNL A   1      37.247  32.370  38.736  1.00  0.00     0.124 S 
ATOM     73  O   UNL A   1      37.393  30.916  38.691  1.00  0.00    -0.237 OA
ATOM     74  O   UNL A   1      37.712  33.006  39.965  1.00  0.00    -0.237 OA
ATOM     75  O   UNL A   1      35.996  32.883  38.190  1.00  0.00    -0.744 OA
ENDBRANCH  68  72
ENDBRANCH  51  65
BRANCH  52  76
ATOM     76  C   UNL A   1      41.868  26.680  27.674  1.00  0.00     0.023 A 
ATOM     77  C   UNL A   1      41.478  25.329  27.699  1.00  0.00     0.031 A 
ATOM     78  C   UNL A   1      42.571  27.139  26.547  1.00  0.00     0.131 A 
ATOM     79  C   UNL A   1      41.837  24.478  26.645  1.00  0.00     0.055 A 
ATOM     80  C   UNL A   1      42.859  26.307  25.464  1.00  0.00     0.041 A 
ATOM     81  F   UNL A   1      42.983  28.415  26.481  1.00  0.00    -0.206 F 
ATOM     82  C   UNL A   1      42.504  24.964  25.517  1.00  0.00     0.022 A 
BRANCH  79  83
ATOM     83  S   UNL A   1      41.560  22.688  26.757  1.00  0.00     0.124 S 
ATOM     84  O   UNL A   1      41.833  22.253  25.392  1.00  0.00    -0.237 OA
ATOM     85  O   UNL A   1      42.552  22.295  27.756  1.00  0.00    -0.237 OA
ATOM     86  O   UNL A   1      40.171  22.582  27.190  1.00  0.00    -0.744 OA
ENDBRANCH  79  83
ENDBRANCH  52  76
BRANCH  64  87
ATOM     87  C   UNL A   1      44.684  27.384  34.079  1.00  0.00     0.023 A 
ATOM     88  C   UNL A   1      44.442  26.226  34.846  1.00  0.00     0.031 A 
ATOM     89  C   UNL A   1      45.956  27.976  34.159  1.00  0.00     0.131 A 
ATOM     90  C   UNL A   1      45.436  25.732  35.700  1.00  0.00     0.055 A 
ATOM     91  C   UNL A   1      46.964  27.442  34.964  1.00  0.00     0.041 A 
ATOM     92  F   UNL A   1      46.237  29.089  33.461  1.00  0.00    -0.206 F 
ATOM     93  C   UNL A   1      46.700  26.327  35.753  1.00  0.00     0.022 A 
BRANCH  90  94
ATOM     94  S   UNL A   1      45.092  24.372  36.851  1.00  0.00     0.124 S 
ATOM     95  O   UNL A   1      46.437  23.893  37.163  1.00  0.00    -0.237 OA
ATOM     96  O   UNL A   1      44.408  25.059  37.941  1.00  0.00    -0.237 OA
ATOM     97  O   UNL A   1      44.271  23.450  36.073  1.00  0.00    -0.744 OA
ENDBRANCH  90  94
ENDBRANCH  64  87
ENDBRANCH  38  39
ENDBRANCH  31  33
ENDBRANCH  30  31
ENDBRANCH  29  30
ENDBRANCH  28  29
ENDBRANCH   1  28
TORSDOF 21
ENDMDL
