MODEL 1
REMARK VINA RESULT:     -10.1      0.000      0.000
REMARK SMILES O=C(OCCOCCOC(=O)[C@H](F)[C@H](O)C1CCOCC1)c1ccc(-c2c3nc(c(-c4cc(S(=O)(=O)[O-])ccc4F)c4ccc([nH]4)c(-c4cc(S(=O)(=O)[O-])ccc4F)c4nc(c(-c5cc(S(=O)(=O)[O-])ccc5F)c5ccc2[nH]5)C=C4)C=C3)cc1
REMARK SMILES IDX 5 1 4 2 3 3 2 4 1 5 22 6 23 7 84 8 24 9 83 10 25 11 26 12
REMARK SMILES IDX 27 13 77 14 28 15 82 16 76 17 78 18 29 19 81 20 75 21 74 22
REMARK SMILES IDX 30 24 62 25 42 26 61 27 43 28 46 29 60 30 79 31 44 32 45 33
REMARK SMILES IDX 59 35 80 36 47 37 31 38 32 39 40 40 33 41 39 42 41 43 38 44
REMARK SMILES IDX 34 45 35 46 36 47 37 48 63 49 64 50 72 51 65 52 71 53 73 54
REMARK SMILES IDX 70 55 66 56 67 57 68 58 69 59 48 60 49 61 57 62 50 63 56 64
REMARK SMILES IDX 58 65 55 66 51 67 52 68 53 69 54 70 6 71 7 72 8 73 9 74
REMARK SMILES IDX 10 75 11 76 12 77 13 78 14 79 16 80 17 81 21 82 18 83 20 84
REMARK SMILES IDX 19 85 15 86
REMARK H PARENT 78 23 46 34 15 87
REMARK Flexibility Score: inf
ROOT
ATOM      1  C   UNL A   1      31.454  28.632  25.520  1.00  0.00     0.202 C 
ENDROOT
BRANCH   1   2
ATOM      2  C   UNL A   1      32.438  29.086  26.616  1.00  0.00     0.261 C 
BRANCH   2   3
ATOM      3  O   UNL A   1      33.067  30.346  26.299  1.00  0.00    -0.460 OA
BRANCH   3   4
ATOM      4  C   UNL A   1      33.623  31.222  27.180  1.00  0.00     0.338 C 
ATOM      5  O   UNL A   1      33.092  32.314  27.363  1.00  0.00    -0.246 OA
BRANCH   4   6
ATOM      6  C   UNL A   1      34.888  30.901  27.897  1.00  0.00     0.060 A 
ATOM      7  C   UNL A   1      35.123  29.647  28.444  1.00  0.00     0.016 A 
ATOM      8  C   UNL A   1      35.914  31.852  27.973  1.00  0.00     0.016 A 
ATOM      9  C   UNL A   1      36.260  29.346  29.145  1.00  0.00     0.010 A 
ATOM     10  C   UNL A   1      37.125  31.531  28.607  1.00  0.00     0.010 A 
ATOM     11  C   UNL A   1      37.288  30.271  29.194  1.00  0.00    -0.014 A 
BRANCH  11  12
ATOM     12  C   UNL A   1      38.473  29.826  29.937  1.00  0.00     0.031 A 
ATOM     13  C   UNL A   1      39.447  28.938  29.238  1.00  0.00     0.074 A 
ATOM     14  C   UNL A   1      38.758  30.445  31.100  1.00  0.00     0.049 A 
ATOM     15  N   UNL A   1      40.560  28.432  29.683  1.00  0.00    -0.248 NA
ATOM     16  C   UNL A   1      39.140  28.596  27.837  1.00  0.00     0.031 C 
ATOM     17  C   UNL A   1      37.928  31.488  31.722  1.00  0.00     0.029 A 
ATOM     18  N   UNL A   1      39.840  30.353  31.928  1.00  0.00    -0.354 N 
ATOM     19  C   UNL A   1      41.065  27.669  28.639  1.00  0.00     0.074 A 
ATOM     20  C   UNL A   1      40.152  27.800  27.526  1.00  0.00     0.031 C 
ATOM     21  C   UNL A   1      38.556  31.963  32.806  1.00  0.00     0.029 A 
ATOM     22  C   UNL A   1      39.766  31.184  33.023  1.00  0.00     0.049 A 
ATOM     23  H   UNL A   1      40.601  29.752  31.758  1.00  0.00     0.167 HD
ATOM     24  C   UNL A   1      42.182  26.906  28.645  1.00  0.00     0.034 A 
ATOM     25  C   UNL A   1      40.563  31.252  34.106  1.00  0.00     0.034 A 
ATOM     26  C   UNL A   1      43.045  26.817  29.795  1.00  0.00     0.049 A 
ATOM     27  C   UNL A   1      41.732  30.302  34.137  1.00  0.00     0.074 A 
ATOM     28  C   UNL A   1      44.145  26.009  29.996  1.00  0.00     0.029 A 
ATOM     29  N   UNL A   1      42.888  27.578  30.951  1.00  0.00    -0.354 N 
ATOM     30  N   UNL A   1      42.143  29.474  33.198  1.00  0.00    -0.248 NA
ATOM     31  C   UNL A   1      42.529  30.267  35.365  1.00  0.00     0.031 C 
ATOM     32  C   UNL A   1      44.617  26.237  31.295  1.00  0.00     0.029 A 
ATOM     33  C   UNL A   1      43.854  27.238  31.881  1.00  0.00     0.049 A 
ATOM     34  H   UNL A   1      42.192  28.260  31.088  1.00  0.00     0.167 HD
ATOM     35  C   UNL A   1      43.247  28.819  33.726  1.00  0.00     0.074 A 
ATOM     36  C   UNL A   1      43.462  29.381  35.047  1.00  0.00     0.031 C 
ATOM     37  C   UNL A   1      44.010  27.833  33.188  1.00  0.00     0.034 A 
BRANCH  24  38
ATOM     38  C   UNL A   1      42.417  26.031  27.443  1.00  0.00     0.023 A 
ATOM     39  C   UNL A   1      41.937  24.712  27.364  1.00  0.00     0.031 A 
ATOM     40  C   UNL A   1      43.223  26.505  26.392  1.00  0.00     0.131 A 
ATOM     41  C   UNL A   1      42.320  23.895  26.286  1.00  0.00     0.055 A 
ATOM     42  C   UNL A   1      43.542  25.711  25.291  1.00  0.00     0.041 A 
ATOM     43  F   UNL A   1      43.742  27.742  26.436  1.00  0.00    -0.206 F 
ATOM     44  C   UNL A   1      43.100  24.393  25.239  1.00  0.00     0.022 A 
BRANCH  41  45
ATOM     45  S   UNL A   1      41.893  22.132  26.331  1.00  0.00     0.124 S 
ATOM     46  O   UNL A   1      42.714  21.603  25.244  1.00  0.00    -0.237 OA
ATOM     47  O   UNL A   1      42.293  21.742  27.678  1.00  0.00    -0.237 OA
ATOM     48  O   UNL A   1      40.453  22.120  26.080  1.00  0.00    -0.744 OA
ENDBRANCH  41  45
ENDBRANCH  24  38
BRANCH  25  49
ATOM     49  C   UNL A   1      40.220  32.123  35.272  1.00  0.00     0.023 A 
ATOM     50  C   UNL A   1      39.263  31.741  36.224  1.00  0.00     0.031 A 
ATOM     51  C   UNL A   1      40.798  33.403  35.413  1.00  0.00     0.131 A 
ATOM     52  C   UNL A   1      38.878  32.638  37.237  1.00  0.00     0.055 A 
ATOM     53  C   UNL A   1      40.464  34.263  36.460  1.00  0.00     0.041 A 
ATOM     54  F   UNL A   1      41.707  33.843  34.527  1.00  0.00    -0.206 F 
ATOM     55  C   UNL A   1      39.485  33.889  37.369  1.00  0.00     0.022 A 
BRANCH  52  56
ATOM     56  S   UNL A   1      37.477  32.201  38.304  1.00  0.00     0.124 S 
ATOM     57  O   UNL A   1      37.980  32.568  39.623  1.00  0.00    -0.237 OA
ATOM     58  O   UNL A   1      36.415  33.044  37.764  1.00  0.00    -0.237 OA
ATOM     59  O   UNL A   1      37.311  30.767  38.076  1.00  0.00    -0.744 OA
ENDBRANCH  52  56
ENDBRANCH  25  49
BRANCH  37  60
ATOM     60  C   UNL A   1      45.146  27.341  34.041  1.00  0.00     0.023 A 
ATOM     61  C   UNL A   1      44.996  26.220  34.874  1.00  0.00     0.031 A 
ATOM     62  C   UNL A   1      46.379  28.011  34.029  1.00  0.00     0.131 A 
ATOM     63  C   UNL A   1      46.051  25.834  35.708  1.00  0.00     0.055 A 
ATOM     64  C   UNL A   1      47.446  27.584  34.817  1.00  0.00     0.041 A 
ATOM     65  F   UNL A   1      46.564  29.087  33.248  1.00  0.00    -0.206 F 
ATOM     66  C   UNL A   1      47.281  26.498  35.673  1.00  0.00     0.022 A 
BRANCH  63  67
ATOM     67  S   UNL A   1      45.762  24.506  36.907  1.00  0.00     0.124 S 
ATOM     68  O   UNL A   1      45.590  23.347  36.037  1.00  0.00    -0.237 OA
ATOM     69  O   UNL A   1      46.985  24.529  37.703  1.00  0.00    -0.237 OA
ATOM     70  O   UNL A   1      44.556  24.938  37.611  1.00  0.00    -0.744 OA
ENDBRANCH  63  67
ENDBRANCH  37  60
ENDBRANCH  11  12
ENDBRANCH   4   6
ENDBRANCH   3   4
ENDBRANCH   2   3
ENDBRANCH   1   2
BRANCH   1  71
ATOM     71  O   UNL A   1      31.173  29.521  24.439  1.00  0.00    -0.374 OA
BRANCH  71  72
ATOM     72  C   UNL A   1      31.093  28.991  23.116  1.00  0.00     0.202 C 
BRANCH  72  73
ATOM     73  C   UNL A   1      30.923  27.470  23.149  1.00  0.00     0.261 C 
BRANCH  73  74
ATOM     74  O   UNL A   1      31.506  26.871  21.977  1.00  0.00    -0.461 OA
BRANCH  74  75
ATOM     75  C   UNL A   1      32.745  26.314  22.113  1.00  0.00     0.343 C 
ATOM     76  O   UNL A   1      33.621  26.316  21.267  1.00  0.00    -0.249 OA
BRANCH  75  77
ATOM     77  C   UNL A   1      32.921  25.753  23.515  1.00  0.00     0.304 C 
ATOM     78  F   UNL A   1      34.067  26.213  24.101  1.00  0.00    -0.232 F 
BRANCH  77  79
ATOM     79  C   UNL A   1      32.899  24.203  23.553  1.00  0.00     0.163 C 
BRANCH  79  80
ATOM     80  C   UNL A   1      32.309  23.571  24.844  1.00  0.00     0.026 C 
ATOM     81  C   UNL A   1      30.969  24.192  25.292  1.00  0.00     0.035 C 
ATOM     82  C   UNL A   1      33.277  23.538  26.030  1.00  0.00     0.035 C 
ATOM     83  C   UNL A   1      30.443  23.485  26.542  1.00  0.00     0.160 C 
ATOM     84  C   UNL A   1      32.616  22.853  27.221  1.00  0.00     0.160 C 
ATOM     85  O   UNL A   1      31.419  23.537  27.583  1.00  0.00    -0.381 OA
ENDBRANCH  79  80
BRANCH  79  86
ATOM     86  O   UNL A   1      32.200  23.732  22.390  1.00  0.00    -0.389 OA
ATOM     87  H   UNL A   1      32.404  24.308  21.636  1.00  0.00     0.211 HD
ENDBRANCH  79  86
ENDBRANCH  77  79
ENDBRANCH  75  77
ENDBRANCH  74  75
ENDBRANCH  73  74
ENDBRANCH  72  73
ENDBRANCH  71  72
ENDBRANCH   1  71
TORSDOF 20
ENDMDL
MODEL 2
REMARK VINA RESULT:     -10.0      2.055      3.530
REMARK SMILES O=C(OCCOCCOC(=O)[C@H](F)[C@H](O)C1CCOCC1)c1ccc(-c2c3nc(c(-c4cc(S(=O)(=O)[O-])ccc4F)c4ccc([nH]4)c(-c4cc(S(=O)(=O)[O-])ccc4F)c4nc(c(-c5cc(S(=O)(=O)[O-])ccc5F)c5ccc2[nH]5)C=C4)C=C3)cc1
REMARK SMILES IDX 5 1 4 2 3 3 2 4 1 5 22 6 23 7 84 8 24 9 83 10 25 11 26 12
REMARK SMILES IDX 27 13 77 14 28 15 82 16 76 17 78 18 29 19 81 20 75 21 74 22
REMARK SMILES IDX 30 24 62 25 42 26 61 27 43 28 46 29 60 30 79 31 44 32 45 33
REMARK SMILES IDX 59 35 80 36 47 37 31 38 32 39 40 40 33 41 39 42 41 43 38 44
REMARK SMILES IDX 34 45 35 46 36 47 37 48 63 49 64 50 72 51 65 52 71 53 73 54
REMARK SMILES IDX 70 55 66 56 67 57 68 58 69 59 48 60 49 61 57 62 50 63 56 64
REMARK SMILES IDX 58 65 55 66 51 67 52 68 53 69 54 70 6 71 7 72 8 73 9 74
REMARK SMILES IDX 10 75 11 76 12 77 13 78 14 79 16 80 17 81 21 82 18 83 20 84
REMARK SMILES IDX 19 85 15 86
REMARK H PARENT 78 23 46 34 15 87
REMARK Flexibility Score: inf
ROOT
ATOM      1  C   UNL A   1      33.388  28.493  24.930  1.00  0.00     0.202 C 
ENDROOT
BRANCH   1   2
ATOM      2  C   UNL A   1      32.397  29.659  25.121  1.00  0.00     0.261 C 
BRANCH   2   3
ATOM      3  O   UNL A   1      32.357  30.122  26.487  1.00  0.00    -0.460 OA
BRANCH   3   4
ATOM      4  C   UNL A   1      33.073  31.151  27.019  1.00  0.00     0.338 C 
ATOM      5  O   UNL A   1      32.700  32.306  26.834  1.00  0.00    -0.246 OA
BRANCH   4   6
ATOM      6  C   UNL A   1      34.325  30.908  27.786  1.00  0.00     0.060 A 
ATOM      7  C   UNL A   1      34.656  29.649  28.270  1.00  0.00     0.016 A 
ATOM      8  C   UNL A   1      35.247  31.945  27.978  1.00  0.00     0.016 A 
ATOM      9  C   UNL A   1      35.780  29.414  29.016  1.00  0.00     0.010 A 
ATOM     10  C   UNL A   1      36.450  31.702  28.659  1.00  0.00     0.010 A 
ATOM     11  C   UNL A   1      36.707  30.428  29.178  1.00  0.00    -0.014 A 
BRANCH  11  12
ATOM     12  C   UNL A   1      37.891  30.051  29.959  1.00  0.00     0.031 A 
ATOM     13  C   UNL A   1      38.961  29.267  29.278  1.00  0.00     0.074 A 
ATOM     14  C   UNL A   1      38.077  30.650  31.152  1.00  0.00     0.049 A 
ATOM     15  N   UNL A   1      40.091  28.833  29.757  1.00  0.00    -0.248 NA
ATOM     16  C   UNL A   1      38.742  28.949  27.855  1.00  0.00     0.031 C 
ATOM     17  C   UNL A   1      37.141  31.604  31.768  1.00  0.00     0.029 A 
ATOM     18  N   UNL A   1      39.127  30.616  32.025  1.00  0.00    -0.354 N 
ATOM     19  C   UNL A   1      40.699  28.148  28.714  1.00  0.00     0.074 A 
ATOM     20  C   UNL A   1      39.826  28.245  27.566  1.00  0.00     0.031 C 
ATOM     21  C   UNL A   1      37.683  32.090  32.894  1.00  0.00     0.029 A 
ATOM     22  C   UNL A   1      38.941  31.401  33.141  1.00  0.00     0.049 A 
ATOM     23  H   UNL A   1      39.939  30.081  31.871  1.00  0.00     0.167 HD
ATOM     24  C   UNL A   1      41.871  27.475  28.747  1.00  0.00     0.034 A 
ATOM     25  C   UNL A   1      39.683  31.494  34.261  1.00  0.00     0.034 A 
ATOM     26  C   UNL A   1      42.689  27.414  29.931  1.00  0.00     0.049 A 
ATOM     27  C   UNL A   1      40.921  30.636  34.314  1.00  0.00     0.074 A 
ATOM     28  C   UNL A   1      43.841  26.688  30.157  1.00  0.00     0.029 A 
ATOM     29  N   UNL A   1      42.424  28.121  31.102  1.00  0.00    -0.354 N 
ATOM     30  N   UNL A   1      41.435  29.876  33.370  1.00  0.00    -0.248 NA
ATOM     31  C   UNL A   1      41.666  30.622  35.575  1.00  0.00     0.031 C 
ATOM     32  C   UNL A   1      44.237  26.908  31.482  1.00  0.00     0.029 A 
ATOM     33  C   UNL A   1      43.373  27.826  32.063  1.00  0.00     0.049 A 
ATOM     34  H   UNL A   1      41.670  28.742  31.228  1.00  0.00     0.167 HD
ATOM     35  C   UNL A   1      42.565  29.291  33.927  1.00  0.00     0.074 A 
ATOM     36  C   UNL A   1      42.678  29.823  35.273  1.00  0.00     0.031 C 
ATOM     37  C   UNL A   1      43.426  28.386  33.394  1.00  0.00     0.034 A 
BRANCH  24  38
ATOM     38  C   UNL A   1      42.226  26.662  27.531  1.00  0.00     0.023 A 
ATOM     39  C   UNL A   1      41.920  25.294  27.421  1.00  0.00     0.031 A 
ATOM     40  C   UNL A   1      42.971  27.258  26.497  1.00  0.00     0.131 A 
ATOM     41  C   UNL A   1      42.412  24.556  26.331  1.00  0.00     0.055 A 
ATOM     42  C   UNL A   1      43.398  26.533  25.384  1.00  0.00     0.041 A 
ATOM     43  F   UNL A   1      43.326  28.549  26.570  1.00  0.00    -0.206 F 
ATOM     44  C   UNL A   1      43.129  25.171  25.302  1.00  0.00     0.022 A 
BRANCH  41  45
ATOM     45  S   UNL A   1      42.217  22.752  26.338  1.00  0.00     0.124 S 
ATOM     46  O   UNL A   1      43.115  22.362  27.422  1.00  0.00    -0.237 OA
ATOM     47  O   UNL A   1      40.792  22.587  26.601  1.00  0.00    -0.237 OA
ATOM     48  O   UNL A   1      42.653  22.353  25.001  1.00  0.00    -0.744 OA
ENDBRANCH  41  45
ENDBRANCH  24  38
BRANCH  25  49
ATOM     49  C   UNL A   1      39.223  32.295  35.436  1.00  0.00     0.023 A 
ATOM     50  C   UNL A   1      39.632  33.623  35.630  1.00  0.00     0.031 A 
ATOM     51  C   UNL A   1      38.416  31.713  36.436  1.00  0.00     0.131 A 
ATOM     52  C   UNL A   1      39.280  34.304  36.809  1.00  0.00     0.055 A 
ATOM     53  C   UNL A   1      38.011  32.415  37.572  1.00  0.00     0.041 A 
ATOM     54  F   UNL A   1      38.004  30.439  36.326  1.00  0.00    -0.206 F 
ATOM     55  C   UNL A   1      38.458  33.713  37.773  1.00  0.00     0.022 A 
BRANCH  52  56
ATOM     56  S   UNL A   1      40.018  35.930  37.133  1.00  0.00     0.124 S 
ATOM     57  O   UNL A   1      41.420  35.585  37.341  1.00  0.00    -0.237 OA
ATOM     58  O   UNL A   1      39.709  36.650  35.902  1.00  0.00    -0.237 OA
ATOM     59  O   UNL A   1      39.307  36.395  38.322  1.00  0.00    -0.744 OA
ENDBRANCH  52  56
ENDBRANCH  25  49
BRANCH  37  60
ATOM     60  C   UNL A   1      44.560  27.956  34.281  1.00  0.00     0.023 A 
ATOM     61  C   UNL A   1      44.424  26.863  35.155  1.00  0.00     0.031 A 
ATOM     62  C   UNL A   1      45.777  28.654  34.262  1.00  0.00     0.131 A 
ATOM     63  C   UNL A   1      45.476  26.536  36.019  1.00  0.00     0.055 A 
ATOM     64  C   UNL A   1      46.841  28.285  35.081  1.00  0.00     0.041 A 
ATOM     65  F   UNL A   1      45.948  29.705  33.443  1.00  0.00    -0.206 F 
ATOM     66  C   UNL A   1      46.689  27.228  35.976  1.00  0.00     0.022 A 
BRANCH  63  67
ATOM     67  S   UNL A   1      45.200  25.248  37.263  1.00  0.00     0.124 S 
ATOM     68  O   UNL A   1      44.901  24.085  36.433  1.00  0.00    -0.237 OA
ATOM     69  O   UNL A   1      46.477  25.216  37.969  1.00  0.00    -0.237 OA
ATOM     70  O   UNL A   1      44.074  25.761  38.042  1.00  0.00    -0.744 OA
ENDBRANCH  63  67
ENDBRANCH  37  60
ENDBRANCH  11  12
ENDBRANCH   4   6
ENDBRANCH   3   4
ENDBRANCH   2   3
ENDBRANCH   1   2
BRANCH   1  71
ATOM     71  O   UNL A   1      33.575  27.959  23.620  1.00  0.00    -0.374 OA
BRANCH  71  72
ATOM     72  C   UNL A   1      33.377  26.560  23.414  1.00  0.00     0.202 C 
BRANCH  72  73
ATOM     73  C   UNL A   1      31.931  26.164  23.724  1.00  0.00     0.261 C 
BRANCH  73  74
ATOM     74  O   UNL A   1      31.020  26.854  22.847  1.00  0.00    -0.461 OA
BRANCH  74  75
ATOM     75  C   UNL A   1      29.763  27.095  23.322  1.00  0.00     0.343 C 
ATOM     76  O   UNL A   1      28.995  26.256  23.758  1.00  0.00    -0.249 OA
BRANCH  75  77
ATOM     77  C   UNL A   1      29.471  28.587  23.309  1.00  0.00     0.304 C 
ATOM     78  F   UNL A   1      28.138  28.840  23.484  1.00  0.00    -0.232 F 
BRANCH  77  79
ATOM     79  C   UNL A   1      29.974  29.291  22.023  1.00  0.00     0.163 C 
BRANCH  79  80
ATOM     80  C   UNL A   1      29.498  30.758  21.831  1.00  0.00     0.026 C 
ATOM     81  C   UNL A   1      29.196  31.498  23.150  1.00  0.00     0.035 C 
ATOM     82  C   UNL A   1      28.314  30.918  20.873  1.00  0.00     0.035 C 
ATOM     83  C   UNL A   1      28.776  32.942  22.869  1.00  0.00     0.160 C 
ATOM     84  C   UNL A   1      27.967  32.394  20.718  1.00  0.00     0.160 C 
ATOM     85  O   UNL A   1      27.654  32.964  21.987  1.00  0.00    -0.381 OA
ENDBRANCH  79  80
BRANCH  79  86
ATOM     86  O   UNL A   1      31.407  29.213  21.996  1.00  0.00    -0.389 OA
ATOM     87  H   UNL A   1      31.691  28.771  21.180  1.00  0.00     0.211 HD
ENDBRANCH  79  86
ENDBRANCH  77  79
ENDBRANCH  75  77
ENDBRANCH  74  75
ENDBRANCH  73  74
ENDBRANCH  72  73
ENDBRANCH  71  72
ENDBRANCH   1  71
TORSDOF 20
ENDMDL
MODEL 3
REMARK VINA RESULT:     -10.0      5.127     10.131
REMARK SMILES O=C(OCCOCCOC(=O)[C@H](F)[C@H](O)C1CCOCC1)c1ccc(-c2c3nc(c(-c4cc(S(=O)(=O)[O-])ccc4F)c4ccc([nH]4)c(-c4cc(S(=O)(=O)[O-])ccc4F)c4nc(c(-c5cc(S(=O)(=O)[O-])ccc5F)c5ccc2[nH]5)C=C4)C=C3)cc1
REMARK SMILES IDX 5 1 4 2 3 3 2 4 1 5 22 6 23 7 84 8 24 9 83 10 25 11 26 12
REMARK SMILES IDX 27 13 77 14 28 15 82 16 76 17 78 18 29 19 81 20 75 21 74 22
REMARK SMILES IDX 30 24 62 25 42 26 61 27 43 28 46 29 60 30 79 31 44 32 45 33
REMARK SMILES IDX 59 35 80 36 47 37 31 38 32 39 40 40 33 41 39 42 41 43 38 44
REMARK SMILES IDX 34 45 35 46 36 47 37 48 63 49 64 50 72 51 65 52 71 53 73 54
REMARK SMILES IDX 70 55 66 56 67 57 68 58 69 59 48 60 49 61 57 62 50 63 56 64
REMARK SMILES IDX 58 65 55 66 51 67 52 68 53 69 54 70 6 71 7 72 8 73 9 74
REMARK SMILES IDX 10 75 11 76 12 77 13 78 14 79 16 80 17 81 21 82 18 83 20 84
REMARK SMILES IDX 19 85 15 86
REMARK H PARENT 78 23 46 34 15 87
REMARK Flexibility Score: inf
ROOT
ATOM      1  C   UNL A   1      35.508  20.491  24.976  1.00  0.00     0.202 C 
ENDROOT
BRANCH   1   2
ATOM      2  C   UNL A   1      36.767  21.338  24.701  1.00  0.00     0.261 C 
BRANCH   2   3
ATOM      3  O   UNL A   1      37.411  21.771  25.917  1.00  0.00    -0.460 OA
BRANCH   3   4
ATOM      4  C   UNL A   1      38.748  21.771  26.175  1.00  0.00     0.338 C 
ATOM      5  O   UNL A   1      39.378  20.720  26.094  1.00  0.00    -0.246 OA
BRANCH   4   6
ATOM      6  C   UNL A   1      39.456  23.011  26.595  1.00  0.00     0.060 A 
ATOM      7  C   UNL A   1      39.141  24.252  26.059  1.00  0.00     0.016 A 
ATOM      8  C   UNL A   1      40.422  22.962  27.608  1.00  0.00     0.016 A 
ATOM      9  C   UNL A   1      39.810  25.398  26.400  1.00  0.00     0.010 A 
ATOM     10  C   UNL A   1      41.053  24.140  28.037  1.00  0.00     0.010 A 
ATOM     11  C   UNL A   1      40.741  25.358  27.422  1.00  0.00    -0.014 A 
BRANCH  11  12
ATOM     12  C   UNL A   1      41.365  26.650  27.729  1.00  0.00     0.031 A 
ATOM     13  C   UNL A   1      40.616  27.603  28.598  1.00  0.00     0.074 A 
ATOM     14  C   UNL A   1      42.673  26.803  27.441  1.00  0.00     0.049 A 
ATOM     15  N   UNL A   1      40.966  28.787  29.008  1.00  0.00    -0.248 NA
ATOM     16  C   UNL A   1      39.304  27.150  29.095  1.00  0.00     0.031 C 
ATOM     17  C   UNL A   1      43.510  25.795  26.772  1.00  0.00     0.029 A 
ATOM     18  N   UNL A   1      43.547  27.812  27.728  1.00  0.00    -0.354 N 
ATOM     19  C   UNL A   1      39.902  29.246  29.771  1.00  0.00     0.074 A 
ATOM     20  C   UNL A   1      38.901  28.203  29.790  1.00  0.00     0.031 C 
ATOM     21  C   UNL A   1      44.779  26.224  26.741  1.00  0.00     0.029 A 
ATOM     22  C   UNL A   1      44.826  27.576  27.277  1.00  0.00     0.049 A 
ATOM     23  H   UNL A   1      43.288  28.629  28.212  1.00  0.00     0.167 HD
ATOM     24  C   UNL A   1      39.779  30.454  30.367  1.00  0.00     0.034 A 
ATOM     25  C   UNL A   1      45.893  28.397  27.249  1.00  0.00     0.034 A 
ATOM     26  C   UNL A   1      40.816  31.452  30.300  1.00  0.00     0.049 A 
ATOM     27  C   UNL A   1      45.687  29.780  27.812  1.00  0.00     0.074 A 
ATOM     28  C   UNL A   1      40.800  32.755  30.754  1.00  0.00     0.029 A 
ATOM     29  N   UNL A   1      42.070  31.240  29.731  1.00  0.00    -0.354 N 
ATOM     30  N   UNL A   1      44.628  30.269  28.422  1.00  0.00    -0.248 NA
ATOM     31  C   UNL A   1      46.794  30.728  27.667  1.00  0.00     0.031 C 
ATOM     32  C   UNL A   1      42.019  33.349  30.405  1.00  0.00     0.029 A 
ATOM     33  C   UNL A   1      42.825  32.397  29.795  1.00  0.00     0.049 A 
ATOM     34  H   UNL A   1      42.375  30.390  29.339  1.00  0.00     0.167 HD
ATOM     35  C   UNL A   1      44.942  31.586  28.732  1.00  0.00     0.074 A 
ATOM     36  C   UNL A   1      46.306  31.796  28.280  1.00  0.00     0.031 C 
ATOM     37  C   UNL A   1      44.180  32.545  29.318  1.00  0.00     0.034 A 
BRANCH  24  38
ATOM     38  C   UNL A   1      38.446  30.777  30.987  1.00  0.00     0.023 A 
ATOM     39  C   UNL A   1      37.419  31.423  30.277  1.00  0.00     0.031 A 
ATOM     40  C   UNL A   1      38.240  30.513  32.354  1.00  0.00     0.131 A 
ATOM     41  C   UNL A   1      36.258  31.835  30.953  1.00  0.00     0.055 A 
ATOM     42  C   UNL A   1      37.056  30.864  33.002  1.00  0.00     0.041 A 
ATOM     43  F   UNL A   1      39.203  29.937  33.089  1.00  0.00    -0.206 F 
ATOM     44  C   UNL A   1      36.061  31.540  32.304  1.00  0.00     0.022 A 
BRANCH  41  45
ATOM     45  S   UNL A   1      35.060  32.879  30.076  1.00  0.00     0.124 S 
ATOM     46  O   UNL A   1      34.136  33.234  31.151  1.00  0.00    -0.237 OA
ATOM     47  O   UNL A   1      35.893  33.962  29.568  1.00  0.00    -0.237 OA
ATOM     48  O   UNL A   1      34.508  31.987  29.057  1.00  0.00    -0.744 OA
ENDBRANCH  41  45
ENDBRANCH  24  38
BRANCH  25  49
ATOM     49  C   UNL A   1      47.164  28.000  26.568  1.00  0.00     0.023 A 
ATOM     50  C   UNL A   1      47.313  28.084  25.176  1.00  0.00     0.031 A 
ATOM     51  C   UNL A   1      48.237  27.453  27.303  1.00  0.00     0.131 A 
ATOM     52  C   UNL A   1      48.476  27.587  24.561  1.00  0.00     0.055 A 
ATOM     53  C   UNL A   1      49.418  27.025  26.696  1.00  0.00     0.041 A 
ATOM     54  F   UNL A   1      48.156  27.325  28.638  1.00  0.00    -0.206 F 
ATOM     55  C   UNL A   1      49.535  27.074  25.313  1.00  0.00     0.022 A 
BRANCH  52  56
ATOM     56  S   UNL A   1      48.535  27.497  22.749  1.00  0.00     0.124 S 
ATOM     57  O   UNL A   1      47.334  28.236  22.374  1.00  0.00    -0.237 OA
ATOM     58  O   UNL A   1      49.808  28.149  22.457  1.00  0.00    -0.237 OA
ATOM     59  O   UNL A   1      48.494  26.062  22.479  1.00  0.00    -0.744 OA
ENDBRANCH  52  56
ENDBRANCH  25  49
BRANCH  37  60
ATOM     60  C   UNL A   1      44.839  33.882  29.508  1.00  0.00     0.023 A 
ATOM     61  C   UNL A   1      44.729  34.891  28.536  1.00  0.00     0.031 A 
ATOM     62  C   UNL A   1      45.593  34.141  30.663  1.00  0.00     0.131 A 
ATOM     63  C   UNL A   1      45.416  36.098  28.714  1.00  0.00     0.055 A 
ATOM     64  C   UNL A   1      46.224  35.367  30.862  1.00  0.00     0.041 A 
ATOM     65  F   UNL A   1      45.725  33.203  31.616  1.00  0.00    -0.206 F 
ATOM     66  C   UNL A   1      46.148  36.349  29.877  1.00  0.00     0.022 A 
BRANCH  63  67
ATOM     67  S   UNL A   1      45.410  37.301  27.358  1.00  0.00     0.124 S 
ATOM     68  O   UNL A   1      46.291  36.664  26.385  1.00  0.00    -0.237 OA
ATOM     69  O   UNL A   1      43.997  37.359  26.996  1.00  0.00    -0.237 OA
ATOM     70  O   UNL A   1      45.941  38.514  27.977  1.00  0.00    -0.744 OA
ENDBRANCH  63  67
ENDBRANCH  37  60
ENDBRANCH  11  12
ENDBRANCH   4   6
ENDBRANCH   3   4
ENDBRANCH   2   3
ENDBRANCH   1   2
BRANCH   1  71
ATOM     71  O   UNL A   1      34.282  21.159  25.270  1.00  0.00    -0.374 OA
BRANCH  71  72
ATOM     72  C   UNL A   1      33.178  20.988  24.382  1.00  0.00     0.202 C 
BRANCH  72  73
ATOM     73  C   UNL A   1      32.193  22.154  24.508  1.00  0.00     0.261 C 
BRANCH  73  74
ATOM     74  O   UNL A   1      31.355  21.984  25.666  1.00  0.00    -0.461 OA
BRANCH  74  75
ATOM     75  C   UNL A   1      31.183  23.070  26.475  1.00  0.00     0.343 C 
ATOM     76  O   UNL A   1      30.677  23.057  27.583  1.00  0.00    -0.249 OA
BRANCH  75  77
ATOM     77  C   UNL A   1      31.790  24.308  25.834  1.00  0.00     0.304 C 
ATOM     78  F   UNL A   1      32.912  24.720  26.499  1.00  0.00    -0.232 F 
BRANCH  77  79
ATOM     79  C   UNL A   1      30.786  25.484  25.721  1.00  0.00     0.163 C 
BRANCH  79  80
ATOM     80  C   UNL A   1      30.555  26.033  24.285  1.00  0.00     0.026 C 
ATOM     81  C   UNL A   1      31.807  25.982  23.384  1.00  0.00     0.035 C 
ATOM     82  C   UNL A   1      29.947  27.437  24.236  1.00  0.00     0.035 C 
ATOM     83  C   UNL A   1      31.478  26.500  21.984  1.00  0.00     0.160 C 
ATOM     84  C   UNL A   1      29.714  27.851  22.787  1.00  0.00     0.160 C 
ATOM     85  O   UNL A   1      30.942  27.821  22.062  1.00  0.00    -0.381 OA
ENDBRANCH  79  80
BRANCH  79  86
ATOM     86  O   UNL A   1      29.545  25.079  26.317  1.00  0.00    -0.389 OA
ATOM     87  H   UNL A   1      29.444  24.118  26.230  1.00  0.00     0.211 HD
ENDBRANCH  79  86
ENDBRANCH  77  79
ENDBRANCH  75  77
ENDBRANCH  74  75
ENDBRANCH  73  74
ENDBRANCH  72  73
ENDBRANCH  71  72
ENDBRANCH   1  71
TORSDOF 20
ENDMDL
