MODEL 1
REMARK VINA RESULT:      -9.6      0.000      0.000
REMARK SMILES Nc1ccc([C@H]([NH3+])C(=O)OCCOCCOC(=O)c2ccc(-c3c4nc(c(-c5cc(S(=O)(=O)[O-])ccc5F)c5ccc([nH]5)c(-c5cc(S(=O)(=O)[O-])ccc5F)c5nc(c(-c6cc(S(=O)(=O)[O-])ccc6F)c6ccc3[nH]6)C=C5)C=C4)cc2)cc1C(F)(F)F
REMARK SMILES IDX 14 1 13 2 12 3 11 4 10 5 8 6 9 7 6 8 5 9 2 10 3 11 83 12
REMARK SMILES IDX 4 13 82 14 1 15 84 18 85 19 86 20 87 21 7 22 15 26 16 27
REMARK SMILES IDX 17 28 18 29 19 30 20 31 81 32 21 33 80 34 22 35 23 36 24 37
REMARK SMILES IDX 74 38 25 39 79 40 73 41 75 42 26 43 78 44 72 45 71 46 27 48
REMARK SMILES IDX 59 49 39 50 58 51 40 52 43 53 57 54 76 55 41 56 42 57 56 59
REMARK SMILES IDX 77 60 44 61 28 62 29 63 37 64 30 65 36 66 38 67 35 68 31 69
REMARK SMILES IDX 32 70 33 71 34 72 60 73 61 74 69 75 62 76 68 77 70 78 67 79
REMARK SMILES IDX 63 80 64 81 65 82 66 83 45 84 46 85 54 86 47 87 53 88 55 89
REMARK SMILES IDX 52 90 48 91 49 92 50 93 51 94
REMARK H PARENT 1 16 1 17 7 23 7 24 7 25 75 47 43 58
REMARK Flexibility Score: inf
ROOT
ATOM      1  C   UNL A   1      33.802  34.966  28.401  1.00  0.00     0.202 C 
ENDROOT
BRANCH   1   2
ATOM      2  O   UNL A   1      34.062  35.203  29.783  1.00  0.00    -0.374 OA
BRANCH   2   3
ATOM      3  C   UNL A   1      33.075  35.914  30.532  1.00  0.00     0.202 C 
BRANCH   3   4
ATOM      4  C   UNL A   1      33.233  35.901  32.054  1.00  0.00     0.261 C 
BRANCH   4   5
ATOM      5  O   UNL A   1      32.987  34.590  32.590  1.00  0.00    -0.459 OA
BRANCH   5   6
ATOM      6  C   UNL A   1      34.095  33.831  32.844  1.00  0.00     0.369 C 
ATOM      7  O   UNL A   1      34.246  32.665  32.496  1.00  0.00    -0.245 OA
BRANCH   6   8
ATOM      8  C   UNL A   1      35.140  34.602  33.677  1.00  0.00     0.323 C 
BRANCH   8   9
ATOM      9  C   UNL A   1      36.526  34.388  33.115  1.00  0.00     0.021 A 
ATOM     10  C   UNL A   1      39.147  34.224  32.053  1.00  0.00     0.044 A 
ATOM     11  C   UNL A   1      38.925  34.350  33.432  1.00  0.00     0.026 A 
ATOM     12  C   UNL A   1      38.041  34.152  31.196  1.00  0.00     0.079 A 
ATOM     13  C   UNL A   1      37.635  34.432  33.959  1.00  0.00     0.013 A 
ATOM     14  C   UNL A   1      36.741  34.225  31.739  1.00  0.00     0.025 A 
BRANCH  10  15
ATOM     15  N   UNL A   1      40.452  34.193  31.598  1.00  0.00    -0.398 N 
ATOM     16  H   UNL A   1      41.108  33.593  32.022  1.00  0.00     0.156 HD
ATOM     17  H   UNL A   1      40.726  34.773  30.851  1.00  0.00     0.156 HD
ENDBRANCH  10  15
BRANCH  12  18
ATOM     18  C   UNL A   1      38.154  34.038  29.695  1.00  0.00     0.418 C 
ATOM     19  F   UNL A   1      38.600  32.810  29.306  1.00  0.00    -0.166 F 
ATOM     20  F   UNL A   1      36.951  34.207  29.076  1.00  0.00    -0.166 F 
ATOM     21  F   UNL A   1      39.000  34.937  29.114  1.00  0.00    -0.166 F 
ENDBRANCH  12  18
ENDBRANCH   8   9
BRANCH   8  22
ATOM     22  N   UNL A   1      35.074  34.302  35.127  1.00  0.00    -0.342 N 
ATOM     23  H   UNL A   1      34.540  33.445  35.272  1.00  0.00     0.345 HD
ATOM     24  H   UNL A   1      34.618  35.074  35.613  1.00  0.00     0.345 HD
ATOM     25  H   UNL A   1      36.018  34.182  35.492  1.00  0.00     0.345 HD
ENDBRANCH   8  22
ENDBRANCH   6   8
ENDBRANCH   5   6
ENDBRANCH   4   5
ENDBRANCH   3   4
ENDBRANCH   2   3
ENDBRANCH   1   2
BRANCH   1  26
ATOM     26  C   UNL A   1      33.471  33.530  27.975  1.00  0.00     0.261 C 
BRANCH  26  27
ATOM     27  O   UNL A   1      34.624  32.675  27.889  1.00  0.00    -0.460 OA
BRANCH  27  28
ATOM     28  C   UNL A   1      34.334  31.355  27.797  1.00  0.00     0.338 C 
ATOM     29  O   UNL A   1      33.283  30.859  27.409  1.00  0.00    -0.246 OA
BRANCH  28  30
ATOM     30  C   UNL A   1      35.534  30.543  28.069  1.00  0.00     0.060 A 
ATOM     31  C   UNL A   1      35.513  29.716  29.200  1.00  0.00     0.016 A 
ATOM     32  C   UNL A   1      36.690  30.653  27.293  1.00  0.00     0.016 A 
ATOM     33  C   UNL A   1      36.663  29.034  29.588  1.00  0.00     0.010 A 
ATOM     34  C   UNL A   1      37.848  29.973  27.690  1.00  0.00     0.010 A 
ATOM     35  C   UNL A   1      37.849  29.190  28.859  1.00  0.00    -0.014 A 
BRANCH  35  36
ATOM     36  C   UNL A   1      39.121  28.660  29.414  1.00  0.00     0.031 A 
ATOM     37  C   UNL A   1      39.693  29.293  30.654  1.00  0.00     0.074 A 
ATOM     38  C   UNL A   1      39.736  27.609  28.844  1.00  0.00     0.049 A 
ATOM     39  N   UNL A   1      40.800  29.017  31.294  1.00  0.00    -0.248 NA
ATOM     40  C   UNL A   1      38.910  30.387  31.247  1.00  0.00     0.031 C 
ATOM     41  C   UNL A   1      39.252  26.885  27.669  1.00  0.00     0.029 A 
ATOM     42  N   UNL A   1      40.905  26.969  29.176  1.00  0.00    -0.354 N 
ATOM     43  C   UNL A   1      40.851  29.905  32.364  1.00  0.00     0.074 A 
ATOM     44  C   UNL A   1      39.681  30.753  32.259  1.00  0.00     0.031 C 
ATOM     45  C   UNL A   1      40.123  25.905  27.372  1.00  0.00     0.029 A 
ATOM     46  C   UNL A   1      41.242  25.955  28.311  1.00  0.00     0.049 A 
ATOM     47  H   UNL A   1      41.448  27.213  29.959  1.00  0.00     0.167 HD
ATOM     48  C   UNL A   1      41.782  29.998  33.347  1.00  0.00     0.034 A 
ATOM     49  C   UNL A   1      42.342  25.176  28.266  1.00  0.00     0.034 A 
ATOM     50  C   UNL A   1      42.948  29.153  33.428  1.00  0.00     0.049 A 
ATOM     51  C   UNL A   1      43.409  25.353  29.321  1.00  0.00     0.074 A 
ATOM     52  C   UNL A   1      43.947  29.150  34.387  1.00  0.00     0.029 A 
ATOM     53  N   UNL A   1      43.282  28.167  32.507  1.00  0.00    -0.354 N 
ATOM     54  N   UNL A   1      43.442  26.190  30.332  1.00  0.00    -0.248 NA
ATOM     55  C   UNL A   1      44.582  24.473  29.232  1.00  0.00     0.031 C 
ATOM     56  C   UNL A   1      44.918  28.216  34.008  1.00  0.00     0.029 A 
ATOM     57  C   UNL A   1      44.488  27.576  32.856  1.00  0.00     0.049 A 
ATOM     58  H   UNL A   1      42.742  27.923  31.722  1.00  0.00     0.167 HD
ATOM     59  C   UNL A   1      44.624  25.914  31.016  1.00  0.00     0.074 A 
ATOM     60  C   UNL A   1      45.269  24.828  30.308  1.00  0.00     0.031 C 
ATOM     61  C   UNL A   1      45.127  26.500  32.133  1.00  0.00     0.034 A 
BRANCH  48  62
ATOM     62  C   UNL A   1      41.598  31.091  34.373  1.00  0.00     0.023 A 
ATOM     63  C   UNL A   1      42.079  32.396  34.162  1.00  0.00     0.031 A 
ATOM     64  C   UNL A   1      40.965  30.814  35.597  1.00  0.00     0.131 A 
ATOM     65  C   UNL A   1      41.986  33.351  35.186  1.00  0.00     0.055 A 
ATOM     66  C   UNL A   1      40.804  31.791  36.581  1.00  0.00     0.041 A 
ATOM     67  F   UNL A   1      40.506  29.582  35.867  1.00  0.00    -0.206 F 
ATOM     68  C   UNL A   1      41.330  33.065  36.385  1.00  0.00     0.022 A 
BRANCH  65  69
ATOM     69  S   UNL A   1      42.866  34.925  34.988  1.00  0.00     0.124 S 
ATOM     70  O   UNL A   1      42.525  35.612  36.231  1.00  0.00    -0.237 OA
ATOM     71  O   UNL A   1      44.252  34.496  34.853  1.00  0.00    -0.237 OA
ATOM     72  O   UNL A   1      42.270  35.502  33.784  1.00  0.00    -0.744 OA
ENDBRANCH  65  69
ENDBRANCH  48  62
BRANCH  49  73
ATOM     73  C   UNL A   1      42.518  24.185  27.167  1.00  0.00     0.023 A 
ATOM     74  C   UNL A   1      41.955  22.901  27.243  1.00  0.00     0.031 A 
ATOM     75  C   UNL A   1      43.295  24.498  26.037  1.00  0.00     0.131 A 
ATOM     76  C   UNL A   1      42.212  21.964  26.230  1.00  0.00     0.055 A 
ATOM     77  C   UNL A   1      43.505  23.580  25.007  1.00  0.00     0.041 A 
ATOM     78  F   UNL A   1      43.858  25.711  25.915  1.00  0.00    -0.206 F 
ATOM     79  C   UNL A   1      42.971  22.299  25.106  1.00  0.00     0.022 A 
BRANCH  76  80
ATOM     80  S   UNL A   1      41.602  20.269  26.437  1.00  0.00     0.124 S 
ATOM     81  O   UNL A   1      40.167  20.444  26.247  1.00  0.00    -0.237 OA
ATOM     82  O   UNL A   1      42.309  19.559  25.375  1.00  0.00    -0.237 OA
ATOM     83  O   UNL A   1      42.015  19.923  27.796  1.00  0.00    -0.744 OA
ENDBRANCH  76  80
ENDBRANCH  49  73
BRANCH  61  84
ATOM     84  C   UNL A   1      46.416  25.938  32.685  1.00  0.00     0.023 A 
ATOM     85  C   UNL A   1      46.430  24.877  33.607  1.00  0.00     0.031 A 
ATOM     86  C   UNL A   1      47.650  26.481  32.283  1.00  0.00     0.131 A 
ATOM     87  C   UNL A   1      47.650  24.426  34.135  1.00  0.00     0.055 A 
ATOM     88  C   UNL A   1      48.863  25.990  32.768  1.00  0.00     0.041 A 
ATOM     89  F   UNL A   1      47.696  27.498  31.407  1.00  0.00    -0.206 F 
ATOM     90  C   UNL A   1      48.866  24.965  33.709  1.00  0.00     0.022 A 
BRANCH  87  91
ATOM     91  S   UNL A   1      47.623  23.182  35.456  1.00  0.00     0.124 S 
ATOM     92  O   UNL A   1      47.976  21.964  34.734  1.00  0.00    -0.237 OA
ATOM     93  O   UNL A   1      48.631  23.688  36.382  1.00  0.00    -0.237 OA
ATOM     94  O   UNL A   1      46.249  23.235  35.950  1.00  0.00    -0.744 OA
ENDBRANCH  87  91
ENDBRANCH  61  84
ENDBRANCH  35  36
ENDBRANCH  28  30
ENDBRANCH  27  28
ENDBRANCH  26  27
ENDBRANCH   1  26
TORSDOF 21
ENDMDL
MODEL 2
REMARK VINA RESULT:      -9.3      4.422      6.468
REMARK SMILES Nc1ccc([C@H]([NH3+])C(=O)OCCOCCOC(=O)c2ccc(-c3c4nc(c(-c5cc(S(=O)(=O)[O-])ccc5F)c5ccc([nH]5)c(-c5cc(S(=O)(=O)[O-])ccc5F)c5nc(c(-c6cc(S(=O)(=O)[O-])ccc6F)c6ccc3[nH]6)C=C5)C=C4)cc2)cc1C(F)(F)F
REMARK SMILES IDX 14 1 13 2 12 3 11 4 10 5 8 6 9 7 6 8 5 9 2 10 3 11 83 12
REMARK SMILES IDX 4 13 82 14 1 15 84 18 85 19 86 20 87 21 7 22 15 26 16 27
REMARK SMILES IDX 17 28 18 29 19 30 20 31 81 32 21 33 80 34 22 35 23 36 24 37
REMARK SMILES IDX 74 38 25 39 79 40 73 41 75 42 26 43 78 44 72 45 71 46 27 48
REMARK SMILES IDX 59 49 39 50 58 51 40 52 43 53 57 54 76 55 41 56 42 57 56 59
REMARK SMILES IDX 77 60 44 61 28 62 29 63 37 64 30 65 36 66 38 67 35 68 31 69
REMARK SMILES IDX 32 70 33 71 34 72 60 73 61 74 69 75 62 76 68 77 70 78 67 79
REMARK SMILES IDX 63 80 64 81 65 82 66 83 45 84 46 85 54 86 47 87 53 88 55 89
REMARK SMILES IDX 52 90 48 91 49 92 50 93 51 94
REMARK H PARENT 1 16 1 17 7 23 7 24 7 25 75 47 43 58
REMARK Flexibility Score: inf
ROOT
ATOM      1  C   UNL A   1      31.725  30.215  26.363  1.00  0.00     0.202 C 
ENDROOT
BRANCH   1   2
ATOM      2  O   UNL A   1      31.702  29.516  27.606  1.00  0.00    -0.374 OA
BRANCH   2   3
ATOM      3  C   UNL A   1      31.887  28.101  27.574  1.00  0.00     0.202 C 
BRANCH   3   4
ATOM      4  C   UNL A   1      32.463  27.517  26.283  1.00  0.00     0.261 C 
BRANCH   4   5
ATOM      5  O   UNL A   1      32.113  26.130  26.138  1.00  0.00    -0.459 OA
BRANCH   5   6
ATOM      6  C   UNL A   1      30.868  25.878  25.635  1.00  0.00     0.369 C 
ATOM      7  O   UNL A   1      29.849  25.752  26.306  1.00  0.00    -0.245 OA
BRANCH   6   8
ATOM      8  C   UNL A   1      30.891  25.714  24.101  1.00  0.00     0.323 C 
BRANCH   8   9
ATOM      9  C   UNL A   1      30.603  27.035  23.426  1.00  0.00     0.021 A 
ATOM     10  C   UNL A   1      30.117  29.616  22.367  1.00  0.00     0.044 A 
ATOM     11  C   UNL A   1      31.406  29.066  22.383  1.00  0.00     0.026 A 
ATOM     12  C   UNL A   1      29.051  28.854  22.863  1.00  0.00     0.079 A 
ATOM     13  C   UNL A   1      31.650  27.795  22.904  1.00  0.00     0.013 A 
ATOM     14  C   UNL A   1      29.305  27.566  23.379  1.00  0.00     0.025 A 
BRANCH  10  15
ATOM     15  N   UNL A   1      29.956  30.900  21.876  1.00  0.00    -0.398 N 
ATOM     16  H   UNL A   1      29.444  31.564  22.391  1.00  0.00     0.156 HD
ATOM     17  H   UNL A   1      30.355  31.148  21.010  1.00  0.00     0.156 HD
ENDBRANCH  10  15
BRANCH  12  18
ATOM     18  C   UNL A   1      27.625  29.348  22.919  1.00  0.00     0.418 C 
ATOM     19  F   UNL A   1      27.481  30.402  23.773  1.00  0.00    -0.166 F 
ATOM     20  F   UNL A   1      27.190  29.794  21.707  1.00  0.00    -0.166 F 
ATOM     21  F   UNL A   1      26.712  28.419  23.323  1.00  0.00    -0.166 F 
ENDBRANCH  12  18
ENDBRANCH   8   9
BRANCH   8  22
ATOM     22  N   UNL A   1      30.005  24.633  23.611  1.00  0.00    -0.342 N 
ATOM     23  H   UNL A   1      30.369  23.731  23.915  1.00  0.00     0.345 HD
ATOM     24  H   UNL A   1      29.969  24.660  22.591  1.00  0.00     0.345 HD
ATOM     25  H   UNL A   1      29.066  24.766  23.987  1.00  0.00     0.345 HD
ENDBRANCH   8  22
ENDBRANCH   6   8
ENDBRANCH   5   6
ENDBRANCH   4   5
ENDBRANCH   3   4
ENDBRANCH   2   3
ENDBRANCH   1   2
BRANCH   1  26
ATOM     26  C   UNL A   1      32.090  31.705  26.391  1.00  0.00     0.261 C 
BRANCH  26  27
ATOM     27  O   UNL A   1      32.480  32.177  27.692  1.00  0.00    -0.460 OA
BRANCH  27  28
ATOM     28  C   UNL A   1      33.486  33.086  27.676  1.00  0.00     0.338 C 
ATOM     29  O   UNL A   1      33.379  34.298  27.529  1.00  0.00    -0.246 OA
BRANCH  28  30
ATOM     30  C   UNL A   1      34.765  32.446  28.037  1.00  0.00     0.060 A 
ATOM     31  C   UNL A   1      34.732  31.093  28.397  1.00  0.00     0.016 A 
ATOM     32  C   UNL A   1      35.956  33.171  28.110  1.00  0.00     0.016 A 
ATOM     33  C   UNL A   1      35.879  30.472  28.883  1.00  0.00     0.010 A 
ATOM     34  C   UNL A   1      37.107  32.547  28.607  1.00  0.00     0.010 A 
ATOM     35  C   UNL A   1      37.064  31.204  29.028  1.00  0.00    -0.014 A 
BRANCH  35  36
ATOM     36  C   UNL A   1      38.205  30.607  29.768  1.00  0.00     0.031 A 
ATOM     37  C   UNL A   1      38.429  31.004  31.203  1.00  0.00     0.074 A 
ATOM     38  C   UNL A   1      39.005  29.698  29.183  1.00  0.00     0.049 A 
ATOM     39  N   UNL A   1      39.373  30.636  32.030  1.00  0.00    -0.248 NA
ATOM     40  C   UNL A   1      37.458  31.947  31.777  1.00  0.00     0.031 C 
ATOM     41  C   UNL A   1      38.857  29.202  27.816  1.00  0.00     0.029 A 
ATOM     42  N   UNL A   1      40.105  29.033  29.666  1.00  0.00    -0.354 N 
ATOM     43  C   UNL A   1      39.114  31.304  33.222  1.00  0.00     0.074 A 
ATOM     44  C   UNL A   1      37.946  32.129  32.994  1.00  0.00     0.031 C 
ATOM     45  C   UNL A   1      39.837  28.317  27.566  1.00  0.00     0.029 A 
ATOM     46  C   UNL A   1      40.702  28.212  28.739  1.00  0.00     0.049 A 
ATOM     47  H   UNL A   1      40.434  29.135  30.588  1.00  0.00     0.167 HD
ATOM     48  C   UNL A   1      39.782  31.227  34.401  1.00  0.00     0.034 A 
ATOM     49  C   UNL A   1      41.832  27.480  28.821  1.00  0.00     0.034 A 
ATOM     50  C   UNL A   1      40.952  30.408  34.607  1.00  0.00     0.049 A 
ATOM     51  C   UNL A   1      42.610  27.476  30.116  1.00  0.00     0.074 A 
ATOM     52  C   UNL A   1      41.699  30.244  35.762  1.00  0.00     0.029 A 
ATOM     53  N   UNL A   1      41.557  29.625  33.632  1.00  0.00    -0.354 N 
ATOM     54  N   UNL A   1      42.351  28.105  31.240  1.00  0.00    -0.248 NA
ATOM     55  C   UNL A   1      43.828  26.655  30.155  1.00  0.00     0.031 C 
ATOM     56  C   UNL A   1      42.792  29.422  35.466  1.00  0.00     0.029 A 
ATOM     57  C   UNL A   1      42.686  29.005  34.148  1.00  0.00     0.049 A 
ATOM     58  H   UNL A   1      41.232  29.523  32.709  1.00  0.00     0.167 HD
ATOM     59  C   UNL A   1      43.358  27.730  32.127  1.00  0.00     0.074 A 
ATOM     60  C   UNL A   1      44.221  26.814  31.410  1.00  0.00     0.031 C 
ATOM     61  C   UNL A   1      43.546  28.102  33.419  1.00  0.00     0.034 A 
BRANCH  48  62
ATOM     62  C   UNL A   1      39.292  32.100  35.533  1.00  0.00     0.023 A 
ATOM     63  C   UNL A   1      39.693  33.442  35.663  1.00  0.00     0.031 A 
ATOM     64  C   UNL A   1      38.440  31.570  36.517  1.00  0.00     0.131 A 
ATOM     65  C   UNL A   1      39.304  34.183  36.789  1.00  0.00     0.055 A 
ATOM     66  C   UNL A   1      37.990  32.337  37.593  1.00  0.00     0.041 A 
ATOM     67  F   UNL A   1      38.041  30.290  36.460  1.00  0.00    -0.206 F 
ATOM     68  C   UNL A   1      38.435  33.648  37.743  1.00  0.00     0.022 A 
BRANCH  65  69
ATOM     69  S   UNL A   1      40.067  35.805  37.068  1.00  0.00     0.124 S 
ATOM     70  O   UNL A   1      41.477  35.447  37.208  1.00  0.00    -0.237 OA
ATOM     71  O   UNL A   1      39.709  36.534  35.858  1.00  0.00    -0.237 OA
ATOM     72  O   UNL A   1      39.429  36.278  38.295  1.00  0.00    -0.744 OA
ENDBRANCH  65  69
ENDBRANCH  48  62
BRANCH  49  73
ATOM     73  C   UNL A   1      42.325  26.721  27.637  1.00  0.00     0.023 A 
ATOM     74  C   UNL A   1      42.016  25.364  27.457  1.00  0.00     0.031 A 
ATOM     75  C   UNL A   1      43.155  27.340  26.685  1.00  0.00     0.131 A 
ATOM     76  C   UNL A   1      42.566  24.658  26.375  1.00  0.00     0.055 A 
ATOM     77  C   UNL A   1      43.659  26.647  25.582  1.00  0.00     0.041 A 
ATOM     78  F   UNL A   1      43.485  28.636  26.810  1.00  0.00    -0.206 F 
ATOM     79  C   UNL A   1      43.374  25.294  25.430  1.00  0.00     0.022 A 
BRANCH  76  80
ATOM     80  S   UNL A   1      42.274  22.872  26.263  1.00  0.00     0.124 S 
ATOM     81  O   UNL A   1      40.828  22.796  26.425  1.00  0.00    -0.237 OA
ATOM     82  O   UNL A   1      42.788  22.564  24.931  1.00  0.00    -0.237 OA
ATOM     83  O   UNL A   1      43.058  22.329  27.371  1.00  0.00    -0.744 OA
ENDBRANCH  76  80
ENDBRANCH  49  73
BRANCH  61  84
ATOM     84  C   UNL A   1      44.707  27.474  34.155  1.00  0.00     0.023 A 
ATOM     85  C   UNL A   1      44.582  26.248  34.830  1.00  0.00     0.031 A 
ATOM     86  C   UNL A   1      45.956  28.120  34.181  1.00  0.00     0.131 A 
ATOM     87  C   UNL A   1      45.673  25.731  35.548  1.00  0.00     0.055 A 
ATOM     88  C   UNL A   1      47.053  27.573  34.847  1.00  0.00     0.041 A 
ATOM     89  F   UNL A   1      46.132  29.294  33.554  1.00  0.00    -0.206 F 
ATOM     90  C   UNL A   1      46.911  26.378  35.546  1.00  0.00     0.022 A 
BRANCH  87  91
ATOM     91  S   UNL A   1      45.428  24.244  36.558  1.00  0.00     0.124 S 
ATOM     92  O   UNL A   1      44.208  23.685  35.986  1.00  0.00    -0.237 OA
ATOM     93  O   UNL A   1      46.653  23.491  36.308  1.00  0.00    -0.237 OA
ATOM     94  O   UNL A   1      45.293  24.770  37.916  1.00  0.00    -0.744 OA
ENDBRANCH  87  91
ENDBRANCH  61  84
ENDBRANCH  35  36
ENDBRANCH  28  30
ENDBRANCH  27  28
ENDBRANCH  26  27
ENDBRANCH   1  26
TORSDOF 21
ENDMDL
MODEL 3
REMARK VINA RESULT:      -9.3      5.834      9.640
REMARK SMILES Nc1ccc([C@H]([NH3+])C(=O)OCCOCCOC(=O)c2ccc(-c3c4nc(c(-c5cc(S(=O)(=O)[O-])ccc5F)c5ccc([nH]5)c(-c5cc(S(=O)(=O)[O-])ccc5F)c5nc(c(-c6cc(S(=O)(=O)[O-])ccc6F)c6ccc3[nH]6)C=C5)C=C4)cc2)cc1C(F)(F)F
REMARK SMILES IDX 14 1 13 2 12 3 11 4 10 5 8 6 9 7 6 8 5 9 2 10 3 11 83 12
REMARK SMILES IDX 4 13 82 14 1 15 84 18 85 19 86 20 87 21 7 22 15 26 16 27
REMARK SMILES IDX 17 28 18 29 19 30 20 31 81 32 21 33 80 34 22 35 23 36 24 37
REMARK SMILES IDX 74 38 25 39 79 40 73 41 75 42 26 43 78 44 72 45 71 46 27 48
REMARK SMILES IDX 59 49 39 50 58 51 40 52 43 53 57 54 76 55 41 56 42 57 56 59
REMARK SMILES IDX 77 60 44 61 28 62 29 63 37 64 30 65 36 66 38 67 35 68 31 69
REMARK SMILES IDX 32 70 33 71 34 72 60 73 61 74 69 75 62 76 68 77 70 78 67 79
REMARK SMILES IDX 63 80 64 81 65 82 66 83 45 84 46 85 54 86 47 87 53 88 55 89
REMARK SMILES IDX 52 90 48 91 49 92 50 93 51 94
REMARK H PARENT 1 16 1 17 7 23 7 24 7 25 75 47 43 58
REMARK Flexibility Score: inf
ROOT
ATOM      1  C   UNL A   1      36.048  20.080  24.617  1.00  0.00     0.202 C 
ENDROOT
BRANCH   1   2
ATOM      2  O   UNL A   1      35.219  20.883  25.453  1.00  0.00    -0.374 OA
BRANCH   2   3
ATOM      3  C   UNL A   1      33.807  20.814  25.250  1.00  0.00     0.202 C 
BRANCH   3   4
ATOM      4  C   UNL A   1      32.936  21.593  26.238  1.00  0.00     0.261 C 
BRANCH   4   5
ATOM      5  O   UNL A   1      32.457  22.816  25.655  1.00  0.00    -0.459 OA
BRANCH   5   6
ATOM      6  C   UNL A   1      31.793  23.660  26.500  1.00  0.00     0.369 C 
ATOM      7  O   UNL A   1      31.945  23.706  27.716  1.00  0.00    -0.245 OA
BRANCH   6   8
ATOM      8  C   UNL A   1      30.768  24.535  25.748  1.00  0.00     0.323 C 
BRANCH   8   9
ATOM      9  C   UNL A   1      31.408  25.829  25.299  1.00  0.00     0.021 A 
ATOM     10  C   UNL A   1      32.553  28.343  24.674  1.00  0.00     0.044 A 
ATOM     11  C   UNL A   1      33.289  27.351  25.339  1.00  0.00     0.026 A 
ATOM     12  C   UNL A   1      31.234  28.063  24.294  1.00  0.00     0.079 A 
ATOM     13  C   UNL A   1      32.728  26.111  25.650  1.00  0.00     0.013 A 
ATOM     14  C   UNL A   1      30.679  26.803  24.603  1.00  0.00     0.025 A 
BRANCH  10  15
ATOM     15  N   UNL A   1      33.159  29.564  24.439  1.00  0.00    -0.398 N 
ATOM     16  H   UNL A   1      34.098  29.706  24.701  1.00  0.00     0.156 HD
ATOM     17  H   UNL A   1      32.651  30.290  24.011  1.00  0.00     0.156 HD
ENDBRANCH  10  15
BRANCH  12  18
ATOM     18  C   UNL A   1      30.338  29.057  23.595  1.00  0.00     0.418 C 
ATOM     19  F   UNL A   1      29.073  28.577  23.426  1.00  0.00    -0.166 F 
ATOM     20  F   UNL A   1      30.202  30.213  24.307  1.00  0.00    -0.166 F 
ATOM     21  F   UNL A   1      30.757  29.433  22.353  1.00  0.00    -0.166 F 
ENDBRANCH  12  18
ENDBRANCH   8   9
BRANCH   8  22
ATOM     22  N   UNL A   1      29.520  24.767  26.510  1.00  0.00    -0.342 N 
ATOM     23  H   UNL A   1      29.371  23.997  27.162  1.00  0.00     0.345 HD
ATOM     24  H   UNL A   1      28.732  24.821  25.863  1.00  0.00     0.345 HD
ATOM     25  H   UNL A   1      29.594  25.642  27.028  1.00  0.00     0.345 HD
ENDBRANCH   8  22
ENDBRANCH   6   8
ENDBRANCH   5   6
ENDBRANCH   4   5
ENDBRANCH   3   4
ENDBRANCH   2   3
ENDBRANCH   1   2
BRANCH   1  26
ATOM     26  C   UNL A   1      37.502  19.861  25.056  1.00  0.00     0.261 C 
BRANCH  26  27
ATOM     27  O   UNL A   1      38.169  21.069  25.462  1.00  0.00    -0.460 OA
BRANCH  27  28
ATOM     28  C   UNL A   1      39.339  20.867  26.115  1.00  0.00     0.338 C 
ATOM     29  O   UNL A   1      40.013  19.844  26.116  1.00  0.00    -0.246 OA
BRANCH  28  30
ATOM     30  C   UNL A   1      39.818  22.125  26.716  1.00  0.00     0.060 A 
ATOM     31  C   UNL A   1      39.238  23.319  26.266  1.00  0.00     0.016 A 
ATOM     32  C   UNL A   1      40.872  22.150  27.632  1.00  0.00     0.016 A 
ATOM     33  C   UNL A   1      39.744  24.544  26.691  1.00  0.00     0.010 A 
ATOM     34  C   UNL A   1      41.384  23.383  28.051  1.00  0.00     0.010 A 
ATOM     35  C   UNL A   1      40.846  24.586  27.555  1.00  0.00    -0.014 A 
BRANCH  35  36
ATOM     36  C   UNL A   1      41.528  25.881  27.807  1.00  0.00     0.031 A 
ATOM     37  C   UNL A   1      40.791  26.955  28.562  1.00  0.00     0.074 A 
ATOM     38  C   UNL A   1      42.794  26.083  27.403  1.00  0.00     0.049 A 
ATOM     39  N   UNL A   1      41.175  28.167  28.870  1.00  0.00    -0.248 NA
ATOM     40  C   UNL A   1      39.440  26.613  29.028  1.00  0.00     0.031 C 
ATOM     41  C   UNL A   1      43.623  25.101  26.705  1.00  0.00     0.029 A 
ATOM     42  N   UNL A   1      43.604  27.186  27.518  1.00  0.00    -0.354 N 
ATOM     43  C   UNL A   1      40.111  28.736  29.563  1.00  0.00     0.074 A 
ATOM     44  C   UNL A   1      39.054  27.747  29.593  1.00  0.00     0.031 C 
ATOM     45  C   UNL A   1      44.822  25.649  26.445  1.00  0.00     0.029 A 
ATOM     46  C   UNL A   1      44.834  27.030  26.924  1.00  0.00     0.049 A 
ATOM     47  H   UNL A   1      43.330  28.009  27.983  1.00  0.00     0.167 HD
ATOM     48  C   UNL A   1      40.028  29.967  30.129  1.00  0.00     0.034 A 
ATOM     49  C   UNL A   1      45.843  27.910  26.762  1.00  0.00     0.034 A 
ATOM     50  C   UNL A   1      41.087  30.945  30.079  1.00  0.00     0.049 A 
ATOM     51  C   UNL A   1      45.697  29.304  27.325  1.00  0.00     0.074 A 
ATOM     52  C   UNL A   1      41.116  32.215  30.629  1.00  0.00     0.029 A 
ATOM     53  N   UNL A   1      42.302  30.770  29.427  1.00  0.00    -0.354 N 
ATOM     54  N   UNL A   1      44.689  29.829  27.986  1.00  0.00    -0.248 NA
ATOM     55  C   UNL A   1      46.828  30.220  27.129  1.00  0.00     0.031 C 
ATOM     56  C   UNL A   1      42.314  32.831  30.251  1.00  0.00     0.029 A 
ATOM     57  C   UNL A   1      43.072  31.920  29.532  1.00  0.00     0.049 A 
ATOM     58  H   UNL A   1      42.578  29.949  28.960  1.00  0.00     0.167 HD
ATOM     59  C   UNL A   1      45.081  31.126  28.309  1.00  0.00     0.074 A 
ATOM     60  C   UNL A   1      46.418  31.299  27.781  1.00  0.00     0.031 C 
ATOM     61  C   UNL A   1      44.400  32.084  28.989  1.00  0.00     0.034 A 
BRANCH  48  62
ATOM     62  C   UNL A   1      38.724  30.335  30.797  1.00  0.00     0.023 A 
ATOM     63  C   UNL A   1      37.679  30.960  30.092  1.00  0.00     0.031 A 
ATOM     64  C   UNL A   1      38.537  30.090  32.169  1.00  0.00     0.131 A 
ATOM     65  C   UNL A   1      36.530  31.385  30.775  1.00  0.00     0.055 A 
ATOM     66  C   UNL A   1      37.357  30.443  32.826  1.00  0.00     0.041 A 
ATOM     67  F   UNL A   1      39.506  29.518  32.900  1.00  0.00    -0.206 F 
ATOM     68  C   UNL A   1      36.351  31.109  32.133  1.00  0.00     0.022 A 
BRANCH  65  69
ATOM     69  S   UNL A   1      35.338  32.436  29.899  1.00  0.00     0.124 S 
ATOM     70  O   UNL A   1      36.188  33.537  29.453  1.00  0.00    -0.237 OA
ATOM     71  O   UNL A   1      34.842  31.546  28.857  1.00  0.00    -0.237 OA
ATOM     72  O   UNL A   1      34.367  32.789  30.934  1.00  0.00    -0.744 OA
ENDBRANCH  65  69
ENDBRANCH  48  62
BRANCH  49  73
ATOM     73  C   UNL A   1      47.065  27.523  26.001  1.00  0.00     0.023 A 
ATOM     74  C   UNL A   1      47.214  27.847  24.643  1.00  0.00     0.031 A 
ATOM     75  C   UNL A   1      48.087  26.780  26.618  1.00  0.00     0.131 A 
ATOM     76  C   UNL A   1      48.339  27.393  23.936  1.00  0.00     0.055 A 
ATOM     77  C   UNL A   1      49.228  26.374  25.923  1.00  0.00     0.041 A 
ATOM     78  F   UNL A   1      47.994  26.441  27.914  1.00  0.00    -0.206 F 
ATOM     79  C   UNL A   1      49.352  26.672  24.570  1.00  0.00     0.022 A 
BRANCH  76  80
ATOM     80  S   UNL A   1      48.422  27.694  22.149  1.00  0.00     0.124 S 
ATOM     81  O   UNL A   1      48.581  26.342  21.628  1.00  0.00    -0.237 OA
ATOM     82  O   UNL A   1      47.136  28.335  21.890  1.00  0.00    -0.237 OA
ATOM     83  O   UNL A   1      49.588  28.562  22.004  1.00  0.00    -0.744 OA
ENDBRANCH  76  80
ENDBRANCH  49  73
BRANCH  61  84
ATOM     84  C   UNL A   1      45.117  33.390  29.243  1.00  0.00     0.023 A 
ATOM     85  C   UNL A   1      45.138  34.424  28.291  1.00  0.00     0.031 A 
ATOM     86  C   UNL A   1      45.792  33.597  30.459  1.00  0.00     0.131 A 
ATOM     87  C   UNL A   1      45.864  35.597  28.549  1.00  0.00     0.055 A 
ATOM     88  C   UNL A   1      46.464  34.789  30.734  1.00  0.00     0.041 A 
ATOM     89  F   UNL A   1      45.807  32.643  31.404  1.00  0.00    -0.206 F 
ATOM     90  C   UNL A   1      46.513  35.792  29.771  1.00  0.00     0.022 A 
BRANCH  87  91
ATOM     91  S   UNL A   1      46.025  36.833  27.230  1.00  0.00     0.124 S 
ATOM     92  O   UNL A   1      46.215  35.996  26.051  1.00  0.00    -0.237 OA
ATOM     93  O   UNL A   1      44.752  37.542  27.310  1.00  0.00    -0.237 OA
ATOM     94  O   UNL A   1      47.194  37.614  27.632  1.00  0.00    -0.744 OA
ENDBRANCH  87  91
ENDBRANCH  61  84
ENDBRANCH  35  36
ENDBRANCH  28  30
ENDBRANCH  27  28
ENDBRANCH  26  27
ENDBRANCH   1  26
TORSDOF 21
ENDMDL
