MODEL 1
REMARK VINA RESULT:     -10.8      0.000      0.000
REMARK SMILES O=C(OCCOCCOC(=O)c1ccc(CNC(=O)c2ccc(F)cc2Br)o1)c1ccc(-c2c3nc(c(-c4cc(S(=O)(=O)[O-])ccc4F)c4ccc([nH]4)c(-c4cc(S(=O)(=O)[O-])ccc4F)c4nc(c(-c5cc(S(=O)(=O)[O-])ccc5F)c5ccc2[nH]5)C=C4)C=C3)cc1
REMARK SMILES IDX 6 1 5 2 4 3 3 4 2 5 1 6 29 7 30 8 91 9 31 10 90 11 32 12
REMARK SMILES IDX 33 13 34 14 84 15 35 16 89 17 83 18 85 19 36 20 88 21 82 22
REMARK SMILES IDX 81 23 37 25 69 26 49 27 68 28 50 29 53 30 67 31 86 32 51 33
REMARK SMILES IDX 52 34 66 36 87 37 54 38 38 39 39 40 47 41 40 42 46 43 48 44
REMARK SMILES IDX 45 45 41 46 42 47 43 48 44 49 70 50 71 51 79 52 72 53 78 54
REMARK SMILES IDX 80 55 77 56 73 57 74 58 75 59 76 60 55 61 56 62 64 63 57 64
REMARK SMILES IDX 63 65 65 66 62 67 58 68 59 69 60 70 61 71 7 72 8 73 9 74
REMARK SMILES IDX 10 75 11 76 12 77 13 78 28 79 14 80 15 81 16 82 17 83 18 84
REMARK SMILES IDX 19 86 20 87 21 88 26 89 22 90 25 91 27 92 23 93 24 94
REMARK H PARENT 85 24 53 35 17 85
REMARK Flexibility Score: inf
ROOT
ATOM      1  O   UNL A   1      31.478  30.814  26.109  1.00  0.00    -0.374 OA
ENDROOT
BRANCH   1   2
ATOM      2  C   UNL A   1      32.241  31.614  27.013  1.00  0.00     0.202 C 
BRANCH   2   3
ATOM      3  C   UNL A   1      32.086  33.116  26.772  1.00  0.00     0.261 C 
BRANCH   3   4
ATOM      4  O   UNL A   1      32.200  33.805  28.033  1.00  0.00    -0.460 OA
BRANCH   4   5
ATOM      5  C   UNL A   1      33.250  34.524  28.494  1.00  0.00     0.338 C 
ATOM      6  O   UNL A   1      33.215  35.750  28.421  1.00  0.00    -0.246 OA
BRANCH   5   7
ATOM      7  C   UNL A   1      34.448  33.884  29.102  1.00  0.00     0.060 A 
ATOM      8  C   UNL A   1      35.746  34.381  28.960  1.00  0.00     0.016 A 
ATOM      9  C   UNL A   1      34.228  32.800  29.966  1.00  0.00     0.016 A 
ATOM     10  C   UNL A   1      36.818  33.756  29.602  1.00  0.00     0.010 A 
ATOM     11  C   UNL A   1      35.292  32.211  30.656  1.00  0.00     0.010 A 
ATOM     12  C   UNL A   1      36.599  32.677  30.469  1.00  0.00    -0.014 A 
BRANCH  12  13
ATOM     13  C   UNL A   1      37.735  32.066  31.207  1.00  0.00     0.031 A 
ATOM     14  C   UNL A   1      38.565  30.985  30.575  1.00  0.00     0.074 A 
ATOM     15  C   UNL A   1      38.016  32.489  32.454  1.00  0.00     0.049 A 
ATOM     16  N   UNL A   1      39.550  30.294  31.088  1.00  0.00    -0.248 NA
ATOM     17  C   UNL A   1      38.230  30.626  29.190  1.00  0.00     0.031 C 
ATOM     18  C   UNL A   1      37.278  33.519  33.188  1.00  0.00     0.029 A 
ATOM     19  N   UNL A   1      39.007  32.108  33.321  1.00  0.00    -0.354 N 
ATOM     20  C   UNL A   1      39.944  29.400  30.099  1.00  0.00     0.074 A 
ATOM     21  C   UNL A   1      39.075  29.630  28.961  1.00  0.00     0.031 C 
ATOM     22  C   UNL A   1      37.862  33.710  34.382  1.00  0.00     0.029 A 
ATOM     23  C   UNL A   1      38.991  32.797  34.509  1.00  0.00     0.049 A 
ATOM     24  H   UNL A   1      39.666  31.407  33.113  1.00  0.00     0.167 HD
ATOM     25  C   UNL A   1      40.932  28.473  30.134  1.00  0.00     0.034 A 
ATOM     26  C   UNL A   1      39.794  32.701  35.585  1.00  0.00     0.034 A 
ATOM     27  C   UNL A   1      41.798  28.250  31.265  1.00  0.00     0.049 A 
ATOM     28  C   UNL A   1      40.907  31.698  35.587  1.00  0.00     0.074 A 
ATOM     29  C   UNL A   1      42.806  27.312  31.417  1.00  0.00     0.029 A 
ATOM     30  N   UNL A   1      41.766  28.988  32.440  1.00  0.00    -0.354 N 
ATOM     31  N   UNL A   1      41.220  30.814  34.670  1.00  0.00    -0.248 NA
ATOM     32  C   UNL A   1      41.773  31.677  36.773  1.00  0.00     0.031 C 
ATOM     33  C   UNL A   1      43.371  27.472  32.691  1.00  0.00     0.029 A 
ATOM     34  C   UNL A   1      42.736  28.530  33.319  1.00  0.00     0.049 A 
ATOM     35  H   UNL A   1      41.144  29.728  32.624  1.00  0.00     0.167 HD
ATOM     36  C   UNL A   1      42.313  30.122  35.174  1.00  0.00     0.074 A 
ATOM     37  C   UNL A   1      42.614  30.698  36.470  1.00  0.00     0.031 C 
ATOM     38  C   UNL A   1      43.005  29.100  34.614  1.00  0.00     0.034 A 
BRANCH  25  39
ATOM     39  C   UNL A   1      41.082  27.602  28.917  1.00  0.00     0.023 A 
ATOM     40  C   UNL A   1      42.073  27.854  27.953  1.00  0.00     0.031 A 
ATOM     41  C   UNL A   1      40.184  26.546  28.688  1.00  0.00     0.131 A 
ATOM     42  C   UNL A   1      42.104  27.098  26.771  1.00  0.00     0.055 A 
ATOM     43  C   UNL A   1      40.255  25.760  27.536  1.00  0.00     0.041 A 
ATOM     44  F   UNL A   1      39.204  26.280  29.566  1.00  0.00    -0.206 F 
ATOM     45  C   UNL A   1      41.211  26.043  26.564  1.00  0.00     0.022 A 
BRANCH  42  46
ATOM     46  S   UNL A   1      43.241  27.598  25.449  1.00  0.00     0.124 S 
ATOM     47  O   UNL A   1      43.705  26.307  24.949  1.00  0.00    -0.237 OA
ATOM     48  O   UNL A   1      42.371  28.357  24.559  1.00  0.00    -0.237 OA
ATOM     49  O   UNL A   1      44.254  28.384  26.150  1.00  0.00    -0.744 OA
ENDBRANCH  42  46
ENDBRANCH  25  39
BRANCH  26  50
ATOM     50  C   UNL A   1      39.543  33.559  36.767  1.00  0.00     0.023 A 
ATOM     51  C   UNL A   1      38.930  33.043  37.917  1.00  0.00     0.031 A 
ATOM     52  C   UNL A   1      39.934  34.907  36.757  1.00  0.00     0.131 A 
ATOM     53  C   UNL A   1      38.715  33.882  39.020  1.00  0.00     0.055 A 
ATOM     54  C   UNL A   1      39.725  35.735  37.859  1.00  0.00     0.041 A 
ATOM     55  F   UNL A   1      40.537  35.429  35.678  1.00  0.00    -0.206 F 
ATOM     56  C   UNL A   1      39.108  35.224  38.998  1.00  0.00     0.022 A 
BRANCH  53  57
ATOM     57  S   UNL A   1      37.893  33.201  40.486  1.00  0.00     0.124 S 
ATOM     58  O   UNL A   1      36.544  32.950  39.990  1.00  0.00    -0.237 OA
ATOM     59  O   UNL A   1      38.705  32.021  40.763  1.00  0.00    -0.237 OA
ATOM     60  O   UNL A   1      38.005  34.276  41.469  1.00  0.00    -0.744 OA
ENDBRANCH  53  57
ENDBRANCH  26  50
BRANCH  38  61
ATOM     61  C   UNL A   1      44.155  28.559  35.411  1.00  0.00     0.023 A 
ATOM     62  C   UNL A   1      43.987  27.462  36.272  1.00  0.00     0.031 A 
ATOM     63  C   UNL A   1      45.419  29.163  35.328  1.00  0.00     0.131 A 
ATOM     64  C   UNL A   1      45.069  27.014  37.043  1.00  0.00     0.055 A 
ATOM     65  C   UNL A   1      46.496  28.703  36.085  1.00  0.00     0.041 A 
ATOM     66  F   UNL A   1      45.617  30.219  34.524  1.00  0.00    -0.206 F 
ATOM     67  C   UNL A   1      46.323  27.627  36.952  1.00  0.00     0.022 A 
BRANCH  64  68
ATOM     68  S   UNL A   1      44.808  25.643  38.202  1.00  0.00     0.124 S 
ATOM     69  O   UNL A   1      43.541  25.087  37.740  1.00  0.00    -0.237 OA
ATOM     70  O   UNL A   1      45.989  24.817  37.979  1.00  0.00    -0.237 OA
ATOM     71  O   UNL A   1      44.754  26.303  39.506  1.00  0.00    -0.744 OA
ENDBRANCH  64  68
ENDBRANCH  38  61
ENDBRANCH  12  13
ENDBRANCH   5   7
ENDBRANCH   4   5
ENDBRANCH   3   4
ENDBRANCH   2   3
ENDBRANCH   1   2
BRANCH   1  72
ATOM     72  C   UNL A   1      32.241  29.921  25.288  1.00  0.00     0.202 C 
BRANCH  72  73
ATOM     73  C   UNL A   1      33.043  28.969  26.189  1.00  0.00     0.261 C 
BRANCH  73  74
ATOM     74  O   UNL A   1      32.659  27.619  25.876  1.00  0.00    -0.457 OA
BRANCH  74  75
ATOM     75  C   UNL A   1      31.731  27.104  26.739  1.00  0.00     0.374 C 
ATOM     76  O   UNL A   1      31.139  27.745  27.595  1.00  0.00    -0.242 OA
BRANCH  75  77
ATOM     77  C   UNL A   1      31.459  25.742  26.351  1.00  0.00     0.211 A 
ATOM     78  C   UNL A   1      31.730  24.521  26.941  1.00  0.00     0.058 A 
ATOM     79  O   UNL A   1      30.945  25.534  25.103  1.00  0.00    -0.452 OA
ATOM     80  C   UNL A   1      31.386  23.524  25.993  1.00  0.00     0.048 A 
ATOM     81  C   UNL A   1      30.955  24.194  24.869  1.00  0.00     0.124 A 
BRANCH  81  82
ATOM     82  C   UNL A   1      30.601  23.779  23.494  1.00  0.00     0.191 C 
BRANCH  82  83
ATOM     83  N   UNL A   1      31.659  24.126  22.576  1.00  0.00    -0.345 N 
ATOM     84  C   UNL A   1      32.761  23.369  22.271  1.00  0.00     0.252 C 
ATOM     85  H   UNL A   1      31.582  24.996  22.121  1.00  0.00     0.164 HD
ATOM     86  O   UNL A   1      33.559  23.705  21.407  1.00  0.00    -0.269 OA
BRANCH  84  87
ATOM     87  C   UNL A   1      32.944  22.089  22.978  1.00  0.00     0.054 A 
ATOM     88  C   UNL A   1      32.175  20.995  22.556  1.00  0.00     0.018 A 
ATOM     89  C   UNL A   1      33.844  21.958  24.044  1.00  0.00     0.033 A 
ATOM     90  C   UNL A   1      32.299  19.774  23.215  1.00  0.00     0.040 A 
ATOM     91  C   UNL A   1      33.967  20.729  24.695  1.00  0.00     0.055 A 
ATOM     92  Br  UNL A   1      34.885  23.409  24.679  1.00  0.00    -0.050 Br
ATOM     93  C   UNL A   1      33.192  19.652  24.277  1.00  0.00     0.124 A 
ATOM     94  F   UNL A   1      33.296  18.477  24.909  1.00  0.00    -0.207 F 
ENDBRANCH  84  87
ENDBRANCH  82  83
ENDBRANCH  81  82
ENDBRANCH  75  77
ENDBRANCH  74  75
ENDBRANCH  73  74
ENDBRANCH  72  73
ENDBRANCH   1  72
TORSDOF 20
ENDMDL
MODEL 2
REMARK VINA RESULT:     -10.6      5.590      9.108
REMARK SMILES O=C(OCCOCCOC(=O)c1ccc(CNC(=O)c2ccc(F)cc2Br)o1)c1ccc(-c2c3nc(c(-c4cc(S(=O)(=O)[O-])ccc4F)c4ccc([nH]4)c(-c4cc(S(=O)(=O)[O-])ccc4F)c4nc(c(-c5cc(S(=O)(=O)[O-])ccc5F)c5ccc2[nH]5)C=C4)C=C3)cc1
REMARK SMILES IDX 6 1 5 2 4 3 3 4 2 5 1 6 29 7 30 8 91 9 31 10 90 11 32 12
REMARK SMILES IDX 33 13 34 14 84 15 35 16 89 17 83 18 85 19 36 20 88 21 82 22
REMARK SMILES IDX 81 23 37 25 69 26 49 27 68 28 50 29 53 30 67 31 86 32 51 33
REMARK SMILES IDX 52 34 66 36 87 37 54 38 38 39 39 40 47 41 40 42 46 43 48 44
REMARK SMILES IDX 45 45 41 46 42 47 43 48 44 49 70 50 71 51 79 52 72 53 78 54
REMARK SMILES IDX 80 55 77 56 73 57 74 58 75 59 76 60 55 61 56 62 64 63 57 64
REMARK SMILES IDX 63 65 65 66 62 67 58 68 59 69 60 70 61 71 7 72 8 73 9 74
REMARK SMILES IDX 10 75 11 76 12 77 13 78 28 79 14 80 15 81 16 82 17 83 18 84
REMARK SMILES IDX 19 86 20 87 21 88 26 89 22 90 25 91 27 92 23 93 24 94
REMARK H PARENT 85 24 53 35 17 85
REMARK Flexibility Score: inf
ROOT
ATOM      1  O   UNL A   1      37.019  21.117  25.217  1.00  0.00    -0.374 OA
ENDROOT
BRANCH   1   2
ATOM      2  C   UNL A   1      37.566  19.917  24.670  1.00  0.00     0.202 C 
BRANCH   2   3
ATOM      3  C   UNL A   1      38.652  19.291  25.547  1.00  0.00     0.261 C 
BRANCH   3   4
ATOM      4  O   UNL A   1      39.716  20.247  25.724  1.00  0.00    -0.460 OA
BRANCH   4   5
ATOM      5  C   UNL A   1      40.391  20.538  26.860  1.00  0.00     0.338 C 
ATOM      6  O   UNL A   1      40.710  19.625  27.617  1.00  0.00    -0.246 OA
BRANCH   5   7
ATOM      7  C   UNL A   1      40.774  21.928  27.226  1.00  0.00     0.060 A 
ATOM      8  C   UNL A   1      41.689  22.238  28.236  1.00  0.00     0.016 A 
ATOM      9  C   UNL A   1      40.281  22.964  26.417  1.00  0.00     0.016 A 
ATOM     10  C   UNL A   1      42.040  23.566  28.490  1.00  0.00     0.010 A 
ATOM     11  C   UNL A   1      40.678  24.287  26.632  1.00  0.00     0.010 A 
ATOM     12  C   UNL A   1      41.552  24.601  27.681  1.00  0.00    -0.014 A 
BRANCH  12  13
ATOM     13  C   UNL A   1      41.989  26.001  27.910  1.00  0.00     0.031 A 
ATOM     14  C   UNL A   1      43.305  26.490  27.375  1.00  0.00     0.074 A 
ATOM     15  C   UNL A   1      41.194  26.835  28.607  1.00  0.00     0.049 A 
ATOM     16  N   UNL A   1      43.878  27.655  27.530  1.00  0.00    -0.248 NA
ATOM     17  C   UNL A   1      44.082  25.535  26.574  1.00  0.00     0.031 C 
ATOM     18  C   UNL A   1      39.900  26.482  29.195  1.00  0.00     0.029 A 
ATOM     19  N   UNL A   1      41.357  28.158  28.931  1.00  0.00    -0.354 N 
ATOM     20  C   UNL A   1      45.096  27.572  26.865  1.00  0.00     0.074 A 
ATOM     21  C   UNL A   1      45.181  26.231  26.319  1.00  0.00     0.031 C 
ATOM     22  C   UNL A   1      39.373  27.570  29.781  1.00  0.00     0.029 A 
ATOM     23  C   UNL A   1      40.302  28.684  29.637  1.00  0.00     0.049 A 
ATOM     24  H   UNL A   1      42.153  28.680  28.683  1.00  0.00     0.167 HD
ATOM     25  C   UNL A   1      46.055  28.520  26.724  1.00  0.00     0.034 A 
ATOM     26  C   UNL A   1      40.108  29.924  30.119  1.00  0.00     0.034 A 
ATOM     27  C   UNL A   1      45.966  29.854  27.263  1.00  0.00     0.049 A 
ATOM     28  C   UNL A   1      41.162  30.970  29.917  1.00  0.00     0.074 A 
ATOM     29  C   UNL A   1      46.897  30.878  27.208  1.00  0.00     0.029 A 
ATOM     30  N   UNL A   1      44.869  30.356  27.949  1.00  0.00    -0.354 N 
ATOM     31  N   UNL A   1      42.337  30.853  29.345  1.00  0.00    -0.248 NA
ATOM     32  C   UNL A   1      40.866  32.314  30.428  1.00  0.00     0.031 C 
ATOM     33  C   UNL A   1      46.369  31.993  27.877  1.00  0.00     0.029 A 
ATOM     34  C   UNL A   1      45.097  31.672  28.320  1.00  0.00     0.049 A 
ATOM     35  H   UNL A   1      44.048  29.849  28.146  1.00  0.00     0.167 HD
ATOM     36  C   UNL A   1      42.926  32.106  29.439  1.00  0.00     0.074 A 
ATOM     37  C   UNL A   1      41.974  32.969  30.111  1.00  0.00     0.031 C 
ATOM     38  C   UNL A   1      44.148  32.506  29.009  1.00  0.00     0.034 A 
BRANCH  25  39
ATOM     39  C   UNL A   1      47.304  28.110  25.992  1.00  0.00     0.023 A 
ATOM     40  C   UNL A   1      47.399  28.207  24.593  1.00  0.00     0.031 A 
ATOM     41  C   UNL A   1      48.387  27.558  26.696  1.00  0.00     0.131 A 
ATOM     42  C   UNL A   1      48.530  27.702  23.934  1.00  0.00     0.055 A 
ATOM     43  C   UNL A   1      49.534  27.107  26.039  1.00  0.00     0.041 A 
ATOM     44  F   UNL A   1      48.336  27.420  28.030  1.00  0.00    -0.206 F 
ATOM     45  C   UNL A   1      49.604  27.166  24.650  1.00  0.00     0.022 A 
BRANCH  42  46
ATOM     46  S   UNL A   1      48.520  27.629  22.122  1.00  0.00     0.124 S 
ATOM     47  O   UNL A   1      49.617  28.532  21.780  1.00  0.00    -0.237 OA
ATOM     48  O   UNL A   1      48.750  26.213  21.864  1.00  0.00    -0.237 OA
ATOM     49  O   UNL A   1      47.189  28.120  21.768  1.00  0.00    -0.744 OA
ENDBRANCH  42  46
ENDBRANCH  25  39
BRANCH  26  50
ATOM     50  C   UNL A   1      38.872  30.231  30.878  1.00  0.00     0.023 A 
ATOM     51  C   UNL A   1      37.842  30.988  30.305  1.00  0.00     0.031 A 
ATOM     52  C   UNL A   1      38.708  29.749  32.186  1.00  0.00     0.131 A 
ATOM     53  C   UNL A   1      36.683  31.253  31.049  1.00  0.00     0.055 A 
ATOM     54  C   UNL A   1      37.551  30.009  32.920  1.00  0.00     0.041 A 
ATOM     55  F   UNL A   1      39.669  29.008  32.760  1.00  0.00    -0.206 F 
ATOM     56  C   UNL A   1      36.532  30.769  32.352  1.00  0.00     0.022 A 
BRANCH  53  57
ATOM     57  S   UNL A   1      35.376  32.261  30.298  1.00  0.00     0.124 S 
ATOM     58  O   UNL A   1      36.092  33.486  29.959  1.00  0.00    -0.237 OA
ATOM     59  O   UNL A   1      34.963  31.426  29.174  1.00  0.00    -0.237 OA
ATOM     60  O   UNL A   1      34.390  32.392  31.369  1.00  0.00    -0.744 OA
ENDBRANCH  53  57
ENDBRANCH  26  50
BRANCH  38  61
ATOM     61  C   UNL A   1      44.501  33.944  29.254  1.00  0.00     0.023 A 
ATOM     62  C   UNL A   1      44.077  34.954  28.375  1.00  0.00     0.031 A 
ATOM     63  C   UNL A   1      45.289  34.299  30.360  1.00  0.00     0.131 A 
ATOM     64  C   UNL A   1      44.470  36.280  28.604  1.00  0.00     0.055 A 
ATOM     65  C   UNL A   1      45.662  35.623  30.593  1.00  0.00     0.041 A 
ATOM     66  F   UNL A   1      45.720  33.361  31.218  1.00  0.00    -0.206 F 
ATOM     67  C   UNL A   1      45.257  36.621  29.709  1.00  0.00     0.022 A 
BRANCH  64  68
ATOM     68  S   UNL A   1      43.973  37.557  27.414  1.00  0.00     0.124 S 
ATOM     69  O   UNL A   1      45.242  37.893  26.777  1.00  0.00    -0.237 OA
ATOM     70  O   UNL A   1      43.008  36.848  26.581  1.00  0.00    -0.237 OA
ATOM     71  O   UNL A   1      43.407  38.610  28.257  1.00  0.00    -0.744 OA
ENDBRANCH  64  68
ENDBRANCH  38  61
ENDBRANCH  12  13
ENDBRANCH   5   7
ENDBRANCH   4   5
ENDBRANCH   3   4
ENDBRANCH   2   3
ENDBRANCH   1   2
BRANCH   1  72
ATOM     72  C   UNL A   1      36.634  22.108  24.255  1.00  0.00     0.202 C 
BRANCH  72  73
ATOM     73  C   UNL A   1      35.147  22.444  24.445  1.00  0.00     0.261 C 
BRANCH  73  74
ATOM     74  O   UNL A   1      34.847  22.388  25.850  1.00  0.00    -0.457 OA
BRANCH  74  75
ATOM     75  C   UNL A   1      33.649  21.788  26.127  1.00  0.00     0.374 C 
ATOM     76  O   UNL A   1      33.520  20.668  26.601  1.00  0.00    -0.242 OA
BRANCH  75  77
ATOM     77  C   UNL A   1      32.601  22.757  25.928  1.00  0.00     0.211 A 
ATOM     78  C   UNL A   1      31.482  22.783  25.115  1.00  0.00     0.058 A 
ATOM     79  O   UNL A   1      32.741  23.971  26.538  1.00  0.00    -0.452 OA
ATOM     80  C   UNL A   1      30.932  24.086  25.219  1.00  0.00     0.048 A 
ATOM     81  C   UNL A   1      31.763  24.788  26.064  1.00  0.00     0.124 A 
BRANCH  81  82
ATOM     82  C   UNL A   1      31.855  26.207  26.472  1.00  0.00     0.191 C 
BRANCH  82  83
ATOM     83  N   UNL A   1      33.076  26.795  25.972  1.00  0.00    -0.345 N 
ATOM     84  C   UNL A   1      33.187  27.712  24.958  1.00  0.00     0.252 C 
ATOM     85  H   UNL A   1      33.914  26.510  26.404  1.00  0.00     0.164 HD
ATOM     86  O   UNL A   1      34.258  28.226  24.665  1.00  0.00    -0.269 OA
BRANCH  84  87
ATOM     87  C   UNL A   1      31.962  28.116  24.246  1.00  0.00     0.054 A 
ATOM     88  C   UNL A   1      31.529  27.309  23.184  1.00  0.00     0.018 A 
ATOM     89  C   UNL A   1      31.251  29.270  24.600  1.00  0.00     0.033 A 
ATOM     90  C   UNL A   1      30.389  27.670  22.468  1.00  0.00     0.040 A 
ATOM     91  C   UNL A   1      30.107  29.622  23.881  1.00  0.00     0.055 A 
ATOM     92  Br  UNL A   1      31.807  30.416  26.003  1.00  0.00    -0.050 Br
ATOM     93  C   UNL A   1      29.691  28.821  22.822  1.00  0.00     0.124 A 
ATOM     94  F   UNL A   1      28.602  29.165  22.121  1.00  0.00    -0.207 F 
ENDBRANCH  84  87
ENDBRANCH  82  83
ENDBRANCH  81  82
ENDBRANCH  75  77
ENDBRANCH  74  75
ENDBRANCH  73  74
ENDBRANCH  72  73
ENDBRANCH   1  72
TORSDOF 20
ENDMDL
MODEL 3
REMARK VINA RESULT:     -10.6      5.643     11.559
REMARK SMILES O=C(OCCOCCOC(=O)c1ccc(CNC(=O)c2ccc(F)cc2Br)o1)c1ccc(-c2c3nc(c(-c4cc(S(=O)(=O)[O-])ccc4F)c4ccc([nH]4)c(-c4cc(S(=O)(=O)[O-])ccc4F)c4nc(c(-c5cc(S(=O)(=O)[O-])ccc5F)c5ccc2[nH]5)C=C4)C=C3)cc1
REMARK SMILES IDX 6 1 5 2 4 3 3 4 2 5 1 6 29 7 30 8 91 9 31 10 90 11 32 12
REMARK SMILES IDX 33 13 34 14 84 15 35 16 89 17 83 18 85 19 36 20 88 21 82 22
REMARK SMILES IDX 81 23 37 25 69 26 49 27 68 28 50 29 53 30 67 31 86 32 51 33
REMARK SMILES IDX 52 34 66 36 87 37 54 38 38 39 39 40 47 41 40 42 46 43 48 44
REMARK SMILES IDX 45 45 41 46 42 47 43 48 44 49 70 50 71 51 79 52 72 53 78 54
REMARK SMILES IDX 80 55 77 56 73 57 74 58 75 59 76 60 55 61 56 62 64 63 57 64
REMARK SMILES IDX 63 65 65 66 62 67 58 68 59 69 60 70 61 71 7 72 8 73 9 74
REMARK SMILES IDX 10 75 11 76 12 77 13 78 28 79 14 80 15 81 16 82 17 83 18 84
REMARK SMILES IDX 19 86 20 87 21 88 26 89 22 90 25 91 27 92 23 93 24 94
REMARK H PARENT 85 24 53 35 17 85
REMARK Flexibility Score: inf
ROOT
ATOM      1  O   UNL A   1      38.177  21.748  25.521  1.00  0.00    -0.374 OA
ENDROOT
BRANCH   1   2
ATOM      2  C   UNL A   1      39.336  21.173  26.126  1.00  0.00     0.202 C 
BRANCH   2   3
ATOM      3  C   UNL A   1      39.556  19.709  25.743  1.00  0.00     0.261 C 
BRANCH   3   4
ATOM      4  O   UNL A   1      40.795  19.255  26.325  1.00  0.00    -0.460 OA
BRANCH   4   5
ATOM      5  C   UNL A   1      42.054  19.593  25.965  1.00  0.00     0.338 C 
ATOM      6  O   UNL A   1      42.768  18.752  25.423  1.00  0.00    -0.246 OA
BRANCH   5   7
ATOM      7  C   UNL A   1      42.609  20.954  26.189  1.00  0.00     0.060 A 
ATOM      8  C   UNL A   1      42.923  21.842  25.156  1.00  0.00     0.016 A 
ATOM      9  C   UNL A   1      42.693  21.404  27.516  1.00  0.00     0.016 A 
ATOM     10  C   UNL A   1      43.394  23.126  25.444  1.00  0.00     0.010 A 
ATOM     11  C   UNL A   1      43.106  22.708  27.803  1.00  0.00     0.010 A 
ATOM     12  C   UNL A   1      43.473  23.577  26.768  1.00  0.00    -0.014 A 
BRANCH  12  13
ATOM     13  C   UNL A   1      43.902  24.968  27.061  1.00  0.00     0.031 A 
ATOM     14  C   UNL A   1      42.936  25.960  27.643  1.00  0.00     0.074 A 
ATOM     15  C   UNL A   1      45.170  25.337  26.799  1.00  0.00     0.049 A 
ATOM     16  N   UNL A   1      43.112  27.230  27.905  1.00  0.00    -0.248 NA
ATOM     17  C   UNL A   1      41.590  25.460  27.956  1.00  0.00     0.031 C 
ATOM     18  C   UNL A   1      46.203  24.476  26.220  1.00  0.00     0.029 A 
ATOM     19  N   UNL A   1      45.807  26.535  26.996  1.00  0.00    -0.354 N 
ATOM     20  C   UNL A   1      41.896  27.691  28.393  1.00  0.00     0.074 A 
ATOM     21  C   UNL A   1      40.985  26.562  28.375  1.00  0.00     0.031 C 
ATOM     22  C   UNL A   1      47.353  25.164  26.138  1.00  0.00     0.029 A 
ATOM     23  C   UNL A   1      47.131  26.519  26.628  1.00  0.00     0.049 A 
ATOM     24  H   UNL A   1      45.361  27.330  27.366  1.00  0.00     0.167 HD
ATOM     25  C   UNL A   1      41.565  28.936  28.815  1.00  0.00     0.034 A 
ATOM     26  C   UNL A   1      48.061  27.490  26.675  1.00  0.00     0.034 A 
ATOM     27  C   UNL A   1      42.473  30.056  28.837  1.00  0.00     0.049 A 
ATOM     28  C   UNL A   1      47.686  28.849  27.183  1.00  0.00     0.074 A 
ATOM     29  C   UNL A   1      42.229  31.367  29.211  1.00  0.00     0.029 A 
ATOM     30  N   UNL A   1      43.813  29.991  28.481  1.00  0.00    -0.354 N 
ATOM     31  N   UNL A   1      46.513  29.285  27.577  1.00  0.00    -0.248 NA
ATOM     32  C   UNL A   1      48.760  29.848  27.251  1.00  0.00     0.031 C 
ATOM     33  C   UNL A   1      43.417  32.098  29.063  1.00  0.00     0.029 A 
ATOM     34  C   UNL A   1      44.408  31.235  28.628  1.00  0.00     0.049 A 
ATOM     35  H   UNL A   1      44.274  29.180  28.167  1.00  0.00     0.167 HD
ATOM     36  C   UNL A   1      46.705  30.613  27.927  1.00  0.00     0.074 A 
ATOM     37  C   UNL A   1      48.109  30.907  27.711  1.00  0.00     0.031 C 
ATOM     38  C   UNL A   1      45.799  31.513  28.385  1.00  0.00     0.034 A 
BRANCH  25  39
ATOM     39  C   UNL A   1      40.136  29.147  29.238  1.00  0.00     0.023 A 
ATOM     40  C   UNL A   1      39.763  29.129  30.593  1.00  0.00     0.031 A 
ATOM     41  C   UNL A   1      39.128  29.304  28.271  1.00  0.00     0.131 A 
ATOM     42  C   UNL A   1      38.406  29.205  30.943  1.00  0.00     0.055 A 
ATOM     43  C   UNL A   1      37.785  29.436  28.629  1.00  0.00     0.041 A 
ATOM     44  F   UNL A   1      39.430  29.303  26.964  1.00  0.00    -0.206 F 
ATOM     45  C   UNL A   1      37.417  29.373  29.970  1.00  0.00     0.022 A 
BRANCH  42  46
ATOM     46  S   UNL A   1      37.940  28.945  32.676  1.00  0.00     0.124 S 
ATOM     47  O   UNL A   1      36.653  29.632  32.747  1.00  0.00    -0.237 OA
ATOM     48  O   UNL A   1      37.898  27.491  32.774  1.00  0.00    -0.237 OA
ATOM     49  O   UNL A   1      39.020  29.589  33.421  1.00  0.00    -0.744 OA
ENDBRANCH  42  46
ENDBRANCH  25  39
BRANCH  26  50
ATOM     50  C   UNL A   1      49.433  27.216  26.186  1.00  0.00     0.023 A 
ATOM     51  C   UNL A   1      49.856  27.666  24.928  1.00  0.00     0.031 A 
ATOM     52  C   UNL A   1      50.341  26.509  26.991  1.00  0.00     0.131 A 
ATOM     53  C   UNL A   1      51.164  27.394  24.501  1.00  0.00     0.055 A 
ATOM     54  C   UNL A   1      51.643  26.249  26.564  1.00  0.00     0.041 A 
ATOM     55  F   UNL A   1      49.975  26.077  28.207  1.00  0.00    -0.206 F 
ATOM     56  C   UNL A   1      52.059  26.689  25.310  1.00  0.00     0.022 A 
BRANCH  53  57
ATOM     57  S   UNL A   1      51.679  27.960  22.857  1.00  0.00     0.124 S 
ATOM     58  O   UNL A   1      51.946  26.701  22.170  1.00  0.00    -0.237 OA
ATOM     59  O   UNL A   1      50.500  28.697  22.412  1.00  0.00    -0.237 OA
ATOM     60  O   UNL A   1      52.856  28.781  23.133  1.00  0.00    -0.744 OA
ENDBRANCH  53  57
ENDBRANCH  26  50
BRANCH  38  61
ATOM     61  C   UNL A   1      46.319  32.888  28.684  1.00  0.00     0.023 A 
ATOM     62  C   UNL A   1      46.339  33.886  27.696  1.00  0.00     0.031 A 
ATOM     63  C   UNL A   1      46.823  33.190  29.959  1.00  0.00     0.131 A 
ATOM     64  C   UNL A   1      46.881  35.144  27.994  1.00  0.00     0.055 A 
ATOM     65  C   UNL A   1      47.346  34.450  30.254  1.00  0.00     0.041 A 
ATOM     66  F   UNL A   1      46.831  32.261  30.927  1.00  0.00    -0.206 F 
ATOM     67  C   UNL A   1      47.381  35.432  29.268  1.00  0.00     0.022 A 
BRANCH  64  68
ATOM     68  S   UNL A   1      46.963  36.393  26.681  1.00  0.00     0.124 S 
ATOM     69  O   UNL A   1      47.038  35.570  25.478  1.00  0.00    -0.237 OA
ATOM     70  O   UNL A   1      45.719  37.131  26.873  1.00  0.00    -0.237 OA
ATOM     71  O   UNL A   1      48.180  37.141  26.994  1.00  0.00    -0.744 OA
ENDBRANCH  64  68
ENDBRANCH  38  61
ENDBRANCH  12  13
ENDBRANCH   5   7
ENDBRANCH   4   5
ENDBRANCH   3   4
ENDBRANCH   2   3
ENDBRANCH   1   2
BRANCH   1  72
ATOM     72  C   UNL A   1      37.906  23.107  25.887  1.00  0.00     0.202 C 
BRANCH  72  73
ATOM     73  C   UNL A   1      36.771  23.650  25.005  1.00  0.00     0.261 C 
BRANCH  73  74
ATOM     74  O   UNL A   1      35.998  22.535  24.526  1.00  0.00    -0.457 OA
BRANCH  74  75
ATOM     75  C   UNL A   1      34.937  22.904  23.746  1.00  0.00     0.374 C 
ATOM     76  O   UNL A   1      35.021  23.322  22.600  1.00  0.00    -0.242 OA
BRANCH  75  77
ATOM     77  C   UNL A   1      33.723  22.555  24.440  1.00  0.00     0.211 A 
ATOM     78  C   UNL A   1      32.844  21.493  24.329  1.00  0.00     0.058 A 
ATOM     79  O   UNL A   1      33.208  23.474  25.310  1.00  0.00    -0.452 OA
ATOM     80  C   UNL A   1      31.730  21.796  25.153  1.00  0.00     0.048 A 
ATOM     81  C   UNL A   1      31.979  23.038  25.695  1.00  0.00     0.124 A 
BRANCH  81  82
ATOM     82  C   UNL A   1      31.182  23.988  26.501  1.00  0.00     0.191 C 
BRANCH  82  83
ATOM     83  N   UNL A   1      30.221  24.671  25.668  1.00  0.00    -0.345 N 
ATOM     84  C   UNL A   1      30.311  25.957  25.198  1.00  0.00     0.252 C 
ATOM     85  H   UNL A   1      29.418  24.162  25.409  1.00  0.00     0.164 HD
ATOM     86  O   UNL A   1      29.490  26.420  24.419  1.00  0.00    -0.269 OA
BRANCH  84  87
ATOM     87  C   UNL A   1      31.466  26.771  25.615  1.00  0.00     0.054 A 
ATOM     88  C   UNL A   1      31.401  27.404  26.865  1.00  0.00     0.018 A 
ATOM     89  C   UNL A   1      32.592  26.926  24.796  1.00  0.00     0.033 A 
ATOM     90  C   UNL A   1      32.461  28.205  27.285  1.00  0.00     0.040 A 
ATOM     91  C   UNL A   1      33.653  27.725  25.227  1.00  0.00     0.055 A 
ATOM     92  Br  UNL A   1      32.722  26.122  23.085  1.00  0.00    -0.050 Br
ATOM     93  C   UNL A   1      33.575  28.358  26.464  1.00  0.00     0.124 A 
ATOM     94  F   UNL A   1      34.584  29.137  26.873  1.00  0.00    -0.207 F 
ENDBRANCH  84  87
ENDBRANCH  82  83
ENDBRANCH  81  82
ENDBRANCH  75  77
ENDBRANCH  74  75
ENDBRANCH  73  74
ENDBRANCH  72  73
ENDBRANCH   1  72
TORSDOF 20
ENDMDL
