MODEL 1
REMARK VINA RESULT:     -10.9      0.000      0.000
REMARK SMILES N#C/C(=C\c1ccc(Oc2ccccc2Cl)c([N+](=O)[O-])c1)C(=O)OCCOCCOC(=O)c1ccc(-c2c3nc(c(-c4cc(S(=O)(=O)[O-])ccc4F)c4ccc([nH]4)c(-c4cc(S(=O)(=O)[O-])ccc4F)c4nc(c(-c5cc(S(=O)(=O)[O-])ccc5F)c5ccc2[nH]5)C=C4)C=C3)cc1
REMARK SMILES IDX 27 1 26 2 25 3 24 4 22 5 23 6 3 7 4 8 2 9 1 10 5 11 6 12
REMARK SMILES IDX 21 13 7 14 17 15 8 16 18 17 19 18 20 19 9 20 10 21 11 22
REMARK SMILES IDX 15 23 12 24 14 25 16 26 13 27 28 28 29 29 30 30 31 31 32 32
REMARK SMILES IDX 33 33 34 34 95 35 35 36 94 37 36 38 37 39 38 40 88 41 39 42
REMARK SMILES IDX 93 43 87 44 89 45 40 46 92 47 86 48 85 49 41 51 73 52 53 53
REMARK SMILES IDX 72 54 54 55 57 56 71 57 90 58 55 59 56 60 70 62 91 63 58 64
REMARK SMILES IDX 42 65 43 66 51 67 44 68 50 69 52 70 49 71 45 72 46 73 47 74
REMARK SMILES IDX 48 75 74 76 75 77 83 78 76 79 82 80 84 81 81 82 77 83 78 84
REMARK SMILES IDX 79 85 80 86 59 87 60 88 68 89 61 90 67 91 69 92 66 93 62 94
REMARK SMILES IDX 63 95 64 96 65 97
REMARK H PARENT 89 50 57 61
REMARK Flexibility Score: inf
ROOT
ATOM      1  O   UNL A   1      38.769  21.155  25.682  1.00  0.00    -0.374 OA
ENDROOT
BRANCH   1   2
ATOM      2  C   UNL A   1      37.611  21.545  24.948  1.00  0.00     0.202 C 
BRANCH   2   3
ATOM      3  C   UNL A   1      36.241  21.132  25.491  1.00  0.00     0.261 C 
BRANCH   3   4
ATOM      4  O   UNL A   1      35.799  22.032  26.519  1.00  0.00    -0.459 OA
BRANCH   4   5
ATOM      5  C   UNL A   1      34.458  22.053  26.695  1.00  0.00     0.348 C 
ATOM      6  O   UNL A   1      33.763  21.117  27.064  1.00  0.00    -0.245 OA
BRANCH   5   7
ATOM      7  C   UNL A   1      33.907  23.411  26.516  1.00  0.00     0.138 C 
ATOM      8  C   UNL A   1      34.555  24.366  25.812  1.00  0.00     0.035 C 
BRANCH   7   9
ATOM      9  C   UNL A   1      32.418  23.515  26.804  1.00  0.00     0.107 C 
ATOM     10  N   UNL A   1      31.183  23.600  27.042  1.00  0.00    -0.192 NA
ENDBRANCH   7   9
BRANCH   8  11
ATOM     11  C   UNL A   1      33.851  25.523  25.212  1.00  0.00    -0.017 A 
ATOM     12  C   UNL A   1      33.522  25.487  23.854  1.00  0.00     0.012 A 
ATOM     13  C   UNL A   1      33.358  26.578  25.983  1.00  0.00     0.098 A 
ATOM     14  C   UNL A   1      32.671  26.455  23.296  1.00  0.00     0.055 A 
ATOM     15  C   UNL A   1      32.426  27.482  25.438  1.00  0.00     0.312 A 
ATOM     16  C   UNL A   1      32.088  27.462  24.082  1.00  0.00     0.204 A 
BRANCH  15  17
ATOM     17  N   UNL A   1      31.734  28.294  26.417  1.00  0.00     0.066 N 
ATOM     18  O   UNL A   1      31.009  27.706  27.230  1.00  0.00    -0.258 OA
ATOM     19  O   UNL A   1      31.981  29.508  26.416  1.00  0.00    -0.258 OA
ENDBRANCH  15  17
BRANCH  16  20
ATOM     20  O   UNL A   1      31.238  28.270  23.356  1.00  0.00    -0.449 OA
BRANCH  20  21
ATOM     21  C   UNL A   1      29.881  28.084  23.396  1.00  0.00     0.146 A 
ATOM     22  C   UNL A   1      29.443  26.851  23.893  1.00  0.00     0.049 A 
ATOM     23  C   UNL A   1      28.949  29.020  22.933  1.00  0.00     0.083 A 
ATOM     24  C   UNL A   1      28.079  26.597  24.030  1.00  0.00     0.004 A 
ATOM     25  C   UNL A   1      27.584  28.770  23.092  1.00  0.00     0.024 A 
ATOM     26  Cl  UNL A   1      29.432  30.500  22.188  1.00  0.00    -0.080 Cl
ATOM     27  C   UNL A   1      27.150  27.565  23.652  1.00  0.00     0.002 A 
ENDBRANCH  20  21
ENDBRANCH  16  20
ENDBRANCH   8  11
ENDBRANCH   5   7
ENDBRANCH   4   5
ENDBRANCH   3   4
ENDBRANCH   2   3
ENDBRANCH   1   2
BRANCH   1  28
ATOM     28  C   UNL A   1      39.230  19.811  25.609  1.00  0.00     0.202 C 
BRANCH  28  29
ATOM     29  C   UNL A   1      40.554  19.419  26.281  1.00  0.00     0.261 C 
BRANCH  29  30
ATOM     30  O   UNL A   1      41.640  19.190  25.373  1.00  0.00    -0.460 OA
BRANCH  30  31
ATOM     31  C   UNL A   1      42.830  19.671  25.813  1.00  0.00     0.338 C 
ATOM     32  O   UNL A   1      43.921  19.114  25.732  1.00  0.00    -0.246 OA
BRANCH  31  33
ATOM     33  C   UNL A   1      42.694  21.069  26.252  1.00  0.00     0.060 A 
ATOM     34  C   UNL A   1      42.700  22.062  25.263  1.00  0.00     0.016 A 
ATOM     35  C   UNL A   1      42.660  21.412  27.605  1.00  0.00     0.016 A 
ATOM     36  C   UNL A   1      42.711  23.406  25.623  1.00  0.00     0.010 A 
ATOM     37  C   UNL A   1      42.684  22.764  27.965  1.00  0.00     0.010 A 
ATOM     38  C   UNL A   1      42.744  23.765  26.976  1.00  0.00    -0.014 A 
BRANCH  38  39
ATOM     39  C   UNL A   1      43.001  25.178  27.346  1.00  0.00     0.031 A 
ATOM     40  C   UNL A   1      44.370  25.754  27.108  1.00  0.00     0.074 A 
ATOM     41  C   UNL A   1      42.017  25.946  27.845  1.00  0.00     0.049 A 
ATOM     42  N   UNL A   1      44.824  26.951  27.369  1.00  0.00    -0.248 NA
ATOM     43  C   UNL A   1      45.359  24.851  26.499  1.00  0.00     0.031 C 
ATOM     44  C   UNL A   1      40.638  25.511  28.066  1.00  0.00     0.029 A 
ATOM     45  N   UNL A   1      42.026  27.254  28.255  1.00  0.00    -0.354 N 
ATOM     46  C   UNL A   1      46.156  26.948  26.963  1.00  0.00     0.074 A 
ATOM     47  C   UNL A   1      46.440  25.616  26.472  1.00  0.00     0.031 C 
ATOM     48  C   UNL A   1      39.934  26.536  28.575  1.00  0.00     0.029 A 
ATOM     49  C   UNL A   1      40.820  27.686  28.752  1.00  0.00     0.049 A 
ATOM     50  H   UNL A   1      42.823  27.830  28.201  1.00  0.00     0.167 HD
ATOM     51  C   UNL A   1      47.053  27.965  26.993  1.00  0.00     0.034 A 
ATOM     52  C   UNL A   1      40.477  28.867  29.305  1.00  0.00     0.034 A 
ATOM     53  C   UNL A   1      46.752  29.284  27.491  1.00  0.00     0.049 A 
ATOM     54  C   UNL A   1      41.518  29.954  29.411  1.00  0.00     0.074 A 
ATOM     55  C   UNL A   1      47.574  30.397  27.538  1.00  0.00     0.029 A 
ATOM     56  N   UNL A   1      45.537  29.667  28.046  1.00  0.00    -0.354 N 
ATOM     57  N   UNL A   1      42.770  29.944  29.010  1.00  0.00    -0.248 NA
ATOM     58  C   UNL A   1      41.098  31.213  30.041  1.00  0.00     0.031 C 
ATOM     59  C   UNL A   1      46.884  31.425  28.189  1.00  0.00     0.029 A 
ATOM     60  C   UNL A   1      45.602  30.984  28.477  1.00  0.00     0.049 A 
ATOM     61  H   UNL A   1      44.744  29.088  28.122  1.00  0.00     0.167 HD
ATOM     62  C   UNL A   1      43.274  31.209  29.309  1.00  0.00     0.074 A 
ATOM     63  C   UNL A   1      42.189  31.954  29.915  1.00  0.00     0.031 C 
ATOM     64  C   UNL A   1      44.516  31.711  29.094  1.00  0.00     0.034 A 
BRANCH  51  65
ATOM     65  C   UNL A   1      48.458  27.662  26.529  1.00  0.00     0.023 A 
ATOM     66  C   UNL A   1      48.856  27.832  25.191  1.00  0.00     0.031 A 
ATOM     67  C   UNL A   1      49.406  27.155  27.437  1.00  0.00     0.131 A 
ATOM     68  C   UNL A   1      50.137  27.430  24.785  1.00  0.00     0.055 A 
ATOM     69  C   UNL A   1      50.706  26.832  27.043  1.00  0.00     0.041 A 
ATOM     70  F   UNL A   1      49.078  26.948  28.722  1.00  0.00    -0.206 F 
ATOM     71  C   UNL A   1      51.073  26.954  25.706  1.00  0.00     0.022 A 
BRANCH  68  72
ATOM     72  S   UNL A   1      50.513  27.394  23.011  1.00  0.00     0.124 S 
ATOM     73  O   UNL A   1      50.528  28.818  22.684  1.00  0.00    -0.237 OA
ATOM     74  O   UNL A   1      51.803  26.716  22.976  1.00  0.00    -0.237 OA
ATOM     75  O   UNL A   1      49.397  26.644  22.439  1.00  0.00    -0.744 OA
ENDBRANCH  68  72
ENDBRANCH  51  65
BRANCH  52  76
ATOM     76  C   UNL A   1      39.100  29.083  29.831  1.00  0.00     0.023 A 
ATOM     77  C   UNL A   1      38.125  29.741  29.066  1.00  0.00     0.031 A 
ATOM     78  C   UNL A   1      38.753  28.678  31.133  1.00  0.00     0.131 A 
ATOM     79  C   UNL A   1      36.865  30.013  29.620  1.00  0.00     0.055 A 
ATOM     80  C   UNL A   1      37.482  28.907  31.663  1.00  0.00     0.041 A 
ATOM     81  F   UNL A   1      39.647  28.043  31.908  1.00  0.00    -0.206 F 
ATOM     82  C   UNL A   1      36.533  29.589  30.909  1.00  0.00     0.022 A 
BRANCH  79  83
ATOM     83  S   UNL A   1      35.687  31.000  28.658  1.00  0.00     0.124 S 
ATOM     84  O   UNL A   1      34.907  29.964  27.992  1.00  0.00    -0.237 OA
ATOM     85  O   UNL A   1      34.999  31.752  29.702  1.00  0.00    -0.237 OA
ATOM     86  O   UNL A   1      36.546  31.796  27.783  1.00  0.00    -0.744 OA
ENDBRANCH  79  83
ENDBRANCH  52  76
BRANCH  64  87
ATOM     87  C   UNL A   1      44.750  33.153  29.477  1.00  0.00     0.023 A 
ATOM     88  C   UNL A   1      44.405  34.214  28.620  1.00  0.00     0.031 A 
ATOM     89  C   UNL A   1      45.338  33.468  30.716  1.00  0.00     0.131 A 
ATOM     90  C   UNL A   1      44.703  35.535  28.989  1.00  0.00     0.055 A 
ATOM     91  C   UNL A   1      45.575  34.788  31.103  1.00  0.00     0.041 A 
ATOM     92  F   UNL A   1      45.690  32.495  31.572  1.00  0.00    -0.206 F 
ATOM     93  C   UNL A   1      45.268  35.829  30.232  1.00  0.00     0.022 A 
BRANCH  90  94
ATOM     94  S   UNL A   1      44.423  36.861  27.783  1.00  0.00     0.124 S 
ATOM     95  O   UNL A   1      43.502  36.226  26.845  1.00  0.00    -0.237 OA
ATOM     96  O   UNL A   1      43.861  37.922  28.610  1.00  0.00    -0.237 OA
ATOM     97  O   UNL A   1      45.758  37.130  27.253  1.00  0.00    -0.744 OA
ENDBRANCH  90  94
ENDBRANCH  64  87
ENDBRANCH  38  39
ENDBRANCH  31  33
ENDBRANCH  30  31
ENDBRANCH  29  30
ENDBRANCH  28  29
ENDBRANCH   1  28
TORSDOF 22
ENDMDL
MODEL 2
REMARK VINA RESULT:     -10.5      6.159     11.372
REMARK SMILES N#C/C(=C\c1ccc(Oc2ccccc2Cl)c([N+](=O)[O-])c1)C(=O)OCCOCCOC(=O)c1ccc(-c2c3nc(c(-c4cc(S(=O)(=O)[O-])ccc4F)c4ccc([nH]4)c(-c4cc(S(=O)(=O)[O-])ccc4F)c4nc(c(-c5cc(S(=O)(=O)[O-])ccc5F)c5ccc2[nH]5)C=C4)C=C3)cc1
REMARK SMILES IDX 27 1 26 2 25 3 24 4 22 5 23 6 3 7 4 8 2 9 1 10 5 11 6 12
REMARK SMILES IDX 21 13 7 14 17 15 8 16 18 17 19 18 20 19 9 20 10 21 11 22
REMARK SMILES IDX 15 23 12 24 14 25 16 26 13 27 28 28 29 29 30 30 31 31 32 32
REMARK SMILES IDX 33 33 34 34 95 35 35 36 94 37 36 38 37 39 38 40 88 41 39 42
REMARK SMILES IDX 93 43 87 44 89 45 40 46 92 47 86 48 85 49 41 51 73 52 53 53
REMARK SMILES IDX 72 54 54 55 57 56 71 57 90 58 55 59 56 60 70 62 91 63 58 64
REMARK SMILES IDX 42 65 43 66 51 67 44 68 50 69 52 70 49 71 45 72 46 73 47 74
REMARK SMILES IDX 48 75 74 76 75 77 83 78 76 79 82 80 84 81 81 82 77 83 78 84
REMARK SMILES IDX 79 85 80 86 59 87 60 88 68 89 61 90 67 91 69 92 66 93 62 94
REMARK SMILES IDX 63 95 64 96 65 97
REMARK H PARENT 89 50 57 61
REMARK Flexibility Score: inf
ROOT
ATOM      1  O   UNL A   1      34.552  34.178  29.138  1.00  0.00    -0.374 OA
ENDROOT
BRANCH   1   2
ATOM      2  C   UNL A   1      34.772  33.195  28.129  1.00  0.00     0.202 C 
BRANCH   2   3
ATOM      3  C   UNL A   1      34.159  31.808  28.329  1.00  0.00     0.261 C 
BRANCH   3   4
ATOM      4  O   UNL A   1      33.912  31.165  27.068  1.00  0.00    -0.459 OA
BRANCH   4   5
ATOM      5  C   UNL A   1      32.606  30.908  26.827  1.00  0.00     0.348 C 
ATOM      6  O   UNL A   1      31.678  31.693  26.963  1.00  0.00    -0.245 OA
BRANCH   5   7
ATOM      7  C   UNL A   1      32.417  29.569  26.231  1.00  0.00     0.138 C 
ATOM      8  C   UNL A   1      33.120  29.151  25.156  1.00  0.00     0.035 C 
BRANCH   7   9
ATOM      9  C   UNL A   1      31.713  28.582  27.148  1.00  0.00     0.107 C 
ATOM     10  N   UNL A   1      31.129  27.764  27.909  1.00  0.00    -0.192 NA
ENDBRANCH   7   9
BRANCH   8  11
ATOM     11  C   UNL A   1      33.317  27.717  24.847  1.00  0.00    -0.017 A 
ATOM     12  C   UNL A   1      34.002  26.913  25.764  1.00  0.00     0.012 A 
ATOM     13  C   UNL A   1      32.705  27.097  23.755  1.00  0.00     0.098 A 
ATOM     14  C   UNL A   1      34.022  25.516  25.618  1.00  0.00     0.055 A 
ATOM     15  C   UNL A   1      32.645  25.693  23.675  1.00  0.00     0.312 A 
ATOM     16  C   UNL A   1      33.327  24.874  24.581  1.00  0.00     0.204 A 
BRANCH  15  17
ATOM     17  N   UNL A   1      31.696  25.185  22.706  1.00  0.00     0.066 N 
ATOM     18  O   UNL A   1      30.709  24.580  23.144  1.00  0.00    -0.258 OA
ATOM     19  O   UNL A   1      31.903  25.464  21.517  1.00  0.00    -0.258 OA
ENDBRANCH  15  17
BRANCH  16  20
ATOM     20  O   UNL A   1      33.424  23.500  24.653  1.00  0.00    -0.449 OA
BRANCH  20  21
ATOM     21  C   UNL A   1      34.642  22.874  24.591  1.00  0.00     0.146 A 
ATOM     22  C   UNL A   1      35.417  23.149  23.459  1.00  0.00     0.049 A 
ATOM     23  C   UNL A   1      35.105  21.968  25.551  1.00  0.00     0.083 A 
ATOM     24  C   UNL A   1      36.696  22.607  23.340  1.00  0.00     0.004 A 
ATOM     25  C   UNL A   1      36.395  21.443  25.438  1.00  0.00     0.024 A 
ATOM     26  Cl  UNL A   1      34.138  21.488  26.898  1.00  0.00    -0.080 Cl
ATOM     27  C   UNL A   1      37.194  21.774  24.340  1.00  0.00     0.002 A 
ENDBRANCH  20  21
ENDBRANCH  16  20
ENDBRANCH   8  11
ENDBRANCH   5   7
ENDBRANCH   4   5
ENDBRANCH   3   4
ENDBRANCH   2   3
ENDBRANCH   1   2
BRANCH   1  28
ATOM     28  C   UNL A   1      33.255  34.740  29.304  1.00  0.00     0.202 C 
BRANCH  28  29
ATOM     29  C   UNL A   1      32.974  35.677  30.488  1.00  0.00     0.261 C 
BRANCH  29  30
ATOM     30  O   UNL A   1      32.906  35.025  31.763  1.00  0.00    -0.460 OA
BRANCH  30  31
ATOM     31  C   UNL A   1      33.893  35.394  32.618  1.00  0.00     0.338 C 
ATOM     32  O   UNL A   1      33.817  36.243  33.501  1.00  0.00    -0.246 OA
BRANCH  31  33
ATOM     33  C   UNL A   1      35.055  34.501  32.486  1.00  0.00     0.060 A 
ATOM     34  C   UNL A   1      34.917  33.186  32.952  1.00  0.00     0.016 A 
ATOM     35  C   UNL A   1      36.282  34.961  32.006  1.00  0.00     0.016 A 
ATOM     36  C   UNL A   1      36.019  32.337  32.980  1.00  0.00     0.010 A 
ATOM     37  C   UNL A   1      37.391  34.109  32.046  1.00  0.00     0.010 A 
ATOM     38  C   UNL A   1      37.272  32.806  32.564  1.00  0.00    -0.014 A 
BRANCH  38  39
ATOM     39  C   UNL A   1      38.477  31.981  32.822  1.00  0.00     0.031 A 
ATOM     40  C   UNL A   1      39.256  32.210  34.089  1.00  0.00     0.074 A 
ATOM     41  C   UNL A   1      38.845  31.016  31.962  1.00  0.00     0.049 A 
ATOM     42  N   UNL A   1      40.345  31.624  34.512  1.00  0.00    -0.248 NA
ATOM     43  C   UNL A   1      38.736  33.245  34.995  1.00  0.00     0.031 C 
ATOM     44  C   UNL A   1      38.135  30.668  30.732  1.00  0.00     0.029 A 
ATOM     45  N   UNL A   1      39.908  30.151  31.993  1.00  0.00    -0.354 N 
ATOM     46  C   UNL A   1      40.649  32.222  35.731  1.00  0.00     0.074 A 
ATOM     47  C   UNL A   1      39.644  33.241  35.959  1.00  0.00     0.031 C 
ATOM     48  C   UNL A   1      38.786  29.662  30.124  1.00  0.00     0.029 A 
ATOM     49  C   UNL A   1      39.977  29.321  30.899  1.00  0.00     0.049 A 
ATOM     50  H   UNL A   1      40.562  30.127  32.728  1.00  0.00     0.167 HD
ATOM     51  C   UNL A   1      41.666  31.942  36.583  1.00  0.00     0.034 A 
ATOM     52  C   UNL A   1      40.907  28.407  30.555  1.00  0.00     0.034 A 
ATOM     53  C   UNL A   1      42.660  30.926  36.336  1.00  0.00     0.049 A 
ATOM     54  C   UNL A   1      42.081  28.176  31.475  1.00  0.00     0.074 A 
ATOM     55  C   UNL A   1      43.714  30.537  37.144  1.00  0.00     0.029 A 
ATOM     56  N   UNL A   1      42.735  30.149  35.187  1.00  0.00    -0.354 N 
ATOM     57  N   UNL A   1      42.348  28.738  32.633  1.00  0.00    -0.248 NA
ATOM     58  C   UNL A   1      43.076  27.186  31.043  1.00  0.00     0.031 C 
ATOM     59  C   UNL A   1      44.468  29.582  36.452  1.00  0.00     0.029 A 
ATOM     60  C   UNL A   1      43.841  29.314  35.246  1.00  0.00     0.049 A 
ATOM     61  H   UNL A   1      42.096  30.185  34.439  1.00  0.00     0.167 HD
ATOM     62  C   UNL A   1      43.525  28.140  33.081  1.00  0.00     0.074 A 
ATOM     63  C   UNL A   1      43.907  27.172  32.073  1.00  0.00     0.031 C 
ATOM     64  C   UNL A   1      44.220  28.364  34.225  1.00  0.00     0.034 A 
BRANCH  51  65
ATOM     65  C   UNL A   1      41.783  32.792  37.826  1.00  0.00     0.023 A 
ATOM     66  C   UNL A   1      41.168  32.431  39.037  1.00  0.00     0.031 A 
ATOM     67  C   UNL A   1      42.491  34.007  37.784  1.00  0.00     0.131 A 
ATOM     68  C   UNL A   1      41.209  33.308  40.132  1.00  0.00     0.055 A 
ATOM     69  C   UNL A   1      42.596  34.837  38.902  1.00  0.00     0.041 A 
ATOM     70  F   UNL A   1      43.078  34.417  36.650  1.00  0.00    -0.206 F 
ATOM     71  C   UNL A   1      41.939  34.497  40.080  1.00  0.00     0.022 A 
BRANCH  68  72
ATOM     72  S   UNL A   1      40.169  32.945  41.574  1.00  0.00     0.124 S 
ATOM     73  O   UNL A   1      41.171  32.753  42.619  1.00  0.00    -0.237 OA
ATOM     74  O   UNL A   1      39.353  34.147  41.684  1.00  0.00    -0.237 OA
ATOM     75  O   UNL A   1      39.450  31.734  41.182  1.00  0.00    -0.744 OA
ENDBRANCH  68  72
ENDBRANCH  51  65
BRANCH  52  76
ATOM     76  C   UNL A   1      40.792  27.660  29.271  1.00  0.00     0.023 A 
ATOM     77  C   UNL A   1      41.666  27.916  28.203  1.00  0.00     0.031 A 
ATOM     78  C   UNL A   1      39.771  26.713  29.075  1.00  0.00     0.131 A 
ATOM     79  C   UNL A   1      41.479  27.266  26.974  1.00  0.00     0.055 A 
ATOM     80  C   UNL A   1      39.618  26.032  27.866  1.00  0.00     0.041 A 
ATOM     81  F   UNL A   1      38.909  26.429  30.064  1.00  0.00    -0.206 F 
ATOM     82  C   UNL A   1      40.469  26.316  26.802  1.00  0.00     0.022 A 
BRANCH  79  83
ATOM     83  S   UNL A   1      42.530  27.736  25.573  1.00  0.00     0.124 S 
ATOM     84  O   UNL A   1      43.815  27.952  26.226  1.00  0.00    -0.237 OA
ATOM     85  O   UNL A   1      42.434  26.558  24.716  1.00  0.00    -0.237 OA
ATOM     86  O   UNL A   1      41.883  28.938  25.051  1.00  0.00    -0.744 OA
ENDBRANCH  79  83
ENDBRANCH  52  76
BRANCH  64  87
ATOM     87  C   UNL A   1      45.442  27.509  34.465  1.00  0.00     0.023 A 
ATOM     88  C   UNL A   1      45.367  26.282  35.149  1.00  0.00     0.031 A 
ATOM     89  C   UNL A   1      46.703  27.936  34.011  1.00  0.00     0.131 A 
ATOM     90  C   UNL A   1      46.539  25.554  35.407  1.00  0.00     0.055 A 
ATOM     91  C   UNL A   1      47.855  27.178  34.217  1.00  0.00     0.041 A 
ATOM     92  F   UNL A   1      46.834  29.101  33.354  1.00  0.00    -0.206 F 
ATOM     93  C   UNL A   1      47.779  25.985  34.930  1.00  0.00     0.022 A 
BRANCH  90  94
ATOM     94  S   UNL A   1      46.434  24.077  36.456  1.00  0.00     0.124 S 
ATOM     95  O   UNL A   1      47.255  23.123  35.718  1.00  0.00    -0.237 OA
ATOM     96  O   UNL A   1      46.986  24.552  37.719  1.00  0.00    -0.237 OA
ATOM     97  O   UNL A   1      45.004  23.775  36.480  1.00  0.00    -0.744 OA
ENDBRANCH  90  94
ENDBRANCH  64  87
ENDBRANCH  38  39
ENDBRANCH  31  33
ENDBRANCH  30  31
ENDBRANCH  29  30
ENDBRANCH  28  29
ENDBRANCH   1  28
TORSDOF 22
ENDMDL
MODEL 3
REMARK VINA RESULT:     -10.2      1.819      2.162
REMARK SMILES N#C/C(=C\c1ccc(Oc2ccccc2Cl)c([N+](=O)[O-])c1)C(=O)OCCOCCOC(=O)c1ccc(-c2c3nc(c(-c4cc(S(=O)(=O)[O-])ccc4F)c4ccc([nH]4)c(-c4cc(S(=O)(=O)[O-])ccc4F)c4nc(c(-c5cc(S(=O)(=O)[O-])ccc5F)c5ccc2[nH]5)C=C4)C=C3)cc1
REMARK SMILES IDX 27 1 26 2 25 3 24 4 22 5 23 6 3 7 4 8 2 9 1 10 5 11 6 12
REMARK SMILES IDX 21 13 7 14 17 15 8 16 18 17 19 18 20 19 9 20 10 21 11 22
REMARK SMILES IDX 15 23 12 24 14 25 16 26 13 27 28 28 29 29 30 30 31 31 32 32
REMARK SMILES IDX 33 33 34 34 95 35 35 36 94 37 36 38 37 39 38 40 88 41 39 42
REMARK SMILES IDX 93 43 87 44 89 45 40 46 92 47 86 48 85 49 41 51 73 52 53 53
REMARK SMILES IDX 72 54 54 55 57 56 71 57 90 58 55 59 56 60 70 62 91 63 58 64
REMARK SMILES IDX 42 65 43 66 51 67 44 68 50 69 52 70 49 71 45 72 46 73 47 74
REMARK SMILES IDX 48 75 74 76 75 77 83 78 76 79 82 80 84 81 81 82 77 83 78 84
REMARK SMILES IDX 79 85 80 86 59 87 60 88 68 89 61 90 67 91 69 92 66 93 62 94
REMARK SMILES IDX 63 95 64 96 65 97
REMARK H PARENT 89 50 57 61
REMARK Flexibility Score: inf
ROOT
ATOM      1  O   UNL A   1      38.680  21.080  25.745  1.00  0.00    -0.374 OA
ENDROOT
BRANCH   1   2
ATOM      2  C   UNL A   1      37.654  21.649  24.934  1.00  0.00     0.202 C 
BRANCH   2   3
ATOM      3  C   UNL A   1      36.203  21.494  25.394  1.00  0.00     0.261 C 
BRANCH   3   4
ATOM      4  O   UNL A   1      35.827  22.556  26.286  1.00  0.00    -0.459 OA
BRANCH   4   5
ATOM      5  C   UNL A   1      34.492  22.679  26.465  1.00  0.00     0.348 C 
ATOM      6  O   UNL A   1      33.750  21.845  26.964  1.00  0.00    -0.245 OA
BRANCH   5   7
ATOM      7  C   UNL A   1      34.017  24.029  26.101  1.00  0.00     0.138 C 
ATOM      8  C   UNL A   1      34.657  24.799  25.193  1.00  0.00     0.035 C 
BRANCH   7   9
ATOM      9  C   UNL A   1      32.572  24.299  26.488  1.00  0.00     0.107 C 
ATOM     10  N   UNL A   1      31.373  24.522  26.809  1.00  0.00    -0.192 NA
ENDBRANCH   7   9
BRANCH   8  11
ATOM     11  C   UNL A   1      33.978  25.895  24.465  1.00  0.00    -0.017 A 
ATOM     12  C   UNL A   1      33.527  25.665  23.160  1.00  0.00     0.012 A 
ATOM     13  C   UNL A   1      33.622  27.096  25.083  1.00  0.00     0.098 A 
ATOM     14  C   UNL A   1      32.693  26.593  22.516  1.00  0.00     0.055 A 
ATOM     15  C   UNL A   1      32.705  27.969  24.468  1.00  0.00     0.312 A 
ATOM     16  C   UNL A   1      32.247  27.756  23.164  1.00  0.00     0.204 A 
BRANCH  15  17
ATOM     17  N   UNL A   1      32.156  28.980  25.346  1.00  0.00     0.066 N 
ATOM     18  O   UNL A   1      31.197  28.652  26.057  1.00  0.00    -0.258 OA
ATOM     19  O   UNL A   1      32.737  30.074  25.378  1.00  0.00    -0.258 OA
ENDBRANCH  15  17
BRANCH  16  20
ATOM     20  O   UNL A   1      31.389  28.499  22.380  1.00  0.00    -0.449 OA
BRANCH  20  21
ATOM     21  C   UNL A   1      30.074  28.660  22.731  1.00  0.00     0.146 A 
ATOM     22  C   UNL A   1      29.557  29.954  22.600  1.00  0.00     0.049 A 
ATOM     23  C   UNL A   1      29.269  27.636  23.241  1.00  0.00     0.083 A 
ATOM     24  C   UNL A   1      28.212  30.200  22.873  1.00  0.00     0.004 A 
ATOM     25  C   UNL A   1      27.917  27.882  23.494  1.00  0.00     0.024 A 
ATOM     26  Cl  UNL A   1      29.888  26.055  23.551  1.00  0.00    -0.080 Cl
ATOM     27  C   UNL A   1      27.387  29.160  23.297  1.00  0.00     0.002 A 
ENDBRANCH  20  21
ENDBRANCH  16  20
ENDBRANCH   8  11
ENDBRANCH   5   7
ENDBRANCH   4   5
ENDBRANCH   3   4
ENDBRANCH   2   3
ENDBRANCH   1   2
BRANCH   1  28
ATOM     28  C   UNL A   1      38.992  19.698  25.620  1.00  0.00     0.202 C 
BRANCH  28  29
ATOM     29  C   UNL A   1      40.294  19.151  26.223  1.00  0.00     0.261 C 
BRANCH  29  30
ATOM     30  O   UNL A   1      41.443  19.273  25.371  1.00  0.00    -0.460 OA
BRANCH  30  31
ATOM     31  C   UNL A   1      42.567  19.662  26.024  1.00  0.00     0.338 C 
ATOM     32  O   UNL A   1      43.609  19.024  26.132  1.00  0.00    -0.246 OA
BRANCH  31  33
ATOM     33  C   UNL A   1      42.459  21.066  26.451  1.00  0.00     0.060 A 
ATOM     34  C   UNL A   1      42.291  22.035  25.453  1.00  0.00     0.016 A 
ATOM     35  C   UNL A   1      42.616  21.440  27.787  1.00  0.00     0.016 A 
ATOM     36  C   UNL A   1      42.319  23.387  25.780  1.00  0.00     0.010 A 
ATOM     37  C   UNL A   1      42.657  22.800  28.112  1.00  0.00     0.010 A 
ATOM     38  C   UNL A   1      42.542  23.779  27.106  1.00  0.00    -0.014 A 
BRANCH  38  39
ATOM     39  C   UNL A   1      42.811  25.206  27.406  1.00  0.00     0.031 A 
ATOM     40  C   UNL A   1      44.171  25.769  27.094  1.00  0.00     0.074 A 
ATOM     41  C   UNL A   1      41.846  25.995  27.908  1.00  0.00     0.049 A 
ATOM     42  N   UNL A   1      44.634  26.976  27.286  1.00  0.00    -0.248 NA
ATOM     43  C   UNL A   1      45.137  24.840  26.488  1.00  0.00     0.031 C 
ATOM     44  C   UNL A   1      40.477  25.572  28.198  1.00  0.00     0.029 A 
ATOM     45  N   UNL A   1      41.871  27.320  28.261  1.00  0.00    -0.354 N 
ATOM     46  C   UNL A   1      45.950  26.954  26.832  1.00  0.00     0.074 A 
ATOM     47  C   UNL A   1      46.217  25.601  26.388  1.00  0.00     0.031 C 
ATOM     48  C   UNL A   1      39.792  26.619  28.688  1.00  0.00     0.029 A 
ATOM     49  C   UNL A   1      40.683  27.774  28.783  1.00  0.00     0.049 A 
ATOM     50  H   UNL A   1      42.665  27.892  28.154  1.00  0.00     0.167 HD
ATOM     51  C   UNL A   1      46.848  27.970  26.786  1.00  0.00     0.034 A 
ATOM     52  C   UNL A   1      40.361  28.979  29.297  1.00  0.00     0.034 A 
ATOM     53  C   UNL A   1      46.564  29.310  27.238  1.00  0.00     0.049 A 
ATOM     54  C   UNL A   1      41.404  30.068  29.319  1.00  0.00     0.074 A 
ATOM     55  C   UNL A   1      47.388  30.422  27.207  1.00  0.00     0.029 A 
ATOM     56  N   UNL A   1      45.370  29.718  27.820  1.00  0.00    -0.354 N 
ATOM     57  N   UNL A   1      42.641  30.039  28.873  1.00  0.00    -0.248 NA
ATOM     58  C   UNL A   1      41.008  31.353  29.909  1.00  0.00     0.031 C 
ATOM     59  C   UNL A   1      46.722  31.478  27.839  1.00  0.00     0.029 A 
ATOM     60  C   UNL A   1      45.451  31.051  28.192  1.00  0.00     0.049 A 
ATOM     61  H   UNL A   1      44.582  29.144  27.950  1.00  0.00     0.167 HD
ATOM     62  C   UNL A   1      43.155  31.314  29.099  1.00  0.00     0.074 A 
ATOM     63  C   UNL A   1      42.093  32.086  29.712  1.00  0.00     0.031 C 
ATOM     64  C   UNL A   1      44.389  31.806  28.818  1.00  0.00     0.034 A 
BRANCH  51  65
ATOM     65  C   UNL A   1      48.235  27.645  26.284  1.00  0.00     0.023 A 
ATOM     66  C   UNL A   1      49.318  27.451  27.159  1.00  0.00     0.031 A 
ATOM     67  C   UNL A   1      48.484  27.569  24.902  1.00  0.00     0.131 A 
ATOM     68  C   UNL A   1      50.610  27.265  26.644  1.00  0.00     0.055 A 
ATOM     69  C   UNL A   1      49.758  27.303  24.396  1.00  0.00     0.041 A 
ATOM     70  F   UNL A   1      47.496  27.769  24.017  1.00  0.00    -0.206 F 
ATOM     71  C   UNL A   1      50.833  27.165  25.269  1.00  0.00     0.022 A 
BRANCH  68  72
ATOM     72  S   UNL A   1      52.016  27.307  27.790  1.00  0.00     0.124 S 
ATOM     73  O   UNL A   1      53.128  27.580  26.882  1.00  0.00    -0.237 OA
ATOM     74  O   UNL A   1      51.650  28.389  28.696  1.00  0.00    -0.237 OA
ATOM     75  O   UNL A   1      52.017  25.970  28.380  1.00  0.00    -0.744 OA
ENDBRANCH  68  72
ENDBRANCH  51  65
BRANCH  52  76
ATOM     76  C   UNL A   1      39.004  29.218  29.865  1.00  0.00     0.023 A 
ATOM     77  C   UNL A   1      38.023  29.905  29.133  1.00  0.00     0.031 A 
ATOM     78  C   UNL A   1      38.684  28.807  31.171  1.00  0.00     0.131 A 
ATOM     79  C   UNL A   1      36.785  30.199  29.726  1.00  0.00     0.055 A 
ATOM     80  C   UNL A   1      37.435  29.058  31.740  1.00  0.00     0.041 A 
ATOM     81  F   UNL A   1      39.586  28.145  31.914  1.00  0.00    -0.206 F 
ATOM     82  C   UNL A   1      36.480  29.768  31.019  1.00  0.00     0.022 A 
BRANCH  79  83
ATOM     83  S   UNL A   1      35.602  31.220  28.806  1.00  0.00     0.124 S 
ATOM     84  O   UNL A   1      34.921  31.929  29.884  1.00  0.00    -0.237 OA
ATOM     85  O   UNL A   1      36.485  32.023  27.967  1.00  0.00    -0.237 OA
ATOM     86  O   UNL A   1      34.789  30.239  28.092  1.00  0.00    -0.744 OA
ENDBRANCH  79  83
ENDBRANCH  52  76
BRANCH  64  87
ATOM     87  C   UNL A   1      44.636  33.262  29.130  1.00  0.00     0.023 A 
ATOM     88  C   UNL A   1      45.177  33.676  30.360  1.00  0.00     0.031 A 
ATOM     89  C   UNL A   1      44.314  34.252  28.184  1.00  0.00     0.131 A 
ATOM     90  C   UNL A   1      45.327  35.045  30.633  1.00  0.00     0.055 A 
ATOM     91  C   UNL A   1      44.523  35.608  28.437  1.00  0.00     0.041 A 
ATOM     92  F   UNL A   1      43.792  33.914  26.993  1.00  0.00    -0.206 F 
ATOM     93  C   UNL A   1      45.020  36.011  29.673  1.00  0.00     0.022 A 
BRANCH  90  94
ATOM     94  S   UNL A   1      45.845  35.551  32.296  1.00  0.00     0.124 S 
ATOM     95  O   UNL A   1      45.461  36.959  32.317  1.00  0.00    -0.237 OA
ATOM     96  O   UNL A   1      45.063  34.664  33.150  1.00  0.00    -0.237 OA
ATOM     97  O   UNL A   1      47.285  35.301  32.298  1.00  0.00    -0.744 OA
ENDBRANCH  90  94
ENDBRANCH  64  87
ENDBRANCH  38  39
ENDBRANCH  31  33
ENDBRANCH  30  31
ENDBRANCH  29  30
ENDBRANCH  28  29
ENDBRANCH   1  28
TORSDOF 22
ENDMDL
