MODEL 1
REMARK VINA RESULT:     -11.4      0.000      0.000
REMARK SMILES Cc1sc(C(=O)OCCOCCOC(=O)c2ccc(-c3c4nc(c(-c5cc(S(=O)(=O)[O-])ccc5F)c5ccc([nH]5)c(-c5cc(S(=O)(=O)[O-])ccc5F)c5nc(c(-c6cc(S(=O)(=O)[O-])ccc6F)c6ccc3[nH]6)C=C5)C=C4)cc2)cc1S(=O)(=O)N1C[C@@H](C)[C@H](C)C1
REMARK SMILES IDX 11 1 10 2 9 3 8 4 7 5 5 6 6 7 4 8 1 9 2 10 3 11 80 12 79 13
REMARK SMILES IDX 81 14 82 15 83 16 84 17 85 18 90 19 86 20 88 21 87 22 89 23
REMARK SMILES IDX 12 24 13 25 14 26 15 27 16 28 17 29 78 30 18 31 77 32 19 33
REMARK SMILES IDX 20 34 21 35 71 36 22 37 76 38 70 39 72 40 23 41 75 42 69 43
REMARK SMILES IDX 68 44 24 46 56 47 36 48 55 49 37 50 40 51 54 52 73 53 38 54
REMARK SMILES IDX 39 55 53 57 74 58 41 59 25 60 26 61 34 62 27 63 33 64 35 65
REMARK SMILES IDX 32 66 28 67 29 68 30 69 31 70 57 71 58 72 66 73 59 74 65 75
REMARK SMILES IDX 67 76 64 77 60 78 61 79 62 80 63 81 42 82 43 83 51 84 44 85
REMARK SMILES IDX 50 86 52 87 49 88 45 89 46 90 47 91 48 92
REMARK H PARENT 72 45 40 56
REMARK Flexibility Score: inf
ROOT
ATOM      1  C   UNL A   1      31.754  30.981  26.437  1.00  0.00     0.202 C 
ENDROOT
BRANCH   1   2
ATOM      2  O   UNL A   1      31.058  30.555  25.259  1.00  0.00    -0.374 OA
BRANCH   2   3
ATOM      3  C   UNL A   1      30.015  31.421  24.803  1.00  0.00     0.202 C 
BRANCH   3   4
ATOM      4  C   UNL A   1      29.289  30.926  23.549  1.00  0.00     0.261 C 
BRANCH   4   5
ATOM      5  O   UNL A   1      29.943  29.760  23.021  1.00  0.00    -0.459 OA
BRANCH   5   6
ATOM      6  C   UNL A   1      29.193  28.622  23.041  1.00  0.00     0.348 C 
ATOM      7  O   UNL A   1      27.970  28.588  22.961  1.00  0.00    -0.245 OA
BRANCH   6   8
ATOM      8  C   UNL A   1      30.065  27.467  23.024  1.00  0.00     0.114 A 
ATOM      9  C   UNL A   1      30.830  23.692  23.684  1.00  0.00     0.058 C 
ATOM     10  C   UNL A   1      30.858  25.134  23.326  1.00  0.00     0.022 A 
ATOM     11  S   UNL A   1      29.533  26.079  23.862  1.00  0.00    -0.132 S 
ATOM     12  C   UNL A   1      31.767  25.904  22.617  1.00  0.00     0.097 A 
ATOM     13  C   UNL A   1      31.270  27.238  22.390  1.00  0.00     0.049 A 
BRANCH  12  14
ATOM     14  S   UNL A   1      33.319  25.403  21.986  1.00  0.00     0.244 S 
ATOM     15  O   UNL A   1      32.963  24.461  20.948  1.00  0.00    -0.207 OA
ATOM     16  O   UNL A   1      33.969  26.663  21.700  1.00  0.00    -0.207 OA
BRANCH  14  17
ATOM     17  N   UNL A   1      34.222  24.621  23.137  1.00  0.00    -0.197 NA
ATOM     18  C   UNL A   1      34.284  25.043  24.532  1.00  0.00     0.106 C 
ATOM     19  C   UNL A   1      35.044  23.451  22.858  1.00  0.00     0.106 C 
ATOM     20  C   UNL A   1      35.081  23.933  25.239  1.00  0.00     0.005 C 
ATOM     21  C   UNL A   1      35.172  22.776  24.224  1.00  0.00     0.005 C 
ATOM     22  C   UNL A   1      34.414  23.498  26.541  1.00  0.00     0.009 C 
ATOM     23  C   UNL A   1      36.449  21.959  24.359  1.00  0.00     0.009 C 
ENDBRANCH  14  17
ENDBRANCH  12  14
ENDBRANCH   6   8
ENDBRANCH   5   6
ENDBRANCH   4   5
ENDBRANCH   3   4
ENDBRANCH   2   3
ENDBRANCH   1   2
BRANCH   1  24
ATOM     24  C   UNL A   1      31.556  32.455  26.812  1.00  0.00     0.261 C 
BRANCH  24  25
ATOM     25  O   UNL A   1      32.794  33.179  26.690  1.00  0.00    -0.460 OA
BRANCH  25  26
ATOM     26  C   UNL A   1      33.264  33.720  27.841  1.00  0.00     0.338 C 
ATOM     27  O   UNL A   1      32.689  34.519  28.560  1.00  0.00    -0.246 OA
BRANCH  26  28
ATOM     28  C   UNL A   1      34.514  33.035  28.232  1.00  0.00     0.060 A 
ATOM     29  C   UNL A   1      34.415  31.692  28.615  1.00  0.00     0.016 A 
ATOM     30  C   UNL A   1      35.751  33.685  28.246  1.00  0.00     0.016 A 
ATOM     31  C   UNL A   1      35.544  31.006  29.061  1.00  0.00     0.010 A 
ATOM     32  C   UNL A   1      36.882  32.997  28.704  1.00  0.00     0.010 A 
ATOM     33  C   UNL A   1      36.777  31.665  29.143  1.00  0.00    -0.014 A 
BRANCH  33  34
ATOM     34  C   UNL A   1      37.910  31.005  29.839  1.00  0.00     0.031 A 
ATOM     35  C   UNL A   1      38.192  31.375  31.269  1.00  0.00     0.074 A 
ATOM     36  C   UNL A   1      38.649  30.067  29.221  1.00  0.00     0.049 A 
ATOM     37  N   UNL A   1      39.128  30.939  32.072  1.00  0.00    -0.248 NA
ATOM     38  C   UNL A   1      37.295  32.372  31.872  1.00  0.00     0.031 C 
ATOM     39  C   UNL A   1      38.444  29.598  27.852  1.00  0.00     0.029 A 
ATOM     40  N   UNL A   1      39.725  29.342  29.668  1.00  0.00    -0.354 N 
ATOM     41  C   UNL A   1      38.933  31.606  33.277  1.00  0.00     0.074 A 
ATOM     42  C   UNL A   1      37.815  32.506  33.082  1.00  0.00     0.031 C 
ATOM     43  C   UNL A   1      39.374  28.669  27.567  1.00  0.00     0.029 A 
ATOM     44  C   UNL A   1      40.256  28.501  28.721  1.00  0.00     0.049 A 
ATOM     45  H   UNL A   1      40.083  29.419  30.582  1.00  0.00     0.167 HD
ATOM     46  C   UNL A   1      39.615  31.474  34.441  1.00  0.00     0.034 A 
ATOM     47  C   UNL A   1      41.342  27.704  28.772  1.00  0.00     0.034 A 
ATOM     48  C   UNL A   1      40.742  30.589  34.614  1.00  0.00     0.049 A 
ATOM     49  C   UNL A   1      42.146  27.641  30.048  1.00  0.00     0.074 A 
ATOM     50  C   UNL A   1      41.499  30.367  35.751  1.00  0.00     0.029 A 
ATOM     51  N   UNL A   1      41.285  29.791  33.615  1.00  0.00    -0.354 N 
ATOM     52  N   UNL A   1      41.944  28.267  31.185  1.00  0.00    -0.248 NA
ATOM     53  C   UNL A   1      43.321  26.759  30.048  1.00  0.00     0.031 C 
ATOM     54  C   UNL A   1      42.539  29.490  35.422  1.00  0.00     0.029 A 
ATOM     55  C   UNL A   1      42.389  29.106  34.099  1.00  0.00     0.049 A 
ATOM     56  H   UNL A   1      40.939  29.724  32.696  1.00  0.00     0.167 HD
ATOM     57  C   UNL A   1      42.952  27.831  32.043  1.00  0.00     0.074 A 
ATOM     58  C   UNL A   1      43.751  26.883  31.295  1.00  0.00     0.031 C 
ATOM     59  C   UNL A   1      43.190  28.176  33.335  1.00  0.00     0.034 A 
BRANCH  46  60
ATOM     60  C   UNL A   1      39.188  32.353  35.591  1.00  0.00     0.023 A 
ATOM     61  C   UNL A   1      39.606  33.693  35.693  1.00  0.00     0.031 A 
ATOM     62  C   UNL A   1      38.392  31.831  36.627  1.00  0.00     0.131 A 
ATOM     63  C   UNL A   1      39.291  34.438  36.840  1.00  0.00     0.055 A 
ATOM     64  C   UNL A   1      38.017  32.603  37.728  1.00  0.00     0.041 A 
ATOM     65  F   UNL A   1      37.983  30.553  36.595  1.00  0.00    -0.206 F 
ATOM     66  C   UNL A   1      38.479  33.910  37.847  1.00  0.00     0.022 A 
BRANCH  63  67
ATOM     67  S   UNL A   1      40.081  36.056  37.066  1.00  0.00     0.124 S 
ATOM     68  O   UNL A   1      39.313  36.606  38.180  1.00  0.00    -0.237 OA
ATOM     69  O   UNL A   1      41.463  35.693  37.359  1.00  0.00    -0.237 OA
ATOM     70  O   UNL A   1      39.870  36.723  35.783  1.00  0.00    -0.744 OA
ENDBRANCH  63  67
ENDBRANCH  46  60
BRANCH  47  71
ATOM     71  C   UNL A   1      41.767  26.931  27.570  1.00  0.00     0.023 A 
ATOM     72  C   UNL A   1      41.569  25.545  27.487  1.00  0.00     0.031 A 
ATOM     73  C   UNL A   1      42.425  27.570  26.503  1.00  0.00     0.131 A 
ATOM     74  C   UNL A   1      42.056  24.835  26.378  1.00  0.00     0.055 A 
ATOM     75  C   UNL A   1      42.868  26.867  25.383  1.00  0.00     0.041 A 
ATOM     76  F   UNL A   1      42.640  28.895  26.534  1.00  0.00    -0.206 F 
ATOM     77  C   UNL A   1      42.694  25.489  25.320  1.00  0.00     0.022 A 
BRANCH  74  78
ATOM     78  S   UNL A   1      41.907  23.027  26.367  1.00  0.00     0.124 S 
ATOM     79  O   UNL A   1      40.461  22.847  26.424  1.00  0.00    -0.237 OA
ATOM     80  O   UNL A   1      42.547  22.679  25.103  1.00  0.00    -0.237 OA
ATOM     81  O   UNL A   1      42.637  22.617  27.565  1.00  0.00    -0.744 OA
ENDBRANCH  74  78
ENDBRANCH  47  71
BRANCH  59  82
ATOM     82  C   UNL A   1      44.342  27.489  34.027  1.00  0.00     0.023 A 
ATOM     83  C   UNL A   1      44.179  26.267  34.702  1.00  0.00     0.031 A 
ATOM     84  C   UNL A   1      45.620  28.075  34.017  1.00  0.00     0.131 A 
ATOM     85  C   UNL A   1      45.265  25.695  35.382  1.00  0.00     0.055 A 
ATOM     86  C   UNL A   1      46.709  27.474  34.649  1.00  0.00     0.041 A 
ATOM     87  F   UNL A   1      45.833  29.243  33.389  1.00  0.00    -0.206 F 
ATOM     88  C   UNL A   1      46.532  26.283  35.348  1.00  0.00     0.022 A 
BRANCH  85  89
ATOM     89  S   UNL A   1      44.982  24.212  36.389  1.00  0.00     0.124 S 
ATOM     90  O   UNL A   1      44.034  23.465  35.569  1.00  0.00    -0.237 OA
ATOM     91  O   UNL A   1      46.323  23.644  36.492  1.00  0.00    -0.237 OA
ATOM     92  O   UNL A   1      44.437  24.742  37.638  1.00  0.00    -0.744 OA
ENDBRANCH  85  89
ENDBRANCH  59  82
ENDBRANCH  33  34
ENDBRANCH  26  28
ENDBRANCH  25  26
ENDBRANCH  24  25
ENDBRANCH   1  24
TORSDOF 19
ENDMDL
MODEL 2
REMARK VINA RESULT:     -11.2      4.817     10.458
REMARK SMILES Cc1sc(C(=O)OCCOCCOC(=O)c2ccc(-c3c4nc(c(-c5cc(S(=O)(=O)[O-])ccc5F)c5ccc([nH]5)c(-c5cc(S(=O)(=O)[O-])ccc5F)c5nc(c(-c6cc(S(=O)(=O)[O-])ccc6F)c6ccc3[nH]6)C=C5)C=C4)cc2)cc1S(=O)(=O)N1C[C@@H](C)[C@H](C)C1
REMARK SMILES IDX 11 1 10 2 9 3 8 4 7 5 5 6 6 7 4 8 1 9 2 10 3 11 80 12 79 13
REMARK SMILES IDX 81 14 82 15 83 16 84 17 85 18 90 19 86 20 88 21 87 22 89 23
REMARK SMILES IDX 12 24 13 25 14 26 15 27 16 28 17 29 78 30 18 31 77 32 19 33
REMARK SMILES IDX 20 34 21 35 71 36 22 37 76 38 70 39 72 40 23 41 75 42 69 43
REMARK SMILES IDX 68 44 24 46 56 47 36 48 55 49 37 50 40 51 54 52 73 53 38 54
REMARK SMILES IDX 39 55 53 57 74 58 41 59 25 60 26 61 34 62 27 63 33 64 35 65
REMARK SMILES IDX 32 66 28 67 29 68 30 69 31 70 57 71 58 72 66 73 59 74 65 75
REMARK SMILES IDX 67 76 64 77 60 78 61 79 62 80 63 81 42 82 43 83 51 84 44 85
REMARK SMILES IDX 50 86 52 87 49 88 45 89 46 90 47 91 48 92
REMARK H PARENT 72 45 40 56
REMARK Flexibility Score: inf
ROOT
ATOM      1  C   UNL A   1      37.184  19.632  24.885  1.00  0.00     0.202 C 
ENDROOT
BRANCH   1   2
ATOM      2  O   UNL A   1      36.664  20.967  24.914  1.00  0.00    -0.374 OA
BRANCH   2   3
ATOM      3  C   UNL A   1      35.384  21.125  25.533  1.00  0.00     0.202 C 
BRANCH   3   4
ATOM      4  C   UNL A   1      34.284  20.240  24.939  1.00  0.00     0.261 C 
BRANCH   4   5
ATOM      5  O   UNL A   1      33.007  20.889  25.056  1.00  0.00    -0.459 OA
BRANCH   5   6
ATOM      6  C   UNL A   1      32.474  21.323  23.879  1.00  0.00     0.348 C 
ATOM      7  O   UNL A   1      32.203  20.602  22.925  1.00  0.00    -0.245 OA
BRANCH   6   8
ATOM      8  C   UNL A   1      32.147  22.729  23.984  1.00  0.00     0.114 A 
ATOM      9  C   UNL A   1      30.518  25.783  25.799  1.00  0.00     0.058 C 
ATOM     10  C   UNL A   1      31.222  24.852  24.879  1.00  0.00     0.022 A 
ATOM     11  S   UNL A   1      31.024  23.178  25.187  1.00  0.00    -0.132 S 
ATOM     12  C   UNL A   1      32.041  25.064  23.781  1.00  0.00     0.097 A 
ATOM     13  C   UNL A   1      32.625  23.834  23.309  1.00  0.00     0.049 A 
BRANCH  12  14
ATOM     14  S   UNL A   1      32.427  26.592  23.024  1.00  0.00     0.244 S 
ATOM     15  O   UNL A   1      33.584  26.276  22.216  1.00  0.00    -0.207 OA
ATOM     16  O   UNL A   1      31.162  26.991  22.446  1.00  0.00    -0.207 OA
BRANCH  14  17
ATOM     17  N   UNL A   1      32.851  27.739  24.146  1.00  0.00    -0.197 NA
ATOM     18  C   UNL A   1      32.250  29.067  24.201  1.00  0.00     0.106 C 
ATOM     19  C   UNL A   1      33.868  27.530  25.167  1.00  0.00     0.106 C 
ATOM     20  C   UNL A   1      32.815  29.696  25.487  1.00  0.00     0.005 C 
ATOM     21  C   UNL A   1      33.492  28.540  26.252  1.00  0.00     0.005 C 
ATOM     22  C   UNL A   1      31.723  30.365  26.318  1.00  0.00     0.009 C 
ATOM     23  C   UNL A   1      34.689  28.988  27.078  1.00  0.00     0.009 C 
ENDBRANCH  14  17
ENDBRANCH  12  14
ENDBRANCH   6   8
ENDBRANCH   5   6
ENDBRANCH   4   5
ENDBRANCH   3   4
ENDBRANCH   2   3
ENDBRANCH   1   2
BRANCH   1  24
ATOM     24  C   UNL A   1      38.618  19.481  25.407  1.00  0.00     0.261 C 
BRANCH  24  25
ATOM     25  O   UNL A   1      39.157  20.760  25.787  1.00  0.00    -0.460 OA
BRANCH  25  26
ATOM     26  C   UNL A   1      40.276  20.713  26.551  1.00  0.00     0.338 C 
ATOM     27  O   UNL A   1      41.048  19.776  26.657  1.00  0.00    -0.246 OA
BRANCH  26  28
ATOM     28  C   UNL A   1      40.560  22.060  27.090  1.00  0.00     0.060 A 
ATOM     29  C   UNL A   1      39.826  23.130  26.560  1.00  0.00     0.016 A 
ATOM     30  C   UNL A   1      41.529  22.285  28.070  1.00  0.00     0.016 A 
ATOM     31  C   UNL A   1      40.092  24.434  26.974  1.00  0.00     0.010 A 
ATOM     32  C   UNL A   1      41.802  23.597  28.478  1.00  0.00     0.010 A 
ATOM     33  C   UNL A   1      41.107  24.679  27.909  1.00  0.00    -0.014 A 
BRANCH  33  34
ATOM     34  C   UNL A   1      41.541  26.075  28.160  1.00  0.00     0.031 A 
ATOM     35  C   UNL A   1      42.922  26.490  27.734  1.00  0.00     0.074 A 
ATOM     36  C   UNL A   1      40.708  26.968  28.724  1.00  0.00     0.049 A 
ATOM     37  N   UNL A   1      43.519  27.647  27.857  1.00  0.00    -0.248 NA
ATOM     38  C   UNL A   1      43.738  25.456  27.079  1.00  0.00     0.031 C 
ATOM     39  C   UNL A   1      39.334  26.693  29.142  1.00  0.00     0.029 A 
ATOM     40  N   UNL A   1      40.899  28.289  29.044  1.00  0.00    -0.354 N 
ATOM     41  C   UNL A   1      44.781  27.483  27.295  1.00  0.00     0.074 A 
ATOM     42  C   UNL A   1      44.873  26.102  26.868  1.00  0.00     0.031 C 
ATOM     43  C   UNL A   1      38.809  27.811  29.673  1.00  0.00     0.029 A 
ATOM     44  C   UNL A   1      39.818  28.869  29.662  1.00  0.00     0.049 A 
ATOM     45  H   UNL A   1      41.734  28.774  28.850  1.00  0.00     0.167 HD
ATOM     46  C   UNL A   1      45.766  28.401  27.138  1.00  0.00     0.034 A 
ATOM     47  C   UNL A   1      39.669  30.106  30.179  1.00  0.00     0.034 A 
ATOM     48  C   UNL A   1      45.668  29.768  27.589  1.00  0.00     0.049 A 
ATOM     49  C   UNL A   1      40.812  31.086  30.079  1.00  0.00     0.074 A 
ATOM     50  C   UNL A   1      46.599  30.785  27.472  1.00  0.00     0.029 A 
ATOM     51  N   UNL A   1      44.577  30.306  28.259  1.00  0.00    -0.354 N 
ATOM     52  N   UNL A   1      41.996  30.923  29.532  1.00  0.00    -0.248 NA
ATOM     53  C   UNL A   1      40.596  32.418  30.660  1.00  0.00     0.031 C 
ATOM     54  C   UNL A   1      46.101  31.916  28.130  1.00  0.00     0.029 A 
ATOM     55  C   UNL A   1      44.827  31.628  28.595  1.00  0.00     0.049 A 
ATOM     56  H   UNL A   1      43.747  29.819  28.468  1.00  0.00     0.167 HD
ATOM     57  C   UNL A   1      42.654  32.142  29.681  1.00  0.00     0.074 A 
ATOM     58  C   UNL A   1      41.731  33.031  30.358  1.00  0.00     0.031 C 
ATOM     59  C   UNL A   1      43.904  32.498  29.287  1.00  0.00     0.034 A 
BRANCH  46  60
ATOM     60  C   UNL A   1      47.051  27.927  26.504  1.00  0.00     0.023 A 
ATOM     61  C   UNL A   1      47.294  28.073  25.126  1.00  0.00     0.031 A 
ATOM     62  C   UNL A   1      48.028  27.275  27.278  1.00  0.00     0.131 A 
ATOM     63  C   UNL A   1      48.444  27.508  24.553  1.00  0.00     0.055 A 
ATOM     64  C   UNL A   1      49.207  26.783  26.715  1.00  0.00     0.041 A 
ATOM     65  F   UNL A   1      47.841  27.086  28.594  1.00  0.00    -0.206 F 
ATOM     66  C   UNL A   1      49.413  26.884  25.343  1.00  0.00     0.022 A 
BRANCH  63  67
ATOM     67  S   UNL A   1      48.583  27.466  22.745  1.00  0.00     0.124 S 
ATOM     68  O   UNL A   1      49.829  28.195  22.527  1.00  0.00    -0.237 OA
ATOM     69  O   UNL A   1      48.620  26.035  22.465  1.00  0.00    -0.237 OA
ATOM     70  O   UNL A   1      47.377  28.159  22.293  1.00  0.00    -0.744 OA
ENDBRANCH  63  67
ENDBRANCH  46  60
BRANCH  47  71
ATOM     71  C   UNL A   1      38.407  30.483  30.877  1.00  0.00     0.023 A 
ATOM     72  C   UNL A   1      37.423  31.253  30.240  1.00  0.00     0.031 A 
ATOM     73  C   UNL A   1      38.193  30.114  32.218  1.00  0.00     0.131 A 
ATOM     74  C   UNL A   1      36.285  31.661  30.954  1.00  0.00     0.055 A 
ATOM     75  C   UNL A   1      37.039  30.484  32.909  1.00  0.00     0.041 A 
ATOM     76  F   UNL A   1      39.104  29.378  32.873  1.00  0.00    -0.206 F 
ATOM     77  C   UNL A   1      36.081  31.272  32.280  1.00  0.00     0.022 A 
BRANCH  74  78
ATOM     78  S   UNL A   1      35.100  32.772  30.144  1.00  0.00     0.124 S 
ATOM     79  O   UNL A   1      34.475  31.883  29.172  1.00  0.00    -0.237 OA
ATOM     80  O   UNL A   1      34.263  33.189  31.263  1.00  0.00    -0.237 OA
ATOM     81  O   UNL A   1      35.947  33.820  29.579  1.00  0.00    -0.744 OA
ENDBRANCH  74  78
ENDBRANCH  47  71
BRANCH  59  82
ATOM     82  C   UNL A   1      44.324  33.925  29.547  1.00  0.00     0.023 A 
ATOM     83  C   UNL A   1      44.014  34.963  28.652  1.00  0.00     0.031 A 
ATOM     84  C   UNL A   1      45.056  34.244  30.704  1.00  0.00     0.131 A 
ATOM     85  C   UNL A   1      44.477  36.264  28.903  1.00  0.00     0.055 A 
ATOM     86  C   UNL A   1      45.467  35.549  30.976  1.00  0.00     0.041 A 
ATOM     87  F   UNL A   1      45.382  33.291  31.592  1.00  0.00    -0.206 F 
ATOM     88  C   UNL A   1      45.189  36.566  30.067  1.00  0.00     0.022 A 
BRANCH  85  89
ATOM     89  S   UNL A   1      44.212  37.544  27.646  1.00  0.00     0.124 S 
ATOM     90  O   UNL A   1      43.690  38.650  28.443  1.00  0.00    -0.237 OA
ATOM     91  O   UNL A   1      45.553  37.729  27.100  1.00  0.00    -0.237 OA
ATOM     92  O   UNL A   1      43.250  36.934  26.730  1.00  0.00    -0.744 OA
ENDBRANCH  85  89
ENDBRANCH  59  82
ENDBRANCH  33  34
ENDBRANCH  26  28
ENDBRANCH  25  26
ENDBRANCH  24  25
ENDBRANCH   1  24
TORSDOF 19
ENDMDL
MODEL 3
REMARK VINA RESULT:     -11.1      4.734     10.629
REMARK SMILES Cc1sc(C(=O)OCCOCCOC(=O)c2ccc(-c3c4nc(c(-c5cc(S(=O)(=O)[O-])ccc5F)c5ccc([nH]5)c(-c5cc(S(=O)(=O)[O-])ccc5F)c5nc(c(-c6cc(S(=O)(=O)[O-])ccc6F)c6ccc3[nH]6)C=C5)C=C4)cc2)cc1S(=O)(=O)N1C[C@@H](C)[C@H](C)C1
REMARK SMILES IDX 11 1 10 2 9 3 8 4 7 5 5 6 6 7 4 8 1 9 2 10 3 11 80 12 79 13
REMARK SMILES IDX 81 14 82 15 83 16 84 17 85 18 90 19 86 20 88 21 87 22 89 23
REMARK SMILES IDX 12 24 13 25 14 26 15 27 16 28 17 29 78 30 18 31 77 32 19 33
REMARK SMILES IDX 20 34 21 35 71 36 22 37 76 38 70 39 72 40 23 41 75 42 69 43
REMARK SMILES IDX 68 44 24 46 56 47 36 48 55 49 37 50 40 51 54 52 73 53 38 54
REMARK SMILES IDX 39 55 53 57 74 58 41 59 25 60 26 61 34 62 27 63 33 64 35 65
REMARK SMILES IDX 32 66 28 67 29 68 30 69 31 70 57 71 58 72 66 73 59 74 65 75
REMARK SMILES IDX 67 76 64 77 60 78 61 79 62 80 63 81 42 82 43 83 51 84 44 85
REMARK SMILES IDX 50 86 52 87 49 88 45 89 46 90 47 91 48 92
REMARK H PARENT 72 45 40 56
REMARK Flexibility Score: inf
ROOT
ATOM      1  C   UNL A   1      37.710  20.071  24.658  1.00  0.00     0.202 C 
ENDROOT
BRANCH   1   2
ATOM      2  O   UNL A   1      37.562  21.454  24.311  1.00  0.00    -0.374 OA
BRANCH   2   3
ATOM      3  C   UNL A   1      36.329  22.065  24.698  1.00  0.00     0.202 C 
BRANCH   3   4
ATOM      4  C   UNL A   1      35.726  22.992  23.639  1.00  0.00     0.261 C 
BRANCH   4   5
ATOM      5  O   UNL A   1      34.294  23.023  23.760  1.00  0.00    -0.459 OA
BRANCH   5   6
ATOM      6  C   UNL A   1      33.652  23.738  22.793  1.00  0.00     0.348 C 
ATOM      7  O   UNL A   1      33.535  23.389  21.624  1.00  0.00    -0.245 OA
BRANCH   6   8
ATOM      8  C   UNL A   1      33.010  24.891  23.390  1.00  0.00     0.114 A 
ATOM      9  C   UNL A   1      31.098  26.680  26.290  1.00  0.00     0.058 C 
ATOM     10  C   UNL A   1      31.796  26.299  25.034  1.00  0.00     0.022 A 
ATOM     11  S   UNL A   1      32.101  24.628  24.809  1.00  0.00    -0.132 S 
ATOM     12  C   UNL A   1      32.274  27.042  23.968  1.00  0.00     0.097 A 
ATOM     13  C   UNL A   1      33.034  26.229  23.051  1.00  0.00     0.049 A 
BRANCH  12  14
ATOM     14  S   UNL A   1      32.086  28.760  23.701  1.00  0.00     0.244 S 
ATOM     15  O   UNL A   1      32.691  29.344  24.878  1.00  0.00    -0.207 OA
ATOM     16  O   UNL A   1      32.636  28.940  22.375  1.00  0.00    -0.207 OA
BRANCH  14  17
ATOM     17  N   UNL A   1      30.487  29.197  23.645  1.00  0.00    -0.197 NA
ATOM     18  C   UNL A   1      30.019  30.561  23.866  1.00  0.00     0.106 C 
ATOM     19  C   UNL A   1      29.403  28.259  23.384  1.00  0.00     0.106 C 
ATOM     20  C   UNL A   1      28.516  30.514  23.541  1.00  0.00     0.005 C 
ATOM     21  C   UNL A   1      28.281  29.153  22.857  1.00  0.00     0.005 C 
ATOM     22  C   UNL A   1      28.092  31.679  22.650  1.00  0.00     0.009 C 
ATOM     23  C   UNL A   1      26.897  28.578  23.124  1.00  0.00     0.009 C 
ENDBRANCH  14  17
ENDBRANCH  12  14
ENDBRANCH   6   8
ENDBRANCH   5   6
ENDBRANCH   4   5
ENDBRANCH   3   4
ENDBRANCH   2   3
ENDBRANCH   1   2
BRANCH   1  24
ATOM     24  C   UNL A   1      38.982  19.729  25.444  1.00  0.00     0.261 C 
BRANCH  24  25
ATOM     25  O   UNL A   1      39.702  20.927  25.788  1.00  0.00    -0.460 OA
BRANCH  25  26
ATOM     26  C   UNL A   1      40.398  20.870  26.950  1.00  0.00     0.338 C 
ATOM     27  O   UNL A   1      40.894  19.877  27.456  1.00  0.00    -0.246 OA
BRANCH  26  28
ATOM     28  C   UNL A   1      40.665  22.241  27.431  1.00  0.00     0.060 A 
ATOM     29  C   UNL A   1      39.903  23.276  26.873  1.00  0.00     0.016 A 
ATOM     30  C   UNL A   1      41.646  22.523  28.386  1.00  0.00     0.016 A 
ATOM     31  C   UNL A   1      40.151  24.600  27.231  1.00  0.00     0.010 A 
ATOM     32  C   UNL A   1      41.900  23.854  28.738  1.00  0.00     0.010 A 
ATOM     33  C   UNL A   1      41.176  24.900  28.138  1.00  0.00    -0.014 A 
BRANCH  33  34
ATOM     34  C   UNL A   1      41.588  26.313  28.328  1.00  0.00     0.031 A 
ATOM     35  C   UNL A   1      42.954  26.736  27.860  1.00  0.00     0.074 A 
ATOM     36  C   UNL A   1      40.749  27.212  28.871  1.00  0.00     0.049 A 
ATOM     37  N   UNL A   1      43.531  27.907  27.928  1.00  0.00    -0.248 NA
ATOM     38  C   UNL A   1      43.778  25.692  27.231  1.00  0.00     0.031 C 
ATOM     39  C   UNL A   1      39.387  26.929  29.324  1.00  0.00     0.029 A 
ATOM     40  N   UNL A   1      40.921  28.547  29.136  1.00  0.00    -0.354 N 
ATOM     41  C   UNL A   1      44.786  27.745  27.350  1.00  0.00     0.074 A 
ATOM     42  C   UNL A   1      44.897  26.350  26.975  1.00  0.00     0.031 C 
ATOM     43  C   UNL A   1      38.851  28.057  29.821  1.00  0.00     0.029 A 
ATOM     44  C   UNL A   1      39.840  29.132  29.750  1.00  0.00     0.049 A 
ATOM     45  H   UNL A   1      41.743  29.039  28.909  1.00  0.00     0.167 HD
ATOM     46  C   UNL A   1      45.751  28.673  27.140  1.00  0.00     0.034 A 
ATOM     47  C   UNL A   1      39.676  30.384  30.222  1.00  0.00     0.034 A 
ATOM     48  C   UNL A   1      45.635  30.055  27.539  1.00  0.00     0.049 A 
ATOM     49  C   UNL A   1      40.799  31.380  30.063  1.00  0.00     0.074 A 
ATOM     50  C   UNL A   1      46.544  31.083  27.366  1.00  0.00     0.029 A 
ATOM     51  N   UNL A   1      44.546  30.599  28.207  1.00  0.00    -0.354 N 
ATOM     52  N   UNL A   1      41.975  31.218  29.502  1.00  0.00    -0.248 NA
ATOM     53  C   UNL A   1      40.568  32.730  30.596  1.00  0.00     0.031 C 
ATOM     54  C   UNL A   1      46.036  32.229  27.989  1.00  0.00     0.029 A 
ATOM     55  C   UNL A   1      44.776  31.937  28.487  1.00  0.00     0.049 A 
ATOM     56  H   UNL A   1      43.729  30.106  28.450  1.00  0.00     0.167 HD
ATOM     57  C   UNL A   1      42.614  32.453  29.592  1.00  0.00     0.074 A 
ATOM     58  C   UNL A   1      41.686  33.351  30.250  1.00  0.00     0.031 C 
ATOM     59  C   UNL A   1      43.849  32.817  29.162  1.00  0.00     0.034 A 
BRANCH  46  60
ATOM     60  C   UNL A   1      47.034  28.198  26.501  1.00  0.00     0.023 A 
ATOM     61  C   UNL A   1      47.220  28.225  25.107  1.00  0.00     0.031 A 
ATOM     62  C   UNL A   1      48.066  27.664  27.293  1.00  0.00     0.131 A 
ATOM     63  C   UNL A   1      48.374  27.659  24.544  1.00  0.00     0.055 A 
ATOM     64  C   UNL A   1      49.246  27.174  26.731  1.00  0.00     0.041 A 
ATOM     65  F   UNL A   1      47.935  27.592  28.627  1.00  0.00    -0.206 F 
ATOM     66  C   UNL A   1      49.399  27.155  25.348  1.00  0.00     0.022 A 
BRANCH  63  67
ATOM     67  S   UNL A   1      48.450  27.455  22.743  1.00  0.00     0.124 S 
ATOM     68  O   UNL A   1      47.272  28.201  22.311  1.00  0.00    -0.237 OA
ATOM     69  O   UNL A   1      49.741  28.048  22.413  1.00  0.00    -0.237 OA
ATOM     70  O   UNL A   1      48.364  26.007  22.559  1.00  0.00    -0.744 OA
ENDBRANCH  63  67
ENDBRANCH  46  60
BRANCH  47  71
ATOM     71  C   UNL A   1      38.419  30.766  30.928  1.00  0.00     0.023 A 
ATOM     72  C   UNL A   1      37.376  31.421  30.257  1.00  0.00     0.031 A 
ATOM     73  C   UNL A   1      38.269  30.519  32.305  1.00  0.00     0.131 A 
ATOM     74  C   UNL A   1      36.242  31.841  30.970  1.00  0.00     0.055 A 
ATOM     75  C   UNL A   1      37.120  30.898  33.000  1.00  0.00     0.041 A 
ATOM     76  F   UNL A   1      39.238  29.896  32.992  1.00  0.00    -0.206 F 
ATOM     77  C   UNL A   1      36.103  31.573  32.335  1.00  0.00     0.022 A 
BRANCH  74  78
ATOM     78  S   UNL A   1      34.975  32.807  30.103  1.00  0.00     0.124 S 
ATOM     79  O   UNL A   1      35.758  33.920  29.578  1.00  0.00    -0.237 OA
ATOM     80  O   UNL A   1      34.485  31.848  29.119  1.00  0.00    -0.237 OA
ATOM     81  O   UNL A   1      34.027  33.152  31.159  1.00  0.00    -0.744 OA
ENDBRANCH  74  78
ENDBRANCH  47  71
BRANCH  59  82
ATOM     82  C   UNL A   1      44.247  34.260  29.358  1.00  0.00     0.023 A 
ATOM     83  C   UNL A   1      43.889  35.259  28.438  1.00  0.00     0.031 A 
ATOM     84  C   UNL A   1      45.005  34.635  30.482  1.00  0.00     0.131 A 
ATOM     85  C   UNL A   1      44.333  36.576  28.629  1.00  0.00     0.055 A 
ATOM     86  C   UNL A   1      45.397  35.957  30.695  1.00  0.00     0.041 A 
ATOM     87  F   UNL A   1      45.377  33.721  31.392  1.00  0.00    -0.206 F 
ATOM     88  C   UNL A   1      45.072  36.934  29.760  1.00  0.00     0.022 A 
BRANCH  85  89
ATOM     89  S   UNL A   1      44.004  37.806  27.336  1.00  0.00     0.124 S 
ATOM     90  O   UNL A   1      42.999  37.130  26.521  1.00  0.00    -0.237 OA
ATOM     91  O   UNL A   1      43.533  38.953  28.107  1.00  0.00    -0.237 OA
ATOM     92  O   UNL A   1      45.304  37.985  26.693  1.00  0.00    -0.744 OA
ENDBRANCH  85  89
ENDBRANCH  59  82
ENDBRANCH  33  34
ENDBRANCH  26  28
ENDBRANCH  25  26
ENDBRANCH  24  25
ENDBRANCH   1  24
TORSDOF 19
ENDMDL
