MODEL 1
REMARK VINA RESULT:     -10.4      0.000      0.000
REMARK SMILES N#C[C@H]1CN(C(=O)N2CCNC(=O)[C@@H]2CC(=O)OCCOCCOC(=O)c2ccc(-c3c4nc(c(-c5cc(S(=O)(=O)[O-])ccc5F)c5ccc([nH]5)c(-c5cc(S(=O)(=O)[O-])ccc5F)c5nc(c(-c6cc(S(=O)(=O)[O-])ccc6F)c6ccc3[nH]6)C=C5)C=C4)cc2)CCO1
REMARK SMILES IDX 20 1 19 2 18 3 16 4 17 5 15 6 14 7 8 8 9 9 10 10 12 11 11 12
REMARK SMILES IDX 13 13 6 15 7 16 5 17 3 18 4 19 92 20 91 21 90 22 2 23 1 24
REMARK SMILES IDX 21 25 22 26 23 27 24 28 25 29 26 30 27 31 28 32 89 33 29 34
REMARK SMILES IDX 88 35 30 36 31 37 32 38 82 39 33 40 87 41 81 42 83 43 34 44
REMARK SMILES IDX 86 45 80 46 79 47 35 49 67 50 47 51 66 52 48 53 51 54 65 55
REMARK SMILES IDX 84 56 49 57 50 58 64 60 85 61 52 62 36 63 37 64 45 65 38 66
REMARK SMILES IDX 44 67 46 68 43 69 39 70 40 71 41 72 42 73 68 74 69 75 77 76
REMARK SMILES IDX 70 77 76 78 78 79 75 80 71 81 72 82 73 83 74 84 53 85 54 86
REMARK SMILES IDX 62 87 55 88 61 89 63 90 60 91 56 92 57 93 58 94 59 95
REMARK H PARENT 11 14 83 48 51 59
REMARK Flexibility Score: inf
ROOT
ATOM      1  C   UNL A   1      37.369  21.867  25.722  1.00  0.00     0.202 C 
ENDROOT
BRANCH   1   2
ATOM      2  C   UNL A   1      37.347  22.999  24.686  1.00  0.00     0.261 C 
BRANCH   2   3
ATOM      3  O   UNL A   1      36.118  23.755  24.676  1.00  0.00    -0.463 OA
BRANCH   3   4
ATOM      4  C   UNL A   1      35.171  23.256  23.851  1.00  0.00     0.308 C 
ATOM      5  O   UNL A   1      35.222  23.294  22.623  1.00  0.00    -0.252 OA
BRANCH   4   6
ATOM      6  C   UNL A   1      34.011  22.571  24.519  1.00  0.00     0.158 C 
BRANCH   6   7
ATOM      7  C   UNL A   1      32.541  22.996  24.279  1.00  0.00     0.187 C 
ATOM      8  N   UNL A   1      32.189  24.398  24.685  1.00  0.00    -0.310 N 
ATOM      9  C   UNL A   1      32.542  24.749  26.063  1.00  0.00     0.143 C 
ATOM     10  C   UNL A   1      31.768  23.836  27.013  1.00  0.00     0.137 C 
ATOM     11  C   UNL A   1      31.755  22.065  25.233  1.00  0.00     0.243 C 
ATOM     12  N   UNL A   1      31.649  22.460  26.550  1.00  0.00    -0.353 N 
ATOM     13  O   UNL A   1      31.432  20.920  24.920  1.00  0.00    -0.273 OA
ATOM     14  H   UNL A   1      31.480  21.763  27.224  1.00  0.00     0.163 HD
BRANCH   8  15
ATOM     15  C   UNL A   1      31.327  25.278  24.052  1.00  0.00     0.320 C 
ATOM     16  O   UNL A   1      30.174  25.443  24.458  1.00  0.00    -0.248 OA
BRANCH  15  17
ATOM     17  N   UNL A   1      31.765  25.985  22.956  1.00  0.00    -0.319 N 
ATOM     18  C   UNL A   1      31.094  28.361  22.779  1.00  0.00     0.240 C 
ATOM     19  C   UNL A   1      30.886  26.925  22.244  1.00  0.00     0.169 C 
ATOM     20  O   UNL A   1      32.477  28.748  22.633  1.00  0.00    -0.360 OA
ATOM     21  C   UNL A   1      33.330  27.876  23.394  1.00  0.00     0.183 C 
ATOM     22  C   UNL A   1      33.172  26.419  22.942  1.00  0.00     0.150 C 
BRANCH  18  23
ATOM     23  C   UNL A   1      30.210  29.304  22.074  1.00  0.00     0.096 C 
ATOM     24  N   UNL A   1      29.475  30.046  21.562  1.00  0.00    -0.195 NA
ENDBRANCH  18  23
ENDBRANCH  15  17
ENDBRANCH   8  15
ENDBRANCH   6   7
ENDBRANCH   4   6
ENDBRANCH   3   4
ENDBRANCH   2   3
ENDBRANCH   1   2
BRANCH   1  25
ATOM     25  O   UNL A   1      36.951  20.572  25.310  1.00  0.00    -0.374 OA
BRANCH  25  26
ATOM     26  C   UNL A   1      37.932  19.670  24.805  1.00  0.00     0.202 C 
BRANCH  26  27
ATOM     27  C   UNL A   1      39.036  19.176  25.746  1.00  0.00     0.261 C 
BRANCH  27  28
ATOM     28  O   UNL A   1      40.342  19.717  25.462  1.00  0.00    -0.460 OA
BRANCH  28  29
ATOM     29  C   UNL A   1      41.126  19.871  26.562  1.00  0.00     0.338 C 
ATOM     30  O   UNL A   1      41.845  19.026  27.069  1.00  0.00    -0.246 OA
BRANCH  29  31
ATOM     31  C   UNL A   1      41.136  21.270  27.028  1.00  0.00     0.060 A 
ATOM     32  C   UNL A   1      40.734  22.259  26.123  1.00  0.00     0.016 A 
ATOM     33  C   UNL A   1      41.706  21.622  28.252  1.00  0.00     0.016 A 
ATOM     34  C   UNL A   1      40.945  23.605  26.420  1.00  0.00     0.010 A 
ATOM     35  C   UNL A   1      41.919  22.973  28.547  1.00  0.00     0.010 A 
ATOM     36  C   UNL A   1      41.575  23.968  27.617  1.00  0.00    -0.014 A 
BRANCH  36  37
ATOM     37  C   UNL A   1      41.989  25.378  27.836  1.00  0.00     0.031 A 
ATOM     38  C   UNL A   1      43.354  25.824  27.383  1.00  0.00     0.074 A 
ATOM     39  C   UNL A   1      41.137  26.254  28.396  1.00  0.00     0.049 A 
ATOM     40  N   UNL A   1      43.936  26.987  27.528  1.00  0.00    -0.248 NA
ATOM     41  C   UNL A   1      44.170  24.827  26.673  1.00  0.00     0.031 C 
ATOM     42  C   UNL A   1      39.771  25.946  28.822  1.00  0.00     0.029 A 
ATOM     43  N   UNL A   1      41.292  27.581  28.706  1.00  0.00    -0.354 N 
ATOM     44  C   UNL A   1      45.182  26.865  26.922  1.00  0.00     0.074 A 
ATOM     45  C   UNL A   1      45.292  25.499  26.456  1.00  0.00     0.031 C 
ATOM     46  C   UNL A   1      39.214  27.056  29.335  1.00  0.00     0.029 A 
ATOM     47  C   UNL A   1      40.196  28.136  29.326  1.00  0.00     0.049 A 
ATOM     48  H   UNL A   1      42.110  28.089  28.504  1.00  0.00     0.167 HD
ATOM     49  C   UNL A   1      46.139  27.812  26.754  1.00  0.00     0.034 A 
ATOM     50  C   UNL A   1      40.020  29.365  29.851  1.00  0.00     0.034 A 
ATOM     51  C   UNL A   1      46.020  29.166  27.237  1.00  0.00     0.049 A 
ATOM     52  C   UNL A   1      41.155  30.362  29.765  1.00  0.00     0.074 A 
ATOM     53  C   UNL A   1      46.935  30.200  27.138  1.00  0.00     0.029 A 
ATOM     54  N   UNL A   1      44.919  29.675  27.914  1.00  0.00    -0.354 N 
ATOM     55  N   UNL A   1      42.333  30.230  29.198  1.00  0.00    -0.248 NA
ATOM     56  C   UNL A   1      40.931  31.678  30.378  1.00  0.00     0.031 C 
ATOM     57  C   UNL A   1      46.421  31.307  27.819  1.00  0.00     0.029 A 
ATOM     58  C   UNL A   1      45.145  30.998  28.260  1.00  0.00     0.049 A 
ATOM     59  H   UNL A   1      44.099  29.170  28.118  1.00  0.00     0.167 HD
ATOM     60  C   UNL A   1      42.964  31.464  29.345  1.00  0.00     0.074 A 
ATOM     61  C   UNL A   1      42.033  32.326  30.038  1.00  0.00     0.031 C 
ATOM     62  C   UNL A   1      44.200  31.852  28.940  1.00  0.00     0.034 A 
BRANCH  49  63
ATOM     63  C   UNL A   1      47.408  27.409  26.042  1.00  0.00     0.023 A 
ATOM     64  C   UNL A   1      48.513  26.899  26.744  1.00  0.00     0.031 A 
ATOM     65  C   UNL A   1      47.513  27.527  24.645  1.00  0.00     0.131 A 
ATOM     66  C   UNL A   1      49.693  26.578  26.055  1.00  0.00     0.055 A 
ATOM     67  C   UNL A   1      48.661  27.130  23.956  1.00  0.00     0.041 A 
ATOM     68  F   UNL A   1      46.499  28.031  23.923  1.00  0.00    -0.206 F 
ATOM     69  C   UNL A   1      49.764  26.663  24.663  1.00  0.00     0.022 A 
BRANCH  66  70
ATOM     70  S   UNL A   1      51.174  26.174  27.019  1.00  0.00     0.124 S 
ATOM     71  O   UNL A   1      52.072  27.266  26.654  1.00  0.00    -0.237 OA
ATOM     72  O   UNL A   1      50.674  26.188  28.389  1.00  0.00    -0.237 OA
ATOM     73  O   UNL A   1      51.565  24.859  26.512  1.00  0.00    -0.744 OA
ENDBRANCH  66  70
ENDBRANCH  49  63
BRANCH  50  74
ATOM     74  C   UNL A   1      38.749  29.731  30.545  1.00  0.00     0.023 A 
ATOM     75  C   UNL A   1      37.826  30.599  29.942  1.00  0.00     0.031 A 
ATOM     76  C   UNL A   1      38.489  29.307  31.861  1.00  0.00     0.131 A 
ATOM     77  C   UNL A   1      36.737  31.086  30.681  1.00  0.00     0.055 A 
ATOM     78  C   UNL A   1      37.359  29.729  32.563  1.00  0.00     0.041 A 
ATOM     79  F   UNL A   1      39.339  28.481  32.492  1.00  0.00    -0.206 F 
ATOM     80  C   UNL A   1      36.487  30.644  31.981  1.00  0.00     0.022 A 
BRANCH  77  81
ATOM     81  S   UNL A   1      35.750  32.431  29.971  1.00  0.00     0.124 S 
ATOM     82  O   UNL A   1      36.540  33.600  30.337  1.00  0.00    -0.237 OA
ATOM     83  O   UNL A   1      35.737  32.081  28.554  1.00  0.00    -0.237 OA
ATOM     84  O   UNL A   1      34.465  32.305  30.655  1.00  0.00    -0.744 OA
ENDBRANCH  77  81
ENDBRANCH  50  74
BRANCH  62  85
ATOM     85  C   UNL A   1      44.583  33.296  29.167  1.00  0.00     0.023 A 
ATOM     86  C   UNL A   1      44.084  34.337  28.364  1.00  0.00     0.031 A 
ATOM     87  C   UNL A   1      45.471  33.632  30.206  1.00  0.00     0.131 A 
ATOM     88  C   UNL A   1      44.524  35.653  28.573  1.00  0.00     0.055 A 
ATOM     89  C   UNL A   1      45.846  34.952  30.456  1.00  0.00     0.041 A 
ATOM     90  F   UNL A   1      45.983  32.679  31.002  1.00  0.00    -0.206 F 
ATOM     91  C   UNL A   1      45.385  35.970  29.628  1.00  0.00     0.022 A 
BRANCH  88  92
ATOM     92  S   UNL A   1      44.042  36.932  27.381  1.00  0.00     0.124 S 
ATOM     93  O   UNL A   1      43.430  37.935  28.245  1.00  0.00    -0.237 OA
ATOM     94  O   UNL A   1      45.321  37.301  26.784  1.00  0.00    -0.237 OA
ATOM     95  O   UNL A   1      43.118  36.237  26.486  1.00  0.00    -0.744 OA
ENDBRANCH  88  92
ENDBRANCH  62  85
ENDBRANCH  36  37
ENDBRANCH  29  31
ENDBRANCH  28  29
ENDBRANCH  27  28
ENDBRANCH  26  27
ENDBRANCH  25  26
ENDBRANCH   1  25
TORSDOF 21
ENDMDL
MODEL 2
REMARK VINA RESULT:     -10.4      2.612      4.243
REMARK SMILES N#C[C@H]1CN(C(=O)N2CCNC(=O)[C@@H]2CC(=O)OCCOCCOC(=O)c2ccc(-c3c4nc(c(-c5cc(S(=O)(=O)[O-])ccc5F)c5ccc([nH]5)c(-c5cc(S(=O)(=O)[O-])ccc5F)c5nc(c(-c6cc(S(=O)(=O)[O-])ccc6F)c6ccc3[nH]6)C=C5)C=C4)cc2)CCO1
REMARK SMILES IDX 20 1 19 2 18 3 16 4 17 5 15 6 14 7 8 8 9 9 10 10 12 11 11 12
REMARK SMILES IDX 13 13 6 15 7 16 5 17 3 18 4 19 92 20 91 21 90 22 2 23 1 24
REMARK SMILES IDX 21 25 22 26 23 27 24 28 25 29 26 30 27 31 28 32 89 33 29 34
REMARK SMILES IDX 88 35 30 36 31 37 32 38 82 39 33 40 87 41 81 42 83 43 34 44
REMARK SMILES IDX 86 45 80 46 79 47 35 49 67 50 47 51 66 52 48 53 51 54 65 55
REMARK SMILES IDX 84 56 49 57 50 58 64 60 85 61 52 62 36 63 37 64 45 65 38 66
REMARK SMILES IDX 44 67 46 68 43 69 39 70 40 71 41 72 42 73 68 74 69 75 77 76
REMARK SMILES IDX 70 77 76 78 78 79 75 80 71 81 72 82 73 83 74 84 53 85 54 86
REMARK SMILES IDX 62 87 55 88 61 89 63 90 60 91 56 92 57 93 58 94 59 95
REMARK H PARENT 11 14 83 48 51 59
REMARK Flexibility Score: inf
ROOT
ATOM      1  C   UNL A   1      36.636  22.905  23.858  1.00  0.00     0.202 C 
ENDROOT
BRANCH   1   2
ATOM      2  C   UNL A   1      36.728  23.664  25.189  1.00  0.00     0.261 C 
BRANCH   2   3
ATOM      3  O   UNL A   1      35.500  24.315  25.574  1.00  0.00    -0.463 OA
BRANCH   3   4
ATOM      4  C   UNL A   1      34.738  23.594  26.426  1.00  0.00     0.308 C 
ATOM      5  O   UNL A   1      35.178  22.879  27.325  1.00  0.00    -0.252 OA
BRANCH   4   6
ATOM      6  C   UNL A   1      33.250  23.739  26.264  1.00  0.00     0.158 C 
BRANCH   6   7
ATOM      7  C   UNL A   1      32.310  22.523  26.070  1.00  0.00     0.187 C 
ATOM      8  N   UNL A   1      32.623  21.632  24.903  1.00  0.00    -0.310 N 
ATOM      9  C   UNL A   1      32.745  22.321  23.615  1.00  0.00     0.143 C 
ATOM     10  C   UNL A   1      31.406  22.979  23.286  1.00  0.00     0.137 C 
ATOM     11  C   UNL A   1      30.951  23.190  25.746  1.00  0.00     0.243 C 
ATOM     12  N   UNL A   1      30.731  23.563  24.437  1.00  0.00    -0.353 N 
ATOM     13  O   UNL A   1      30.186  23.589  26.622  1.00  0.00    -0.273 OA
ATOM     14  H   UNL A   1      30.070  24.273  24.269  1.00  0.00     0.163 HD
BRANCH   8  15
ATOM     15  C   UNL A   1      32.514  20.253  24.829  1.00  0.00     0.320 C 
ATOM     16  O   UNL A   1      31.716  19.639  25.541  1.00  0.00    -0.248 OA
BRANCH  15  17
ATOM     17  N   UNL A   1      33.304  19.557  23.944  1.00  0.00    -0.319 N 
ATOM     18  C   UNL A   1      33.701  17.157  24.402  1.00  0.00     0.240 C 
ATOM     19  C   UNL A   1      34.303  18.582  24.406  1.00  0.00     0.169 C 
ATOM     20  O   UNL A   1      33.236  16.821  23.077  1.00  0.00    -0.360 OA
ATOM     21  C   UNL A   1      32.202  17.728  22.658  1.00  0.00     0.183 C 
ATOM     22  C   UNL A   1      32.708  19.175  22.652  1.00  0.00     0.150 C 
BRANCH  18  23
ATOM     23  C   UNL A   1      34.695  16.179  24.871  1.00  0.00     0.096 C 
ATOM     24  N   UNL A   1      35.437  15.370  25.256  1.00  0.00    -0.195 NA
ENDBRANCH  18  23
ENDBRANCH  15  17
ENDBRANCH   8  15
ENDBRANCH   6   7
ENDBRANCH   4   6
ENDBRANCH   3   4
ENDBRANCH   2   3
ENDBRANCH   1   2
BRANCH   1  25
ATOM     25  O   UNL A   1      37.186  21.596  23.792  1.00  0.00    -0.374 OA
BRANCH  25  26
ATOM     26  C   UNL A   1      37.303  20.847  24.999  1.00  0.00     0.202 C 
BRANCH  26  27
ATOM     27  C   UNL A   1      38.437  19.825  25.129  1.00  0.00     0.261 C 
BRANCH  27  28
ATOM     28  O   UNL A   1      39.106  19.841  26.406  1.00  0.00    -0.460 OA
BRANCH  28  29
ATOM     29  C   UNL A   1      40.407  20.227  26.343  1.00  0.00     0.338 C 
ATOM     30  O   UNL A   1      41.315  19.637  25.781  1.00  0.00    -0.246 OA
BRANCH  29  31
ATOM     31  C   UNL A   1      40.604  21.568  26.924  1.00  0.00     0.060 A 
ATOM     32  C   UNL A   1      39.921  22.638  26.335  1.00  0.00     0.016 A 
ATOM     33  C   UNL A   1      41.578  21.800  27.895  1.00  0.00     0.016 A 
ATOM     34  C   UNL A   1      40.244  23.949  26.683  1.00  0.00     0.010 A 
ATOM     35  C   UNL A   1      41.903  23.116  28.242  1.00  0.00     0.010 A 
ATOM     36  C   UNL A   1      41.265  24.197  27.609  1.00  0.00    -0.014 A 
BRANCH  36  37
ATOM     37  C   UNL A   1      41.751  25.585  27.819  1.00  0.00     0.031 A 
ATOM     38  C   UNL A   1      43.099  25.984  27.280  1.00  0.00     0.074 A 
ATOM     39  C   UNL A   1      40.976  26.485  28.449  1.00  0.00     0.049 A 
ATOM     40  N   UNL A   1      43.737  27.119  27.401  1.00  0.00    -0.248 NA
ATOM     41  C   UNL A   1      43.824  24.966  26.502  1.00  0.00     0.031 C 
ATOM     42  C   UNL A   1      39.630  26.226  28.963  1.00  0.00     0.029 A 
ATOM     43  N   UNL A   1      41.206  27.800  28.766  1.00  0.00    -0.354 N 
ATOM     44  C   UNL A   1      44.934  26.957  26.709  1.00  0.00     0.074 A 
ATOM     45  C   UNL A   1      44.954  25.596  26.218  1.00  0.00     0.031 C 
ATOM     46  C   UNL A   1      39.156  27.348  29.528  1.00  0.00     0.029 A 
ATOM     47  C   UNL A   1      40.179  28.387  29.467  1.00  0.00     0.049 A 
ATOM     48  H   UNL A   1      42.029  28.278  28.516  1.00  0.00     0.167 HD
ATOM     49  C   UNL A   1      45.915  27.867  26.490  1.00  0.00     0.034 A 
ATOM     50  C   UNL A   1      40.091  29.613  30.021  1.00  0.00     0.034 A 
ATOM     51  C   UNL A   1      45.885  29.217  26.998  1.00  0.00     0.049 A 
ATOM     52  C   UNL A   1      41.257  30.565  29.871  1.00  0.00     0.074 A 
ATOM     53  C   UNL A   1      46.834  30.215  26.852  1.00  0.00     0.029 A 
ATOM     54  N   UNL A   1      44.855  29.758  27.757  1.00  0.00    -0.354 N 
ATOM     55  N   UNL A   1      42.387  30.395  29.223  1.00  0.00    -0.248 NA
ATOM     56  C   UNL A   1      41.129  31.878  30.517  1.00  0.00     0.031 C 
ATOM     57  C   UNL A   1      46.413  31.330  27.582  1.00  0.00     0.029 A 
ATOM     58  C   UNL A   1      45.158  31.065  28.105  1.00  0.00     0.049 A 
ATOM     59  H   UNL A   1      44.031  29.283  28.009  1.00  0.00     0.167 HD
ATOM     60  C   UNL A   1      43.078  31.601  29.343  1.00  0.00     0.074 A 
ATOM     61  C   UNL A   1      42.232  32.488  30.111  1.00  0.00     0.031 C 
ATOM     62  C   UNL A   1      44.298  31.945  28.860  1.00  0.00     0.034 A 
BRANCH  49  63
ATOM     63  C   UNL A   1      47.115  27.426  25.687  1.00  0.00     0.023 A 
ATOM     64  C   UNL A   1      47.284  27.812  24.347  1.00  0.00     0.031 A 
ATOM     65  C   UNL A   1      48.106  26.616  26.268  1.00  0.00     0.131 A 
ATOM     66  C   UNL A   1      48.387  27.345  23.616  1.00  0.00     0.055 A 
ATOM     67  C   UNL A   1      49.244  26.220  25.561  1.00  0.00     0.041 A 
ATOM     68  F   UNL A   1      47.988  26.194  27.538  1.00  0.00    -0.206 F 
ATOM     69  C   UNL A   1      49.383  26.576  24.222  1.00  0.00     0.022 A 
BRANCH  66  70
ATOM     70  S   UNL A   1      48.434  27.649  21.830  1.00  0.00     0.124 S 
ATOM     71  O   UNL A   1      49.522  28.617  21.724  1.00  0.00    -0.237 OA
ATOM     72  O   UNL A   1      48.703  26.322  21.289  1.00  0.00    -0.237 OA
ATOM     73  O   UNL A   1      47.104  28.183  21.538  1.00  0.00    -0.744 OA
ENDBRANCH  66  70
ENDBRANCH  49  63
BRANCH  50  74
ATOM     74  C   UNL A   1      38.886  30.018  30.805  1.00  0.00     0.023 A 
ATOM     75  C   UNL A   1      37.958  30.929  30.277  1.00  0.00     0.031 A 
ATOM     76  C   UNL A   1      38.700  29.588  32.132  1.00  0.00     0.131 A 
ATOM     77  C   UNL A   1      36.942  31.448  31.095  1.00  0.00     0.055 A 
ATOM     78  C   UNL A   1      37.639  30.044  32.915  1.00  0.00     0.041 A 
ATOM     79  F   UNL A   1      39.559  28.722  32.694  1.00  0.00    -0.206 F 
ATOM     80  C   UNL A   1      36.766  30.999  32.405  1.00  0.00     0.022 A 
BRANCH  77  81
ATOM     81  S   UNL A   1      35.961  32.839  30.470  1.00  0.00     0.124 S 
ATOM     82  O   UNL A   1      34.649  32.224  30.310  1.00  0.00    -0.237 OA
ATOM     83  O   UNL A   1      36.089  33.809  31.552  1.00  0.00    -0.237 OA
ATOM     84  O   UNL A   1      36.639  33.199  29.227  1.00  0.00    -0.744 OA
ENDBRANCH  77  81
ENDBRANCH  50  74
BRANCH  62  85
ATOM     85  C   UNL A   1      44.755  33.369  29.080  1.00  0.00     0.023 A 
ATOM     86  C   UNL A   1      45.577  33.731  30.162  1.00  0.00     0.031 A 
ATOM     87  C   UNL A   1      44.354  34.381  28.189  1.00  0.00     0.131 A 
ATOM     88  C   UNL A   1      45.917  35.078  30.360  1.00  0.00     0.055 A 
ATOM     89  C   UNL A   1      44.757  35.705  28.348  1.00  0.00     0.041 A 
ATOM     90  F   UNL A   1      43.565  34.094  27.140  1.00  0.00    -0.206 F 
ATOM     91  C   UNL A   1      45.531  36.064  29.448  1.00  0.00     0.022 A 
BRANCH  88  92
ATOM     92  S   UNL A   1      46.783  35.543  31.884  1.00  0.00     0.124 S 
ATOM     93  O   UNL A   1      45.724  36.199  32.645  1.00  0.00    -0.237 OA
ATOM     94  O   UNL A   1      47.228  34.252  32.397  1.00  0.00    -0.237 OA
ATOM     95  O   UNL A   1      47.850  36.426  31.417  1.00  0.00    -0.744 OA
ENDBRANCH  88  92
ENDBRANCH  62  85
ENDBRANCH  36  37
ENDBRANCH  29  31
ENDBRANCH  28  29
ENDBRANCH  27  28
ENDBRANCH  26  27
ENDBRANCH  25  26
ENDBRANCH   1  25
TORSDOF 21
ENDMDL
MODEL 3
REMARK VINA RESULT:     -10.3      1.577      1.867
REMARK SMILES N#C[C@H]1CN(C(=O)N2CCNC(=O)[C@@H]2CC(=O)OCCOCCOC(=O)c2ccc(-c3c4nc(c(-c5cc(S(=O)(=O)[O-])ccc5F)c5ccc([nH]5)c(-c5cc(S(=O)(=O)[O-])ccc5F)c5nc(c(-c6cc(S(=O)(=O)[O-])ccc6F)c6ccc3[nH]6)C=C5)C=C4)cc2)CCO1
REMARK SMILES IDX 20 1 19 2 18 3 16 4 17 5 15 6 14 7 8 8 9 9 10 10 12 11 11 12
REMARK SMILES IDX 13 13 6 15 7 16 5 17 3 18 4 19 92 20 91 21 90 22 2 23 1 24
REMARK SMILES IDX 21 25 22 26 23 27 24 28 25 29 26 30 27 31 28 32 89 33 29 34
REMARK SMILES IDX 88 35 30 36 31 37 32 38 82 39 33 40 87 41 81 42 83 43 34 44
REMARK SMILES IDX 86 45 80 46 79 47 35 49 67 50 47 51 66 52 48 53 51 54 65 55
REMARK SMILES IDX 84 56 49 57 50 58 64 60 85 61 52 62 36 63 37 64 45 65 38 66
REMARK SMILES IDX 44 67 46 68 43 69 39 70 40 71 41 72 42 73 68 74 69 75 77 76
REMARK SMILES IDX 70 77 76 78 78 79 75 80 71 81 72 82 73 83 74 84 53 85 54 86
REMARK SMILES IDX 62 87 55 88 61 89 63 90 60 91 56 92 57 93 58 94 59 95
REMARK H PARENT 11 14 83 48 51 59
REMARK Flexibility Score: inf
ROOT
ATOM      1  C   UNL A   1      37.684  21.250  24.868  1.00  0.00     0.202 C 
ENDROOT
BRANCH   1   2
ATOM      2  C   UNL A   1      36.694  22.028  23.992  1.00  0.00     0.261 C 
BRANCH   2   3
ATOM      3  O   UNL A   1      36.637  23.438  24.289  1.00  0.00    -0.463 OA
BRANCH   3   4
ATOM      4  C   UNL A   1      36.369  23.719  25.584  1.00  0.00     0.308 C 
ATOM      5  O   UNL A   1      37.220  23.964  26.437  1.00  0.00    -0.252 OA
BRANCH   4   6
ATOM      6  C   UNL A   1      34.914  23.773  25.958  1.00  0.00     0.158 C 
BRANCH   6   7
ATOM      7  C   UNL A   1      33.797  23.206  25.046  1.00  0.00     0.187 C 
ATOM      8  N   UNL A   1      32.604  24.095  24.840  1.00  0.00    -0.310 N 
ATOM      9  C   UNL A   1      31.978  24.585  26.071  1.00  0.00     0.143 C 
ATOM     10  C   UNL A   1      31.468  23.384  26.869  1.00  0.00     0.137 C 
ATOM     11  C   UNL A   1      33.287  21.985  25.849  1.00  0.00     0.243 C 
ATOM     12  N   UNL A   1      32.352  22.228  26.834  1.00  0.00    -0.353 N 
ATOM     13  O   UNL A   1      33.833  20.885  25.795  1.00  0.00    -0.273 OA
ATOM     14  H   UNL A   1      32.277  21.571  27.564  1.00  0.00     0.163 HD
BRANCH   8  15
ATOM     15  C   UNL A   1      31.855  24.262  23.687  1.00  0.00     0.320 C 
ATOM     16  O   UNL A   1      30.831  23.601  23.492  1.00  0.00    -0.248 OA
BRANCH  15  17
ATOM     17  N   UNL A   1      32.254  25.182  22.747  1.00  0.00    -0.319 N 
ATOM     18  C   UNL A   1      31.324  27.470  22.910  1.00  0.00     0.240 C 
ATOM     19  C   UNL A   1      31.304  26.128  22.142  1.00  0.00     0.169 C 
ATOM     20  O   UNL A   1      32.658  28.020  22.911  1.00  0.00    -0.360 OA
ATOM     21  C   UNL A   1      33.572  27.130  23.573  1.00  0.00     0.183 C 
ATOM     22  C   UNL A   1      33.602  25.759  22.886  1.00  0.00     0.150 C 
BRANCH  18  23
ATOM     23  C   UNL A   1      30.369  28.417  22.313  1.00  0.00     0.096 C 
ATOM     24  N   UNL A   1      29.598  29.182  21.894  1.00  0.00    -0.195 NA
ENDBRANCH  18  23
ENDBRANCH  15  17
ENDBRANCH   8  15
ENDBRANCH   6   7
ENDBRANCH   4   6
ENDBRANCH   3   4
ENDBRANCH   2   3
ENDBRANCH   1   2
BRANCH   1  25
ATOM     25  O   UNL A   1      37.852  19.859  24.620  1.00  0.00    -0.374 OA
BRANCH  25  26
ATOM     26  C   UNL A   1      38.669  19.105  25.511  1.00  0.00     0.202 C 
BRANCH  26  27
ATOM     27  C   UNL A   1      40.005  19.698  25.970  1.00  0.00     0.261 C 
BRANCH  27  28
ATOM     28  O   UNL A   1      41.150  18.867  25.689  1.00  0.00    -0.460 OA
BRANCH  28  29
ATOM     29  C   UNL A   1      42.331  19.397  26.103  1.00  0.00     0.338 C 
ATOM     30  O   UNL A   1      43.423  18.855  26.070  1.00  0.00    -0.246 OA
BRANCH  29  31
ATOM     31  C   UNL A   1      42.185  20.814  26.483  1.00  0.00     0.060 A 
ATOM     32  C   UNL A   1      42.134  21.762  25.455  1.00  0.00     0.016 A 
ATOM     33  C   UNL A   1      42.289  21.221  27.814  1.00  0.00     0.016 A 
ATOM     34  C   UNL A   1      42.235  23.120  25.751  1.00  0.00     0.010 A 
ATOM     35  C   UNL A   1      42.393  22.585  28.110  1.00  0.00     0.010 A 
ATOM     36  C   UNL A   1      42.405  23.538  27.077  1.00  0.00    -0.014 A 
BRANCH  36  37
ATOM     37  C   UNL A   1      42.724  24.958  27.369  1.00  0.00     0.031 A 
ATOM     38  C   UNL A   1      44.086  25.496  27.018  1.00  0.00     0.074 A 
ATOM     39  C   UNL A   1      41.791  25.766  27.905  1.00  0.00     0.049 A 
ATOM     40  N   UNL A   1      44.591  26.682  27.238  1.00  0.00    -0.248 NA
ATOM     41  C   UNL A   1      44.999  24.572  26.327  1.00  0.00     0.031 C 
ATOM     42  C   UNL A   1      40.422  25.368  28.234  1.00  0.00     0.029 A 
ATOM     43  N   UNL A   1      41.851  27.087  28.269  1.00  0.00    -0.354 N 
ATOM     44  C   UNL A   1      45.877  26.652  26.708  1.00  0.00     0.074 A 
ATOM     45  C   UNL A   1      46.091  25.312  26.203  1.00  0.00     0.031 C 
ATOM     46  C   UNL A   1      39.772  26.425  28.748  1.00  0.00     0.029 A 
ATOM     47  C   UNL A   1      40.691  27.556  28.838  1.00  0.00     0.049 A 
ATOM     48  H   UNL A   1      42.650  27.646  28.136  1.00  0.00     0.167 HD
ATOM     49  C   UNL A   1      46.786  27.655  26.632  1.00  0.00     0.034 A 
ATOM     50  C   UNL A   1      40.414  28.754  29.393  1.00  0.00     0.034 A 
ATOM     51  C   UNL A   1      46.562  28.982  27.152  1.00  0.00     0.049 A 
ATOM     52  C   UNL A   1      41.492  29.814  29.411  1.00  0.00     0.074 A 
ATOM     53  C   UNL A   1      47.420  30.067  27.146  1.00  0.00     0.029 A 
ATOM     54  N   UNL A   1      45.395  29.404  27.777  1.00  0.00    -0.354 N 
ATOM     55  N   UNL A   1      42.708  29.768  28.915  1.00  0.00    -0.248 NA
ATOM     56  C   UNL A   1      41.157  31.091  30.054  1.00  0.00     0.031 C 
ATOM     57  C   UNL A   1      46.804  31.118  27.830  1.00  0.00     0.029 A 
ATOM     58  C   UNL A   1      45.523  30.723  28.181  1.00  0.00     0.049 A 
ATOM     59  H   UNL A   1      44.594  28.847  27.912  1.00  0.00     0.167 HD
ATOM     60  C   UNL A   1      43.258  31.029  29.142  1.00  0.00     0.074 A 
ATOM     61  C   UNL A   1      42.239  31.812  29.805  1.00  0.00     0.031 C 
ATOM     62  C   UNL A   1      44.492  31.498  28.829  1.00  0.00     0.034 A 
BRANCH  49  63
ATOM     63  C   UNL A   1      48.117  27.349  25.987  1.00  0.00     0.023 A 
ATOM     64  C   UNL A   1      48.334  27.563  24.616  1.00  0.00     0.031 A 
ATOM     65  C   UNL A   1      49.184  26.846  26.752  1.00  0.00     0.131 A 
ATOM     66  C   UNL A   1      49.568  27.224  24.040  1.00  0.00     0.055 A 
ATOM     67  C   UNL A   1      50.436  26.587  26.190  1.00  0.00     0.041 A 
ATOM     68  F   UNL A   1      49.029  26.598  28.063  1.00  0.00    -0.206 F 
ATOM     69  C   UNL A   1      50.629  26.764  24.824  1.00  0.00     0.022 A 
BRANCH  66  70
ATOM     70  S   UNL A   1      49.722  27.269  22.235  1.00  0.00     0.124 S 
ATOM     71  O   UNL A   1      51.086  26.783  22.043  1.00  0.00    -0.237 OA
ATOM     72  O   UNL A   1      48.657  26.371  21.803  1.00  0.00    -0.237 OA
ATOM     73  O   UNL A   1      49.519  28.679  21.908  1.00  0.00    -0.744 OA
ENDBRANCH  66  70
ENDBRANCH  49  63
BRANCH  50  74
ATOM     74  C   UNL A   1      39.084  29.023  30.018  1.00  0.00     0.023 A 
ATOM     75  C   UNL A   1      38.106  29.764  29.336  1.00  0.00     0.031 A 
ATOM     76  C   UNL A   1      38.810  28.640  31.344  1.00  0.00     0.131 A 
ATOM     77  C   UNL A   1      36.944  30.174  30.007  1.00  0.00     0.055 A 
ATOM     78  C   UNL A   1      37.616  28.980  31.980  1.00  0.00     0.041 A 
ATOM     79  F   UNL A   1      39.710  27.935  32.049  1.00  0.00    -0.206 F 
ATOM     80  C   UNL A   1      36.683  29.773  31.318  1.00  0.00     0.022 A 
BRANCH  77  81
ATOM     81  S   UNL A   1      35.860  31.377  29.190  1.00  0.00     0.124 S 
ATOM     82  O   UNL A   1      36.824  32.357  28.704  1.00  0.00    -0.237 OA
ATOM     83  O   UNL A   1      35.210  30.556  28.174  1.00  0.00    -0.237 OA
ATOM     84  O   UNL A   1      34.990  31.837  30.270  1.00  0.00    -0.744 OA
ENDBRANCH  77  81
ENDBRANCH  50  74
BRANCH  62  85
ATOM     85  C   UNL A   1      44.778  32.952  29.128  1.00  0.00     0.023 A 
ATOM     86  C   UNL A   1      44.455  33.979  28.225  1.00  0.00     0.031 A 
ATOM     87  C   UNL A   1      45.392  33.311  30.343  1.00  0.00     0.131 A 
ATOM     88  C   UNL A   1      44.803  35.305  28.520  1.00  0.00     0.055 A 
ATOM     89  C   UNL A   1      45.667  34.640  30.664  1.00  0.00     0.041 A 
ATOM     90  F   UNL A   1      45.728  32.372  31.242  1.00  0.00    -0.206 F 
ATOM     91  C   UNL A   1      45.387  35.645  29.744  1.00  0.00     0.022 A 
BRANCH  88  92
ATOM     92  S   UNL A   1      44.581  36.571  27.240  1.00  0.00     0.124 S 
ATOM     93  O   UNL A   1      45.837  36.480  26.504  1.00  0.00    -0.237 OA
ATOM     94  O   UNL A   1      43.394  36.098  26.535  1.00  0.00    -0.237 OA
ATOM     95  O   UNL A   1      44.397  37.803  28.004  1.00  0.00    -0.744 OA
ENDBRANCH  88  92
ENDBRANCH  62  85
ENDBRANCH  36  37
ENDBRANCH  29  31
ENDBRANCH  28  29
ENDBRANCH  27  28
ENDBRANCH  26  27
ENDBRANCH  25  26
ENDBRANCH   1  25
TORSDOF 21
ENDMDL
