MODEL 1
REMARK VINA RESULT:     -11.2      0.000      0.000
REMARK SMILES C[C@@H](C(=O)OCCOCCOC(=O)c1ccc(-c2c3nc(c(-c4cc(S(=O)(=O)[O-])ccc4F)c4ccc([nH]4)c(-c4cc(S(=O)(=O)[O-])ccc4F)c4nc(c(-c5cc(S(=O)(=O)[O-])ccc5F)c5ccc2[nH]5)C=C4)C=C3)cc1)c1ccc(-c2ccn(C(F)F)c(=O)c2)cc1
REMARK SMILES IDX 8 1 7 2 6 3 5 4 3 5 4 6 2 7 1 8 77 9 78 10 92 11 79 12 91 13
REMARK SMILES IDX 80 14 81 15 82 16 90 17 83 18 88 19 84 20 89 21 85 22 86 23
REMARK SMILES IDX 87 24 9 25 10 26 11 27 12 28 13 29 14 30 15 31 76 32 16 33
REMARK SMILES IDX 75 34 17 35 18 36 19 37 69 38 20 39 74 40 68 41 70 42 21 43
REMARK SMILES IDX 73 44 67 45 66 46 22 48 54 49 34 50 53 51 35 52 38 53 52 54
REMARK SMILES IDX 71 55 36 56 37 57 51 59 72 60 39 61 23 62 24 63 32 64 25 65
REMARK SMILES IDX 31 66 33 67 30 68 26 69 27 70 28 71 29 72 55 73 56 74 64 75
REMARK SMILES IDX 57 76 63 77 65 78 62 79 58 80 59 81 60 82 61 83 40 84 41 85
REMARK SMILES IDX 49 86 42 87 48 88 50 89 47 90 43 91 44 92 45 93 46 94
REMARK H PARENT 70 47 38 58
REMARK Flexibility Score: inf
ROOT
ATOM      1  O   UNL A   1      31.812  30.044  25.089  1.00  0.00    -0.374 OA
ENDROOT
BRANCH   1   2
ATOM      2  C   UNL A   1      30.692  29.794  24.240  1.00  0.00     0.202 C 
BRANCH   2   3
ATOM      3  C   UNL A   1      30.857  28.681  23.202  1.00  0.00     0.261 C 
BRANCH   3   4
ATOM      4  O   UNL A   1      31.118  27.417  23.831  1.00  0.00    -0.463 OA
BRANCH   4   5
ATOM      5  C   UNL A   1      32.423  27.144  24.102  1.00  0.00     0.313 C 
ATOM      6  O   UNL A   1      33.355  27.451  23.364  1.00  0.00    -0.252 OA
BRANCH   5   7
ATOM      7  C   UNL A   1      32.619  26.444  25.457  1.00  0.00     0.126 C 
ATOM      8  C   UNL A   1      33.536  27.248  26.393  1.00  0.00     0.025 C 
BRANCH   7   9
ATOM      9  C   UNL A   1      32.977  24.954  25.322  1.00  0.00    -0.034 A 
ATOM     10  C   UNL A   1      32.396  24.181  24.300  1.00  0.00     0.005 A 
ATOM     11  C   UNL A   1      33.811  24.283  26.233  1.00  0.00     0.005 A 
ATOM     12  C   UNL A   1      32.654  22.810  24.174  1.00  0.00     0.009 A 
ATOM     13  C   UNL A   1      34.061  22.907  26.118  1.00  0.00     0.009 A 
ATOM     14  C   UNL A   1      33.487  22.160  25.085  1.00  0.00    -0.018 A 
BRANCH  14  15
ATOM     15  C   UNL A   1      33.722  20.707  24.987  1.00  0.00    -0.011 A 
ATOM     16  C   UNL A   1      35.042  20.146  24.776  1.00  0.00     0.027 A 
ATOM     17  C   UNL A   1      32.671  19.876  25.104  1.00  0.00     0.080 A 
ATOM     18  C   UNL A   1      35.214  18.822  24.686  1.00  0.00     0.095 A 
ATOM     19  C   UNL A   1      32.846  18.398  25.008  1.00  0.00     0.255 A 
ATOM     20  N   UNL A   1      34.142  17.955  24.795  1.00  0.00    -0.258 N 
ATOM     21  O   UNL A   1      31.859  17.679  25.119  1.00  0.00    -0.269 OA
BRANCH  20  22
ATOM     22  C   UNL A   1      34.337  16.534  24.676  1.00  0.00     0.451 C 
ATOM     23  F   UNL A   1      34.363  16.144  23.378  1.00  0.00    -0.185 F 
ATOM     24  F   UNL A   1      35.502  16.149  25.254  1.00  0.00    -0.185 F 
ENDBRANCH  20  22
ENDBRANCH  14  15
ENDBRANCH   7   9
ENDBRANCH   5   7
ENDBRANCH   4   5
ENDBRANCH   3   4
ENDBRANCH   2   3
ENDBRANCH   1   2
BRANCH   1  25
ATOM     25  C   UNL A   1      31.550  30.406  26.446  1.00  0.00     0.202 C 
BRANCH  25  26
ATOM     26  C   UNL A   1      31.577  31.901  26.794  1.00  0.00     0.261 C 
BRANCH  26  27
ATOM     27  O   UNL A   1      32.852  32.519  26.535  1.00  0.00    -0.460 OA
BRANCH  27  28
ATOM     28  C   UNL A   1      33.372  33.200  27.587  1.00  0.00     0.338 C 
ATOM     29  O   UNL A   1      32.824  34.092  28.226  1.00  0.00    -0.246 OA
BRANCH  28  30
ATOM     30  C   UNL A   1      34.652  32.605  28.014  1.00  0.00     0.060 A 
ATOM     31  C   UNL A   1      34.632  31.277  28.462  1.00  0.00     0.016 A 
ATOM     32  C   UNL A   1      35.829  33.354  28.075  1.00  0.00     0.016 A 
ATOM     33  C   UNL A   1      35.778  30.706  29.013  1.00  0.00     0.010 A 
ATOM     34  C   UNL A   1      36.977  32.782  28.638  1.00  0.00     0.010 A 
ATOM     35  C   UNL A   1      36.948  31.467  29.142  1.00  0.00    -0.014 A 
BRANCH  35  36
ATOM     36  C   UNL A   1      38.081  30.931  29.941  1.00  0.00     0.031 A 
ATOM     37  C   UNL A   1      38.988  29.903  29.319  1.00  0.00     0.074 A 
ATOM     38  C   UNL A   1      38.326  31.385  31.183  1.00  0.00     0.049 A 
ATOM     39  N   UNL A   1      40.017  29.280  29.834  1.00  0.00    -0.248 NA
ATOM     40  C   UNL A   1      38.691  29.529  27.927  1.00  0.00     0.031 C 
ATOM     41  C   UNL A   1      37.549  32.414  31.873  1.00  0.00     0.029 A 
ATOM     42  N   UNL A   1      39.298  31.035  32.087  1.00  0.00    -0.354 N 
ATOM     43  C   UNL A   1      40.494  28.442  28.832  1.00  0.00     0.074 A 
ATOM     44  C   UNL A   1      39.613  28.607  27.694  1.00  0.00     0.031 C 
ATOM     45  C   UNL A   1      38.068  32.602  33.099  1.00  0.00     0.029 A 
ATOM     46  C   UNL A   1      39.190  31.686  33.294  1.00  0.00     0.049 A 
ATOM     47  H   UNL A   1      40.007  30.380  31.890  1.00  0.00     0.167 HD
ATOM     48  C   UNL A   1      41.572  27.619  28.854  1.00  0.00     0.034 A 
ATOM     49  C   UNL A   1      39.897  31.539  34.432  1.00  0.00     0.034 A 
ATOM     50  C   UNL A   1      42.432  27.451  30.000  1.00  0.00     0.049 A 
ATOM     51  C   UNL A   1      41.038  30.549  34.466  1.00  0.00     0.074 A 
ATOM     52  C   UNL A   1      43.550  26.645  30.131  1.00  0.00     0.029 A 
ATOM     53  N   UNL A   1      42.263  28.092  31.222  1.00  0.00    -0.354 N 
ATOM     54  N   UNL A   1      41.479  29.762  33.512  1.00  0.00    -0.248 NA
ATOM     55  C   UNL A   1      41.781  30.436  35.728  1.00  0.00     0.031 C 
ATOM     56  C   UNL A   1      44.014  26.745  31.448  1.00  0.00     0.029 A 
ATOM     57  C   UNL A   1      43.234  27.674  32.119  1.00  0.00     0.049 A 
ATOM     58  H   UNL A   1      41.555  28.746  31.422  1.00  0.00     0.167 HD
ATOM     59  C   UNL A   1      42.569  29.083  34.051  1.00  0.00     0.074 A 
ATOM     60  C   UNL A   1      42.726  29.562  35.408  1.00  0.00     0.031 C 
ATOM     61  C   UNL A   1      43.372  28.151  33.475  1.00  0.00     0.034 A 
BRANCH  48  62
ATOM     62  C   UNL A   1      41.842  26.801  27.613  1.00  0.00     0.023 A 
ATOM     63  C   UNL A   1      41.491  25.441  27.531  1.00  0.00     0.031 A 
ATOM     64  C   UNL A   1      42.491  27.380  26.509  1.00  0.00     0.131 A 
ATOM     65  C   UNL A   1      41.853  24.692  26.401  1.00  0.00     0.055 A 
ATOM     66  C   UNL A   1      42.779  26.648  25.355  1.00  0.00     0.041 A 
ATOM     67  F   UNL A   1      42.872  28.667  26.537  1.00  0.00    -0.206 F 
ATOM     68  C   UNL A   1      42.473  25.291  25.303  1.00  0.00     0.022 A 
BRANCH  65  69
ATOM     69  S   UNL A   1      41.631  22.892  26.447  1.00  0.00     0.124 S 
ATOM     70  O   UNL A   1      42.256  22.550  27.722  1.00  0.00    -0.237 OA
ATOM     71  O   UNL A   1      40.181  22.751  26.388  1.00  0.00    -0.237 OA
ATOM     72  O   UNL A   1      42.353  22.427  25.265  1.00  0.00    -0.744 OA
ENDBRANCH  65  69
ENDBRANCH  48  62
BRANCH  49  73
ATOM     73  C   UNL A   1      39.525  32.306  35.656  1.00  0.00     0.023 A 
ATOM     74  C   UNL A   1      38.675  31.760  36.632  1.00  0.00     0.031 A 
ATOM     75  C   UNL A   1      39.975  33.627  35.839  1.00  0.00     0.131 A 
ATOM     76  C   UNL A   1      38.266  32.547  37.721  1.00  0.00     0.055 A 
ATOM     77  C   UNL A   1      39.607  34.386  36.949  1.00  0.00     0.041 A 
ATOM     78  F   UNL A   1      40.787  34.197  34.934  1.00  0.00    -0.206 F 
ATOM     79  C   UNL A   1      38.736  33.850  37.893  1.00  0.00     0.022 A 
BRANCH  76  80
ATOM     80  S   UNL A   1      37.037  31.868  38.870  1.00  0.00     0.124 S 
ATOM     81  O   UNL A   1      36.986  30.470  38.461  1.00  0.00    -0.237 OA
ATOM     82  O   UNL A   1      37.654  32.137  40.165  1.00  0.00    -0.237 OA
ATOM     83  O   UNL A   1      35.835  32.648  38.582  1.00  0.00    -0.744 OA
ENDBRANCH  76  80
ENDBRANCH  49  73
BRANCH  61  84
ATOM     84  C   UNL A   1      44.520  27.626  34.304  1.00  0.00     0.023 A 
ATOM     85  C   UNL A   1      44.412  26.446  35.059  1.00  0.00     0.031 A 
ATOM     86  C   UNL A   1      45.741  28.326  34.342  1.00  0.00     0.131 A 
ATOM     87  C   UNL A   1      45.485  26.029  35.863  1.00  0.00     0.055 A 
ATOM     88  C   UNL A   1      46.824  27.875  35.097  1.00  0.00     0.041 A 
ATOM     89  F   UNL A   1      45.900  29.461  33.642  1.00  0.00    -0.206 F 
ATOM     90  C   UNL A   1      46.695  26.727  35.873  1.00  0.00     0.022 A 
BRANCH  87  91
ATOM     91  S   UNL A   1      45.250  24.606  36.964  1.00  0.00     0.124 S 
ATOM     92  O   UNL A   1      44.464  23.703  36.129  1.00  0.00    -0.237 OA
ATOM     93  O   UNL A   1      46.622  24.190  37.235  1.00  0.00    -0.237 OA
ATOM     94  O   UNL A   1      44.537  25.172  38.107  1.00  0.00    -0.744 OA
ENDBRANCH  87  91
ENDBRANCH  61  84
ENDBRANCH  35  36
ENDBRANCH  28  30
ENDBRANCH  27  28
ENDBRANCH  26  27
ENDBRANCH  25  26
ENDBRANCH   1  25
TORSDOF 20
ENDMDL
MODEL 2
REMARK VINA RESULT:     -11.2      5.374      8.717
REMARK SMILES C[C@@H](C(=O)OCCOCCOC(=O)c1ccc(-c2c3nc(c(-c4cc(S(=O)(=O)[O-])ccc4F)c4ccc([nH]4)c(-c4cc(S(=O)(=O)[O-])ccc4F)c4nc(c(-c5cc(S(=O)(=O)[O-])ccc5F)c5ccc2[nH]5)C=C4)C=C3)cc1)c1ccc(-c2ccn(C(F)F)c(=O)c2)cc1
REMARK SMILES IDX 8 1 7 2 6 3 5 4 3 5 4 6 2 7 1 8 77 9 78 10 92 11 79 12 91 13
REMARK SMILES IDX 80 14 81 15 82 16 90 17 83 18 88 19 84 20 89 21 85 22 86 23
REMARK SMILES IDX 87 24 9 25 10 26 11 27 12 28 13 29 14 30 15 31 76 32 16 33
REMARK SMILES IDX 75 34 17 35 18 36 19 37 69 38 20 39 74 40 68 41 70 42 21 43
REMARK SMILES IDX 73 44 67 45 66 46 22 48 54 49 34 50 53 51 35 52 38 53 52 54
REMARK SMILES IDX 71 55 36 56 37 57 51 59 72 60 39 61 23 62 24 63 32 64 25 65
REMARK SMILES IDX 31 66 33 67 30 68 26 69 27 70 28 71 29 72 55 73 56 74 64 75
REMARK SMILES IDX 57 76 63 77 65 78 62 79 58 80 59 81 60 82 61 83 40 84 41 85
REMARK SMILES IDX 49 86 42 87 48 88 50 89 47 90 43 91 44 92 45 93 46 94
REMARK H PARENT 70 47 38 58
REMARK Flexibility Score: inf
ROOT
ATOM      1  O   UNL A   1      35.712  22.838  23.941  1.00  0.00    -0.374 OA
ENDROOT
BRANCH   1   2
ATOM      2  C   UNL A   1      34.550  22.884  23.112  1.00  0.00     0.202 C 
BRANCH   2   3
ATOM      3  C   UNL A   1      33.334  22.091  23.599  1.00  0.00     0.261 C 
BRANCH   3   4
ATOM      4  O   UNL A   1      32.120  22.589  23.016  1.00  0.00    -0.463 OA
BRANCH   4   5
ATOM      5  C   UNL A   1      31.593  23.701  23.599  1.00  0.00     0.313 C 
ATOM      6  O   UNL A   1      31.034  24.600  22.979  1.00  0.00    -0.252 OA
BRANCH   5   7
ATOM      7  C   UNL A   1      31.732  23.696  25.131  1.00  0.00     0.126 C 
ATOM      8  C   UNL A   1      30.474  23.144  25.821  1.00  0.00     0.025 C 
BRANCH   7   9
ATOM      9  C   UNL A   1      32.249  25.030  25.695  1.00  0.00    -0.034 A 
ATOM     10  C   UNL A   1      31.352  25.939  26.287  1.00  0.00     0.005 A 
ATOM     11  C   UNL A   1      33.588  25.441  25.578  1.00  0.00     0.005 A 
ATOM     12  C   UNL A   1      31.773  27.186  26.765  1.00  0.00     0.009 A 
ATOM     13  C   UNL A   1      34.010  26.697  26.044  1.00  0.00     0.009 A 
ATOM     14  C   UNL A   1      33.106  27.577  26.644  1.00  0.00    -0.018 A 
BRANCH  14  15
ATOM     15  C   UNL A   1      33.544  28.910  27.100  1.00  0.00    -0.011 A 
ATOM     16  C   UNL A   1      32.664  30.062  27.091  1.00  0.00     0.027 A 
ATOM     17  C   UNL A   1      34.805  29.056  27.545  1.00  0.00     0.080 A 
ATOM     18  C   UNL A   1      33.100  31.257  27.507  1.00  0.00     0.095 A 
ATOM     19  C   UNL A   1      35.306  30.380  28.013  1.00  0.00     0.255 A 
ATOM     20  N   UNL A   1      34.396  31.424  27.958  1.00  0.00    -0.258 N 
ATOM     21  O   UNL A   1      36.463  30.466  28.408  1.00  0.00    -0.269 OA
BRANCH  20  22
ATOM     22  C   UNL A   1      34.861  32.719  28.383  1.00  0.00     0.451 C 
ATOM     23  F   UNL A   1      35.354  33.435  27.343  1.00  0.00    -0.185 F 
ATOM     24  F   UNL A   1      33.859  33.437  28.949  1.00  0.00    -0.185 F 
ENDBRANCH  20  22
ENDBRANCH  14  15
ENDBRANCH   7   9
ENDBRANCH   5   7
ENDBRANCH   4   5
ENDBRANCH   3   4
ENDBRANCH   2   3
ENDBRANCH   1   2
BRANCH   1  25
ATOM     25  C   UNL A   1      35.723  21.899  25.017  1.00  0.00     0.202 C 
BRANCH  25  26
ATOM     26  C   UNL A   1      37.053  21.196  25.325  1.00  0.00     0.261 C 
BRANCH  26  27
ATOM     27  O   UNL A   1      38.183  22.089  25.300  1.00  0.00    -0.460 OA
BRANCH  27  28
ATOM     28  C   UNL A   1      39.117  21.844  26.253  1.00  0.00     0.338 C 
ATOM     29  O   UNL A   1      39.613  20.757  26.531  1.00  0.00    -0.246 OA
BRANCH  28  30
ATOM     30  C   UNL A   1      39.627  23.105  26.823  1.00  0.00     0.060 A 
ATOM     31  C   UNL A   1      39.105  24.303  26.316  1.00  0.00     0.016 A 
ATOM     32  C   UNL A   1      40.664  23.125  27.757  1.00  0.00     0.016 A 
ATOM     33  C   UNL A   1      39.648  25.525  26.708  1.00  0.00     0.010 A 
ATOM     34  C   UNL A   1      41.215  24.354  28.143  1.00  0.00     0.010 A 
ATOM     35  C   UNL A   1      40.733  25.558  27.593  1.00  0.00    -0.014 A 
BRANCH  35  36
ATOM     36  C   UNL A   1      41.452  26.840  27.818  1.00  0.00     0.031 A 
ATOM     37  C   UNL A   1      42.825  27.017  27.226  1.00  0.00     0.074 A 
ATOM     38  C   UNL A   1      40.876  27.845  28.499  1.00  0.00     0.049 A 
ATOM     39  N   UNL A   1      43.645  28.033  27.314  1.00  0.00    -0.248 NA
ATOM     40  C   UNL A   1      43.340  25.894  26.426  1.00  0.00     0.031 C 
ATOM     41  C   UNL A   1      39.533  27.811  29.077  1.00  0.00     0.029 A 
ATOM     42  N   UNL A   1      41.349  29.093  28.823  1.00  0.00    -0.354 N 
ATOM     43  C   UNL A   1      44.772  27.676  26.581  1.00  0.00     0.074 A 
ATOM     44  C   UNL A   1      44.544  26.332  26.092  1.00  0.00     0.031 C 
ATOM     45  C   UNL A   1      39.295  28.980  29.697  1.00  0.00     0.029 A 
ATOM     46  C   UNL A   1      40.479  29.831  29.591  1.00  0.00     0.049 A 
ATOM     47  H   UNL A   1      42.229  29.427  28.534  1.00  0.00     0.167 HD
ATOM     48  C   UNL A   1      45.888  28.405  26.330  1.00  0.00     0.034 A 
ATOM     49  C   UNL A   1      40.631  31.042  30.164  1.00  0.00     0.034 A 
ATOM     50  C   UNL A   1      46.109  29.737  26.838  1.00  0.00     0.049 A 
ATOM     51  C   UNL A   1      41.920  31.801  29.948  1.00  0.00     0.074 A 
ATOM     52  C   UNL A   1      47.202  30.565  26.644  1.00  0.00     0.029 A 
ATOM     53  N   UNL A   1      45.225  30.436  27.651  1.00  0.00    -0.354 N 
ATOM     54  N   UNL A   1      42.978  31.452  29.254  1.00  0.00    -0.248 NA
ATOM     55  C   UNL A   1      42.029  33.119  30.587  1.00  0.00     0.031 C 
ATOM     56  C   UNL A   1      47.010  31.731  27.396  1.00  0.00     0.029 A 
ATOM     57  C   UNL A   1      45.762  31.667  27.995  1.00  0.00     0.049 A 
ATOM     58  H   UNL A   1      44.345  30.103  27.943  1.00  0.00     0.167 HD
ATOM     59  C   UNL A   1      43.866  32.522  29.348  1.00  0.00     0.074 A 
ATOM     60  C   UNL A   1      43.213  33.531  30.156  1.00  0.00     0.031 C 
ATOM     61  C   UNL A   1      45.106  32.660  28.813  1.00  0.00     0.034 A 
BRANCH  48  62
ATOM     62  C   UNL A   1      46.973  27.747  25.511  1.00  0.00     0.023 A 
ATOM     63  C   UNL A   1      47.230  28.127  24.182  1.00  0.00     0.031 A 
ATOM     64  C   UNL A   1      47.740  26.703  26.057  1.00  0.00     0.131 A 
ATOM     65  C   UNL A   1      48.176  27.421  23.422  1.00  0.00     0.055 A 
ATOM     66  C   UNL A   1      48.735  26.055  25.320  1.00  0.00     0.041 A 
ATOM     67  F   UNL A   1      47.524  26.281  27.313  1.00  0.00    -0.206 F 
ATOM     68  C   UNL A   1      48.946  26.404  23.990  1.00  0.00     0.022 A 
BRANCH  65  69
ATOM     69  S   UNL A   1      48.284  27.754  21.643  1.00  0.00     0.124 S 
ATOM     70  O   UNL A   1      48.640  26.439  21.117  1.00  0.00    -0.237 OA
ATOM     71  O   UNL A   1      46.940  28.226  21.328  1.00  0.00    -0.237 OA
ATOM     72  O   UNL A   1      49.338  28.761  21.545  1.00  0.00    -0.744 OA
ENDBRANCH  65  69
ENDBRANCH  48  62
BRANCH  49  73
ATOM     73  C   UNL A   1      39.561  31.602  31.040  1.00  0.00     0.023 A 
ATOM     74  C   UNL A   1      39.559  31.377  32.426  1.00  0.00     0.031 A 
ATOM     75  C   UNL A   1      38.490  32.328  30.489  1.00  0.00     0.131 A 
ATOM     76  C   UNL A   1      38.484  31.834  33.207  1.00  0.00     0.055 A 
ATOM     77  C   UNL A   1      37.451  32.825  31.275  1.00  0.00     0.041 A 
ATOM     78  F   UNL A   1      38.442  32.569  29.169  1.00  0.00    -0.206 F 
ATOM     79  C   UNL A   1      37.438  32.567  32.643  1.00  0.00     0.022 A 
BRANCH  76  80
ATOM     80  S   UNL A   1      38.429  31.382  34.962  1.00  0.00     0.124 S 
ATOM     81  O   UNL A   1      37.296  32.166  35.437  1.00  0.00    -0.237 OA
ATOM     82  O   UNL A   1      38.228  29.937  34.895  1.00  0.00    -0.237 OA
ATOM     83  O   UNL A   1      39.736  31.804  35.463  1.00  0.00    -0.744 OA
ENDBRANCH  76  80
ENDBRANCH  49  73
BRANCH  61  84
ATOM     84  C   UNL A   1      45.814  33.973  29.049  1.00  0.00     0.023 A 
ATOM     85  C   UNL A   1      45.625  35.080  28.204  1.00  0.00     0.031 A 
ATOM     86  C   UNL A   1      46.699  34.112  30.134  1.00  0.00     0.131 A 
ATOM     87  C   UNL A   1      46.351  36.261  28.427  1.00  0.00     0.055 A 
ATOM     88  C   UNL A   1      47.374  35.308  30.384  1.00  0.00     0.041 A 
ATOM     89  F   UNL A   1      46.920  33.087  30.972  1.00  0.00    -0.206 F 
ATOM     90  C   UNL A   1      47.211  36.387  29.521  1.00  0.00     0.022 A 
BRANCH  87  91
ATOM     91  S   UNL A   1      46.223  37.606  27.216  1.00  0.00     0.124 S 
ATOM     92  O   UNL A   1      47.044  38.645  27.828  1.00  0.00    -0.237 OA
ATOM     93  O   UNL A   1      46.767  36.992  26.008  1.00  0.00    -0.237 OA
ATOM     94  O   UNL A   1      44.790  37.893  27.172  1.00  0.00    -0.744 OA
ENDBRANCH  87  91
ENDBRANCH  61  84
ENDBRANCH  35  36
ENDBRANCH  28  30
ENDBRANCH  27  28
ENDBRANCH  26  27
ENDBRANCH  25  26
ENDBRANCH   1  25
TORSDOF 20
ENDMDL
MODEL 3
REMARK VINA RESULT:     -11.0      4.970      8.296
REMARK SMILES C[C@@H](C(=O)OCCOCCOC(=O)c1ccc(-c2c3nc(c(-c4cc(S(=O)(=O)[O-])ccc4F)c4ccc([nH]4)c(-c4cc(S(=O)(=O)[O-])ccc4F)c4nc(c(-c5cc(S(=O)(=O)[O-])ccc5F)c5ccc2[nH]5)C=C4)C=C3)cc1)c1ccc(-c2ccn(C(F)F)c(=O)c2)cc1
REMARK SMILES IDX 8 1 7 2 6 3 5 4 3 5 4 6 2 7 1 8 77 9 78 10 92 11 79 12 91 13
REMARK SMILES IDX 80 14 81 15 82 16 90 17 83 18 88 19 84 20 89 21 85 22 86 23
REMARK SMILES IDX 87 24 9 25 10 26 11 27 12 28 13 29 14 30 15 31 76 32 16 33
REMARK SMILES IDX 75 34 17 35 18 36 19 37 69 38 20 39 74 40 68 41 70 42 21 43
REMARK SMILES IDX 73 44 67 45 66 46 22 48 54 49 34 50 53 51 35 52 38 53 52 54
REMARK SMILES IDX 71 55 36 56 37 57 51 59 72 60 39 61 23 62 24 63 32 64 25 65
REMARK SMILES IDX 31 66 33 67 30 68 26 69 27 70 28 71 29 72 55 73 56 74 64 75
REMARK SMILES IDX 57 76 63 77 65 78 62 79 58 80 59 81 60 82 61 83 40 84 41 85
REMARK SMILES IDX 49 86 42 87 48 88 50 89 47 90 43 91 44 92 45 93 46 94
REMARK H PARENT 70 47 38 58
REMARK Flexibility Score: inf
ROOT
ATOM      1  O   UNL A   1      35.515  22.996  23.572  1.00  0.00    -0.374 OA
ENDROOT
BRANCH   1   2
ATOM      2  C   UNL A   1      34.210  23.006  22.994  1.00  0.00     0.202 C 
BRANCH   2   3
ATOM      3  C   UNL A   1      33.148  22.152  23.692  1.00  0.00     0.261 C 
BRANCH   3   4
ATOM      4  O   UNL A   1      31.834  22.702  23.510  1.00  0.00    -0.463 OA
BRANCH   4   5
ATOM      5  C   UNL A   1      31.643  23.960  23.992  1.00  0.00     0.313 C 
ATOM      6  O   UNL A   1      31.247  24.902  23.312  1.00  0.00    -0.252 OA
BRANCH   5   7
ATOM      7  C   UNL A   1      31.935  24.074  25.498  1.00  0.00     0.126 C 
ATOM      8  C   UNL A   1      30.862  23.371  26.347  1.00  0.00     0.025 C 
BRANCH   7   9
ATOM      9  C   UNL A   1      32.276  25.507  25.941  1.00  0.00    -0.034 A 
ATOM     10  C   UNL A   1      31.264  26.351  26.434  1.00  0.00     0.005 A 
ATOM     11  C   UNL A   1      33.559  26.064  25.801  1.00  0.00     0.005 A 
ATOM     12  C   UNL A   1      31.523  27.679  26.798  1.00  0.00     0.009 A 
ATOM     13  C   UNL A   1      33.819  27.398  26.153  1.00  0.00     0.009 A 
ATOM     14  C   UNL A   1      32.803  28.215  26.657  1.00  0.00    -0.018 A 
BRANCH  14  15
ATOM     15  C   UNL A   1      33.069  29.627  26.991  1.00  0.00    -0.011 A 
ATOM     16  C   UNL A   1      34.339  30.071  27.532  1.00  0.00     0.027 A 
ATOM     17  C   UNL A   1      32.098  30.532  26.778  1.00  0.00     0.080 A 
ATOM     18  C   UNL A   1      34.540  31.360  27.828  1.00  0.00     0.095 A 
ATOM     19  C   UNL A   1      32.307  31.973  27.101  1.00  0.00     0.255 A 
ATOM     20  N   UNL A   1      33.548  32.301  27.624  1.00  0.00    -0.258 N 
ATOM     21  O   UNL A   1      31.393  32.763  26.893  1.00  0.00    -0.269 OA
BRANCH  20  22
ATOM     22  C   UNL A   1      33.769  33.682  27.966  1.00  0.00     0.451 C 
ATOM     23  F   UNL A   1      33.605  33.896  29.295  1.00  0.00    -0.185 F 
ATOM     24  F   UNL A   1      35.023  34.075  27.630  1.00  0.00    -0.185 F 
ENDBRANCH  20  22
ENDBRANCH  14  15
ENDBRANCH   7   9
ENDBRANCH   5   7
ENDBRANCH   4   5
ENDBRANCH   3   4
ENDBRANCH   2   3
ENDBRANCH   1   2
BRANCH   1  25
ATOM     25  C   UNL A   1      35.627  22.651  24.954  1.00  0.00     0.202 C 
BRANCH  25  26
ATOM     26  C   UNL A   1      36.619  21.540  25.325  1.00  0.00     0.261 C 
BRANCH  26  27
ATOM     27  O   UNL A   1      37.970  21.827  24.911  1.00  0.00    -0.460 OA
BRANCH  27  28
ATOM     28  C   UNL A   1      38.924  21.437  25.792  1.00  0.00     0.338 C 
ATOM     29  O   UNL A   1      39.439  20.326  25.871  1.00  0.00    -0.246 OA
BRANCH  28  30
ATOM     30  C   UNL A   1      39.429  22.590  26.561  1.00  0.00     0.060 A 
ATOM     31  C   UNL A   1      38.916  23.855  26.245  1.00  0.00     0.016 A 
ATOM     32  C   UNL A   1      40.455  22.458  27.499  1.00  0.00     0.016 A 
ATOM     33  C   UNL A   1      39.456  24.997  26.832  1.00  0.00     0.010 A 
ATOM     34  C   UNL A   1      41.003  23.608  28.081  1.00  0.00     0.010 A 
ATOM     35  C   UNL A   1      40.530  24.885  27.725  1.00  0.00    -0.014 A 
BRANCH  35  36
ATOM     36  C   UNL A   1      41.249  26.112  28.158  1.00  0.00     0.031 A 
ATOM     37  C   UNL A   1      42.665  26.329  27.694  1.00  0.00     0.074 A 
ATOM     38  C   UNL A   1      40.637  27.040  28.916  1.00  0.00     0.049 A 
ATOM     39  N   UNL A   1      43.490  27.307  27.968  1.00  0.00    -0.248 NA
ATOM     40  C   UNL A   1      43.222  25.301  26.801  1.00  0.00     0.031 C 
ATOM     41  C   UNL A   1      39.255  26.966  29.386  1.00  0.00     0.029 A 
ATOM     42  N   UNL A   1      41.103  28.226  29.426  1.00  0.00    -0.354 N 
ATOM     43  C   UNL A   1      44.664  27.016  27.280  1.00  0.00     0.074 A 
ATOM     44  C   UNL A   1      44.454  25.748  26.612  1.00  0.00     0.031 C 
ATOM     45  C   UNL A   1      38.988  28.055  30.127  1.00  0.00     0.029 A 
ATOM     46  C   UNL A   1      40.188  28.885  30.214  1.00  0.00     0.049 A 
ATOM     47  H   UNL A   1      42.007  28.573  29.245  1.00  0.00     0.167 HD
ATOM     48  C   UNL A   1      45.806  27.744  27.203  1.00  0.00     0.034 A 
ATOM     49  C   UNL A   1      40.314  30.013  30.943  1.00  0.00     0.034 A 
ATOM     50  C   UNL A   1      46.007  28.998  27.887  1.00  0.00     0.049 A 
ATOM     51  C   UNL A   1      41.626  30.761  30.917  1.00  0.00     0.074 A 
ATOM     52  C   UNL A   1      47.123  29.818  27.877  1.00  0.00     0.029 A 
ATOM     53  N   UNL A   1      45.074  29.612  28.715  1.00  0.00    -0.354 N 
ATOM     54  N   UNL A   1      42.729  30.476  30.263  1.00  0.00    -0.248 NA
ATOM     55  C   UNL A   1      41.706  31.988  31.721  1.00  0.00     0.031 C 
ATOM     56  C   UNL A   1      46.892  30.886  28.752  1.00  0.00     0.029 A 
ATOM     57  C   UNL A   1      45.602  30.779  29.247  1.00  0.00     0.049 A 
ATOM     58  H   UNL A   1      44.171  29.267  28.898  1.00  0.00     0.167 HD
ATOM     59  C   UNL A   1      43.622  31.505  30.555  1.00  0.00     0.074 A 
ATOM     60  C   UNL A   1      42.925  32.422  31.432  1.00  0.00     0.031 C 
ATOM     61  C   UNL A   1      44.900  31.679  30.132  1.00  0.00     0.034 A 
BRANCH  48  62
ATOM     62  C   UNL A   1      46.940  27.166  26.389  1.00  0.00     0.023 A 
ATOM     63  C   UNL A   1      47.242  27.640  25.100  1.00  0.00     0.031 A 
ATOM     64  C   UNL A   1      47.709  26.105  26.896  1.00  0.00     0.131 A 
ATOM     65  C   UNL A   1      48.235  27.008  24.337  1.00  0.00     0.055 A 
ATOM     66  C   UNL A   1      48.748  25.530  26.162  1.00  0.00     0.041 A 
ATOM     67  F   UNL A   1      47.452  25.595  28.112  1.00  0.00    -0.206 F 
ATOM     68  C   UNL A   1      49.006  25.972  24.868  1.00  0.00     0.022 A 
BRANCH  65  69
ATOM     69  S   UNL A   1      48.408  27.462  22.589  1.00  0.00     0.124 S 
ATOM     70  O   UNL A   1      47.167  28.195  22.351  1.00  0.00    -0.237 OA
ATOM     71  O   UNL A   1      49.630  28.258  22.589  1.00  0.00    -0.237 OA
ATOM     72  O   UNL A   1      48.502  26.174  21.907  1.00  0.00    -0.744 OA
ENDBRANCH  65  69
ENDBRANCH  48  62
BRANCH  49  73
ATOM     73  C   UNL A   1      39.190  30.485  31.802  1.00  0.00     0.023 A 
ATOM     74  C   UNL A   1      38.195  31.339  31.302  1.00  0.00     0.031 A 
ATOM     75  C   UNL A   1      39.129  30.127  33.162  1.00  0.00     0.131 A 
ATOM     76  C   UNL A   1      37.207  31.843  32.164  1.00  0.00     0.055 A 
ATOM     77  C   UNL A   1      38.116  30.590  34.002  1.00  0.00     0.041 A 
ATOM     78  F   UNL A   1      40.057  29.315  33.692  1.00  0.00    -0.206 F 
ATOM     79  C   UNL A   1      37.154  31.464  33.507  1.00  0.00     0.022 A 
BRANCH  76  80
ATOM     80  S   UNL A   1      36.040  33.075  31.523  1.00  0.00     0.124 S 
ATOM     81  O   UNL A   1      36.608  33.371  30.213  1.00  0.00    -0.237 OA
ATOM     82  O   UNL A   1      34.784  32.330  31.526  1.00  0.00    -0.237 OA
ATOM     83  O   UNL A   1      36.121  34.160  32.499  1.00  0.00    -0.744 OA
ENDBRANCH  76  80
ENDBRANCH  49  73
BRANCH  61  84
ATOM     84  C   UNL A   1      45.608  32.935  30.580  1.00  0.00     0.023 A 
ATOM     85  C   UNL A   1      46.404  32.966  31.738  1.00  0.00     0.031 A 
ATOM     86  C   UNL A   1      45.475  34.124  29.837  1.00  0.00     0.131 A 
ATOM     87  C   UNL A   1      46.993  34.173  32.150  1.00  0.00     0.055 A 
ATOM     88  C   UNL A   1      46.111  35.305  30.220  1.00  0.00     0.041 A 
ATOM     89  F   UNL A   1      44.725  34.153  28.724  1.00  0.00    -0.206 F 
ATOM     90  C   UNL A   1      46.865  35.337  31.389  1.00  0.00     0.022 A 
BRANCH  87  91
ATOM     91  S   UNL A   1      47.860  34.221  33.742  1.00  0.00     0.124 S 
ATOM     92  O   UNL A   1      46.878  33.624  34.641  1.00  0.00    -0.237 OA
ATOM     93  O   UNL A   1      49.050  33.417  33.475  1.00  0.00    -0.237 OA
ATOM     94  O   UNL A   1      48.111  35.645  33.954  1.00  0.00    -0.744 OA
ENDBRANCH  87  91
ENDBRANCH  61  84
ENDBRANCH  35  36
ENDBRANCH  28  30
ENDBRANCH  27  28
ENDBRANCH  26  27
ENDBRANCH  25  26
ENDBRANCH   1  25
TORSDOF 20
ENDMDL
