MODEL 1
REMARK VINA RESULT:     -11.0      0.000      0.000
REMARK SMILES O=C(OCCOCCOC(=O)[C@@H]1[C@H](C(=O)NCc2ccncc2)[C@H]2C=C[C@@H]1O2)c1ccc(-c2c3nc(c(-c4cc(S(=O)(=O)[O-])ccc4F)c4ccc([nH]4)c(-c4cc(S(=O)(=O)[O-])ccc4F)c4nc(c(-c5cc(S(=O)(=O)[O-])ccc5F)c5ccc2[nH]5)C=C4)C=C3)cc1
REMARK SMILES IDX 6 1 5 2 4 3 3 4 2 5 1 6 29 7 30 8 91 9 31 10 90 11 32 12
REMARK SMILES IDX 33 13 34 14 84 15 35 16 89 17 83 18 85 19 36 20 88 21 82 22
REMARK SMILES IDX 81 23 37 25 69 26 49 27 68 28 50 29 53 30 67 31 86 32 51 33
REMARK SMILES IDX 52 34 66 36 87 37 54 38 38 39 39 40 47 41 40 42 46 43 48 44
REMARK SMILES IDX 45 45 41 46 42 47 43 48 44 49 70 50 71 51 79 52 72 53 78 54
REMARK SMILES IDX 80 55 77 56 73 57 74 58 75 59 76 60 55 61 56 62 64 63 57 64
REMARK SMILES IDX 63 65 65 66 62 67 58 68 59 69 60 70 61 71 7 72 8 73 9 74
REMARK SMILES IDX 10 75 11 76 12 77 13 78 27 79 24 80 26 81 28 82 25 83 14 84
REMARK SMILES IDX 15 85 16 86 17 88 18 89 19 90 23 91 20 92 22 93 21 94
REMARK H PARENT 85 24 53 35 16 87
REMARK Flexibility Score: inf
ROOT
ATOM      1  O   UNL A   1      32.431  28.845  25.943  1.00  0.00    -0.374 OA
ENDROOT
BRANCH   1   2
ATOM      2  C   UNL A   1      31.659  29.661  26.833  1.00  0.00     0.202 C 
BRANCH   2   3
ATOM      3  C   UNL A   1      31.792  31.185  26.676  1.00  0.00     0.261 C 
BRANCH   3   4
ATOM      4  O   UNL A   1      33.164  31.608  26.623  1.00  0.00    -0.460 OA
BRANCH   4   5
ATOM      5  C   UNL A   1      33.868  32.228  27.603  1.00  0.00     0.338 C 
ATOM      6  O   UNL A   1      33.486  33.326  28.003  1.00  0.00    -0.246 OA
BRANCH   5   7
ATOM      7  C   UNL A   1      35.079  31.626  28.232  1.00  0.00     0.060 A 
ATOM      8  C   UNL A   1      35.166  30.305  28.666  1.00  0.00     0.016 A 
ATOM      9  C   UNL A   1      36.224  32.431  28.341  1.00  0.00     0.016 A 
ATOM     10  C   UNL A   1      36.294  29.815  29.284  1.00  0.00     0.010 A 
ATOM     11  C   UNL A   1      37.398  31.927  28.909  1.00  0.00     0.010 A 
ATOM     12  C   UNL A   1      37.420  30.618  29.401  1.00  0.00    -0.014 A 
BRANCH  12  13
ATOM     13  C   UNL A   1      38.536  30.039  30.161  1.00  0.00     0.031 A 
ATOM     14  C   UNL A   1      39.460  29.110  29.447  1.00  0.00     0.074 A 
ATOM     15  C   UNL A   1      38.822  30.551  31.373  1.00  0.00     0.049 A 
ATOM     16  N   UNL A   1      40.515  28.500  29.902  1.00  0.00    -0.248 NA
ATOM     17  C   UNL A   1      39.160  28.841  28.030  1.00  0.00     0.031 C 
ATOM     18  C   UNL A   1      38.015  31.568  32.049  1.00  0.00     0.029 A 
ATOM     19  N   UNL A   1      39.878  30.356  32.217  1.00  0.00    -0.354 N 
ATOM     20  C   UNL A   1      40.991  27.745  28.839  1.00  0.00     0.074 A 
ATOM     21  C   UNL A   1      40.105  27.968  27.720  1.00  0.00     0.031 C 
ATOM     22  C   UNL A   1      38.642  31.962  33.167  1.00  0.00     0.029 A 
ATOM     23  C   UNL A   1      39.823  31.131  33.354  1.00  0.00     0.049 A 
ATOM     24  H   UNL A   1      40.608  29.722  32.031  1.00  0.00     0.167 HD
ATOM     25  C   UNL A   1      42.074  26.934  28.826  1.00  0.00     0.034 A 
ATOM     26  C   UNL A   1      40.610  31.113  34.448  1.00  0.00     0.034 A 
ATOM     27  C   UNL A   1      42.909  26.746  29.983  1.00  0.00     0.049 A 
ATOM     28  C   UNL A   1      41.734  30.105  34.446  1.00  0.00     0.074 A 
ATOM     29  C   UNL A   1      43.965  25.872  30.157  1.00  0.00     0.029 A 
ATOM     30  N   UNL A   1      42.776  27.456  31.172  1.00  0.00    -0.354 N 
ATOM     31  N   UNL A   1      42.113  29.296  33.479  1.00  0.00    -0.248 NA
ATOM     32  C   UNL A   1      42.519  29.988  35.676  1.00  0.00     0.031 C 
ATOM     33  C   UNL A   1      44.426  26.010  31.471  1.00  0.00     0.029 A 
ATOM     34  C   UNL A   1      43.717  27.029  32.092  1.00  0.00     0.049 A 
ATOM     35  H   UNL A   1      42.108  28.161  31.337  1.00  0.00     0.167 HD
ATOM     36  C   UNL A   1      43.187  28.576  33.986  1.00  0.00     0.074 A 
ATOM     37  C   UNL A   1      43.423  29.087  35.324  1.00  0.00     0.031 C 
ATOM     38  C   UNL A   1      43.906  27.572  33.419  1.00  0.00     0.034 A 
BRANCH  25  39
ATOM     39  C   UNL A   1      42.313  26.142  27.569  1.00  0.00     0.023 A 
ATOM     40  C   UNL A   1      41.869  24.816  27.431  1.00  0.00     0.031 A 
ATOM     41  C   UNL A   1      43.081  26.693  26.528  1.00  0.00     0.131 A 
ATOM     42  C   UNL A   1      42.258  24.062  26.312  1.00  0.00     0.055 A 
ATOM     43  C   UNL A   1      43.395  25.965  25.380  1.00  0.00     0.041 A 
ATOM     44  F   UNL A   1      43.569  27.940  26.625  1.00  0.00    -0.206 F 
ATOM     45  C   UNL A   1      42.995  24.636  25.273  1.00  0.00     0.022 A 
BRANCH  42  46
ATOM     46  S   UNL A   1      41.919  22.281  26.304  1.00  0.00     0.124 S 
ATOM     47  O   UNL A   1      42.693  21.839  25.146  1.00  0.00    -0.237 OA
ATOM     48  O   UNL A   1      42.419  21.856  27.606  1.00  0.00    -0.237 OA
ATOM     49  O   UNL A   1      40.468  22.209  26.139  1.00  0.00    -0.744 OA
ENDBRANCH  42  46
ENDBRANCH  25  39
BRANCH  26  50
ATOM     50  C   UNL A   1      40.305  31.947  35.652  1.00  0.00     0.023 A 
ATOM     51  C   UNL A   1      39.263  31.613  36.533  1.00  0.00     0.031 A 
ATOM     52  C   UNL A   1      40.990  33.156  35.889  1.00  0.00     0.131 A 
ATOM     53  C   UNL A   1      38.893  32.504  37.556  1.00  0.00     0.055 A 
ATOM     54  C   UNL A   1      40.674  33.997  36.957  1.00  0.00     0.041 A 
ATOM     55  F   UNL A   1      41.980  33.552  35.073  1.00  0.00    -0.206 F 
ATOM     56  C   UNL A   1      39.603  33.684  37.785  1.00  0.00     0.022 A 
BRANCH  53  57
ATOM     57  S   UNL A   1      37.371  32.176  38.488  1.00  0.00     0.124 S 
ATOM     58  O   UNL A   1      37.146  30.763  38.199  1.00  0.00    -0.237 OA
ATOM     59  O   UNL A   1      37.777  32.494  39.853  1.00  0.00    -0.237 OA
ATOM     60  O   UNL A   1      36.402  33.095  37.896  1.00  0.00    -0.744 OA
ENDBRANCH  53  57
ENDBRANCH  26  50
BRANCH  38  61
ATOM     61  C   UNL A   1      45.032  27.012  34.248  1.00  0.00     0.023 A 
ATOM     62  C   UNL A   1      44.847  25.892  35.076  1.00  0.00     0.031 A 
ATOM     63  C   UNL A   1      46.294  27.631  34.233  1.00  0.00     0.131 A 
ATOM     64  C   UNL A   1      45.885  25.476  35.919  1.00  0.00     0.055 A 
ATOM     65  C   UNL A   1      47.348  27.158  35.012  1.00  0.00     0.041 A 
ATOM     66  F   UNL A   1      46.520  28.706  33.461  1.00  0.00    -0.206 F 
ATOM     67  C   UNL A   1      47.140  26.087  35.877  1.00  0.00     0.022 A 
BRANCH  64  68
ATOM     68  S   UNL A   1      45.524  24.216  37.171  1.00  0.00     0.124 S 
ATOM     69  O   UNL A   1      45.092  23.090  36.349  1.00  0.00    -0.237 OA
ATOM     70  O   UNL A   1      46.812  24.061  37.838  1.00  0.00    -0.237 OA
ATOM     71  O   UNL A   1      44.476  24.832  37.982  1.00  0.00    -0.744 OA
ENDBRANCH  64  68
ENDBRANCH  38  61
ENDBRANCH  12  13
ENDBRANCH   5   7
ENDBRANCH   4   5
ENDBRANCH   3   4
ENDBRANCH   2   3
ENDBRANCH   1   2
BRANCH   1  72
ATOM     72  C   UNL A   1      32.001  27.484  25.807  1.00  0.00     0.202 C 
BRANCH  72  73
ATOM     73  C   UNL A   1      33.189  26.560  25.595  1.00  0.00     0.261 C 
BRANCH  73  74
ATOM     74  O   UNL A   1      32.642  25.252  25.381  1.00  0.00    -0.463 OA
BRANCH  74  75
ATOM     75  C   UNL A   1      33.421  24.260  25.892  1.00  0.00     0.312 C 
ATOM     76  O   UNL A   1      33.144  23.617  26.879  1.00  0.00    -0.252 OA
BRANCH  75  77
ATOM     77  C   UNL A   1      34.727  24.198  25.184  1.00  0.00     0.147 C 
ATOM     78  C   UNL A   1      34.875  23.398  23.868  1.00  0.00     0.128 C 
ATOM     79  C   UNL A   1      35.654  23.430  26.129  1.00  0.00     0.157 C 
ATOM     80  C   UNL A   1      35.854  22.294  24.286  1.00  0.00     0.155 C 
ATOM     81  C   UNL A   1      37.073  23.626  25.692  1.00  0.00     0.004 C 
ATOM     82  O   UNL A   1      35.454  22.070  25.659  1.00  0.00    -0.365 OA
ATOM     83  C   UNL A   1      37.204  22.921  24.558  1.00  0.00     0.004 C 
BRANCH  78  84
ATOM     84  C   UNL A   1      33.749  22.935  22.950  1.00  0.00     0.227 C 
ATOM     85  O   UNL A   1      33.717  23.445  21.815  1.00  0.00    -0.275 OA
ATOM     86  N   UNL A   1      32.808  21.999  23.146  1.00  0.00    -0.352 N 
ATOM     87  H   UNL A   1      32.232  21.886  22.355  1.00  0.00     0.163 HD
BRANCH  86  88
ATOM     88  C   UNL A   1      32.422  21.109  24.228  1.00  0.00     0.151 C 
BRANCH  88  89
ATOM     89  C   UNL A   1      32.841  19.673  23.984  1.00  0.00    -0.026 A 
ATOM     90  C   UNL A   1      32.165  18.917  23.017  1.00  0.00     0.025 A 
ATOM     91  C   UNL A   1      33.913  19.064  24.642  1.00  0.00     0.025 A 
ATOM     92  C   UNL A   1      32.668  17.679  22.649  1.00  0.00     0.111 A 
ATOM     93  C   UNL A   1      34.320  17.806  24.221  1.00  0.00     0.111 A 
ATOM     94  N   UNL A   1      33.742  17.107  23.221  1.00  0.00    -0.265 NA
ENDBRANCH  88  89
ENDBRANCH  86  88
ENDBRANCH  78  84
ENDBRANCH  75  77
ENDBRANCH  74  75
ENDBRANCH  73  74
ENDBRANCH  72  73
ENDBRANCH   1  72
TORSDOF 20
ENDMDL
MODEL 2
REMARK VINA RESULT:     -10.6      5.468      8.483
REMARK SMILES O=C(OCCOCCOC(=O)[C@@H]1[C@H](C(=O)NCc2ccncc2)[C@H]2C=C[C@@H]1O2)c1ccc(-c2c3nc(c(-c4cc(S(=O)(=O)[O-])ccc4F)c4ccc([nH]4)c(-c4cc(S(=O)(=O)[O-])ccc4F)c4nc(c(-c5cc(S(=O)(=O)[O-])ccc5F)c5ccc2[nH]5)C=C4)C=C3)cc1
REMARK SMILES IDX 6 1 5 2 4 3 3 4 2 5 1 6 29 7 30 8 91 9 31 10 90 11 32 12
REMARK SMILES IDX 33 13 34 14 84 15 35 16 89 17 83 18 85 19 36 20 88 21 82 22
REMARK SMILES IDX 81 23 37 25 69 26 49 27 68 28 50 29 53 30 67 31 86 32 51 33
REMARK SMILES IDX 52 34 66 36 87 37 54 38 38 39 39 40 47 41 40 42 46 43 48 44
REMARK SMILES IDX 45 45 41 46 42 47 43 48 44 49 70 50 71 51 79 52 72 53 78 54
REMARK SMILES IDX 80 55 77 56 73 57 74 58 75 59 76 60 55 61 56 62 64 63 57 64
REMARK SMILES IDX 63 65 65 66 62 67 58 68 59 69 60 70 61 71 7 72 8 73 9 74
REMARK SMILES IDX 10 75 11 76 12 77 13 78 27 79 24 80 26 81 28 82 25 83 14 84
REMARK SMILES IDX 15 85 16 86 17 88 18 89 19 90 23 91 20 92 22 93 21 94
REMARK H PARENT 85 24 53 35 16 87
REMARK Flexibility Score: inf
ROOT
ATOM      1  O   UNL A   1      36.844  20.905  24.951  1.00  0.00    -0.374 OA
ENDROOT
BRANCH   1   2
ATOM      2  C   UNL A   1      37.957  20.007  25.054  1.00  0.00     0.202 C 
BRANCH   2   3
ATOM      3  C   UNL A   1      39.220  20.535  25.754  1.00  0.00     0.261 C 
BRANCH   3   4
ATOM      4  O   UNL A   1      40.264  19.549  25.807  1.00  0.00    -0.460 OA
BRANCH   4   5
ATOM      5  C   UNL A   1      41.541  19.731  26.224  1.00  0.00     0.338 C 
ATOM      6  O   UNL A   1      42.264  18.746  26.369  1.00  0.00    -0.246 OA
BRANCH   5   7
ATOM      7  C   UNL A   1      42.118  21.079  26.499  1.00  0.00     0.060 A 
ATOM      8  C   UNL A   1      42.503  21.528  27.760  1.00  0.00     0.016 A 
ATOM      9  C   UNL A   1      42.336  21.929  25.403  1.00  0.00     0.016 A 
ATOM     10  C   UNL A   1      42.986  22.801  27.964  1.00  0.00     0.010 A 
ATOM     11  C   UNL A   1      42.886  23.202  25.587  1.00  0.00     0.010 A 
ATOM     12  C   UNL A   1      43.190  23.642  26.879  1.00  0.00    -0.014 A 
BRANCH  12  13
ATOM     13  C   UNL A   1      43.614  25.010  27.208  1.00  0.00     0.031 A 
ATOM     14  C   UNL A   1      44.952  25.461  26.727  1.00  0.00     0.074 A 
ATOM     15  C   UNL A   1      42.698  25.865  27.701  1.00  0.00     0.049 A 
ATOM     16  N   UNL A   1      45.525  26.619  26.878  1.00  0.00    -0.248 NA
ATOM     17  C   UNL A   1      45.746  24.479  25.969  1.00  0.00     0.031 C 
ATOM     18  C   UNL A   1      41.328  25.491  28.055  1.00  0.00     0.029 A 
ATOM     19  N   UNL A   1      42.739  27.211  27.926  1.00  0.00    -0.354 N 
ATOM     20  C   UNL A   1      46.763  26.501  26.263  1.00  0.00     0.074 A 
ATOM     21  C   UNL A   1      46.862  25.156  25.745  1.00  0.00     0.031 C 
ATOM     22  C   UNL A   1      40.636  26.593  28.382  1.00  0.00     0.029 A 
ATOM     23  C   UNL A   1      41.549  27.727  28.390  1.00  0.00     0.049 A 
ATOM     24  H   UNL A   1      43.541  27.760  27.773  1.00  0.00     0.167 HD
ATOM     25  C   UNL A   1      47.725  27.447  26.160  1.00  0.00     0.034 A 
ATOM     26  C   UNL A   1      41.262  28.967  28.832  1.00  0.00     0.034 A 
ATOM     27  C   UNL A   1      47.568  28.767  26.712  1.00  0.00     0.049 A 
ATOM     28  C   UNL A   1      42.398  29.962  28.818  1.00  0.00     0.074 A 
ATOM     29  C   UNL A   1      48.494  29.789  26.791  1.00  0.00     0.029 A 
ATOM     30  N   UNL A   1      46.392  29.246  27.284  1.00  0.00    -0.354 N 
ATOM     31  N   UNL A   1      43.618  29.812  28.345  1.00  0.00    -0.248 NA
ATOM     32  C   UNL A   1      42.136  31.274  29.410  1.00  0.00     0.031 C 
ATOM     33  C   UNL A   1      47.897  30.860  27.466  1.00  0.00     0.029 A 
ATOM     34  C   UNL A   1      46.572  30.541  27.733  1.00  0.00     0.049 A 
ATOM     35  H   UNL A   1      45.553  28.736  27.358  1.00  0.00     0.167 HD
ATOM     36  C   UNL A   1      44.267  31.017  28.580  1.00  0.00     0.074 A 
ATOM     37  C   UNL A   1      43.284  31.895  29.190  1.00  0.00     0.031 C 
ATOM     38  C   UNL A   1      45.556  31.372  28.340  1.00  0.00     0.034 A 
BRANCH  25  39
ATOM     39  C   UNL A   1      49.026  27.027  25.532  1.00  0.00     0.023 A 
ATOM     40  C   UNL A   1      50.076  26.484  26.292  1.00  0.00     0.031 A 
ATOM     41  C   UNL A   1      49.252  27.261  24.165  1.00  0.00     0.131 A 
ATOM     42  C   UNL A   1      51.328  26.263  25.695  1.00  0.00     0.055 A 
ATOM     43  C   UNL A   1      50.474  26.962  23.559  1.00  0.00     0.041 A 
ATOM     44  F   UNL A   1      48.300  27.819  23.401  1.00  0.00    -0.206 F 
ATOM     45  C   UNL A   1      51.525  26.472  24.328  1.00  0.00     0.022 A 
BRANCH  42  46
ATOM     46  S   UNL A   1      52.735  25.842  26.759  1.00  0.00     0.124 S 
ATOM     47  O   UNL A   1      53.140  24.549  26.213  1.00  0.00    -0.237 OA
ATOM     48  O   UNL A   1      53.654  26.950  26.523  1.00  0.00    -0.237 OA
ATOM     49  O   UNL A   1      52.151  25.792  28.098  1.00  0.00    -0.744 OA
ENDBRANCH  42  46
ENDBRANCH  25  39
BRANCH  26  50
ATOM     50  C   UNL A   1      39.933  29.302  29.432  1.00  0.00     0.023 A 
ATOM     51  C   UNL A   1      39.752  29.384  30.822  1.00  0.00     0.031 A 
ATOM     52  C   UNL A   1      38.789  29.449  28.622  1.00  0.00     0.131 A 
ATOM     53  C   UNL A   1      38.460  29.533  31.357  1.00  0.00     0.055 A 
ATOM     54  C   UNL A   1      37.520  29.680  29.155  1.00  0.00     0.041 A 
ATOM     55  F   UNL A   1      38.881  29.357  27.285  1.00  0.00    -0.206 F 
ATOM     56  C   UNL A   1      37.346  29.700  30.533  1.00  0.00     0.022 A 
BRANCH  53  57
ATOM     57  S   UNL A   1      38.234  29.349  33.149  1.00  0.00     0.124 S 
ATOM     58  O   UNL A   1      37.337  28.199  33.217  1.00  0.00    -0.237 OA
ATOM     59  O   UNL A   1      39.601  29.123  33.605  1.00  0.00    -0.237 OA
ATOM     60  O   UNL A   1      37.644  30.623  33.551  1.00  0.00    -0.744 OA
ENDBRANCH  53  57
ENDBRANCH  26  50
BRANCH  38  61
ATOM     61  C   UNL A   1      45.935  32.783  28.705  1.00  0.00     0.023 A 
ATOM     62  C   UNL A   1      45.914  33.818  27.755  1.00  0.00     0.031 A 
ATOM     63  C   UNL A   1      46.354  33.085  30.013  1.00  0.00     0.131 A 
ATOM     64  C   UNL A   1      46.386  35.089  28.106  1.00  0.00     0.055 A 
ATOM     65  C   UNL A   1      46.741  34.374  30.377  1.00  0.00     0.041 A 
ATOM     66  F   UNL A   1      46.394  32.130  30.956  1.00  0.00    -0.206 F 
ATOM     67  C   UNL A   1      46.778  35.379  29.415  1.00  0.00     0.022 A 
BRANCH  64  68
ATOM     68  S   UNL A   1      46.612  36.316  26.791  1.00  0.00     0.124 S 
ATOM     69  O   UNL A   1      48.052  36.547  26.838  1.00  0.00    -0.237 OA
ATOM     70  O   UNL A   1      46.117  35.608  25.615  1.00  0.00    -0.237 OA
ATOM     71  O   UNL A   1      45.787  37.440  27.230  1.00  0.00    -0.744 OA
ENDBRANCH  64  68
ENDBRANCH  38  61
ENDBRANCH  12  13
ENDBRANCH   5   7
ENDBRANCH   4   5
ENDBRANCH   3   4
ENDBRANCH   2   3
ENDBRANCH   1   2
BRANCH   1  72
ATOM     72  C   UNL A   1      37.160  22.303  24.994  1.00  0.00     0.202 C 
BRANCH  72  73
ATOM     73  C   UNL A   1      35.994  23.136  24.487  1.00  0.00     0.261 C 
BRANCH  73  74
ATOM     74  O   UNL A   1      35.042  22.204  23.955  1.00  0.00    -0.463 OA
BRANCH  74  75
ATOM     75  C   UNL A   1      33.831  22.770  23.700  1.00  0.00     0.312 C 
ATOM     76  O   UNL A   1      33.288  22.757  22.618  1.00  0.00    -0.252 OA
BRANCH  75  77
ATOM     77  C   UNL A   1      33.356  23.550  24.873  1.00  0.00     0.147 C 
ATOM     78  C   UNL A   1      33.100  22.855  26.232  1.00  0.00     0.128 C 
ATOM     79  C   UNL A   1      31.953  24.027  24.490  1.00  0.00     0.157 C 
ATOM     80  C   UNL A   1      31.586  23.039  26.393  1.00  0.00     0.155 C 
ATOM     81  C   UNL A   1      31.531  25.114  25.429  1.00  0.00     0.004 C 
ATOM     82  O   UNL A   1      31.144  22.941  25.017  1.00  0.00    -0.365 OA
ATOM     83  C   UNL A   1      31.296  24.510  26.603  1.00  0.00     0.004 C 
BRANCH  78  84
ATOM     84  C   UNL A   1      33.625  21.494  26.675  1.00  0.00     0.227 C 
ATOM     85  O   UNL A   1      34.336  21.483  27.697  1.00  0.00    -0.275 OA
ATOM     86  N   UNL A   1      33.386  20.274  26.172  1.00  0.00    -0.352 N 
ATOM     87  H   UNL A   1      33.835  19.568  26.691  1.00  0.00     0.163 HD
BRANCH  86  88
ATOM     88  C   UNL A   1      32.633  19.728  25.054  1.00  0.00     0.151 C 
BRANCH  88  89
ATOM     89  C   UNL A   1      32.926  18.262  24.810  1.00  0.00    -0.026 A 
ATOM     90  C   UNL A   1      33.561  17.879  23.621  1.00  0.00     0.025 A 
ATOM     91  C   UNL A   1      32.641  17.257  25.739  1.00  0.00     0.025 A 
ATOM     92  C   UNL A   1      34.010  16.575  23.480  1.00  0.00     0.111 A 
ATOM     93  C   UNL A   1      33.105  15.973  25.489  1.00  0.00     0.111 A 
ATOM     94  N   UNL A   1      33.808  15.611  24.395  1.00  0.00    -0.265 NA
ENDBRANCH  88  89
ENDBRANCH  86  88
ENDBRANCH  78  84
ENDBRANCH  75  77
ENDBRANCH  74  75
ENDBRANCH  73  74
ENDBRANCH  72  73
ENDBRANCH   1  72
TORSDOF 20
ENDMDL
MODEL 3
REMARK VINA RESULT:     -10.6      5.044      8.608
REMARK SMILES O=C(OCCOCCOC(=O)[C@@H]1[C@H](C(=O)NCc2ccncc2)[C@H]2C=C[C@@H]1O2)c1ccc(-c2c3nc(c(-c4cc(S(=O)(=O)[O-])ccc4F)c4ccc([nH]4)c(-c4cc(S(=O)(=O)[O-])ccc4F)c4nc(c(-c5cc(S(=O)(=O)[O-])ccc5F)c5ccc2[nH]5)C=C4)C=C3)cc1
REMARK SMILES IDX 6 1 5 2 4 3 3 4 2 5 1 6 29 7 30 8 91 9 31 10 90 11 32 12
REMARK SMILES IDX 33 13 34 14 84 15 35 16 89 17 83 18 85 19 36 20 88 21 82 22
REMARK SMILES IDX 81 23 37 25 69 26 49 27 68 28 50 29 53 30 67 31 86 32 51 33
REMARK SMILES IDX 52 34 66 36 87 37 54 38 38 39 39 40 47 41 40 42 46 43 48 44
REMARK SMILES IDX 45 45 41 46 42 47 43 48 44 49 70 50 71 51 79 52 72 53 78 54
REMARK SMILES IDX 80 55 77 56 73 57 74 58 75 59 76 60 55 61 56 62 64 63 57 64
REMARK SMILES IDX 63 65 65 66 62 67 58 68 59 69 60 70 61 71 7 72 8 73 9 74
REMARK SMILES IDX 10 75 11 76 12 77 13 78 27 79 24 80 26 81 28 82 25 83 14 84
REMARK SMILES IDX 15 85 16 86 17 88 18 89 19 90 23 91 20 92 22 93 21 94
REMARK H PARENT 85 24 53 35 16 87
REMARK Flexibility Score: inf
ROOT
ATOM      1  O   UNL A   1      36.038  21.971  23.996  1.00  0.00    -0.374 OA
ENDROOT
BRANCH   1   2
ATOM      2  C   UNL A   1      37.279  21.673  24.648  1.00  0.00     0.202 C 
BRANCH   2   3
ATOM      3  C   UNL A   1      37.686  20.193  24.735  1.00  0.00     0.261 C 
BRANCH   3   4
ATOM      4  O   UNL A   1      38.510  19.922  25.880  1.00  0.00    -0.460 OA
BRANCH   4   5
ATOM      5  C   UNL A   1      39.818  20.243  26.042  1.00  0.00     0.338 C 
ATOM      6  O   UNL A   1      40.673  19.407  25.757  1.00  0.00    -0.246 OA
BRANCH   5   7
ATOM      7  C   UNL A   1      40.268  21.578  26.534  1.00  0.00     0.060 A 
ATOM      8  C   UNL A   1      39.824  22.795  26.022  1.00  0.00     0.016 A 
ATOM      9  C   UNL A   1      41.155  21.605  27.621  1.00  0.00     0.016 A 
ATOM     10  C   UNL A   1      40.309  23.998  26.483  1.00  0.00     0.010 A 
ATOM     11  C   UNL A   1      41.607  22.822  28.142  1.00  0.00     0.010 A 
ATOM     12  C   UNL A   1      41.196  24.021  27.551  1.00  0.00    -0.014 A 
BRANCH  12  13
ATOM     13  C   UNL A   1      41.730  25.342  27.904  1.00  0.00     0.031 A 
ATOM     14  C   UNL A   1      43.080  25.712  27.386  1.00  0.00     0.074 A 
ATOM     15  C   UNL A   1      40.899  26.244  28.459  1.00  0.00     0.049 A 
ATOM     16  N   UNL A   1      43.741  26.820  27.550  1.00  0.00    -0.248 NA
ATOM     17  C   UNL A   1      43.771  24.702  26.568  1.00  0.00     0.031 C 
ATOM     18  C   UNL A   1      39.518  25.958  28.854  1.00  0.00     0.029 A 
ATOM     19  N   UNL A   1      41.046  27.576  28.723  1.00  0.00    -0.354 N 
ATOM     20  C   UNL A   1      44.944  26.633  26.884  1.00  0.00     0.074 A 
ATOM     21  C   UNL A   1      44.925  25.303  26.322  1.00  0.00     0.031 C 
ATOM     22  C   UNL A   1      38.922  27.096  29.242  1.00  0.00     0.029 A 
ATOM     23  C   UNL A   1      39.915  28.160  29.249  1.00  0.00     0.049 A 
ATOM     24  H   UNL A   1      41.880  28.071  28.556  1.00  0.00     0.167 HD
ATOM     25  C   UNL A   1      45.968  27.511  26.773  1.00  0.00     0.034 A 
ATOM     26  C   UNL A   1      39.736  29.402  29.740  1.00  0.00     0.034 A 
ATOM     27  C   UNL A   1      45.928  28.820  27.371  1.00  0.00     0.049 A 
ATOM     28  C   UNL A   1      40.940  30.312  29.712  1.00  0.00     0.074 A 
ATOM     29  C   UNL A   1      46.929  29.770  27.445  1.00  0.00     0.029 A 
ATOM     30  N   UNL A   1      44.812  29.362  28.002  1.00  0.00    -0.354 N 
ATOM     31  N   UNL A   1      42.128  30.091  29.188  1.00  0.00    -0.248 NA
ATOM     32  C   UNL A   1      40.797  31.619  30.355  1.00  0.00     0.031 C 
ATOM     33  C   UNL A   1      46.437  30.857  28.175  1.00  0.00     0.029 A 
ATOM     34  C   UNL A   1      45.103  30.626  28.484  1.00  0.00     0.049 A 
ATOM     35  H   UNL A   1      43.941  28.912  28.093  1.00  0.00     0.167 HD
ATOM     36  C   UNL A   1      42.871  31.238  29.435  1.00  0.00     0.074 A 
ATOM     37  C   UNL A   1      41.978  32.163  30.109  1.00  0.00     0.031 C 
ATOM     38  C   UNL A   1      44.173  31.507  29.155  1.00  0.00     0.034 A 
BRANCH  25  39
ATOM     39  C   UNL A   1      47.211  27.019  26.082  1.00  0.00     0.023 A 
ATOM     40  C   UNL A   1      48.203  26.294  26.765  1.00  0.00     0.031 A 
ATOM     41  C   UNL A   1      47.450  27.365  24.741  1.00  0.00     0.131 A 
ATOM     42  C   UNL A   1      49.418  26.002  26.125  1.00  0.00     0.055 A 
ATOM     43  C   UNL A   1      48.627  26.999  24.085  1.00  0.00     0.041 A 
ATOM     44  F   UNL A   1      46.558  28.095  24.053  1.00  0.00    -0.206 F 
ATOM     45  C   UNL A   1      49.625  26.325  24.782  1.00  0.00     0.022 A 
BRANCH  42  46
ATOM     46  S   UNL A   1      50.781  25.330  27.116  1.00  0.00     0.124 S 
ATOM     47  O   UNL A   1      50.104  24.275  27.867  1.00  0.00    -0.237 OA
ATOM     48  O   UNL A   1      51.724  24.883  26.097  1.00  0.00    -0.237 OA
ATOM     49  O   UNL A   1      51.220  26.472  27.915  1.00  0.00    -0.744 OA
ENDBRANCH  42  46
ENDBRANCH  25  39
BRANCH  26  50
ATOM     50  C   UNL A   1      38.458  29.812  30.401  1.00  0.00     0.023 A 
ATOM     51  C   UNL A   1      37.463  30.520  29.706  1.00  0.00     0.031 A 
ATOM     52  C   UNL A   1      38.249  29.588  31.777  1.00  0.00     0.131 A 
ATOM     53  C   UNL A   1      36.353  31.036  30.397  1.00  0.00     0.055 A 
ATOM     54  C   UNL A   1      37.104  30.030  32.442  1.00  0.00     0.041 A 
ATOM     55  F   UNL A   1      39.169  28.941  32.511  1.00  0.00    -0.206 F 
ATOM     56  C   UNL A   1      36.157  30.780  31.755  1.00  0.00     0.022 A 
BRANCH  53  57
ATOM     57  S   UNL A   1      35.243  32.180  29.529  1.00  0.00     0.124 S 
ATOM     58  O   UNL A   1      34.429  32.692  30.626  1.00  0.00    -0.237 OA
ATOM     59  O   UNL A   1      36.184  33.123  28.935  1.00  0.00    -0.237 OA
ATOM     60  O   UNL A   1      34.539  31.320  28.580  1.00  0.00    -0.744 OA
ENDBRANCH  53  57
ENDBRANCH  26  50
BRANCH  38  61
ATOM     61  C   UNL A   1      44.668  32.874  29.549  1.00  0.00     0.023 A 
ATOM     62  C   UNL A   1      44.514  33.982  28.700  1.00  0.00     0.031 A 
ATOM     63  C   UNL A   1      45.330  33.059  30.775  1.00  0.00     0.131 A 
ATOM     64  C   UNL A   1      45.092  35.209  29.050  1.00  0.00     0.055 A 
ATOM     65  C   UNL A   1      45.828  34.303  31.156  1.00  0.00     0.041 A 
ATOM     66  F   UNL A   1      45.505  32.030  31.620  1.00  0.00    -0.206 F 
ATOM     67  C   UNL A   1      45.727  35.383  30.282  1.00  0.00     0.022 A 
BRANCH  64  68
ATOM     68  S   UNL A   1      45.120  36.533  27.813  1.00  0.00     0.124 S 
ATOM     69  O   UNL A   1      44.027  36.142  26.929  1.00  0.00    -0.237 OA
ATOM     70  O   UNL A   1      44.890  37.723  28.625  1.00  0.00    -0.237 OA
ATOM     71  O   UNL A   1      46.457  36.428  27.232  1.00  0.00    -0.744 OA
ENDBRANCH  64  68
ENDBRANCH  38  61
ENDBRANCH  12  13
ENDBRANCH   5   7
ENDBRANCH   4   5
ENDBRANCH   3   4
ENDBRANCH   2   3
ENDBRANCH   1   2
BRANCH   1  72
ATOM     72  C   UNL A   1      35.808  23.351  23.684  1.00  0.00     0.202 C 
BRANCH  72  73
ATOM     73  C   UNL A   1      34.327  23.685  23.767  1.00  0.00     0.261 C 
BRANCH  73  74
ATOM     74  O   UNL A   1      34.253  25.085  24.071  1.00  0.00    -0.463 OA
BRANCH  74  75
ATOM     75  C   UNL A   1      32.989  25.580  23.983  1.00  0.00     0.312 C 
ATOM     76  O   UNL A   1      32.311  25.544  22.981  1.00  0.00    -0.252 OA
BRANCH  75  77
ATOM     77  C   UNL A   1      32.626  26.323  25.219  1.00  0.00     0.147 C 
ATOM     78  C   UNL A   1      31.276  27.072  25.322  1.00  0.00     0.128 C 
ATOM     79  C   UNL A   1      33.634  27.471  25.303  1.00  0.00     0.157 C 
ATOM     80  C   UNL A   1      31.738  28.530  25.433  1.00  0.00     0.155 C 
ATOM     81  C   UNL A   1      33.598  28.057  26.680  1.00  0.00     0.004 C 
ATOM     82  O   UNL A   1      32.916  28.515  24.591  1.00  0.00    -0.365 OA
ATOM     83  C   UNL A   1      32.434  28.717  26.764  1.00  0.00     0.004 C 
BRANCH  78  84
ATOM     84  C   UNL A   1      30.045  26.861  24.447  1.00  0.00     0.227 C 
ATOM     85  O   UNL A   1      29.228  26.008  24.839  1.00  0.00    -0.275 OA
ATOM     86  N   UNL A   1      29.658  27.506  23.335  1.00  0.00    -0.352 N 
ATOM     87  H   UNL A   1      28.792  27.177  23.003  1.00  0.00     0.163 HD
BRANCH  86  88
ATOM     88  C   UNL A   1      30.194  28.566  22.497  1.00  0.00     0.151 C 
BRANCH  88  89
ATOM     89  C   UNL A   1      29.282  29.774  22.426  1.00  0.00    -0.026 A 
ATOM     90  C   UNL A   1      28.400  30.029  23.485  1.00  0.00     0.025 A 
ATOM     91  C   UNL A   1      29.305  30.692  21.373  1.00  0.00     0.025 A 
ATOM     92  C   UNL A   1      27.711  31.232  23.520  1.00  0.00     0.111 A 
ATOM     93  C   UNL A   1      28.552  31.852  21.489  1.00  0.00     0.111 A 
ATOM     94  N   UNL A   1      27.777  32.161  22.550  1.00  0.00    -0.265 NA
ENDBRANCH  88  89
ENDBRANCH  86  88
ENDBRANCH  78  84
ENDBRANCH  75  77
ENDBRANCH  74  75
ENDBRANCH  73  74
ENDBRANCH  72  73
ENDBRANCH   1  72
TORSDOF 20
ENDMDL
