MODEL 1
REMARK VINA RESULT:     -11.6      0.000      0.000
REMARK SMILES Cc1ccc(S(=O)(=O)n2cc(C(=O)C(=O)N[C@H](Cc3c[nH]c4ccccc34)C(=O)NCC(=O)OCCOCCOC(=O)c3ccc(-c4c5nc(c(-c6cc(S(=O)(=O)[O-])ccc6F)c6ccc([nH]6)c(-c6cc(S(=O)(=O)[O-])ccc6F)c6nc(c(-c7cc(S(=O)(=O)[O-])ccc7F)c7ccc4[nH]7)C=C6)C=C5)cc3)c3ccccc32)cc1
REMARK SMILES IDX 35 1 34 2 32 3 33 4 31 5 30 6 28 7 29 8 17 10 16 11 14 12
REMARK SMILES IDX 15 13 12 15 13 16 11 17 9 18 10 19 111 20 106 21 110 22
REMARK SMILES IDX 107 23 109 24 108 25 6 26 7 27 8 28 5 29 1 30 2 31 3 32
REMARK SMILES IDX 113 33 4 34 112 35 18 36 19 37 20 38 27 39 21 40 22 41 26 42
REMARK SMILES IDX 23 44 25 45 24 46 36 47 37 48 38 49 39 50 40 51 41 52 42 53
REMARK SMILES IDX 43 54 44 55 105 56 45 57 104 58 46 59 47 60 48 61 98 62
REMARK SMILES IDX 49 63 103 64 97 65 99 66 50 67 102 68 96 69 95 70 51 72
REMARK SMILES IDX 83 73 63 74 82 75 64 76 67 77 81 78 100 79 65 80 66 81 80 83
REMARK SMILES IDX 101 84 68 85 52 86 53 87 61 88 54 89 60 90 62 91 59 92 55 93
REMARK SMILES IDX 56 94 57 95 58 96 84 97 85 98 93 99 86 100 92 101 94 102
REMARK SMILES IDX 91 103 87 104 88 105 89 106 90 107 69 108 70 109 78 110
REMARK SMILES IDX 71 111 77 112 79 113 76 114 72 115 73 116 74 117 75 118
REMARK H PARENT 30 9 16 14 21 43 99 71 67 82
REMARK Flexibility Score: inf
ROOT
ATOM      1  C   UNL A   1      36.980  32.064  28.843  1.00  0.00     0.261 C 
ENDROOT
BRANCH   1   2
ATOM      2  O   UNL A   1      35.743  31.366  29.032  1.00  0.00    -0.462 OA
BRANCH   2   3
ATOM      3  C   UNL A   1      34.594  32.033  28.729  1.00  0.00     0.325 C 
ATOM      4  O   UNL A   1      34.097  32.954  29.317  1.00  0.00    -0.250 OA
BRANCH   3   5
ATOM      5  C   UNL A   1      33.921  31.390  27.527  1.00  0.00     0.238 C 
BRANCH   5   6
ATOM      6  N   UNL A   1      33.393  30.081  27.816  1.00  0.00    -0.343 N 
ATOM      7  C   UNL A   1      32.649  29.220  27.091  1.00  0.00     0.243 C 
ATOM      8  O   UNL A   1      32.266  28.241  27.743  1.00  0.00    -0.273 OA
ATOM      9  H   UNL A   1      33.620  29.750  28.715  1.00  0.00     0.164 HD
BRANCH   7  10
ATOM     10  C   UNL A   1      32.269  29.380  25.587  1.00  0.00     0.176 C 
BRANCH  10  11
ATOM     11  N   UNL A   1      33.382  29.272  24.561  1.00  0.00    -0.337 N 
ATOM     12  C   UNL A   1      33.917  28.393  23.623  1.00  0.00     0.293 C 
ATOM     13  O   UNL A   1      34.891  28.779  22.977  1.00  0.00    -0.265 OA
ATOM     14  H   UNL A   1      33.905  30.107  24.559  1.00  0.00     0.164 HD
BRANCH  12  15
ATOM     15  C   UNL A   1      33.349  27.010  23.320  1.00  0.00     0.252 C 
ATOM     16  O   UNL A   1      32.654  26.960  22.307  1.00  0.00    -0.283 OA
BRANCH  15  17
ATOM     17  C   UNL A   1      33.492  25.796  24.167  1.00  0.00     0.054 A 
ATOM     18  N   UNL A   1      32.737  24.342  25.741  1.00  0.00    -0.240 N 
ATOM     19  C   UNL A   1      33.464  25.562  25.555  1.00  0.00     0.117 A 
ATOM     20  C   UNL A   1      32.309  24.076  24.474  1.00  0.00     0.065 A 
ATOM     21  C   UNL A   1      33.355  24.481  23.657  1.00  0.00     0.012 A 
ATOM     22  C   UNL A   1      31.165  23.611  23.930  1.00  0.00     0.028 A 
ATOM     23  C   UNL A   1      33.598  23.764  22.483  1.00  0.00     0.011 A 
ATOM     24  C   UNL A   1      31.445  22.834  22.823  1.00  0.00     0.002 A 
ATOM     25  C   UNL A   1      32.684  22.777  22.178  1.00  0.00     0.001 A 
BRANCH  18  26
ATOM     26  S   UNL A   1      33.457  22.898  26.595  1.00  0.00     0.268 S 
ATOM     27  O   UNL A   1      32.452  22.610  27.601  1.00  0.00    -0.201 OA
ATOM     28  O   UNL A   1      34.790  23.370  26.935  1.00  0.00    -0.201 OA
BRANCH  26  29
ATOM     29  C   UNL A   1      33.626  21.414  25.533  1.00  0.00     0.088 A 
ATOM     30  C   UNL A   1      34.537  17.207  24.704  1.00  0.00     0.044 C 
ATOM     31  C   UNL A   1      34.155  18.667  24.751  1.00  0.00    -0.051 A 
ATOM     32  C   UNL A   1      35.156  19.617  24.726  1.00  0.00     0.005 A 
ATOM     33  C   UNL A   1      32.868  19.118  25.083  1.00  0.00     0.005 A 
ATOM     34  C   UNL A   1      34.875  20.924  25.201  1.00  0.00     0.022 A 
ATOM     35  C   UNL A   1      32.602  20.474  25.445  1.00  0.00     0.022 A 
ENDBRANCH  26  29
ENDBRANCH  18  26
ENDBRANCH  15  17
ENDBRANCH  12  15
ENDBRANCH  10  11
BRANCH  10  36
ATOM     36  C   UNL A   1      31.088  30.325  25.269  1.00  0.00     0.072 C 
BRANCH  36  37
ATOM     37  C   UNL A   1      30.176  30.042  24.080  1.00  0.00    -0.020 A 
ATOM     38  C   UNL A   1      30.020  28.755  23.590  1.00  0.00     0.087 A 
ATOM     39  C   UNL A   1      29.340  30.872  23.236  1.00  0.00     0.003 A 
ATOM     40  N   UNL A   1      29.261  28.786  22.456  1.00  0.00    -0.361 N 
ATOM     41  C   UNL A   1      28.861  30.069  22.195  1.00  0.00     0.046 A 
ATOM     42  C   UNL A   1      28.977  32.237  23.185  1.00  0.00     0.010 A 
ATOM     43  H   UNL A   1      29.035  28.001  21.907  1.00  0.00     0.166 HD
ATOM     44  C   UNL A   1      28.140  30.542  21.092  1.00  0.00     0.026 A 
ATOM     45  C   UNL A   1      28.251  32.737  22.087  1.00  0.00     0.001 A 
ATOM     46  C   UNL A   1      27.857  31.903  21.044  1.00  0.00     0.002 A 
ENDBRANCH  36  37
ENDBRANCH  10  36
ENDBRANCH   7  10
ENDBRANCH   5   6
ENDBRANCH   3   5
ENDBRANCH   2   3
ENDBRANCH   1   2
BRANCH   1  47
ATOM     47  C   UNL A   1      38.088  31.337  29.580  1.00  0.00     0.202 C 
BRANCH  47  48
ATOM     48  O   UNL A   1      37.619  30.032  29.921  1.00  0.00    -0.374 OA
BRANCH  48  49
ATOM     49  C   UNL A   1      38.127  28.961  29.142  1.00  0.00     0.202 C 
BRANCH  49  50
ATOM     50  C   UNL A   1      39.146  28.085  29.885  1.00  0.00     0.261 C 
BRANCH  50  51
ATOM     51  O   UNL A   1      40.454  28.693  29.882  1.00  0.00    -0.460 OA
BRANCH  51  52
ATOM     52  C   UNL A   1      41.277  28.262  28.885  1.00  0.00     0.338 C 
ATOM     53  O   UNL A   1      41.411  27.093  28.557  1.00  0.00    -0.246 OA
BRANCH  52  54
ATOM     54  C   UNL A   1      42.031  29.403  28.308  1.00  0.00     0.060 A 
ATOM     55  C   UNL A   1      42.579  29.322  27.016  1.00  0.00     0.016 A 
ATOM     56  C   UNL A   1      42.408  30.432  29.161  1.00  0.00     0.016 A 
ATOM     57  C   UNL A   1      43.625  30.176  26.646  1.00  0.00     0.010 A 
ATOM     58  C   UNL A   1      43.549  31.131  28.860  1.00  0.00     0.010 A 
ATOM     59  C   UNL A   1      44.171  31.014  27.608  1.00  0.00    -0.014 A 
BRANCH  59  60
ATOM     60  C   UNL A   1      45.446  31.748  27.507  1.00  0.00     0.031 A 
ATOM     61  C   UNL A   1      45.308  33.182  27.004  1.00  0.00     0.074 A 
ATOM     62  C   UNL A   1      46.409  31.200  28.303  1.00  0.00     0.049 A 
ATOM     63  N   UNL A   1      46.245  34.039  26.776  1.00  0.00    -0.248 NA
ATOM     64  C   UNL A   1      43.994  33.776  26.674  1.00  0.00     0.031 C 
ATOM     65  C   UNL A   1      47.399  31.790  29.187  1.00  0.00     0.029 A 
ATOM     66  N   UNL A   1      46.790  29.858  28.362  1.00  0.00    -0.354 N 
ATOM     67  C   UNL A   1      45.670  35.315  26.729  1.00  0.00     0.074 A 
ATOM     68  C   UNL A   1      44.255  35.084  26.632  1.00  0.00     0.031 C 
ATOM     69  C   UNL A   1      48.443  30.990  29.412  1.00  0.00     0.029 A 
ATOM     70  C   UNL A   1      48.178  29.807  28.663  1.00  0.00     0.049 A 
ATOM     71  H   UNL A   1      46.200  29.082  28.221  1.00  0.00     0.167 HD
ATOM     72  C   UNL A   1      46.416  36.456  26.900  1.00  0.00     0.034 A 
ATOM     73  C   UNL A   1      49.070  29.240  27.814  1.00  0.00     0.034 A 
ATOM     74  C   UNL A   1      47.910  36.105  26.870  1.00  0.00     0.049 A 
ATOM     75  C   UNL A   1      49.863  30.362  27.134  1.00  0.00     0.074 A 
ATOM     76  C   UNL A   1      49.029  36.283  27.672  1.00  0.00     0.029 A 
ATOM     77  N   UNL A   1      48.395  35.073  25.984  1.00  0.00    -0.354 N 
ATOM     78  N   UNL A   1      49.405  31.517  26.691  1.00  0.00    -0.248 NA
ATOM     79  C   UNL A   1      51.323  30.271  27.098  1.00  0.00     0.031 C 
ATOM     80  C   UNL A   1      50.009  35.297  27.469  1.00  0.00     0.029 A 
ATOM     81  C   UNL A   1      49.587  34.509  26.436  1.00  0.00     0.049 A 
ATOM     82  H   UNL A   1      47.938  34.800  25.156  1.00  0.00     0.167 HD
ATOM     83  C   UNL A   1      50.486  32.282  26.266  1.00  0.00     0.074 A 
ATOM     84  C   UNL A   1      51.652  31.462  26.581  1.00  0.00     0.031 C 
ATOM     85  C   UNL A   1      50.455  33.564  25.760  1.00  0.00     0.034 A 
BRANCH  72  86
ATOM     86  C   UNL A   1      45.632  37.845  27.206  1.00  0.00     0.023 A 
ATOM     87  C   UNL A   1      45.518  39.016  26.383  1.00  0.00     0.031 A 
ATOM     88  C   UNL A   1      45.042  38.072  28.472  1.00  0.00     0.131 A 
ATOM     89  C   UNL A   1      44.686  40.154  26.679  1.00  0.00     0.055 A 
ATOM     90  C   UNL A   1      44.374  39.273  28.849  1.00  0.00     0.041 A 
ATOM     91  F   UNL A   1      45.132  37.146  29.438  1.00  0.00    -0.206 F 
ATOM     92  C   UNL A   1      44.138  40.292  27.939  1.00  0.00     0.022 A 
BRANCH  89  93
ATOM     93  S   UNL A   1      44.295  41.526  25.487  1.00  0.00     0.124 S 
ATOM     94  O   UNL A   1      44.343  42.741  26.284  1.00  0.00    -0.237 OA
ATOM     95  O   UNL A   1      45.347  41.382  24.483  1.00  0.00    -0.237 OA
ATOM     96  O   UNL A   1      42.964  41.170  24.996  1.00  0.00    -0.744 OA
ENDBRANCH  89  93
ENDBRANCH  72  86
BRANCH  73  97
ATOM     97  C   UNL A   1      48.432  28.012  27.233  1.00  0.00     0.023 A 
ATOM     98  C   UNL A   1      48.045  28.116  25.862  1.00  0.00     0.031 A 
ATOM     99  C   UNL A   1      48.806  26.756  27.714  1.00  0.00     0.131 A 
ATOM    100  C   UNL A   1      48.373  27.076  24.976  1.00  0.00     0.055 A 
ATOM    101  C   UNL A   1      49.027  25.693  26.830  1.00  0.00     0.041 A 
ATOM    102  F   UNL A   1      49.151  26.596  28.997  1.00  0.00    -0.206 F 
ATOM    103  C   UNL A   1      48.879  25.870  25.452  1.00  0.00     0.022 A 
BRANCH 100 104
ATOM    104  S   UNL A   1      48.466  27.417  23.193  1.00  0.00     0.124 S 
ATOM    105  O   UNL A   1      48.483  26.074  22.619  1.00  0.00    -0.237 OA
ATOM    106  O   UNL A   1      47.231  28.168  22.987  1.00  0.00    -0.237 OA
ATOM    107  O   UNL A   1      49.696  28.183  23.040  1.00  0.00    -0.744 OA
ENDBRANCH 100 104
ENDBRANCH  73  97
BRANCH  85 108
ATOM    108  C   UNL A   1      51.612  34.226  24.996  1.00  0.00     0.023 A 
ATOM    109  C   UNL A   1      52.209  35.417  25.412  1.00  0.00     0.031 A 
ATOM    110  C   UNL A   1      52.189  33.631  23.834  1.00  0.00     0.131 A 
ATOM    111  C   UNL A   1      53.221  36.025  24.647  1.00  0.00     0.055 A 
ATOM    112  C   UNL A   1      53.209  34.223  23.090  1.00  0.00     0.041 A 
ATOM    113  F   UNL A   1      51.817  32.427  23.374  1.00  0.00    -0.206 F 
ATOM    114  C   UNL A   1      53.728  35.436  23.490  1.00  0.00     0.022 A 
BRANCH 111 115
ATOM    115  S   UNL A   1      53.869  37.617  25.203  1.00  0.00     0.124 S 
ATOM    116  O   UNL A   1      54.596  37.232  26.408  1.00  0.00    -0.237 OA
ATOM    117  O   UNL A   1      54.690  38.036  24.072  1.00  0.00    -0.237 OA
ATOM    118  O   UNL A   1      52.664  38.414  25.423  1.00  0.00    -0.744 OA
ENDBRANCH 111 115
ENDBRANCH  85 108
ENDBRANCH  59  60
ENDBRANCH  52  54
ENDBRANCH  51  52
ENDBRANCH  50  51
ENDBRANCH  49  50
ENDBRANCH  48  49
ENDBRANCH  47  48
ENDBRANCH   1  47
TORSDOF 26
ENDMDL
MODEL 2
REMARK VINA RESULT:     -11.3      4.988      6.463
REMARK SMILES Cc1ccc(S(=O)(=O)n2cc(C(=O)C(=O)N[C@H](Cc3c[nH]c4ccccc34)C(=O)NCC(=O)OCCOCCOC(=O)c3ccc(-c4c5nc(c(-c6cc(S(=O)(=O)[O-])ccc6F)c6ccc([nH]6)c(-c6cc(S(=O)(=O)[O-])ccc6F)c6nc(c(-c7cc(S(=O)(=O)[O-])ccc7F)c7ccc4[nH]7)C=C6)C=C5)cc3)c3ccccc32)cc1
REMARK SMILES IDX 35 1 34 2 32 3 33 4 31 5 30 6 28 7 29 8 17 10 16 11 14 12
REMARK SMILES IDX 15 13 12 15 13 16 11 17 9 18 10 19 111 20 106 21 110 22
REMARK SMILES IDX 107 23 109 24 108 25 6 26 7 27 8 28 5 29 1 30 2 31 3 32
REMARK SMILES IDX 113 33 4 34 112 35 18 36 19 37 20 38 27 39 21 40 22 41 26 42
REMARK SMILES IDX 23 44 25 45 24 46 36 47 37 48 38 49 39 50 40 51 41 52 42 53
REMARK SMILES IDX 43 54 44 55 105 56 45 57 104 58 46 59 47 60 48 61 98 62
REMARK SMILES IDX 49 63 103 64 97 65 99 66 50 67 102 68 96 69 95 70 51 72
REMARK SMILES IDX 83 73 63 74 82 75 64 76 67 77 81 78 100 79 65 80 66 81 80 83
REMARK SMILES IDX 101 84 68 85 52 86 53 87 61 88 54 89 60 90 62 91 59 92 55 93
REMARK SMILES IDX 56 94 57 95 58 96 84 97 85 98 93 99 86 100 92 101 94 102
REMARK SMILES IDX 91 103 87 104 88 105 89 106 90 107 69 108 70 109 78 110
REMARK SMILES IDX 71 111 77 112 79 113 76 114 72 115 73 116 74 117 75 118
REMARK H PARENT 30 9 16 14 21 43 99 71 67 82
REMARK Flexibility Score: inf
ROOT
ATOM      1  C   UNL A   1      36.692  32.083  28.605  1.00  0.00     0.261 C 
ENDROOT
BRANCH   1   2
ATOM      2  O   UNL A   1      35.366  31.641  28.920  1.00  0.00    -0.462 OA
BRANCH   2   3
ATOM      3  C   UNL A   1      34.330  32.442  28.540  1.00  0.00     0.325 C 
ATOM      4  O   UNL A   1      34.036  33.523  28.971  1.00  0.00    -0.250 OA
BRANCH   3   5
ATOM      5  C   UNL A   1      33.484  31.735  27.493  1.00  0.00     0.238 C 
BRANCH   5   6
ATOM      6  N   UNL A   1      33.322  30.329  27.762  1.00  0.00    -0.343 N 
ATOM      7  C   UNL A   1      32.800  29.318  27.037  1.00  0.00     0.243 C 
ATOM      8  O   UNL A   1      32.707  28.261  27.672  1.00  0.00    -0.273 OA
ATOM      9  H   UNL A   1      33.658  30.052  28.645  1.00  0.00     0.164 HD
BRANCH   7  10
ATOM     10  C   UNL A   1      32.340  29.402  25.549  1.00  0.00     0.176 C 
BRANCH  10  11
ATOM     11  N   UNL A   1      33.402  29.272  24.472  1.00  0.00    -0.337 N 
ATOM     12  C   UNL A   1      33.884  28.377  23.521  1.00  0.00     0.293 C 
ATOM     13  O   UNL A   1      34.828  28.747  22.823  1.00  0.00    -0.265 OA
ATOM     14  H   UNL A   1      33.928  30.103  24.433  1.00  0.00     0.164 HD
BRANCH  12  15
ATOM     15  C   UNL A   1      33.293  26.995  23.265  1.00  0.00     0.252 C 
ATOM     16  O   UNL A   1      32.548  26.936  22.289  1.00  0.00    -0.283 OA
BRANCH  15  17
ATOM     17  C   UNL A   1      33.471  25.791  24.120  1.00  0.00     0.054 A 
ATOM     18  N   UNL A   1      32.759  24.328  25.707  1.00  0.00    -0.240 N 
ATOM     19  C   UNL A   1      33.453  25.565  25.510  1.00  0.00     0.117 A 
ATOM     20  C   UNL A   1      32.334  24.042  24.443  1.00  0.00     0.065 A 
ATOM     21  C   UNL A   1      33.367  24.468  23.619  1.00  0.00     0.012 A 
ATOM     22  C   UNL A   1      31.202  23.543  23.906  1.00  0.00     0.028 A 
ATOM     23  C   UNL A   1      33.625  23.750  22.450  1.00  0.00     0.011 A 
ATOM     24  C   UNL A   1      31.499  22.767  22.803  1.00  0.00     0.002 A 
ATOM     25  C   UNL A   1      32.737  22.738  22.154  1.00  0.00     0.001 A 
BRANCH  18  26
ATOM     26  S   UNL A   1      33.519  22.909  26.568  1.00  0.00     0.268 S 
ATOM     27  O   UNL A   1      32.528  22.606  27.582  1.00  0.00    -0.201 OA
ATOM     28  O   UNL A   1      34.843  23.416  26.894  1.00  0.00    -0.201 OA
BRANCH  26  29
ATOM     29  C   UNL A   1      33.718  21.420  25.517  1.00  0.00     0.088 A 
ATOM     30  C   UNL A   1      34.713  17.227  24.720  1.00  0.00     0.044 C 
ATOM     31  C   UNL A   1      34.302  18.679  24.756  1.00  0.00    -0.051 A 
ATOM     32  C   UNL A   1      35.284  19.648  24.724  1.00  0.00     0.005 A 
ATOM     33  C   UNL A   1      33.007  19.107  25.084  1.00  0.00     0.005 A 
ATOM     34  C   UNL A   1      34.977  20.953  25.189  1.00  0.00     0.022 A 
ATOM     35  C   UNL A   1      32.713  20.460  25.436  1.00  0.00     0.022 A 
ENDBRANCH  26  29
ENDBRANCH  18  26
ENDBRANCH  15  17
ENDBRANCH  12  15
ENDBRANCH  10  11
BRANCH  10  36
ATOM     36  C   UNL A   1      31.122  30.306  25.252  1.00  0.00     0.072 C 
BRANCH  36  37
ATOM     37  C   UNL A   1      30.194  29.986  24.085  1.00  0.00    -0.020 A 
ATOM     38  C   UNL A   1      30.016  28.683  23.650  1.00  0.00     0.087 A 
ATOM     39  C   UNL A   1      29.360  30.793  23.215  1.00  0.00     0.003 A 
ATOM     40  N   UNL A   1      29.246  28.678  22.523  1.00  0.00    -0.361 N 
ATOM     41  C   UNL A   1      28.860  29.953  22.214  1.00  0.00     0.046 A 
ATOM     42  C   UNL A   1      29.016  32.159  23.111  1.00  0.00     0.010 A 
ATOM     43  H   UNL A   1      29.004  27.874  22.009  1.00  0.00     0.166 HD
ATOM     44  C   UNL A   1      28.135  30.391  21.099  1.00  0.00     0.026 A 
ATOM     45  C   UNL A   1      28.285  32.624  22.000  1.00  0.00     0.001 A 
ATOM     46  C   UNL A   1      27.869  31.752  20.997  1.00  0.00     0.002 A 
ENDBRANCH  36  37
ENDBRANCH  10  36
ENDBRANCH   7  10
ENDBRANCH   5   6
ENDBRANCH   3   5
ENDBRANCH   2   3
ENDBRANCH   1   2
BRANCH   1  47
ATOM     47  C   UNL A   1      37.668  31.517  29.618  1.00  0.00     0.202 C 
BRANCH  47  48
ATOM     48  O   UNL A   1      36.921  30.991  30.715  1.00  0.00    -0.374 OA
BRANCH  48  49
ATOM     49  C   UNL A   1      36.902  29.578  30.840  1.00  0.00     0.202 C 
BRANCH  49  50
ATOM     50  C   UNL A   1      37.620  29.059  32.094  1.00  0.00     0.261 C 
BRANCH  50  51
ATOM     51  O   UNL A   1      39.050  29.045  31.906  1.00  0.00    -0.460 OA
BRANCH  51  52
ATOM     52  C   UNL A   1      39.486  28.190  30.938  1.00  0.00     0.338 C 
ATOM     53  O   UNL A   1      38.881  27.194  30.574  1.00  0.00    -0.246 OA
BRANCH  52  54
ATOM     54  C   UNL A   1      40.823  28.607  30.446  1.00  0.00     0.060 A 
ATOM     55  C   UNL A   1      40.998  29.035  29.118  1.00  0.00     0.016 A 
ATOM     56  C   UNL A   1      41.927  28.313  31.234  1.00  0.00     0.016 A 
ATOM     57  C   UNL A   1      42.271  29.005  28.537  1.00  0.00     0.010 A 
ATOM     58  C   UNL A   1      43.130  28.109  30.606  1.00  0.00     0.010 A 
ATOM     59  C   UNL A   1      43.318  28.449  29.257  1.00  0.00    -0.014 A 
BRANCH  59  60
ATOM     60  C   UNL A   1      44.634  28.053  28.724  1.00  0.00     0.031 A 
ATOM     61  C   UNL A   1      45.744  29.072  28.965  1.00  0.00     0.074 A 
ATOM     62  C   UNL A   1      44.724  26.701  28.551  1.00  0.00     0.049 A 
ATOM     63  N   UNL A   1      46.974  29.016  28.577  1.00  0.00    -0.248 NA
ATOM     64  C   UNL A   1      45.505  30.335  29.696  1.00  0.00     0.031 C 
ATOM     65  C   UNL A   1      45.776  25.746  28.849  1.00  0.00     0.029 A 
ATOM     66  N   UNL A   1      43.819  25.876  27.881  1.00  0.00    -0.354 N 
ATOM     67  C   UNL A   1      47.715  29.924  29.343  1.00  0.00     0.074 A 
ATOM     68  C   UNL A   1      46.738  30.748  29.998  1.00  0.00     0.031 C 
ATOM     69  C   UNL A   1      45.693  24.631  28.120  1.00  0.00     0.029 A 
ATOM     70  C   UNL A   1      44.551  24.812  27.287  1.00  0.00     0.049 A 
ATOM     71  H   UNL A   1      42.845  26.007  27.830  1.00  0.00     0.167 HD
ATOM     72  C   UNL A   1      49.081  29.829  29.462  1.00  0.00     0.034 A 
ATOM     73  C   UNL A   1      44.561  24.618  25.945  1.00  0.00     0.034 A 
ATOM     74  C   UNL A   1      49.617  28.803  28.454  1.00  0.00     0.049 A 
ATOM     75  C   UNL A   1      45.924  25.067  25.408  1.00  0.00     0.074 A 
ATOM     76  C   UNL A   1      50.398  27.655  28.464  1.00  0.00     0.029 A 
ATOM     77  N   UNL A   1      49.015  28.687  27.146  1.00  0.00    -0.354 N 
ATOM     78  N   UNL A   1      46.625  26.124  25.773  1.00  0.00    -0.248 NA
ATOM     79  C   UNL A   1      46.657  24.173  24.511  1.00  0.00     0.031 C 
ATOM     80  C   UNL A   1      50.117  26.794  27.390  1.00  0.00     0.029 A 
ATOM     81  C   UNL A   1      49.213  27.426  26.585  1.00  0.00     0.049 A 
ATOM     82  H   UNL A   1      48.522  29.414  26.702  1.00  0.00     0.167 HD
ATOM     83  C   UNL A   1      47.854  26.078  25.124  1.00  0.00     0.074 A 
ATOM     84  C   UNL A   1      47.823  24.821  24.383  1.00  0.00     0.031 C 
ATOM     85  C   UNL A   1      48.897  26.972  25.244  1.00  0.00     0.034 A 
BRANCH  72  86
ATOM     86  C   UNL A   1      49.807  30.669  30.647  1.00  0.00     0.023 A 
ATOM     87  C   UNL A   1      49.781  30.436  32.064  1.00  0.00     0.031 A 
ATOM     88  C   UNL A   1      50.492  31.874  30.358  1.00  0.00     0.131 A 
ATOM     89  C   UNL A   1      50.568  31.155  33.032  1.00  0.00     0.055 A 
ATOM     90  C   UNL A   1      51.119  32.701  31.333  1.00  0.00     0.041 A 
ATOM     91  F   UNL A   1      50.540  32.340  29.101  1.00  0.00    -0.206 F 
ATOM     92  C   UNL A   1      51.215  32.316  32.661  1.00  0.00     0.022 A 
BRANCH  89  93
ATOM     93  S   UNL A   1      50.774  30.664  34.814  1.00  0.00     0.124 S 
ATOM     94  O   UNL A   1      52.210  30.616  35.027  1.00  0.00    -0.237 OA
ATOM     95  O   UNL A   1      50.061  31.728  35.519  1.00  0.00    -0.237 OA
ATOM     96  O   UNL A   1      50.102  29.365  34.879  1.00  0.00    -0.744 OA
ENDBRANCH  89  93
ENDBRANCH  72  86
BRANCH  73  97
ATOM     97  C   UNL A   1      43.177  24.891  25.433  1.00  0.00     0.023 A 
ATOM     98  C   UNL A   1      42.202  23.896  25.748  1.00  0.00     0.031 A 
ATOM     99  C   UNL A   1      42.746  26.213  25.305  1.00  0.00     0.131 A 
ATOM    100  C   UNL A   1      40.952  24.295  26.250  1.00  0.00     0.055 A 
ATOM    101  C   UNL A   1      41.457  26.582  25.709  1.00  0.00     0.041 A 
ATOM    102  F   UNL A   1      43.612  27.182  24.984  1.00  0.00    -0.206 F 
ATOM    103  C   UNL A   1      40.582  25.637  26.248  1.00  0.00     0.022 A 
BRANCH 100 104
ATOM    104  S   UNL A   1      39.959  23.118  27.215  1.00  0.00     0.124 S 
ATOM    105  O   UNL A   1      40.814  22.863  28.371  1.00  0.00    -0.237 OA
ATOM    106  O   UNL A   1      38.765  23.914  27.485  1.00  0.00    -0.237 OA
ATOM    107  O   UNL A   1      39.768  21.990  26.313  1.00  0.00    -0.744 OA
ENDBRANCH 100 104
ENDBRANCH  73  97
BRANCH  85 108
ATOM    108  C   UNL A   1      50.079  27.068  24.267  1.00  0.00     0.023 A 
ATOM    109  C   UNL A   1      51.373  26.667  24.603  1.00  0.00     0.031 A 
ATOM    110  C   UNL A   1      49.914  27.529  22.926  1.00  0.00     0.131 A 
ATOM    111  C   UNL A   1      52.439  26.835  23.702  1.00  0.00     0.055 A 
ATOM    112  C   UNL A   1      50.969  27.672  22.024  1.00  0.00     0.041 A 
ATOM    113  F   UNL A   1      48.716  27.834  22.405  1.00  0.00    -0.206 F 
ATOM    114  C   UNL A   1      52.247  27.332  22.413  1.00  0.00     0.022 A 
BRANCH 111 115
ATOM    115  S   UNL A   1      54.099  26.384  24.252  1.00  0.00     0.124 S 
ATOM    116  O   UNL A   1      54.258  27.233  25.428  1.00  0.00    -0.237 OA
ATOM    117  O   UNL A   1      53.969  24.955  24.512  1.00  0.00    -0.237 OA
ATOM    118  O   UNL A   1      54.940  26.732  23.109  1.00  0.00    -0.744 OA
ENDBRANCH 111 115
ENDBRANCH  85 108
ENDBRANCH  59  60
ENDBRANCH  52  54
ENDBRANCH  51  52
ENDBRANCH  50  51
ENDBRANCH  49  50
ENDBRANCH  48  49
ENDBRANCH  47  48
ENDBRANCH   1  47
TORSDOF 26
ENDMDL
MODEL 3
REMARK VINA RESULT:     -10.7      4.862     10.171
REMARK SMILES Cc1ccc(S(=O)(=O)n2cc(C(=O)C(=O)N[C@H](Cc3c[nH]c4ccccc34)C(=O)NCC(=O)OCCOCCOC(=O)c3ccc(-c4c5nc(c(-c6cc(S(=O)(=O)[O-])ccc6F)c6ccc([nH]6)c(-c6cc(S(=O)(=O)[O-])ccc6F)c6nc(c(-c7cc(S(=O)(=O)[O-])ccc7F)c7ccc4[nH]7)C=C6)C=C5)cc3)c3ccccc32)cc1
REMARK SMILES IDX 35 1 34 2 32 3 33 4 31 5 30 6 28 7 29 8 17 10 16 11 14 12
REMARK SMILES IDX 15 13 12 15 13 16 11 17 9 18 10 19 111 20 106 21 110 22
REMARK SMILES IDX 107 23 109 24 108 25 6 26 7 27 8 28 5 29 1 30 2 31 3 32
REMARK SMILES IDX 113 33 4 34 112 35 18 36 19 37 20 38 27 39 21 40 22 41 26 42
REMARK SMILES IDX 23 44 25 45 24 46 36 47 37 48 38 49 39 50 40 51 41 52 42 53
REMARK SMILES IDX 43 54 44 55 105 56 45 57 104 58 46 59 47 60 48 61 98 62
REMARK SMILES IDX 49 63 103 64 97 65 99 66 50 67 102 68 96 69 95 70 51 72
REMARK SMILES IDX 83 73 63 74 82 75 64 76 67 77 81 78 100 79 65 80 66 81 80 83
REMARK SMILES IDX 101 84 68 85 52 86 53 87 61 88 54 89 60 90 62 91 59 92 55 93
REMARK SMILES IDX 56 94 57 95 58 96 84 97 85 98 93 99 86 100 92 101 94 102
REMARK SMILES IDX 91 103 87 104 88 105 89 106 90 107 69 108 70 109 78 110
REMARK SMILES IDX 71 111 77 112 79 113 76 114 72 115 73 116 74 117 75 118
REMARK H PARENT 30 9 16 14 21 43 99 71 67 82
REMARK Flexibility Score: inf
ROOT
ATOM      1  C   UNL A   1      33.008  27.534  26.365  1.00  0.00     0.261 C 
ENDROOT
BRANCH   1   2
ATOM      2  O   UNL A   1      32.627  27.867  25.024  1.00  0.00    -0.462 OA
BRANCH   2   3
ATOM      3  C   UNL A   1      32.355  26.834  24.175  1.00  0.00     0.325 C 
ATOM      4  O   UNL A   1      31.343  26.197  24.087  1.00  0.00    -0.250 OA
BRANCH   3   5
ATOM      5  C   UNL A   1      33.588  26.504  23.347  1.00  0.00     0.238 C 
BRANCH   5   6
ATOM      6  N   UNL A   1      33.420  25.322  22.542  1.00  0.00    -0.343 N 
ATOM      7  C   UNL A   1      33.795  24.039  22.720  1.00  0.00     0.243 C 
ATOM      8  O   UNL A   1      33.593  23.330  21.726  1.00  0.00    -0.273 OA
ATOM      9  H   UNL A   1      32.938  25.481  21.698  1.00  0.00     0.164 HD
BRANCH   7  10
ATOM     10  C   UNL A   1      34.424  23.441  24.016  1.00  0.00     0.176 C 
BRANCH  10  11
ATOM     11  N   UNL A   1      35.700  22.632  23.874  1.00  0.00    -0.337 N 
ATOM     12  C   UNL A   1      36.932  22.426  24.488  1.00  0.00     0.293 C 
ATOM     13  O   UNL A   1      37.691  21.605  23.972  1.00  0.00    -0.265 OA
ATOM     14  H   UNL A   1      35.634  22.058  23.077  1.00  0.00     0.164 HD
BRANCH  12  15
ATOM     15  C   UNL A   1      37.379  23.117  25.772  1.00  0.00     0.252 C 
ATOM     16  O   UNL A   1      36.563  23.917  26.226  1.00  0.00    -0.283 OA
BRANCH  15  17
ATOM     17  C   UNL A   1      38.702  22.970  26.435  1.00  0.00     0.054 A 
ATOM     18  N   UNL A   1      40.974  22.908  26.399  1.00  0.00    -0.240 N 
ATOM     19  C   UNL A   1      39.797  22.104  26.254  1.00  0.00     0.117 A 
ATOM     20  C   UNL A   1      40.444  24.160  26.508  1.00  0.00     0.065 A 
ATOM     21  C   UNL A   1      39.277  23.986  27.240  1.00  0.00     0.012 A 
ATOM     22  C   UNL A   1      40.771  25.380  26.034  1.00  0.00     0.028 A 
ATOM     23  C   UNL A   1      38.883  25.000  28.115  1.00  0.00     0.011 A 
ATOM     24  C   UNL A   1      40.449  26.353  26.960  1.00  0.00     0.002 A 
ATOM     25  C   UNL A   1      39.639  26.154  28.082  1.00  0.00     0.001 A 
BRANCH  18  26
ATOM     26  S   UNL A   1      42.260  22.541  27.640  1.00  0.00     0.268 S 
ATOM     27  O   UNL A   1      42.271  21.091  27.642  1.00  0.00    -0.201 OA
ATOM     28  O   UNL A   1      41.819  23.321  28.786  1.00  0.00    -0.201 OA
BRANCH  26  29
ATOM     29  C   UNL A   1      43.936  23.112  27.167  1.00  0.00     0.088 A 
ATOM     30  C   UNL A   1      47.037  26.113  26.394  1.00  0.00     0.044 C 
ATOM     31  C   UNL A   1      46.147  24.913  26.616  1.00  0.00    -0.051 A 
ATOM     32  C   UNL A   1      45.266  24.547  25.618  1.00  0.00     0.005 A 
ATOM     33  C   UNL A   1      45.969  24.304  27.867  1.00  0.00     0.005 A 
ATOM     34  C   UNL A   1      44.150  23.737  25.952  1.00  0.00     0.022 A 
ATOM     35  C   UNL A   1      44.896  23.400  28.134  1.00  0.00     0.022 A 
ENDBRANCH  26  29
ENDBRANCH  18  26
ENDBRANCH  15  17
ENDBRANCH  12  15
ENDBRANCH  10  11
BRANCH  10  36
ATOM     36  C   UNL A   1      33.442  23.044  25.142  1.00  0.00     0.072 C 
BRANCH  36  37
ATOM     37  C   UNL A   1      33.201  21.574  25.468  1.00  0.00    -0.020 A 
ATOM     38  C   UNL A   1      33.352  21.095  26.760  1.00  0.00     0.087 A 
ATOM     39  C   UNL A   1      32.815  20.420  24.680  1.00  0.00     0.003 A 
ATOM     40  N   UNL A   1      33.207  19.738  26.765  1.00  0.00    -0.361 N 
ATOM     41  C   UNL A   1      32.913  19.294  25.504  1.00  0.00     0.046 A 
ATOM     42  C   UNL A   1      32.453  20.178  23.335  1.00  0.00     0.010 A 
ATOM     43  H   UNL A   1      33.300  19.163  27.559  1.00  0.00     0.166 HD
ATOM     44  C   UNL A   1      32.766  17.972  25.065  1.00  0.00     0.026 A 
ATOM     45  C   UNL A   1      32.297  18.857  22.871  1.00  0.00     0.001 A 
ATOM     46  C   UNL A   1      32.473  17.769  23.721  1.00  0.00     0.002 A 
ENDBRANCH  36  37
ENDBRANCH  10  36
ENDBRANCH   7  10
ENDBRANCH   5   6
ENDBRANCH   3   5
ENDBRANCH   2   3
ENDBRANCH   1   2
BRANCH   1  47
ATOM     47  C   UNL A   1      32.962  28.782  27.225  1.00  0.00     0.202 C 
BRANCH  47  48
ATOM     48  O   UNL A   1      34.265  29.005  27.762  1.00  0.00    -0.374 OA
BRANCH  48  49
ATOM     49  C   UNL A   1      34.699  30.355  27.815  1.00  0.00     0.202 C 
BRANCH  49  50
ATOM     50  C   UNL A   1      36.224  30.517  27.752  1.00  0.00     0.261 C 
BRANCH  50  51
ATOM     51  O   UNL A   1      36.851  30.003  28.945  1.00  0.00    -0.460 OA
BRANCH  51  52
ATOM     52  C   UNL A   1      37.383  30.956  29.761  1.00  0.00     0.338 C 
ATOM     53  O   UNL A   1      36.905  32.067  29.927  1.00  0.00    -0.246 OA
BRANCH  52  54
ATOM     54  C   UNL A   1      38.652  30.473  30.360  1.00  0.00     0.060 A 
ATOM     55  C   UNL A   1      39.558  31.374  30.947  1.00  0.00     0.016 A 
ATOM     56  C   UNL A   1      39.043  29.168  30.092  1.00  0.00     0.016 A 
ATOM     57  C   UNL A   1      40.900  31.009  31.108  1.00  0.00     0.010 A 
ATOM     58  C   UNL A   1      40.386  28.888  30.079  1.00  0.00     0.010 A 
ATOM     59  C   UNL A   1      41.328  29.799  30.582  1.00  0.00    -0.014 A 
BRANCH  59  60
ATOM     60  C   UNL A   1      42.727  29.378  30.379  1.00  0.00     0.031 A 
ATOM     61  C   UNL A   1      43.310  28.557  31.526  1.00  0.00     0.074 A 
ATOM     62  C   UNL A   1      43.070  29.383  29.058  1.00  0.00     0.049 A 
ATOM     63  N   UNL A   1      44.509  28.096  31.645  1.00  0.00    -0.248 NA
ATOM     64  C   UNL A   1      42.515  28.203  32.722  1.00  0.00     0.031 C 
ATOM     65  C   UNL A   1      43.817  28.446  28.239  1.00  0.00     0.029 A 
ATOM     66  N   UNL A   1      42.888  30.424  28.145  1.00  0.00    -0.354 N 
ATOM     67  C   UNL A   1      44.494  27.086  32.615  1.00  0.00     0.074 A 
ATOM     68  C   UNL A   1      43.229  27.225  33.281  1.00  0.00     0.031 C 
ATOM     69  C   UNL A   1      44.343  29.007  27.148  1.00  0.00     0.029 A 
ATOM     70  C   UNL A   1      43.955  30.377  27.206  1.00  0.00     0.049 A 
ATOM     71  H   UNL A   1      42.150  31.075  28.149  1.00  0.00     0.167 HD
ATOM     72  C   UNL A   1      45.489  26.140  32.695  1.00  0.00     0.034 A 
ATOM     73  C   UNL A   1      44.821  31.410  27.061  1.00  0.00     0.034 A 
ATOM     74  C   UNL A   1      46.656  26.541  31.782  1.00  0.00     0.049 A 
ATOM     75  C   UNL A   1      46.154  31.010  27.702  1.00  0.00     0.074 A 
ATOM     76  C   UNL A   1      47.395  25.985  30.746  1.00  0.00     0.029 A 
ATOM     77  N   UNL A   1      47.017  27.931  31.634  1.00  0.00    -0.354 N 
ATOM     78  N   UNL A   1      46.339  30.347  28.829  1.00  0.00    -0.248 NA
ATOM     79  C   UNL A   1      47.389  31.208  26.943  1.00  0.00     0.031 C 
ATOM     80  C   UNL A   1      47.952  26.953  29.893  1.00  0.00     0.029 A 
ATOM     81  C   UNL A   1      47.675  28.178  30.429  1.00  0.00     0.049 A 
ATOM     82  H   UNL A   1      46.823  28.624  32.305  1.00  0.00     0.167 HD
ATOM     83  C   UNL A   1      47.699  30.090  28.966  1.00  0.00     0.074 A 
ATOM     84  C   UNL A   1      48.290  30.620  27.741  1.00  0.00     0.031 C 
ATOM     85  C   UNL A   1      48.320  29.398  29.984  1.00  0.00     0.034 A 
BRANCH  72  86
ATOM     86  C   UNL A   1      45.210  24.809  33.581  1.00  0.00     0.023 A 
ATOM     87  C   UNL A   1      45.795  24.419  34.834  1.00  0.00     0.031 A 
ATOM     88  C   UNL A   1      44.375  23.779  33.086  1.00  0.00     0.131 A 
ATOM     89  C   UNL A   1      45.386  23.282  35.617  1.00  0.00     0.055 A 
ATOM     90  C   UNL A   1      44.106  22.557  33.768  1.00  0.00     0.041 A 
ATOM     91  F   UNL A   1      43.812  23.887  31.873  1.00  0.00    -0.206 F 
ATOM     92  C   UNL A   1      44.557  22.330  35.059  1.00  0.00     0.022 A 
BRANCH  89  93
ATOM     93  S   UNL A   1      45.918  22.947  37.366  1.00  0.00     0.124 S 
ATOM     94  O   UNL A   1      45.108  23.835  38.182  1.00  0.00    -0.237 OA
ATOM     95  O   UNL A   1      45.643  21.519  37.512  1.00  0.00    -0.237 OA
ATOM     96  O   UNL A   1      47.346  23.270  37.346  1.00  0.00    -0.744 OA
ENDBRANCH  89  93
ENDBRANCH  72  86
BRANCH  73  97
ATOM     97  C   UNL A   1      44.035  32.684  27.168  1.00  0.00     0.023 A 
ATOM     98  C   UNL A   1      44.150  33.368  28.417  1.00  0.00     0.031 A 
ATOM     99  C   UNL A   1      43.814  33.448  26.021  1.00  0.00     0.131 A 
ATOM    100  C   UNL A   1      44.383  34.754  28.420  1.00  0.00     0.055 A 
ATOM    101  C   UNL A   1      43.944  34.842  26.059  1.00  0.00     0.041 A 
ATOM    102  F   UNL A   1      43.672  32.857  24.828  1.00  0.00    -0.206 F 
ATOM    103  C   UNL A   1      44.298  35.492  27.243  1.00  0.00     0.022 A 
BRANCH 100 104
ATOM    104  S   UNL A   1      45.132  35.530  29.883  1.00  0.00     0.124 S 
ATOM    105  O   UNL A   1      44.011  36.277  30.449  1.00  0.00    -0.237 OA
ATOM    106  O   UNL A   1      45.544  34.354  30.644  1.00  0.00    -0.237 OA
ATOM    107  O   UNL A   1      46.217  36.338  29.343  1.00  0.00    -0.744 OA
ENDBRANCH 100 104
ENDBRANCH  73  97
BRANCH  85 108
ATOM    108  C   UNL A   1      49.830  29.435  30.266  1.00  0.00     0.023 A 
ATOM    109  C   UNL A   1      50.360  29.817  31.500  1.00  0.00     0.031 A 
ATOM    110  C   UNL A   1      50.791  29.028  29.293  1.00  0.00     0.131 A 
ATOM    111  C   UNL A   1      51.750  29.902  31.695  1.00  0.00     0.055 A 
ATOM    112  C   UNL A   1      52.169  29.089  29.496  1.00  0.00     0.041 A 
ATOM    113  F   UNL A   1      50.446  28.517  28.101  1.00  0.00    -0.206 F 
ATOM    114  C   UNL A   1      52.659  29.539  30.704  1.00  0.00     0.022 A 
BRANCH 111 115
ATOM    115  S   UNL A   1      52.351  30.501  33.289  1.00  0.00     0.124 S 
ATOM    116  O   UNL A   1      53.739  30.050  33.267  1.00  0.00    -0.237 OA
ATOM    117  O   UNL A   1      52.150  31.942  33.182  1.00  0.00    -0.237 OA
ATOM    118  O   UNL A   1      51.486  29.825  34.253  1.00  0.00    -0.744 OA
ENDBRANCH 111 115
ENDBRANCH  85 108
ENDBRANCH  59  60
ENDBRANCH  52  54
ENDBRANCH  51  52
ENDBRANCH  50  51
ENDBRANCH  49  50
ENDBRANCH  48  49
ENDBRANCH  47  48
ENDBRANCH   1  47
TORSDOF 26
ENDMDL
