MODEL 1
REMARK VINA RESULT:     -12.2      0.000      0.000
REMARK SMILES O=C(OCCOCCOC(=O)[C@H](c1c[nH]c2ccc(Cl)cc12)[NH+]1CCN(c2cccc(Cl)c2)CC1)c1ccc(-c2c3nc(c(-c4cc(S(=O)(=O)[O-])ccc4F)c4ccc([nH]4)c(-c4cc(S(=O)(=O)[O-])ccc4F)c4nc(c(-c5cc(S(=O)(=O)[O-])ccc5F)c5ccc2[nH]5)C=C4)C=C3)cc1
REMARK SMILES IDX 5 1 4 2 3 3 2 4 1 5 36 6 37 7 98 8 38 9 97 10 39 11 40 12
REMARK SMILES IDX 41 13 91 14 42 15 96 16 90 17 92 18 43 19 95 20 89 21 88 22
REMARK SMILES IDX 44 24 76 25 56 26 75 27 57 28 60 29 74 30 93 31 58 32 59 33
REMARK SMILES IDX 73 35 94 36 61 37 45 38 46 39 54 40 47 41 53 42 55 43 52 44
REMARK SMILES IDX 48 45 49 46 50 47 51 48 77 49 78 50 86 51 79 52 85 53 87 54
REMARK SMILES IDX 84 55 80 56 81 57 82 58 83 59 62 60 63 61 71 62 64 63 70 64
REMARK SMILES IDX 72 65 69 66 65 67 66 68 67 69 68 70 6 71 7 72 8 73 9 74
REMARK SMILES IDX 10 75 11 76 12 77 23 78 24 79 35 80 25 82 34 83 26 84 27 85
REMARK SMILES IDX 28 86 33 87 29 88 31 89 30 90 32 91 13 92 14 93 22 94 15 95
REMARK SMILES IDX 16 96 21 97 17 99 19 100 18 101 20 102
REMARK H PARENT 92 23 60 34 23 81 15 98
REMARK Flexibility Score: inf
ROOT
ATOM      1  C   UNL A   1      31.663  28.596  25.918  1.00  0.00     0.202 C 
ENDROOT
BRANCH   1   2
ATOM      2  C   UNL A   1      31.585  30.104  25.702  1.00  0.00     0.261 C 
BRANCH   2   3
ATOM      3  O   UNL A   1      32.886  30.689  25.831  1.00  0.00    -0.460 OA
BRANCH   3   4
ATOM      4  C   UNL A   1      33.316  31.398  26.901  1.00  0.00     0.338 C 
ATOM      5  O   UNL A   1      32.689  32.390  27.263  1.00  0.00    -0.246 OA
BRANCH   4   6
ATOM      6  C   UNL A   1      34.567  31.029  27.621  1.00  0.00     0.060 A 
ATOM      7  C   UNL A   1      35.532  31.960  28.007  1.00  0.00     0.016 A 
ATOM      8  C   UNL A   1      34.735  29.696  28.015  1.00  0.00     0.016 A 
ATOM      9  C   UNL A   1      36.664  31.598  28.699  1.00  0.00     0.010 A 
ATOM     10  C   UNL A   1      35.846  29.326  28.776  1.00  0.00     0.010 A 
ATOM     11  C   UNL A   1      36.805  30.286  29.122  1.00  0.00    -0.014 A 
BRANCH  11  12
ATOM     12  C   UNL A   1      38.008  29.971  29.897  1.00  0.00     0.031 A 
ATOM     13  C   UNL A   1      39.080  29.168  29.245  1.00  0.00     0.074 A 
ATOM     14  C   UNL A   1      38.167  30.553  31.100  1.00  0.00     0.049 A 
ATOM     15  N   UNL A   1      40.176  28.687  29.759  1.00  0.00    -0.248 NA
ATOM     16  C   UNL A   1      38.895  28.876  27.814  1.00  0.00     0.031 C 
ATOM     17  C   UNL A   1      37.221  31.496  31.709  1.00  0.00     0.029 A 
ATOM     18  N   UNL A   1      39.186  30.478  32.005  1.00  0.00    -0.354 N 
ATOM     19  C   UNL A   1      40.797  27.998  28.726  1.00  0.00     0.074 A 
ATOM     20  C   UNL A   1      39.959  28.133  27.554  1.00  0.00     0.031 C 
ATOM     21  C   UNL A   1      37.723  31.931  32.875  1.00  0.00     0.029 A 
ATOM     22  C   UNL A   1      38.967  31.220  33.141  1.00  0.00     0.049 A 
ATOM     23  H   UNL A   1      40.001  29.943  31.858  1.00  0.00     0.167 HD
ATOM     24  C   UNL A   1      41.953  27.296  28.782  1.00  0.00     0.034 A 
ATOM     25  C   UNL A   1      39.670  31.264  34.287  1.00  0.00     0.034 A 
ATOM     26  C   UNL A   1      42.722  27.181  29.996  1.00  0.00     0.049 A 
ATOM     27  C   UNL A   1      40.890  30.384  34.366  1.00  0.00     0.074 A 
ATOM     28  C   UNL A   1      43.836  26.407  30.255  1.00  0.00     0.029 A 
ATOM     29  N   UNL A   1      42.438  27.879  31.170  1.00  0.00    -0.354 N 
ATOM     30  N   UNL A   1      41.408  29.611  33.435  1.00  0.00    -0.248 NA
ATOM     31  C   UNL A   1      41.605  30.357  35.644  1.00  0.00     0.031 C 
ATOM     32  C   UNL A   1      44.193  26.597  31.597  1.00  0.00     0.029 A 
ATOM     33  C   UNL A   1      43.343  27.540  32.160  1.00  0.00     0.049 A 
ATOM     34  H   UNL A   1      41.700  28.520  31.278  1.00  0.00     0.167 HD
ATOM     35  C   UNL A   1      42.514  29.005  34.015  1.00  0.00     0.074 A 
ATOM     36  C   UNL A   1      42.602  29.530  35.367  1.00  0.00     0.031 C 
ATOM     37  C   UNL A   1      43.374  28.090  33.496  1.00  0.00     0.034 A 
BRANCH  24  38
ATOM     38  C   UNL A   1      42.330  26.520  27.546  1.00  0.00     0.023 A 
ATOM     39  C   UNL A   1      42.083  25.141  27.427  1.00  0.00     0.031 A 
ATOM     40  C   UNL A   1      43.074  27.145  26.530  1.00  0.00     0.131 A 
ATOM     41  C   UNL A   1      42.651  24.417  26.365  1.00  0.00     0.055 A 
ATOM     42  C   UNL A   1      43.567  26.435  25.434  1.00  0.00     0.041 A 
ATOM     43  F   UNL A   1      43.374  28.452  26.607  1.00  0.00    -0.206 F 
ATOM     44  C   UNL A   1      43.373  25.059  25.356  1.00  0.00     0.022 A 
BRANCH  41  45
ATOM     45  S   UNL A   1      42.582  22.604  26.411  1.00  0.00     0.124 S 
ATOM     46  O   UNL A   1      41.296  22.376  27.065  1.00  0.00    -0.237 OA
ATOM     47  O   UNL A   1      42.653  22.248  24.999  1.00  0.00    -0.237 OA
ATOM     48  O   UNL A   1      43.751  22.236  27.207  1.00  0.00    -0.744 OA
ENDBRANCH  41  45
ENDBRANCH  24  38
BRANCH  25  49
ATOM     49  C   UNL A   1      39.190  32.064  35.453  1.00  0.00     0.023 A 
ATOM     50  C   UNL A   1      38.523  31.462  36.531  1.00  0.00     0.031 A 
ATOM     51  C   UNL A   1      39.367  33.462  35.492  1.00  0.00     0.131 A 
ATOM     52  C   UNL A   1      38.030  32.256  37.582  1.00  0.00     0.055 A 
ATOM     53  C   UNL A   1      38.926  34.238  36.565  1.00  0.00     0.041 A 
ATOM     54  F   UNL A   1      39.990  34.098  34.486  1.00  0.00    -0.206 F 
ATOM     55  C   UNL A   1      38.242  33.636  37.613  1.00  0.00     0.022 A 
BRANCH  52  56
ATOM     56  S   UNL A   1      37.028  31.469  38.873  1.00  0.00     0.124 S 
ATOM     57  O   UNL A   1      37.894  31.592  40.040  1.00  0.00    -0.237 OA
ATOM     58  O   UNL A   1      35.829  32.300  38.875  1.00  0.00    -0.237 OA
ATOM     59  O   UNL A   1      36.840  30.108  38.376  1.00  0.00    -0.744 OA
ENDBRANCH  52  56
ENDBRANCH  25  49
BRANCH  37  60
ATOM     60  C   UNL A   1      44.485  27.644  34.405  1.00  0.00     0.023 A 
ATOM     61  C   UNL A   1      44.330  26.539  35.258  1.00  0.00     0.031 A 
ATOM     62  C   UNL A   1      45.703  28.344  34.424  1.00  0.00     0.131 A 
ATOM     63  C   UNL A   1      45.363  26.198  36.141  1.00  0.00     0.055 A 
ATOM     64  C   UNL A   1      46.747  27.963  35.264  1.00  0.00     0.041 A 
ATOM     65  F   UNL A   1      45.893  29.406  33.624  1.00  0.00    -0.206 F 
ATOM     66  C   UNL A   1      46.576  26.893  36.138  1.00  0.00     0.022 A 
BRANCH  63  67
ATOM     67  S   UNL A   1      45.067  24.881  37.351  1.00  0.00     0.124 S 
ATOM     68  O   UNL A   1      45.623  23.715  36.673  1.00  0.00    -0.237 OA
ATOM     69  O   UNL A   1      45.807  25.355  38.516  1.00  0.00    -0.237 OA
ATOM     70  O   UNL A   1      43.613  24.877  37.502  1.00  0.00    -0.744 OA
ENDBRANCH  63  67
ENDBRANCH  37  60
ENDBRANCH  11  12
ENDBRANCH   4   6
ENDBRANCH   3   4
ENDBRANCH   2   3
ENDBRANCH   1   2
BRANCH   1  71
ATOM     71  O   UNL A   1      32.708  27.843  25.305  1.00  0.00    -0.374 OA
BRANCH  71  72
ATOM     72  C   UNL A   1      33.401  26.897  26.125  1.00  0.00     0.202 C 
BRANCH  72  73
ATOM     73  C   UNL A   1      34.380  26.121  25.237  1.00  0.00     0.261 C 
BRANCH  73  74
ATOM     74  O   UNL A   1      33.655  25.685  24.078  1.00  0.00    -0.459 OA
BRANCH  74  75
ATOM     75  C   UNL A   1      33.712  24.346  23.829  1.00  0.00     0.370 C 
ATOM     76  O   UNL A   1      34.323  23.903  22.862  1.00  0.00    -0.245 OA
BRANCH  75  77
ATOM     77  C   UNL A   1      33.035  23.529  24.996  1.00  0.00     0.328 C 
BRANCH  77  78
ATOM     78  N   UNL A   1      31.615  23.107  24.810  1.00  0.00    -0.316 N 
ATOM     79  C   UNL A   1      30.714  23.760  25.805  1.00  0.00     0.284 C 
ATOM     80  C   UNL A   1      31.030  23.362  23.477  1.00  0.00     0.284 C 
ATOM     81  H   UNL A   1      31.669  22.095  24.934  1.00  0.00     0.349 HD
ATOM     82  C   UNL A   1      30.284  25.241  25.533  1.00  0.00     0.178 C 
ATOM     83  C   UNL A   1      30.683  24.830  23.133  1.00  0.00     0.178 C 
ATOM     84  N   UNL A   1      29.807  25.435  24.150  1.00  0.00    -0.360 N 
BRANCH  84  85
ATOM     85  C   UNL A   1      29.195  26.629  23.745  1.00  0.00     0.038 A 
ATOM     86  C   UNL A   1      27.812  26.810  23.952  1.00  0.00     0.026 A 
ATOM     87  C   UNL A   1      29.875  27.675  23.108  1.00  0.00     0.046 A 
ATOM     88  C   UNL A   1      27.124  27.941  23.502  1.00  0.00     0.004 A 
ATOM     89  C   UNL A   1      29.191  28.817  22.666  1.00  0.00     0.043 A 
ATOM     90  C   UNL A   1      27.817  28.950  22.850  1.00  0.00     0.020 A 
ATOM     91  Cl  UNL A   1      30.055  30.082  21.875  1.00  0.00    -0.084 Cl
ENDBRANCH  84  85
ENDBRANCH  77  78
BRANCH  77  92
ATOM     92  C   UNL A   1      33.931  22.326  25.290  1.00  0.00     0.046 A 
ATOM     93  C   UNL A   1      33.641  21.000  25.003  1.00  0.00     0.094 A 
ATOM     94  C   UNL A   1      35.332  22.356  25.621  1.00  0.00     0.011 A 
ATOM     95  N   UNL A   1      34.828  20.333  24.849  1.00  0.00    -0.361 N 
ATOM     96  C   UNL A   1      35.881  21.162  25.151  1.00  0.00     0.046 A 
ATOM     97  C   UNL A   1      36.214  23.331  26.125  1.00  0.00     0.031 A 
ATOM     98  H   UNL A   1      34.913  19.394  24.563  1.00  0.00     0.166 HD
ATOM     99  C   UNL A   1      37.261  20.964  25.001  1.00  0.00     0.028 A 
ATOM    100  C   UNL A   1      37.595  23.145  25.991  1.00  0.00     0.041 A 
ATOM    101  C   UNL A   1      38.113  21.998  25.403  1.00  0.00     0.022 A 
ATOM    102  Cl  UNL A   1      38.658  24.403  26.498  1.00  0.00    -0.084 Cl
ENDBRANCH  77  92
ENDBRANCH  75  77
ENDBRANCH  74  75
ENDBRANCH  73  74
ENDBRANCH  72  73
ENDBRANCH  71  72
ENDBRANCH   1  71
TORSDOF 20
ENDMDL
MODEL 2
REMARK VINA RESULT:     -12.1      1.976      2.537
REMARK SMILES O=C(OCCOCCOC(=O)[C@H](c1c[nH]c2ccc(Cl)cc12)[NH+]1CCN(c2cccc(Cl)c2)CC1)c1ccc(-c2c3nc(c(-c4cc(S(=O)(=O)[O-])ccc4F)c4ccc([nH]4)c(-c4cc(S(=O)(=O)[O-])ccc4F)c4nc(c(-c5cc(S(=O)(=O)[O-])ccc5F)c5ccc2[nH]5)C=C4)C=C3)cc1
REMARK SMILES IDX 5 1 4 2 3 3 2 4 1 5 36 6 37 7 98 8 38 9 97 10 39 11 40 12
REMARK SMILES IDX 41 13 91 14 42 15 96 16 90 17 92 18 43 19 95 20 89 21 88 22
REMARK SMILES IDX 44 24 76 25 56 26 75 27 57 28 60 29 74 30 93 31 58 32 59 33
REMARK SMILES IDX 73 35 94 36 61 37 45 38 46 39 54 40 47 41 53 42 55 43 52 44
REMARK SMILES IDX 48 45 49 46 50 47 51 48 77 49 78 50 86 51 79 52 85 53 87 54
REMARK SMILES IDX 84 55 80 56 81 57 82 58 83 59 62 60 63 61 71 62 64 63 70 64
REMARK SMILES IDX 72 65 69 66 65 67 66 68 67 69 68 70 6 71 7 72 8 73 9 74
REMARK SMILES IDX 10 75 11 76 12 77 23 78 24 79 35 80 25 82 34 83 26 84 27 85
REMARK SMILES IDX 28 86 33 87 29 88 31 89 30 90 32 91 13 92 14 93 22 94 15 95
REMARK SMILES IDX 16 96 21 97 17 99 19 100 18 101 20 102
REMARK H PARENT 92 23 60 34 23 81 15 98
REMARK Flexibility Score: inf
ROOT
ATOM      1  C   UNL A   1      31.839  28.418  26.736  1.00  0.00     0.202 C 
ENDROOT
BRANCH   1   2
ATOM      2  C   UNL A   1      31.861  29.503  25.665  1.00  0.00     0.261 C 
BRANCH   2   3
ATOM      3  O   UNL A   1      33.031  30.316  25.811  1.00  0.00    -0.460 OA
BRANCH   3   4
ATOM      4  C   UNL A   1      33.315  31.083  26.890  1.00  0.00     0.338 C 
ATOM      5  O   UNL A   1      32.580  32.024  27.175  1.00  0.00    -0.246 OA
BRANCH   4   6
ATOM      6  C   UNL A   1      34.532  30.838  27.713  1.00  0.00     0.060 A 
ATOM      7  C   UNL A   1      34.858  29.590  28.245  1.00  0.00     0.016 A 
ATOM      8  C   UNL A   1      35.441  31.889  27.881  1.00  0.00     0.016 A 
ATOM      9  C   UNL A   1      36.005  29.381  28.976  1.00  0.00     0.010 A 
ATOM     10  C   UNL A   1      36.641  31.675  28.563  1.00  0.00     0.010 A 
ATOM     11  C   UNL A   1      36.920  30.414  29.103  1.00  0.00    -0.014 A 
BRANCH  11  12
ATOM     12  C   UNL A   1      38.145  30.118  29.852  1.00  0.00     0.031 A 
ATOM     13  C   UNL A   1      39.203  29.307  29.185  1.00  0.00     0.074 A 
ATOM     14  C   UNL A   1      38.333  30.721  31.039  1.00  0.00     0.049 A 
ATOM     15  N   UNL A   1      40.314  28.841  29.678  1.00  0.00    -0.248 NA
ATOM     16  C   UNL A   1      38.981  28.989  27.765  1.00  0.00     0.031 C 
ATOM     17  C   UNL A   1      37.399  31.672  31.657  1.00  0.00     0.029 A 
ATOM     18  N   UNL A   1      39.376  30.667  31.918  1.00  0.00    -0.354 N 
ATOM     19  C   UNL A   1      40.910  28.135  28.642  1.00  0.00     0.074 A 
ATOM     20  C   UNL A   1      40.041  28.247  27.490  1.00  0.00     0.031 C 
ATOM     21  C   UNL A   1      37.930  32.129  32.801  1.00  0.00     0.029 A 
ATOM     22  C   UNL A   1      39.183  31.429  33.046  1.00  0.00     0.049 A 
ATOM     23  H   UNL A   1      40.188  30.133  31.759  1.00  0.00     0.167 HD
ATOM     24  C   UNL A   1      42.071  27.439  28.680  1.00  0.00     0.034 A 
ATOM     25  C   UNL A   1      39.916  31.496  34.173  1.00  0.00     0.034 A 
ATOM     26  C   UNL A   1      42.873  27.349  29.875  1.00  0.00     0.049 A 
ATOM     27  C   UNL A   1      41.141  30.622  34.234  1.00  0.00     0.074 A 
ATOM     28  C   UNL A   1      43.997  26.585  30.118  1.00  0.00     0.029 A 
ATOM     29  N   UNL A   1      42.617  28.067  31.043  1.00  0.00    -0.354 N 
ATOM     30  N   UNL A   1      41.638  29.835  33.304  1.00  0.00    -0.248 NA
ATOM     31  C   UNL A   1      41.890  30.620  35.493  1.00  0.00     0.031 C 
ATOM     32  C   UNL A   1      44.388  26.800  31.447  1.00  0.00     0.029 A 
ATOM     33  C   UNL A   1      43.548  27.749  32.015  1.00  0.00     0.049 A 
ATOM     34  H   UNL A   1      41.878  28.707  31.159  1.00  0.00     0.167 HD
ATOM     35  C   UNL A   1      42.762  29.243  33.866  1.00  0.00     0.074 A 
ATOM     36  C   UNL A   1      42.884  29.793  35.205  1.00  0.00     0.031 C 
ATOM     37  C   UNL A   1      43.612  28.323  33.340  1.00  0.00     0.034 A 
BRANCH  24  38
ATOM     38  C   UNL A   1      42.419  26.644  27.448  1.00  0.00     0.023 A 
ATOM     39  C   UNL A   1      42.040  25.298  27.299  1.00  0.00     0.031 A 
ATOM     40  C   UNL A   1      43.263  27.202  26.472  1.00  0.00     0.131 A 
ATOM     41  C   UNL A   1      42.575  24.533  26.249  1.00  0.00     0.055 A 
ATOM     42  C   UNL A   1      43.727  26.458  25.386  1.00  0.00     0.041 A 
ATOM     43  F   UNL A   1      43.689  28.470  26.581  1.00  0.00    -0.206 F 
ATOM     44  C   UNL A   1      43.399  25.110  25.280  1.00  0.00     0.022 A 
BRANCH  41  45
ATOM     45  S   UNL A   1      42.323  22.735  26.265  1.00  0.00     0.124 S 
ATOM     46  O   UNL A   1      43.017  22.330  25.045  1.00  0.00    -0.237 OA
ATOM     47  O   UNL A   1      42.953  22.339  27.519  1.00  0.00    -0.237 OA
ATOM     48  O   UNL A   1      40.869  22.592  26.224  1.00  0.00    -0.744 OA
ENDBRANCH  41  45
ENDBRANCH  24  38
BRANCH  25  49
ATOM     49  C   UNL A   1      39.463  32.314  35.337  1.00  0.00     0.023 A 
ATOM     50  C   UNL A   1      39.855  33.652  35.490  1.00  0.00     0.031 A 
ATOM     51  C   UNL A   1      38.647  31.753  36.340  1.00  0.00     0.131 A 
ATOM     52  C   UNL A   1      39.460  34.373  36.631  1.00  0.00     0.055 A 
ATOM     53  C   UNL A   1      38.209  32.490  37.441  1.00  0.00     0.041 A 
ATOM     54  F   UNL A   1      38.245  30.474  36.255  1.00  0.00    -0.206 F 
ATOM     55  C   UNL A   1      38.627  33.805  37.597  1.00  0.00     0.022 A 
BRANCH  52  56
ATOM     56  S   UNL A   1      40.121  36.044  36.880  1.00  0.00     0.124 S 
ATOM     57  O   UNL A   1      39.352  36.501  38.032  1.00  0.00    -0.237 OA
ATOM     58  O   UNL A   1      41.536  35.777  37.118  1.00  0.00    -0.237 OA
ATOM     59  O   UNL A   1      39.820  36.721  35.620  1.00  0.00    -0.744 OA
ENDBRANCH  52  56
ENDBRANCH  25  49
BRANCH  37  60
ATOM     60  C   UNL A   1      44.749  27.897  34.227  1.00  0.00     0.023 A 
ATOM     61  C   UNL A   1      44.595  26.863  35.164  1.00  0.00     0.031 A 
ATOM     62  C   UNL A   1      45.991  28.547  34.139  1.00  0.00     0.131 A 
ATOM     63  C   UNL A   1      45.656  26.544  36.021  1.00  0.00     0.055 A 
ATOM     64  C   UNL A   1      47.060  28.185  34.956  1.00  0.00     0.041 A 
ATOM     65  F   UNL A   1      46.181  29.541  33.256  1.00  0.00    -0.206 F 
ATOM     66  C   UNL A   1      46.892  27.187  35.912  1.00  0.00     0.022 A 
BRANCH  63  67
ATOM     67  S   UNL A   1      45.371  25.329  37.336  1.00  0.00     0.124 S 
ATOM     68  O   UNL A   1      45.909  26.017  38.505  1.00  0.00    -0.237 OA
ATOM     69  O   UNL A   1      43.921  25.166  37.302  1.00  0.00    -0.237 OA
ATOM     70  O   UNL A   1      46.135  24.163  36.896  1.00  0.00    -0.744 OA
ENDBRANCH  63  67
ENDBRANCH  37  60
ENDBRANCH  11  12
ENDBRANCH   4   6
ENDBRANCH   3   4
ENDBRANCH   2   3
ENDBRANCH   1   2
BRANCH   1  71
ATOM     71  O   UNL A   1      32.877  27.441  26.780  1.00  0.00    -0.374 OA
BRANCH  71  72
ATOM     72  C   UNL A   1      33.445  27.031  25.533  1.00  0.00     0.202 C 
BRANCH  72  73
ATOM     73  C   UNL A   1      33.892  25.570  25.667  1.00  0.00     0.261 C 
BRANCH  73  74
ATOM     74  O   UNL A   1      34.394  25.157  24.387  1.00  0.00    -0.459 OA
BRANCH  74  75
ATOM     75  C   UNL A   1      34.088  23.877  24.032  1.00  0.00     0.370 C 
ATOM     76  O   UNL A   1      34.757  23.268  23.203  1.00  0.00    -0.245 OA
BRANCH  75  77
ATOM     77  C   UNL A   1      32.908  23.316  24.916  1.00  0.00     0.328 C 
BRANCH  77  78
ATOM     78  N   UNL A   1      31.569  23.175  24.271  1.00  0.00    -0.316 N 
ATOM     79  C   UNL A   1      30.509  23.881  25.050  1.00  0.00     0.284 C 
ATOM     80  C   UNL A   1      31.464  23.657  22.878  1.00  0.00     0.284 C 
ATOM     81  H   UNL A   1      31.437  22.163  24.258  1.00  0.00     0.349 HD
ATOM     82  C   UNL A   1      30.399  25.435  24.883  1.00  0.00     0.178 C 
ATOM     83  C   UNL A   1      31.452  25.189  22.665  1.00  0.00     0.178 C 
ATOM     84  N   UNL A   1      30.401  25.842  23.465  1.00  0.00    -0.360 N 
BRANCH  84  85
ATOM     85  C   UNL A   1      30.121  27.159  23.078  1.00  0.00     0.038 A 
ATOM     86  C   UNL A   1      31.117  27.927  22.439  1.00  0.00     0.026 A 
ATOM     87  C   UNL A   1      28.892  27.793  23.307  1.00  0.00     0.046 A 
ATOM     88  C   UNL A   1      30.930  29.270  22.097  1.00  0.00     0.004 A 
ATOM     89  C   UNL A   1      28.697  29.137  22.955  1.00  0.00     0.043 A 
ATOM     90  C   UNL A   1      29.713  29.881  22.362  1.00  0.00     0.020 A 
ATOM     91  Cl  UNL A   1      27.178  29.893  23.262  1.00  0.00    -0.084 Cl
ENDBRANCH  84  85
ENDBRANCH  77  78
BRANCH  77  92
ATOM     92  C   UNL A   1      33.375  21.986  25.508  1.00  0.00     0.046 A 
ATOM     93  C   UNL A   1      33.730  21.759  26.829  1.00  0.00     0.094 A 
ATOM     94  C   UNL A   1      33.244  20.684  24.909  1.00  0.00     0.011 A 
ATOM     95  N   UNL A   1      33.512  20.434  27.102  1.00  0.00    -0.361 N 
ATOM     96  C   UNL A   1      33.142  19.769  25.958  1.00  0.00     0.046 A 
ATOM     97  C   UNL A   1      33.044  20.207  23.599  1.00  0.00     0.031 A 
ATOM     98  H   UNL A   1      33.606  20.018  27.990  1.00  0.00     0.166 HD
ATOM     99  C   UNL A   1      32.687  18.454  25.782  1.00  0.00     0.028 A 
ATOM    100  C   UNL A   1      32.597  18.894  23.406  1.00  0.00     0.041 A 
ATOM    101  C   UNL A   1      32.383  18.041  24.481  1.00  0.00     0.022 A 
ATOM    102  Cl  UNL A   1      32.235  18.365  21.806  1.00  0.00    -0.084 Cl
ENDBRANCH  77  92
ENDBRANCH  75  77
ENDBRANCH  74  75
ENDBRANCH  73  74
ENDBRANCH  72  73
ENDBRANCH  71  72
ENDBRANCH   1  71
TORSDOF 20
ENDMDL
MODEL 3
REMARK VINA RESULT:     -12.0      2.077      2.610
REMARK SMILES O=C(OCCOCCOC(=O)[C@H](c1c[nH]c2ccc(Cl)cc12)[NH+]1CCN(c2cccc(Cl)c2)CC1)c1ccc(-c2c3nc(c(-c4cc(S(=O)(=O)[O-])ccc4F)c4ccc([nH]4)c(-c4cc(S(=O)(=O)[O-])ccc4F)c4nc(c(-c5cc(S(=O)(=O)[O-])ccc5F)c5ccc2[nH]5)C=C4)C=C3)cc1
REMARK SMILES IDX 5 1 4 2 3 3 2 4 1 5 36 6 37 7 98 8 38 9 97 10 39 11 40 12
REMARK SMILES IDX 41 13 91 14 42 15 96 16 90 17 92 18 43 19 95 20 89 21 88 22
REMARK SMILES IDX 44 24 76 25 56 26 75 27 57 28 60 29 74 30 93 31 58 32 59 33
REMARK SMILES IDX 73 35 94 36 61 37 45 38 46 39 54 40 47 41 53 42 55 43 52 44
REMARK SMILES IDX 48 45 49 46 50 47 51 48 77 49 78 50 86 51 79 52 85 53 87 54
REMARK SMILES IDX 84 55 80 56 81 57 82 58 83 59 62 60 63 61 71 62 64 63 70 64
REMARK SMILES IDX 72 65 69 66 65 67 66 68 67 69 68 70 6 71 7 72 8 73 9 74
REMARK SMILES IDX 10 75 11 76 12 77 23 78 24 79 35 80 25 82 34 83 26 84 27 85
REMARK SMILES IDX 28 86 33 87 29 88 31 89 30 90 32 91 13 92 14 93 22 94 15 95
REMARK SMILES IDX 16 96 21 97 17 99 19 100 18 101 20 102
REMARK H PARENT 92 23 60 34 23 81 15 98
REMARK Flexibility Score: inf
ROOT
ATOM      1  C   UNL A   1      31.857  28.346  26.532  1.00  0.00     0.202 C 
ENDROOT
BRANCH   1   2
ATOM      2  C   UNL A   1      31.980  29.540  25.591  1.00  0.00     0.261 C 
BRANCH   2   3
ATOM      3  O   UNL A   1      33.208  30.236  25.836  1.00  0.00    -0.460 OA
BRANCH   3   4
ATOM      4  C   UNL A   1      33.469  30.988  26.932  1.00  0.00     0.338 C 
ATOM      5  O   UNL A   1      32.696  31.886  27.249  1.00  0.00    -0.246 OA
BRANCH   4   6
ATOM      6  C   UNL A   1      34.706  30.778  27.735  1.00  0.00     0.060 A 
ATOM      7  C   UNL A   1      35.059  29.546  28.288  1.00  0.00     0.016 A 
ATOM      8  C   UNL A   1      35.604  31.844  27.859  1.00  0.00     0.016 A 
ATOM      9  C   UNL A   1      36.223  29.370  29.000  1.00  0.00     0.010 A 
ATOM     10  C   UNL A   1      36.820  31.661  28.521  1.00  0.00     0.010 A 
ATOM     11  C   UNL A   1      37.127  30.417  29.084  1.00  0.00    -0.014 A 
BRANCH  11  12
ATOM     12  C   UNL A   1      38.371  30.154  29.814  1.00  0.00     0.031 A 
ATOM     13  C   UNL A   1      39.445  29.383  29.127  1.00  0.00     0.074 A 
ATOM     14  C   UNL A   1      38.556  30.754  31.003  1.00  0.00     0.049 A 
ATOM     15  N   UNL A   1      40.577  28.948  29.601  1.00  0.00    -0.248 NA
ATOM     16  C   UNL A   1      39.214  29.069  27.707  1.00  0.00     0.031 C 
ATOM     17  C   UNL A   1      37.601  31.670  31.641  1.00  0.00     0.029 A 
ATOM     18  N   UNL A   1      39.612  30.726  31.868  1.00  0.00    -0.354 N 
ATOM     19  C   UNL A   1      41.181  28.270  28.551  1.00  0.00     0.074 A 
ATOM     20  C   UNL A   1      40.293  28.362  27.412  1.00  0.00     0.031 C 
ATOM     21  C   UNL A   1      38.133  32.135  32.782  1.00  0.00     0.029 A 
ATOM     22  C   UNL A   1      39.411  31.473  33.004  1.00  0.00     0.049 A 
ATOM     23  H   UNL A   1      40.439  30.219  31.694  1.00  0.00     0.167 HD
ATOM     24  C   UNL A   1      42.364  27.611  28.568  1.00  0.00     0.034 A 
ATOM     25  C   UNL A   1      40.157  31.555  34.121  1.00  0.00     0.034 A 
ATOM     26  C   UNL A   1      43.184  27.537  29.751  1.00  0.00     0.049 A 
ATOM     27  C   UNL A   1      41.410  30.720  34.160  1.00  0.00     0.074 A 
ATOM     28  C   UNL A   1      44.335  26.807  29.973  1.00  0.00     0.029 A 
ATOM     29  N   UNL A   1      42.921  28.237  30.928  1.00  0.00    -0.354 N 
ATOM     30  N   UNL A   1      41.918  29.956  33.217  1.00  0.00    -0.248 NA
ATOM     31  C   UNL A   1      42.176  30.732  35.408  1.00  0.00     0.031 C 
ATOM     32  C   UNL A   1      44.737  27.025  31.298  1.00  0.00     0.029 A 
ATOM     33  C   UNL A   1      43.876  27.942  31.885  1.00  0.00     0.049 A 
ATOM     34  H   UNL A   1      42.165  28.853  31.060  1.00  0.00     0.167 HD
ATOM     35  C   UNL A   1      43.068  29.396  33.758  1.00  0.00     0.074 A 
ATOM     36  C   UNL A   1      43.191  29.939  35.100  1.00  0.00     0.031 C 
ATOM     37  C   UNL A   1      43.939  28.508  33.214  1.00  0.00     0.034 A 
BRANCH  24  38
ATOM     38  C   UNL A   1      42.720  26.836  27.325  1.00  0.00     0.023 A 
ATOM     39  C   UNL A   1      42.311  25.503  27.135  1.00  0.00     0.031 A 
ATOM     40  C   UNL A   1      43.598  27.396  26.381  1.00  0.00     0.131 A 
ATOM     41  C   UNL A   1      42.852  24.750  26.079  1.00  0.00     0.055 A 
ATOM     42  C   UNL A   1      44.068  26.666  25.288  1.00  0.00     0.041 A 
ATOM     43  F   UNL A   1      44.052  28.650  26.530  1.00  0.00    -0.206 F 
ATOM     44  C   UNL A   1      43.710  25.330  25.142  1.00  0.00     0.022 A 
BRANCH  41  45
ATOM     45  S   UNL A   1      42.556  22.959  26.046  1.00  0.00     0.124 S 
ATOM     46  O   UNL A   1      43.422  22.499  27.129  1.00  0.00    -0.237 OA
ATOM     47  O   UNL A   1      41.121  22.871  26.294  1.00  0.00    -0.237 OA
ATOM     48  O   UNL A   1      42.983  22.565  24.705  1.00  0.00    -0.744 OA
ENDBRANCH  41  45
ENDBRANCH  24  38
BRANCH  25  49
ATOM     49  C   UNL A   1      39.694  32.349  35.298  1.00  0.00     0.023 A 
ATOM     50  C   UNL A   1      38.920  31.771  36.315  1.00  0.00     0.031 A 
ATOM     51  C   UNL A   1      39.999  33.721  35.408  1.00  0.00     0.131 A 
ATOM     52  C   UNL A   1      38.450  32.566  37.376  1.00  0.00     0.055 A 
ATOM     53  C   UNL A   1      39.579  34.492  36.492  1.00  0.00     0.041 A 
ATOM     54  F   UNL A   1      40.730  34.335  34.462  1.00  0.00    -0.206 F 
ATOM     55  C   UNL A   1      38.788  33.917  37.479  1.00  0.00     0.022 A 
BRANCH  52  56
ATOM     56  S   UNL A   1      37.313  31.828  38.582  1.00  0.00     0.124 S 
ATOM     57  O   UNL A   1      36.172  32.733  38.510  1.00  0.00    -0.237 OA
ATOM     58  O   UNL A   1      37.110  30.493  38.029  1.00  0.00    -0.237 OA
ATOM     59  O   UNL A   1      38.067  31.874  39.833  1.00  0.00    -0.744 OA
ENDBRANCH  52  56
ENDBRANCH  25  49
BRANCH  37  60
ATOM     60  C   UNL A   1      45.102  28.111  34.081  1.00  0.00     0.023 A 
ATOM     61  C   UNL A   1      46.310  28.827  34.053  1.00  0.00     0.031 A 
ATOM     62  C   UNL A   1      44.998  26.997  34.930  1.00  0.00     0.131 A 
ATOM     63  C   UNL A   1      47.393  28.384  34.823  1.00  0.00     0.055 A 
ATOM     64  C   UNL A   1      46.062  26.596  35.736  1.00  0.00     0.041 A 
ATOM     65  F   UNL A   1      43.861  26.285  34.988  1.00  0.00    -0.206 F 
ATOM     66  C   UNL A   1      47.272  27.282  35.675  1.00  0.00     0.022 A 
BRANCH  63  67
ATOM     67  S   UNL A   1      48.990  29.219  34.631  1.00  0.00     0.124 S 
ATOM     68  O   UNL A   1      49.669  28.863  35.873  1.00  0.00    -0.237 OA
ATOM     69  O   UNL A   1      49.520  28.608  33.417  1.00  0.00    -0.237 OA
ATOM     70  O   UNL A   1      48.625  30.629  34.506  1.00  0.00    -0.744 OA
ENDBRANCH  63  67
ENDBRANCH  37  60
ENDBRANCH  11  12
ENDBRANCH   4   6
ENDBRANCH   3   4
ENDBRANCH   2   3
ENDBRANCH   1   2
BRANCH   1  71
ATOM     71  O   UNL A   1      32.925  27.407  26.634  1.00  0.00    -0.374 OA
BRANCH  71  72
ATOM     72  C   UNL A   1      33.539  26.977  25.416  1.00  0.00     0.202 C 
BRANCH  72  73
ATOM     73  C   UNL A   1      33.958  25.512  25.582  1.00  0.00     0.261 C 
BRANCH  73  74
ATOM     74  O   UNL A   1      34.432  25.055  24.307  1.00  0.00    -0.459 OA
BRANCH  74  75
ATOM     75  C   UNL A   1      34.161  23.749  24.022  1.00  0.00     0.370 C 
ATOM     76  O   UNL A   1      34.860  23.107  23.246  1.00  0.00    -0.245 OA
BRANCH  75  77
ATOM     77  C   UNL A   1      32.972  23.217  24.912  1.00  0.00     0.328 C 
BRANCH  77  78
ATOM     78  N   UNL A   1      31.632  23.085  24.268  1.00  0.00    -0.316 N 
ATOM     79  C   UNL A   1      30.576  23.793  25.050  1.00  0.00     0.284 C 
ATOM     80  C   UNL A   1      31.529  23.571  22.877  1.00  0.00     0.284 C 
ATOM     81  H   UNL A   1      31.495  22.073  24.252  1.00  0.00     0.349 HD
ATOM     82  C   UNL A   1      30.474  25.348  24.888  1.00  0.00     0.178 C 
ATOM     83  C   UNL A   1      31.524  25.104  22.668  1.00  0.00     0.178 C 
ATOM     84  N   UNL A   1      30.477  25.760  23.471  1.00  0.00    -0.360 N 
BRANCH  84  85
ATOM     85  C   UNL A   1      30.202  27.079  23.088  1.00  0.00     0.038 A 
ATOM     86  C   UNL A   1      31.206  27.848  22.464  1.00  0.00     0.026 A 
ATOM     87  C   UNL A   1      28.973  27.714  23.309  1.00  0.00     0.046 A 
ATOM     88  C   UNL A   1      31.025  29.194  22.127  1.00  0.00     0.004 A 
ATOM     89  C   UNL A   1      28.783  29.060  22.962  1.00  0.00     0.043 A 
ATOM     90  C   UNL A   1      29.807  29.806  22.383  1.00  0.00     0.020 A 
ATOM     91  Cl  UNL A   1      27.263  29.817  23.259  1.00  0.00    -0.084 Cl
ENDBRANCH  84  85
ENDBRANCH  77  78
BRANCH  77  92
ATOM     92  C   UNL A   1      33.421  21.889  25.524  1.00  0.00     0.046 A 
ATOM     93  C   UNL A   1      33.775  21.677  26.848  1.00  0.00     0.094 A 
ATOM     94  C   UNL A   1      33.270  20.580  24.945  1.00  0.00     0.011 A 
ATOM     95  N   UNL A   1      33.538  20.359  27.141  1.00  0.00    -0.361 N 
ATOM     96  C   UNL A   1      33.157  19.682  26.008  1.00  0.00     0.046 A 
ATOM     97  C   UNL A   1      33.062  20.086  23.643  1.00  0.00     0.031 A 
ATOM     98  H   UNL A   1      33.627  19.956  28.035  1.00  0.00     0.166 HD
ATOM     99  C   UNL A   1      32.683  18.372  25.852  1.00  0.00     0.028 A 
ATOM    100  C   UNL A   1      32.596  18.778  23.470  1.00  0.00     0.041 A 
ATOM    101  C   UNL A   1      32.371  17.944  24.558  1.00  0.00     0.022 A 
ATOM    102  Cl  UNL A   1      32.224  18.230  21.879  1.00  0.00    -0.084 Cl
ENDBRANCH  77  92
ENDBRANCH  75  77
ENDBRANCH  74  75
ENDBRANCH  73  74
ENDBRANCH  72  73
ENDBRANCH  71  72
ENDBRANCH   1  71
TORSDOF 20
ENDMDL
