MODEL 1
REMARK VINA RESULT:     -10.8      0.000      0.000
REMARK SMILES CCc1nn(-c2ccc(Cl)nn2)c(CC)c1CC(=O)OCCOCCOC(=O)c1ccc(-c2c3nc(c(-c4cc(S(=O)(=O)[O-])ccc4F)c4ccc([nH]4)c(-c4cc(S(=O)(=O)[O-])ccc4F)c4nc(c(-c5cc(S(=O)(=O)[O-])ccc5F)c5ccc2[nH]5)C=C4)C=C3)cc1
REMARK SMILES IDX 24 1 23 2 22 3 21 4 20 5 18 6 19 7 17 8 16 9 3 10 4 11 5 12
REMARK SMILES IDX 13 13 2 14 1 15 6 16 7 17 12 18 8 19 11 20 9 21 10 22 14 23
REMARK SMILES IDX 15 24 25 25 26 26 27 27 28 28 29 29 30 30 91 31 31 32 90 33
REMARK SMILES IDX 32 34 33 35 34 36 84 37 35 38 89 39 83 40 85 41 36 42 88 43
REMARK SMILES IDX 82 44 81 45 37 47 69 48 49 49 68 50 50 51 53 52 67 53 86 54
REMARK SMILES IDX 51 55 52 56 66 58 87 59 54 60 38 61 39 62 47 63 40 64 46 65
REMARK SMILES IDX 48 66 45 67 41 68 42 69 43 70 44 71 70 72 71 73 79 74 72 75
REMARK SMILES IDX 78 76 80 77 77 78 73 79 74 80 75 81 76 82 55 83 56 84 64 85
REMARK SMILES IDX 57 86 63 87 65 88 62 89 58 90 59 91 60 92 61 93
REMARK H PARENT 85 46 53 57
REMARK Flexibility Score: inf
ROOT
ATOM      1  C   UNL A   1      33.665  30.689  27.640  1.00  0.00     0.202 C 
ENDROOT
BRANCH   1   2
ATOM      2  O   UNL A   1      33.048  29.768  26.761  1.00  0.00    -0.374 OA
BRANCH   2   3
ATOM      3  C   UNL A   1      32.468  28.603  27.334  1.00  0.00     0.202 C 
BRANCH   3   4
ATOM      4  C   UNL A   1      32.550  27.285  26.542  1.00  0.00     0.261 C 
BRANCH   4   5
ATOM      5  O   UNL A   1      31.583  26.278  26.929  1.00  0.00    -0.463 OA
BRANCH   5   6
ATOM      6  C   UNL A   1      30.910  25.678  25.915  1.00  0.00     0.310 C 
ATOM      7  O   UNL A   1      30.015  26.224  25.271  1.00  0.00    -0.252 OA
BRANCH   6   8
ATOM      8  C   UNL A   1      31.411  24.305  25.503  1.00  0.00     0.162 C 
BRANCH   8   9
ATOM      9  C   UNL A   1      32.819  24.118  25.013  1.00  0.00     0.008 A 
ATOM     10  C   UNL A   1      33.397  24.707  23.846  1.00  0.00     0.067 A 
ATOM     11  N   UNL A   1      34.690  24.395  23.719  1.00  0.00    -0.171 NA
ATOM     12  N   UNL A   1      35.001  23.690  24.833  1.00  0.00    -0.217 N 
ATOM     13  C   UNL A   1      33.919  23.586  25.699  1.00  0.00     0.050 A 
BRANCH  10  14
ATOM     14  C   UNL A   1      32.756  25.620  22.840  1.00  0.00     0.055 C 
ATOM     15  C   UNL A   1      33.626  26.813  22.450  1.00  0.00     0.011 C 
ENDBRANCH  10  14
BRANCH  12  16
ATOM     16  C   UNL A   1      36.278  23.096  24.985  1.00  0.00     0.176 A 
ATOM     17  C   UNL A   1      36.434  21.771  24.599  1.00  0.00     0.054 A 
ATOM     18  N   UNL A   1      37.222  23.741  25.706  1.00  0.00    -0.129 NA
ATOM     19  C   UNL A   1      37.588  21.089  24.965  1.00  0.00     0.047 A 
ATOM     20  N   UNL A   1      38.375  23.070  26.051  1.00  0.00    -0.136 NA
ATOM     21  C   UNL A   1      38.541  21.779  25.680  1.00  0.00     0.151 A 
ATOM     22  Cl  UNL A   1      39.961  21.014  26.242  1.00  0.00    -0.060 Cl
ENDBRANCH  12  16
BRANCH  13  23
ATOM     23  C   UNL A   1      34.048  23.184  27.151  1.00  0.00     0.053 C 
ATOM     24  C   UNL A   1      33.988  21.707  27.519  1.00  0.00     0.011 C 
ENDBRANCH  13  23
ENDBRANCH   8   9
ENDBRANCH   6   8
ENDBRANCH   5   6
ENDBRANCH   4   5
ENDBRANCH   3   4
ENDBRANCH   2   3
ENDBRANCH   1   2
BRANCH   1  25
ATOM     25  C   UNL A   1      35.185  30.829  27.640  1.00  0.00     0.261 C 
BRANCH  25  26
ATOM     26  O   UNL A   1      35.984  29.652  27.558  1.00  0.00    -0.460 OA
BRANCH  26  27
ATOM     27  C   UNL A   1      36.708  29.414  28.673  1.00  0.00     0.338 C 
ATOM     28  O   UNL A   1      36.427  29.812  29.802  1.00  0.00    -0.246 OA
BRANCH  27  29
ATOM     29  C   UNL A   1      38.006  28.811  28.322  1.00  0.00     0.060 A 
ATOM     30  C   UNL A   1      38.549  27.929  29.257  1.00  0.00     0.016 A 
ATOM     31  C   UNL A   1      38.776  29.273  27.243  1.00  0.00     0.016 A 
ATOM     32  C   UNL A   1      39.903  27.660  29.216  1.00  0.00     0.010 A 
ATOM     33  C   UNL A   1      40.143  29.020  27.219  1.00  0.00     0.010 A 
ATOM     34  C   UNL A   1      40.711  28.266  28.244  1.00  0.00    -0.014 A 
BRANCH  34  35
ATOM     35  C   UNL A   1      42.110  27.857  28.202  1.00  0.00     0.031 A 
ATOM     36  C   UNL A   1      42.273  26.579  27.471  1.00  0.00     0.074 A 
ATOM     37  C   UNL A   1      43.166  28.515  28.721  1.00  0.00     0.049 A 
ATOM     38  N   UNL A   1      42.508  25.421  27.988  1.00  0.00    -0.248 NA
ATOM     39  C   UNL A   1      41.915  26.544  26.044  1.00  0.00     0.031 C 
ATOM     40  C   UNL A   1      43.220  29.848  29.306  1.00  0.00     0.029 A 
ATOM     41  N   UNL A   1      44.469  28.115  28.785  1.00  0.00    -0.354 N 
ATOM     42  C   UNL A   1      42.559  24.540  26.919  1.00  0.00     0.074 A 
ATOM     43  C   UNL A   1      41.993  25.236  25.794  1.00  0.00     0.031 C 
ATOM     44  C   UNL A   1      44.510  30.238  29.452  1.00  0.00     0.029 A 
ATOM     45  C   UNL A   1      45.377  29.120  29.113  1.00  0.00     0.049 A 
ATOM     46  H   UNL A   1      44.746  27.186  28.612  1.00  0.00     0.167 HD
ATOM     47  C   UNL A   1      43.295  23.399  26.987  1.00  0.00     0.034 A 
ATOM     48  C   UNL A   1      46.740  29.044  29.092  1.00  0.00     0.034 A 
ATOM     49  C   UNL A   1      43.567  23.028  28.356  1.00  0.00     0.049 A 
ATOM     50  C   UNL A   1      47.080  27.606  29.235  1.00  0.00     0.074 A 
ATOM     51  C   UNL A   1      42.771  22.734  29.449  1.00  0.00     0.029 A 
ATOM     52  N   UNL A   1      44.806  23.322  28.879  1.00  0.00    -0.354 N 
ATOM     53  N   UNL A   1      46.832  26.925  30.321  1.00  0.00    -0.248 NA
ATOM     54  C   UNL A   1      47.206  26.811  28.022  1.00  0.00     0.031 C 
ATOM     55  C   UNL A   1      43.412  23.373  30.552  1.00  0.00     0.029 A 
ATOM     56  C   UNL A   1      44.602  23.941  30.091  1.00  0.00     0.049 A 
ATOM     57  H   UNL A   1      45.676  23.127  28.462  1.00  0.00     0.167 HD
ATOM     58  C   UNL A   1      46.335  25.710  29.877  1.00  0.00     0.074 A 
ATOM     59  C   UNL A   1      46.663  25.667  28.451  1.00  0.00     0.031 C 
ATOM     60  C   UNL A   1      45.463  24.977  30.631  1.00  0.00     0.034 A 
BRANCH  47  61
ATOM     61  C   UNL A   1      44.064  22.848  25.814  1.00  0.00     0.023 A 
ATOM     62  C   UNL A   1      44.064  21.457  25.615  1.00  0.00     0.031 A 
ATOM     63  C   UNL A   1      45.012  23.582  25.061  1.00  0.00     0.131 A 
ATOM     64  C   UNL A   1      45.006  20.857  24.761  1.00  0.00     0.055 A 
ATOM     65  C   UNL A   1      45.898  22.989  24.162  1.00  0.00     0.041 A 
ATOM     66  F   UNL A   1      45.210  24.895  25.229  1.00  0.00    -0.206 F 
ATOM     67  C   UNL A   1      45.917  21.614  24.027  1.00  0.00     0.022 A 
BRANCH  64  68
ATOM     68  S   UNL A   1      45.139  19.051  24.752  1.00  0.00     0.124 S 
ATOM     69  O   UNL A   1      46.484  18.850  25.283  1.00  0.00    -0.237 OA
ATOM     70  O   UNL A   1      44.037  18.664  25.626  1.00  0.00    -0.237 OA
ATOM     71  O   UNL A   1      44.968  18.705  23.344  1.00  0.00    -0.744 OA
ENDBRANCH  64  68
ENDBRANCH  47  61
BRANCH  48  72
ATOM     72  C   UNL A   1      47.681  30.059  28.524  1.00  0.00     0.023 A 
ATOM     73  C   UNL A   1      47.273  31.149  27.718  1.00  0.00     0.031 A 
ATOM     74  C   UNL A   1      49.012  30.098  29.001  1.00  0.00     0.131 A 
ATOM     75  C   UNL A   1      48.178  32.203  27.422  1.00  0.00     0.055 A 
ATOM     76  C   UNL A   1      49.896  31.140  28.710  1.00  0.00     0.041 A 
ATOM     77  F   UNL A   1      49.474  29.160  29.843  1.00  0.00    -0.206 F 
ATOM     78  C   UNL A   1      49.481  32.202  27.925  1.00  0.00     0.022 A 
BRANCH  75  79
ATOM     79  S   UNL A   1      47.658  33.644  26.426  1.00  0.00     0.124 S 
ATOM     80  O   UNL A   1      47.586  34.706  27.423  1.00  0.00    -0.237 OA
ATOM     81  O   UNL A   1      48.728  33.749  25.441  1.00  0.00    -0.237 OA
ATOM     82  O   UNL A   1      46.363  33.234  25.877  1.00  0.00    -0.744 OA
ENDBRANCH  75  79
ENDBRANCH  48  72
BRANCH  60  83
ATOM     83  C   UNL A   1      45.239  25.383  32.078  1.00  0.00     0.023 A 
ATOM     84  C   UNL A   1      46.052  24.998  33.171  1.00  0.00     0.031 A 
ATOM     85  C   UNL A   1      44.204  26.299  32.335  1.00  0.00     0.131 A 
ATOM     86  C   UNL A   1      45.801  25.519  34.459  1.00  0.00     0.055 A 
ATOM     87  C   UNL A   1      43.972  26.829  33.604  1.00  0.00     0.041 A 
ATOM     88  F   UNL A   1      43.410  26.725  31.337  1.00  0.00    -0.206 F 
ATOM     89  C   UNL A   1      44.767  26.436  34.673  1.00  0.00     0.022 A 
BRANCH  86  90
ATOM     90  S   UNL A   1      46.808  25.000  35.890  1.00  0.00     0.124 S 
ATOM     91  O   UNL A   1      47.098  26.254  36.575  1.00  0.00    -0.237 OA
ATOM     92  O   UNL A   1      45.915  24.082  36.592  1.00  0.00    -0.237 OA
ATOM     93  O   UNL A   1      47.971  24.360  35.273  1.00  0.00    -0.744 OA
ENDBRANCH  86  90
ENDBRANCH  60  83
ENDBRANCH  34  35
ENDBRANCH  27  29
ENDBRANCH  26  27
ENDBRANCH  25  26
ENDBRANCH   1  25
TORSDOF 21
ENDMDL
MODEL 2
REMARK VINA RESULT:     -10.8      2.291      7.122
REMARK SMILES CCc1nn(-c2ccc(Cl)nn2)c(CC)c1CC(=O)OCCOCCOC(=O)c1ccc(-c2c3nc(c(-c4cc(S(=O)(=O)[O-])ccc4F)c4ccc([nH]4)c(-c4cc(S(=O)(=O)[O-])ccc4F)c4nc(c(-c5cc(S(=O)(=O)[O-])ccc5F)c5ccc2[nH]5)C=C4)C=C3)cc1
REMARK SMILES IDX 24 1 23 2 22 3 21 4 20 5 18 6 19 7 17 8 16 9 3 10 4 11 5 12
REMARK SMILES IDX 13 13 2 14 1 15 6 16 7 17 12 18 8 19 11 20 9 21 10 22 14 23
REMARK SMILES IDX 15 24 25 25 26 26 27 27 28 28 29 29 30 30 91 31 31 32 90 33
REMARK SMILES IDX 32 34 33 35 34 36 84 37 35 38 89 39 83 40 85 41 36 42 88 43
REMARK SMILES IDX 82 44 81 45 37 47 69 48 49 49 68 50 50 51 53 52 67 53 86 54
REMARK SMILES IDX 51 55 52 56 66 58 87 59 54 60 38 61 39 62 47 63 40 64 46 65
REMARK SMILES IDX 48 66 45 67 41 68 42 69 43 70 44 71 70 72 71 73 79 74 72 75
REMARK SMILES IDX 78 76 80 77 77 78 73 79 74 80 75 81 76 82 55 83 56 84 64 85
REMARK SMILES IDX 57 86 63 87 65 88 62 89 58 90 59 91 60 92 61 93
REMARK H PARENT 85 46 53 57
REMARK Flexibility Score: inf
ROOT
ATOM      1  C   UNL A   1      33.253  30.297  27.275  1.00  0.00     0.202 C 
ENDROOT
BRANCH   1   2
ATOM      2  O   UNL A   1      32.036  29.958  26.636  1.00  0.00    -0.374 OA
BRANCH   2   3
ATOM      3  C   UNL A   1      31.777  28.579  26.411  1.00  0.00     0.202 C 
BRANCH   3   4
ATOM      4  C   UNL A   1      31.623  28.097  24.956  1.00  0.00     0.261 C 
BRANCH   4   5
ATOM      5  O   UNL A   1      30.423  27.330  24.690  1.00  0.00    -0.463 OA
BRANCH   5   6
ATOM      6  C   UNL A   1      30.413  26.057  25.161  1.00  0.00     0.310 C 
ATOM      7  O   UNL A   1      29.977  25.742  26.268  1.00  0.00    -0.252 OA
BRANCH   6   8
ATOM      8  C   UNL A   1      30.856  24.982  24.186  1.00  0.00     0.162 C 
BRANCH   8   9
ATOM      9  C   UNL A   1      32.303  24.589  24.084  1.00  0.00     0.008 A 
ATOM     10  C   UNL A   1      33.215  24.965  23.050  1.00  0.00     0.067 A 
ATOM     11  N   UNL A   1      34.448  24.505  23.281  1.00  0.00    -0.171 NA
ATOM     12  N   UNL A   1      34.389  23.914  24.497  1.00  0.00    -0.217 N 
ATOM     13  C   UNL A   1      33.128  24.032  25.071  1.00  0.00     0.050 A 
BRANCH  10  14
ATOM     14  C   UNL A   1      32.957  25.811  21.835  1.00  0.00     0.055 C 
ATOM     15  C   UNL A   1      33.501  27.233  21.949  1.00  0.00     0.011 C 
ENDBRANCH  10  14
BRANCH  12  16
ATOM     16  C   UNL A   1      35.502  23.211  25.019  1.00  0.00     0.176 A 
ATOM     17  C   UNL A   1      36.547  23.949  25.561  1.00  0.00     0.054 A 
ATOM     18  N   UNL A   1      35.624  21.889  24.767  1.00  0.00    -0.129 NA
ATOM     19  C   UNL A   1      37.750  23.314  25.848  1.00  0.00     0.047 A 
ATOM     20  N   UNL A   1      36.810  21.256  25.070  1.00  0.00    -0.136 NA
ATOM     21  C   UNL A   1      37.835  21.962  25.599  1.00  0.00     0.151 A 
ATOM     22  Cl  UNL A   1      39.289  21.101  25.847  1.00  0.00    -0.060 Cl
ENDBRANCH  12  16
BRANCH  13  23
ATOM     23  C   UNL A   1      32.854  23.799  26.539  1.00  0.00     0.053 C 
ATOM     24  C   UNL A   1      31.846  22.732  26.945  1.00  0.00     0.011 C 
ENDBRANCH  13  23
ENDBRANCH   8   9
ENDBRANCH   6   8
ENDBRANCH   5   6
ENDBRANCH   4   5
ENDBRANCH   3   4
ENDBRANCH   2   3
ENDBRANCH   1   2
BRANCH   1  25
ATOM     25  C   UNL A   1      33.533  31.751  27.644  1.00  0.00     0.261 C 
BRANCH  25  26
ATOM     26  O   UNL A   1      34.885  32.191  27.728  1.00  0.00    -0.460 OA
BRANCH  26  27
ATOM     27  C   UNL A   1      35.427  32.034  28.955  1.00  0.00     0.338 C 
ATOM     28  O   UNL A   1      34.996  32.535  29.993  1.00  0.00    -0.246 OA
BRANCH  27  29
ATOM     29  C   UNL A   1      36.739  31.372  28.855  1.00  0.00     0.060 A 
ATOM     30  C   UNL A   1      36.724  30.026  28.489  1.00  0.00     0.016 A 
ATOM     31  C   UNL A   1      37.915  31.968  29.338  1.00  0.00     0.016 A 
ATOM     32  C   UNL A   1      37.824  29.241  28.776  1.00  0.00     0.010 A 
ATOM     33  C   UNL A   1      39.011  31.171  29.649  1.00  0.00     0.010 A 
ATOM     34  C   UNL A   1      38.935  29.798  29.426  1.00  0.00    -0.014 A 
BRANCH  34  35
ATOM     35  C   UNL A   1      40.095  28.933  29.606  1.00  0.00     0.031 A 
ATOM     36  C   UNL A   1      40.429  28.777  31.041  1.00  0.00     0.074 A 
ATOM     37  C   UNL A   1      40.802  28.308  28.644  1.00  0.00     0.049 A 
ATOM     38  N   UNL A   1      41.415  29.327  31.666  1.00  0.00    -0.248 NA
ATOM     39  C   UNL A   1      39.441  28.132  31.920  1.00  0.00     0.031 C 
ATOM     40  C   UNL A   1      40.518  28.200  27.219  1.00  0.00     0.029 A 
ATOM     41  N   UNL A   1      41.945  27.574  28.770  1.00  0.00    -0.354 N 
ATOM     42  C   UNL A   1      41.305  28.903  32.981  1.00  0.00     0.074 A 
ATOM     43  C   UNL A   1      39.982  28.352  33.118  1.00  0.00     0.031 C 
ATOM     44  C   UNL A   1      41.321  27.266  26.656  1.00  0.00     0.029 A 
ATOM     45  C   UNL A   1      42.282  26.816  27.650  1.00  0.00     0.049 A 
ATOM     46  H   UNL A   1      42.489  27.579  29.590  1.00  0.00     0.167 HD
ATOM     47  C   UNL A   1      42.400  28.812  33.781  1.00  0.00     0.034 A 
ATOM     48  C   UNL A   1      43.270  25.878  27.552  1.00  0.00     0.034 A 
ATOM     49  C   UNL A   1      43.489  29.616  33.278  1.00  0.00     0.049 A 
ATOM     50  C   UNL A   1      44.266  26.209  28.603  1.00  0.00     0.074 A 
ATOM     51  C   UNL A   1      43.642  30.964  33.001  1.00  0.00     0.029 A 
ATOM     52  N   UNL A   1      44.500  28.988  32.587  1.00  0.00    -0.354 N 
ATOM     53  N   UNL A   1      44.985  27.298  28.577  1.00  0.00    -0.248 NA
ATOM     54  C   UNL A   1      44.092  25.613  29.920  1.00  0.00     0.031 C 
ATOM     55  C   UNL A   1      44.374  31.006  31.777  1.00  0.00     0.029 A 
ATOM     56  C   UNL A   1      44.702  29.696  31.424  1.00  0.00     0.049 A 
ATOM     57  H   UNL A   1      44.987  28.181  32.871  1.00  0.00     0.167 HD
ATOM     58  C   UNL A   1      44.975  27.765  29.882  1.00  0.00     0.074 A 
ATOM     59  C   UNL A   1      44.475  26.644  30.680  1.00  0.00     0.031 C 
ATOM     60  C   UNL A   1      45.105  29.095  30.165  1.00  0.00     0.034 A 
BRANCH  47  61
ATOM     61  C   UNL A   1      42.585  27.713  34.796  1.00  0.00     0.023 A 
ATOM     62  C   UNL A   1      43.314  26.575  34.415  1.00  0.00     0.031 A 
ATOM     63  C   UNL A   1      41.851  27.605  36.002  1.00  0.00     0.131 A 
ATOM     64  C   UNL A   1      43.247  25.395  35.175  1.00  0.00     0.055 A 
ATOM     65  C   UNL A   1      41.843  26.455  36.790  1.00  0.00     0.041 A 
ATOM     66  F   UNL A   1      41.019  28.561  36.432  1.00  0.00    -0.206 F 
ATOM     67  C   UNL A   1      42.523  25.329  36.364  1.00  0.00     0.022 A 
BRANCH  64  68
ATOM     68  S   UNL A   1      43.982  23.885  34.498  1.00  0.00     0.124 S 
ATOM     69  O   UNL A   1      44.780  23.411  35.624  1.00  0.00    -0.237 OA
ATOM     70  O   UNL A   1      42.798  23.096  34.171  1.00  0.00    -0.237 OA
ATOM     71  O   UNL A   1      44.746  24.365  33.351  1.00  0.00    -0.744 OA
ENDBRANCH  64  68
ENDBRANCH  47  61
BRANCH  48  72
ATOM     72  C   UNL A   1      43.156  24.524  26.926  1.00  0.00     0.023 A 
ATOM     73  C   UNL A   1      44.075  24.015  25.976  1.00  0.00     0.031 A 
ATOM     74  C   UNL A   1      42.240  23.595  27.470  1.00  0.00     0.131 A 
ATOM     75  C   UNL A   1      44.046  22.643  25.612  1.00  0.00     0.055 A 
ATOM     76  C   UNL A   1      42.220  22.245  27.111  1.00  0.00     0.041 A 
ATOM     77  F   UNL A   1      41.384  23.952  28.440  1.00  0.00    -0.206 F 
ATOM     78  C   UNL A   1      43.129  21.760  26.186  1.00  0.00     0.022 A 
BRANCH  75  79
ATOM     79  S   UNL A   1      45.256  21.953  24.427  1.00  0.00     0.124 S 
ATOM     80  O   UNL A   1      45.545  23.099  23.573  1.00  0.00    -0.237 OA
ATOM     81  O   UNL A   1      46.333  21.507  25.301  1.00  0.00    -0.237 OA
ATOM     82  O   UNL A   1      44.517  20.873  23.770  1.00  0.00    -0.744 OA
ENDBRANCH  75  79
ENDBRANCH  48  72
BRANCH  60  83
ATOM     83  C   UNL A   1      45.516  30.037  29.046  1.00  0.00     0.023 A 
ATOM     84  C   UNL A   1      46.850  30.372  28.709  1.00  0.00     0.031 A 
ATOM     85  C   UNL A   1      44.496  30.530  28.213  1.00  0.00     0.131 A 
ATOM     86  C   UNL A   1      47.113  31.183  27.583  1.00  0.00     0.055 A 
ATOM     87  C   UNL A   1      44.761  31.312  27.090  1.00  0.00     0.041 A 
ATOM     88  F   UNL A   1      43.210  30.230  28.464  1.00  0.00    -0.206 F 
ATOM     89  C   UNL A   1      46.071  31.647  26.774  1.00  0.00     0.022 A 
BRANCH  86  90
ATOM     90  S   UNL A   1      48.821  31.666  27.158  1.00  0.00     0.124 S 
ATOM     91  O   UNL A   1      49.405  32.022  28.445  1.00  0.00    -0.237 OA
ATOM     92  O   UNL A   1      49.349  30.456  26.531  1.00  0.00    -0.237 OA
ATOM     93  O   UNL A   1      48.638  32.792  26.239  1.00  0.00    -0.744 OA
ENDBRANCH  86  90
ENDBRANCH  60  83
ENDBRANCH  34  35
ENDBRANCH  27  29
ENDBRANCH  26  27
ENDBRANCH  25  26
ENDBRANCH   1  25
TORSDOF 21
ENDMDL
MODEL 3
REMARK VINA RESULT:     -10.7      4.743      9.426
REMARK SMILES CCc1nn(-c2ccc(Cl)nn2)c(CC)c1CC(=O)OCCOCCOC(=O)c1ccc(-c2c3nc(c(-c4cc(S(=O)(=O)[O-])ccc4F)c4ccc([nH]4)c(-c4cc(S(=O)(=O)[O-])ccc4F)c4nc(c(-c5cc(S(=O)(=O)[O-])ccc5F)c5ccc2[nH]5)C=C4)C=C3)cc1
REMARK SMILES IDX 24 1 23 2 22 3 21 4 20 5 18 6 19 7 17 8 16 9 3 10 4 11 5 12
REMARK SMILES IDX 13 13 2 14 1 15 6 16 7 17 12 18 8 19 11 20 9 21 10 22 14 23
REMARK SMILES IDX 15 24 25 25 26 26 27 27 28 28 29 29 30 30 91 31 31 32 90 33
REMARK SMILES IDX 32 34 33 35 34 36 84 37 35 38 89 39 83 40 85 41 36 42 88 43
REMARK SMILES IDX 82 44 81 45 37 47 69 48 49 49 68 50 50 51 53 52 67 53 86 54
REMARK SMILES IDX 51 55 52 56 66 58 87 59 54 60 38 61 39 62 47 63 40 64 46 65
REMARK SMILES IDX 48 66 45 67 41 68 42 69 43 70 44 71 70 72 71 73 79 74 72 75
REMARK SMILES IDX 78 76 80 77 77 78 73 79 74 80 75 81 76 82 55 83 56 84 64 85
REMARK SMILES IDX 57 86 63 87 65 88 62 89 58 90 59 91 60 92 61 93
REMARK H PARENT 85 46 53 57
REMARK Flexibility Score: inf
ROOT
ATOM      1  C   UNL A   1      38.561  21.427  25.803  1.00  0.00     0.202 C 
ENDROOT
BRANCH   1   2
ATOM      2  O   UNL A   1      37.781  22.601  25.673  1.00  0.00    -0.374 OA
BRANCH   2   3
ATOM      3  C   UNL A   1      37.002  22.741  24.492  1.00  0.00     0.202 C 
BRANCH   3   4
ATOM      4  C   UNL A   1      35.680  21.957  24.397  1.00  0.00     0.261 C 
BRANCH   4   5
ATOM      5  O   UNL A   1      34.483  22.751  24.582  1.00  0.00    -0.463 OA
BRANCH   5   6
ATOM      6  C   UNL A   1      34.318  23.789  23.723  1.00  0.00     0.310 C 
ATOM      7  O   UNL A   1      34.310  23.667  22.499  1.00  0.00    -0.252 OA
BRANCH   6   8
ATOM      8  C   UNL A   1      34.002  25.133  24.354  1.00  0.00     0.162 C 
BRANCH   8   9
ATOM      9  C   UNL A   1      32.763  25.889  23.965  1.00  0.00     0.008 A 
ATOM     10  C   UNL A   1      31.432  25.372  23.920  1.00  0.00     0.067 A 
ATOM     11  N   UNL A   1      30.542  26.315  23.596  1.00  0.00    -0.171 NA
ATOM     12  N   UNL A   1      31.250  27.466  23.521  1.00  0.00    -0.217 N 
ATOM     13  C   UNL A   1      32.589  27.274  23.841  1.00  0.00     0.050 A 
BRANCH  10  14
ATOM     14  C   UNL A   1      30.955  23.981  24.226  1.00  0.00     0.055 C 
ATOM     15  C   UNL A   1      30.891  23.668  25.720  1.00  0.00     0.011 C 
ENDBRANCH  10  14
BRANCH  12  16
ATOM     16  C   UNL A   1      30.640  28.669  23.085  1.00  0.00     0.176 A 
ATOM     17  C   UNL A   1      30.362  29.643  24.034  1.00  0.00     0.054 A 
ATOM     18  N   UNL A   1      30.139  28.736  21.832  1.00  0.00    -0.129 NA
ATOM     19  C   UNL A   1      29.546  30.714  23.690  1.00  0.00     0.047 A 
ATOM     20  N   UNL A   1      29.346  29.808  21.485  1.00  0.00    -0.136 NA
ATOM     21  C   UNL A   1      29.069  30.766  22.399  1.00  0.00     0.151 A 
ATOM     22  Cl  UNL A   1      28.000  31.998  21.893  1.00  0.00    -0.060 Cl
ENDBRANCH  12  16
BRANCH  13  23
ATOM     23  C   UNL A   1      33.533  28.401  24.192  1.00  0.00     0.053 C 
ATOM     24  C   UNL A   1      33.851  28.672  25.657  1.00  0.00     0.011 C 
ENDBRANCH  13  23
ENDBRANCH   8   9
ENDBRANCH   6   8
ENDBRANCH   5   6
ENDBRANCH   4   5
ENDBRANCH   3   4
ENDBRANCH   2   3
ENDBRANCH   1   2
BRANCH   1  25
ATOM     25  C   UNL A   1      40.023  21.535  26.225  1.00  0.00     0.261 C 
BRANCH  25  26
ATOM     26  O   UNL A   1      40.642  22.818  26.238  1.00  0.00    -0.460 OA
BRANCH  26  27
ATOM     27  C   UNL A   1      41.609  22.941  27.172  1.00  0.00     0.338 C 
ATOM     28  O   UNL A   1      42.426  22.070  27.469  1.00  0.00    -0.246 OA
BRANCH  27  29
ATOM     29  C   UNL A   1      41.410  24.172  27.957  1.00  0.00     0.060 A 
ATOM     30  C   UNL A   1      40.220  24.863  27.729  1.00  0.00     0.016 A 
ATOM     31  C   UNL A   1      42.447  24.760  28.698  1.00  0.00     0.016 A 
ATOM     32  C   UNL A   1      40.140  26.196  28.082  1.00  0.00     0.010 A 
ATOM     33  C   UNL A   1      42.374  26.108  29.029  1.00  0.00     0.010 A 
ATOM     34  C   UNL A   1      41.245  26.837  28.662  1.00  0.00    -0.014 A 
BRANCH  34  35
ATOM     35  C   UNL A   1      41.053  28.215  29.096  1.00  0.00     0.031 A 
ATOM     36  C   UNL A   1      42.065  29.113  28.494  1.00  0.00     0.074 A 
ATOM     37  C   UNL A   1      40.092  28.683  29.918  1.00  0.00     0.049 A 
ATOM     38  N   UNL A   1      43.084  29.634  29.089  1.00  0.00    -0.248 NA
ATOM     39  C   UNL A   1      42.077  29.265  27.030  1.00  0.00     0.031 C 
ATOM     40  C   UNL A   1      38.926  27.994  30.453  1.00  0.00     0.029 A 
ATOM     41  N   UNL A   1      39.943  29.943  30.419  1.00  0.00    -0.354 N 
ATOM     42  C   UNL A   1      43.742  30.376  28.120  1.00  0.00     0.074 A 
ATOM     43  C   UNL A   1      43.205  29.953  26.854  1.00  0.00     0.031 C 
ATOM     44  C   UNL A   1      38.072  28.888  31.008  1.00  0.00     0.029 A 
ATOM     45  C   UNL A   1      38.703  30.199  31.003  1.00  0.00     0.049 A 
ATOM     46  H   UNL A   1      40.656  30.619  30.373  1.00  0.00     0.167 HD
ATOM     47  C   UNL A   1      44.493  31.458  28.458  1.00  0.00     0.034 A 
ATOM     48  C   UNL A   1      38.225  31.402  31.437  1.00  0.00     0.034 A 
ATOM     49  C   UNL A   1      44.879  31.418  29.849  1.00  0.00     0.049 A 
ATOM     50  C   UNL A   1      39.413  32.246  31.721  1.00  0.00     0.074 A 
ATOM     51  C   UNL A   1      45.590  30.519  30.624  1.00  0.00     0.029 A 
ATOM     52  N   UNL A   1      44.177  32.192  30.745  1.00  0.00    -0.354 N 
ATOM     53  N   UNL A   1      40.256  31.978  32.682  1.00  0.00    -0.248 NA
ATOM     54  C   UNL A   1      39.946  33.062  30.640  1.00  0.00     0.031 C 
ATOM     55  C   UNL A   1      44.881  30.458  31.860  1.00  0.00     0.029 A 
ATOM     56  C   UNL A   1      43.835  31.383  31.804  1.00  0.00     0.049 A 
ATOM     57  H   UNL A   1      43.958  33.146  30.645  1.00  0.00     0.167 HD
ATOM     58  C   UNL A   1      41.509  32.196  32.130  1.00  0.00     0.074 A 
ATOM     59  C   UNL A   1      41.253  32.938  30.894  1.00  0.00     0.031 C 
ATOM     60  C   UNL A   1      42.611  31.521  32.572  1.00  0.00     0.034 A 
BRANCH  47  61
ATOM     61  C   UNL A   1      44.552  32.709  27.620  1.00  0.00     0.023 A 
ATOM     62  C   UNL A   1      43.853  33.841  28.070  1.00  0.00     0.031 A 
ATOM     63  C   UNL A   1      45.016  32.756  26.283  1.00  0.00     0.131 A 
ATOM     64  C   UNL A   1      43.593  34.914  27.198  1.00  0.00     0.055 A 
ATOM     65  C   UNL A   1      44.816  33.852  25.444  1.00  0.00     0.041 A 
ATOM     66  F   UNL A   1      45.593  31.710  25.679  1.00  0.00    -0.206 F 
ATOM     67  C   UNL A   1      44.077  34.930  25.891  1.00  0.00     0.022 A 
BRANCH  64  68
ATOM     68  S   UNL A   1      42.462  36.218  27.743  1.00  0.00     0.124 S 
ATOM     69  O   UNL A   1      41.236  35.465  27.989  1.00  0.00    -0.237 OA
ATOM     70  O   UNL A   1      43.147  36.736  28.924  1.00  0.00    -0.237 OA
ATOM     71  O   UNL A   1      42.416  37.127  26.601  1.00  0.00    -0.744 OA
ENDBRANCH  64  68
ENDBRANCH  47  61
BRANCH  48  72
ATOM     72  C   UNL A   1      36.860  31.963  31.187  1.00  0.00     0.023 A 
ATOM     73  C   UNL A   1      36.067  32.579  32.184  1.00  0.00     0.031 A 
ATOM     74  C   UNL A   1      36.420  32.120  29.852  1.00  0.00     0.131 A 
ATOM     75  C   UNL A   1      34.899  33.304  31.827  1.00  0.00     0.055 A 
ATOM     76  C   UNL A   1      35.272  32.837  29.507  1.00  0.00     0.041 A 
ATOM     77  F   UNL A   1      37.144  31.650  28.824  1.00  0.00    -0.206 F 
ATOM     78  C   UNL A   1      34.510  33.441  30.493  1.00  0.00     0.022 A 
BRANCH  75  79
ATOM     79  S   UNL A   1      33.887  34.151  33.093  1.00  0.00     0.124 S 
ATOM     80  O   UNL A   1      33.425  35.337  32.383  1.00  0.00    -0.237 OA
ATOM     81  O   UNL A   1      32.877  33.149  33.410  1.00  0.00    -0.237 OA
ATOM     82  O   UNL A   1      34.840  34.419  34.172  1.00  0.00    -0.744 OA
ENDBRANCH  75  79
ENDBRANCH  48  72
BRANCH  60  83
ATOM     83  C   UNL A   1      42.498  30.710  33.852  1.00  0.00     0.023 A 
ATOM     84  C   UNL A   1      42.132  29.344  33.924  1.00  0.00     0.031 A 
ATOM     85  C   UNL A   1      42.889  31.338  35.048  1.00  0.00     0.131 A 
ATOM     86  C   UNL A   1      42.156  28.669  35.165  1.00  0.00     0.055 A 
ATOM     87  C   UNL A   1      42.932  30.663  36.266  1.00  0.00     0.041 A 
ATOM     88  F   UNL A   1      43.270  32.627  35.045  1.00  0.00    -0.206 F 
ATOM     89  C   UNL A   1      42.560  29.327  36.331  1.00  0.00     0.022 A 
BRANCH  86  90
ATOM     90  S   UNL A   1      41.645  26.922  35.288  1.00  0.00     0.124 S 
ATOM     91  O   UNL A   1      41.229  26.786  36.678  1.00  0.00    -0.237 OA
ATOM     92  O   UNL A   1      40.580  26.830  34.293  1.00  0.00    -0.237 OA
ATOM     93  O   UNL A   1      42.862  26.186  34.942  1.00  0.00    -0.744 OA
ENDBRANCH  86  90
ENDBRANCH  60  83
ENDBRANCH  34  35
ENDBRANCH  27  29
ENDBRANCH  26  27
ENDBRANCH  25  26
ENDBRANCH   1  25
TORSDOF 21
ENDMDL
