MODEL 1
REMARK VINA RESULT:     -10.4      0.000      0.000
REMARK SMILES C/C(=N\NC(N)=S)c1nnn(-c2ccc(C(=O)OCCOCCOC(=O)c3ccc(-c4c5nc(c(-c6cc(S(=O)(=O)[O-])ccc6F)c6ccc([nH]6)c(-c6cc(S(=O)(=O)[O-])ccc6F)c6nc(c(-c7cc(S(=O)(=O)[O-])ccc7F)c7ccc4[nH]7)C=C6)C=C5)cc3)cc2)c1C
REMARK SMILES IDX 20 1 19 2 18 3 16 4 17 5 15 6 12 7 13 8 91 9 14 10 90 11
REMARK SMILES IDX 11 12 8 13 9 14 92 15 10 16 93 17 2 18 1 19 3 20 4 21 5 23
REMARK SMILES IDX 7 24 6 25 21 28 22 29 23 30 24 31 25 32 26 33 27 34 28 35
REMARK SMILES IDX 89 36 29 37 88 38 30 39 31 40 32 41 82 42 33 43 87 44 81 45
REMARK SMILES IDX 83 46 34 47 86 48 80 49 79 50 35 52 67 53 47 54 66 55 48 56
REMARK SMILES IDX 51 57 65 58 84 59 49 60 50 61 64 63 85 64 52 65 36 66 37 67
REMARK SMILES IDX 45 68 38 69 44 70 46 71 43 72 39 73 40 74 41 75 42 76 68 77
REMARK SMILES IDX 69 78 77 79 70 80 76 81 78 82 75 83 71 84 72 85 73 86 74 87
REMARK SMILES IDX 53 88 54 89 62 90 55 91 61 92 63 93 60 94 56 95 57 96 58 97
REMARK SMILES IDX 59 98
REMARK H PARENT 4 22 6 26 6 27 83 51 51 62
REMARK Flexibility Score: inf
ROOT
ATOM      1  C   UNL A   1      40.691  29.357  34.543  1.00  0.00     0.202 C 
ENDROOT
BRANCH   1   2
ATOM      2  C   UNL A   1      41.672  28.187  34.497  1.00  0.00     0.261 C 
BRANCH   2   3
ATOM      3  O   UNL A   1      41.053  26.939  34.838  1.00  0.00    -0.460 OA
BRANCH   3   4
ATOM      4  C   UNL A   1      41.463  26.409  36.014  1.00  0.00     0.338 C 
ATOM      5  O   UNL A   1      40.934  26.535  37.106  1.00  0.00    -0.246 OA
BRANCH   4   6
ATOM      6  C   UNL A   1      42.626  25.525  35.794  1.00  0.00     0.060 A 
ATOM      7  C   UNL A   1      44.499  23.506  35.589  1.00  0.00     0.067 A 
ATOM      8  C   UNL A   1      43.548  23.639  34.574  1.00  0.00     0.029 A 
ATOM      9  C   UNL A   1      44.621  24.466  36.603  1.00  0.00     0.029 A 
ATOM     10  C   UNL A   1      42.589  24.644  34.700  1.00  0.00     0.018 A 
ATOM     11  C   UNL A   1      43.685  25.488  36.703  1.00  0.00     0.018 A 
BRANCH   7  12
ATOM     12  N   UNL A   1      45.146  22.266  35.759  1.00  0.00    -0.217 N 
ATOM     13  C   UNL A   1      46.122  20.536  36.649  1.00  0.00     0.132 A 
ATOM     14  N   UNL A   1      45.702  20.209  35.384  1.00  0.00    -0.128 NA
ATOM     15  C   UNL A   1      45.722  21.823  36.941  1.00  0.00     0.071 A 
ATOM     16  N   UNL A   1      45.017  21.238  34.896  1.00  0.00    -0.061 NA
ATOM     17  C   UNL A   1      45.706  22.578  38.218  1.00  0.00     0.069 C 
BRANCH  13  18
ATOM     18  C   UNL A   1      46.690  19.562  37.565  1.00  0.00     0.087 C 
ATOM     19  C   UNL A   1      48.189  19.577  37.704  1.00  0.00     0.071 C 
ATOM     20  N   UNL A   1      45.830  18.810  38.181  1.00  0.00    -0.176 NA
BRANCH  20  21
ATOM     21  N   UNL A   1      46.179  17.888  39.122  1.00  0.00    -0.254 N 
ATOM     22  H   UNL A   1      47.113  17.936  39.430  1.00  0.00     0.193 HD
BRANCH  21  23
ATOM     23  C   UNL A   1      45.417  16.897  39.707  1.00  0.00     0.184 C 
ATOM     24  S   UNL A   1      44.684  16.840  41.198  1.00  0.00    -0.040 S 
BRANCH  23  25
ATOM     25  N   UNL A   1      45.275  15.810  38.884  1.00  0.00    -0.375 N 
ATOM     26  H   UNL A   1      45.421  14.903  39.238  1.00  0.00     0.159 HD
ATOM     27  H   UNL A   1      45.028  15.937  37.940  1.00  0.00     0.159 HD
ENDBRANCH  23  25
ENDBRANCH  21  23
ENDBRANCH  20  21
ENDBRANCH  13  18
ENDBRANCH   7  12
ENDBRANCH   4   6
ENDBRANCH   3   4
ENDBRANCH   2   3
ENDBRANCH   1   2
BRANCH   1  28
ATOM     28  O   UNL A   1      39.447  29.229  33.856  1.00  0.00    -0.374 OA
BRANCH  28  29
ATOM     29  C   UNL A   1      38.412  30.187  34.050  1.00  0.00     0.202 C 
BRANCH  29  30
ATOM     30  C   UNL A   1      37.433  30.465  32.918  1.00  0.00     0.261 C 
BRANCH  30  31
ATOM     31  O   UNL A   1      37.142  29.296  32.171  1.00  0.00    -0.460 OA
BRANCH  31  32
ATOM     32  C   UNL A   1      36.916  29.531  30.856  1.00  0.00     0.338 C 
ATOM     33  O   UNL A   1      36.081  30.271  30.375  1.00  0.00    -0.246 OA
BRANCH  32  34
ATOM     34  C   UNL A   1      37.787  28.645  30.078  1.00  0.00     0.060 A 
ATOM     35  C   UNL A   1      38.474  27.680  30.815  1.00  0.00     0.016 A 
ATOM     36  C   UNL A   1      38.157  28.995  28.770  1.00  0.00     0.016 A 
ATOM     37  C   UNL A   1      39.709  27.293  30.358  1.00  0.00     0.010 A 
ATOM     38  C   UNL A   1      39.388  28.602  28.313  1.00  0.00     0.010 A 
ATOM     39  C   UNL A   1      40.191  27.860  29.172  1.00  0.00    -0.014 A 
BRANCH  39  40
ATOM     40  C   UNL A   1      41.566  27.611  28.814  1.00  0.00     0.031 A 
ATOM     41  C   UNL A   1      41.720  26.340  28.082  1.00  0.00     0.074 A 
ATOM     42  C   UNL A   1      42.559  28.481  29.077  1.00  0.00     0.049 A 
ATOM     43  N   UNL A   1      42.205  25.237  28.540  1.00  0.00    -0.248 NA
ATOM     44  C   UNL A   1      41.038  26.208  26.786  1.00  0.00     0.031 C 
ATOM     45  C   UNL A   1      42.481  29.847  29.599  1.00  0.00     0.029 A 
ATOM     46  N   UNL A   1      43.888  28.327  28.849  1.00  0.00    -0.354 N 
ATOM     47  C   UNL A   1      42.119  24.336  27.490  1.00  0.00     0.074 A 
ATOM     48  C   UNL A   1      41.195  24.907  26.548  1.00  0.00     0.031 C 
ATOM     49  C   UNL A   1      43.674  30.465  29.419  1.00  0.00     0.029 A 
ATOM     50  C   UNL A   1      44.634  29.499  28.905  1.00  0.00     0.049 A 
ATOM     51  H   UNL A   1      44.294  27.450  28.658  1.00  0.00     0.167 HD
ATOM     52  C   UNL A   1      43.025  23.332  27.363  1.00  0.00     0.034 A 
ATOM     53  C   UNL A   1      45.923  29.658  28.491  1.00  0.00     0.034 A 
ATOM     54  C   UNL A   1      43.732  23.109  28.606  1.00  0.00     0.049 A 
ATOM     55  C   UNL A   1      46.533  28.300  28.502  1.00  0.00     0.074 A 
ATOM     56  C   UNL A   1      43.340  22.745  29.881  1.00  0.00     0.029 A 
ATOM     57  N   UNL A   1      44.981  23.671  28.750  1.00  0.00    -0.354 N 
ATOM     58  N   UNL A   1      46.713  27.618  29.603  1.00  0.00    -0.248 NA
ATOM     59  C   UNL A   1      46.436  27.492  27.292  1.00  0.00     0.031 C 
ATOM     60  C   UNL A   1      44.127  23.556  30.751  1.00  0.00     0.029 A 
ATOM     61  C   UNL A   1      45.017  24.301  29.973  1.00  0.00     0.049 A 
ATOM     62  H   UNL A   1      45.716  23.631  28.095  1.00  0.00     0.167 HD
ATOM     63  C   UNL A   1      46.315  26.323  29.300  1.00  0.00     0.074 A 
ATOM     64  C   UNL A   1      46.234  26.287  27.839  1.00  0.00     0.031 C 
ATOM     65  C   UNL A   1      45.800  25.492  30.258  1.00  0.00     0.034 A 
BRANCH  52  66
ATOM     66  C   UNL A   1      43.531  22.828  26.035  1.00  0.00     0.023 A 
ATOM     67  C   UNL A   1      43.660  21.438  25.880  1.00  0.00     0.031 A 
ATOM     68  C   UNL A   1      44.149  23.622  25.040  1.00  0.00     0.131 A 
ATOM     69  C   UNL A   1      44.439  20.902  24.841  1.00  0.00     0.055 A 
ATOM     70  C   UNL A   1      44.863  23.082  23.971  1.00  0.00     0.041 A 
ATOM     71  F   UNL A   1      44.190  24.958  25.094  1.00  0.00    -0.206 F 
ATOM     72  C   UNL A   1      45.040  21.715  23.883  1.00  0.00     0.022 A 
BRANCH  69  73
ATOM     73  S   UNL A   1      44.803  19.130  24.869  1.00  0.00     0.124 S 
ATOM     74  O   UNL A   1      46.080  19.099  25.575  1.00  0.00    -0.237 OA
ATOM     75  O   UNL A   1      43.653  18.600  25.594  1.00  0.00    -0.237 OA
ATOM     76  O   UNL A   1      44.866  18.776  23.453  1.00  0.00    -0.744 OA
ENDBRANCH  69  73
ENDBRANCH  52  66
BRANCH  53  77
ATOM     77  C   UNL A   1      46.442  30.799  27.673  1.00  0.00     0.023 A 
ATOM     78  C   UNL A   1      45.623  31.657  26.902  1.00  0.00     0.031 A 
ATOM     79  C   UNL A   1      47.789  31.200  27.837  1.00  0.00     0.131 A 
ATOM     80  C   UNL A   1      46.163  32.840  26.331  1.00  0.00     0.055 A 
ATOM     81  C   UNL A   1      48.314  32.366  27.273  1.00  0.00     0.041 A 
ATOM     82  F   UNL A   1      48.627  30.509  28.625  1.00  0.00    -0.206 F 
ATOM     83  C   UNL A   1      47.500  33.195  26.522  1.00  0.00     0.022 A 
BRANCH  80  84
ATOM     84  S   UNL A   1      45.115  33.984  25.365  1.00  0.00     0.124 S 
ATOM     85  O   UNL A   1      44.374  34.686  26.407  1.00  0.00    -0.237 OA
ATOM     86  O   UNL A   1      46.101  34.766  24.630  1.00  0.00    -0.237 OA
ATOM     87  O   UNL A   1      44.304  33.090  24.536  1.00  0.00    -0.744 OA
ENDBRANCH  80  84
ENDBRANCH  53  77
BRANCH  65  88
ATOM     88  C   UNL A   1      45.884  25.932  31.711  1.00  0.00     0.023 A 
ATOM     89  C   UNL A   1      47.009  25.754  32.554  1.00  0.00     0.031 A 
ATOM     90  C   UNL A   1      44.806  26.673  32.223  1.00  0.00     0.131 A 
ATOM     91  C   UNL A   1      47.012  26.296  33.857  1.00  0.00     0.055 A 
ATOM     92  C   UNL A   1      44.821  27.228  33.503  1.00  0.00     0.041 A 
ATOM     93  F   UNL A   1      43.719  26.902  31.467  1.00  0.00    -0.206 F 
ATOM     94  C   UNL A   1      45.922  27.036  34.328  1.00  0.00     0.022 A 
BRANCH  91  95
ATOM     95  S   UNL A   1      48.424  26.029  34.982  1.00  0.00     0.124 S 
ATOM     96  O   UNL A   1      49.243  27.219  34.789  1.00  0.00    -0.237 OA
ATOM     97  O   UNL A   1      47.773  25.901  36.283  1.00  0.00    -0.237 OA
ATOM     98  O   UNL A   1      49.027  24.790  34.482  1.00  0.00    -0.744 OA
ENDBRANCH  91  95
ENDBRANCH  65  88
ENDBRANCH  39  40
ENDBRANCH  32  34
ENDBRANCH  31  32
ENDBRANCH  30  31
ENDBRANCH  29  30
ENDBRANCH  28  29
ENDBRANCH   1  28
TORSDOF 22
ENDMDL
MODEL 2
REMARK VINA RESULT:     -10.4      5.631     12.186
REMARK SMILES C/C(=N\NC(N)=S)c1nnn(-c2ccc(C(=O)OCCOCCOC(=O)c3ccc(-c4c5nc(c(-c6cc(S(=O)(=O)[O-])ccc6F)c6ccc([nH]6)c(-c6cc(S(=O)(=O)[O-])ccc6F)c6nc(c(-c7cc(S(=O)(=O)[O-])ccc7F)c7ccc4[nH]7)C=C6)C=C5)cc3)cc2)c1C
REMARK SMILES IDX 20 1 19 2 18 3 16 4 17 5 15 6 12 7 13 8 91 9 14 10 90 11
REMARK SMILES IDX 11 12 8 13 9 14 92 15 10 16 93 17 2 18 1 19 3 20 4 21 5 23
REMARK SMILES IDX 7 24 6 25 21 28 22 29 23 30 24 31 25 32 26 33 27 34 28 35
REMARK SMILES IDX 89 36 29 37 88 38 30 39 31 40 32 41 82 42 33 43 87 44 81 45
REMARK SMILES IDX 83 46 34 47 86 48 80 49 79 50 35 52 67 53 47 54 66 55 48 56
REMARK SMILES IDX 51 57 65 58 84 59 49 60 50 61 64 63 85 64 52 65 36 66 37 67
REMARK SMILES IDX 45 68 38 69 44 70 46 71 43 72 39 73 40 74 41 75 42 76 68 77
REMARK SMILES IDX 69 78 77 79 70 80 76 81 78 82 75 83 71 84 72 85 73 86 74 87
REMARK SMILES IDX 53 88 54 89 62 90 55 91 61 92 63 93 60 94 56 95 57 96 58 97
REMARK SMILES IDX 59 98
REMARK H PARENT 4 22 6 26 6 27 83 51 51 62
REMARK Flexibility Score: inf
ROOT
ATOM      1  C   UNL A   1      40.658  21.123  27.367  1.00  0.00     0.202 C 
ENDROOT
BRANCH   1   2
ATOM      2  C   UNL A   1      40.053  21.745  26.109  1.00  0.00     0.261 C 
BRANCH   2   3
ATOM      3  O   UNL A   1      38.621  21.676  26.098  1.00  0.00    -0.460 OA
BRANCH   3   4
ATOM      4  C   UNL A   1      38.107  20.731  25.277  1.00  0.00     0.338 C 
ATOM      5  O   UNL A   1      38.521  19.598  25.104  1.00  0.00    -0.246 OA
BRANCH   4   6
ATOM      6  C   UNL A   1      36.856  21.221  24.661  1.00  0.00     0.060 A 
ATOM      7  C   UNL A   1      34.545  22.508  23.869  1.00  0.00     0.067 A 
ATOM      8  C   UNL A   1      35.768  22.971  23.377  1.00  0.00     0.029 A 
ATOM      9  C   UNL A   1      34.460  21.320  24.608  1.00  0.00     0.029 A 
ATOM     10  C   UNL A   1      36.931  22.333  23.805  1.00  0.00     0.018 A 
ATOM     11  C   UNL A   1      35.621  20.666  25.000  1.00  0.00     0.018 A 
BRANCH   7  12
ATOM     12  N   UNL A   1      33.436  23.378  23.870  1.00  0.00    -0.217 N 
ATOM     13  C   UNL A   1      32.034  24.957  24.397  1.00  0.00     0.132 A 
ATOM     14  N   UNL A   1      31.805  24.572  23.099  1.00  0.00    -0.128 NA
ATOM     15  C   UNL A   1      33.114  24.258  24.893  1.00  0.00     0.071 A 
ATOM     16  N   UNL A   1      32.735  23.686  22.759  1.00  0.00    -0.061 NA
ATOM     17  C   UNL A   1      33.917  24.442  26.127  1.00  0.00     0.069 C 
BRANCH  13  18
ATOM     18  C   UNL A   1      31.359  26.086  25.013  1.00  0.00     0.087 C 
ATOM     19  C   UNL A   1      30.104  25.770  25.782  1.00  0.00     0.071 C 
ATOM     20  N   UNL A   1      31.938  27.237  24.850  1.00  0.00    -0.176 NA
BRANCH  20  21
ATOM     21  N   UNL A   1      31.480  28.392  25.413  1.00  0.00    -0.254 N 
ATOM     22  H   UNL A   1      30.584  28.335  25.816  1.00  0.00     0.193 HD
BRANCH  21  23
ATOM     23  C   UNL A   1      32.089  29.627  25.499  1.00  0.00     0.184 C 
ATOM     24  S   UNL A   1      31.773  30.915  26.501  1.00  0.00    -0.040 S 
BRANCH  23  25
ATOM     25  N   UNL A   1      33.107  29.759  24.590  1.00  0.00    -0.375 N 
ATOM     26  H   UNL A   1      33.625  28.969  24.315  1.00  0.00     0.159 HD
ATOM     27  H   UNL A   1      33.320  30.643  24.214  1.00  0.00     0.159 HD
ENDBRANCH  23  25
ENDBRANCH  21  23
ENDBRANCH  20  21
ENDBRANCH  13  18
ENDBRANCH   7  12
ENDBRANCH   4   6
ENDBRANCH   3   4
ENDBRANCH   2   3
ENDBRANCH   1   2
BRANCH   1  28
ATOM     28  O   UNL A   1      42.025  20.717  27.335  1.00  0.00    -0.374 OA
BRANCH  28  29
ATOM     29  C   UNL A   1      42.774  20.795  26.126  1.00  0.00     0.202 C 
BRANCH  29  30
ATOM     30  C   UNL A   1      43.838  21.874  25.979  1.00  0.00     0.261 C 
BRANCH  30  31
ATOM     31  O   UNL A   1      43.581  22.989  26.814  1.00  0.00    -0.460 OA
BRANCH  31  32
ATOM     32  C   UNL A   1      42.880  23.976  26.205  1.00  0.00     0.338 C 
ATOM     33  O   UNL A   1      42.872  24.248  25.021  1.00  0.00    -0.246 OA
BRANCH  32  34
ATOM     34  C   UNL A   1      42.198  24.758  27.242  1.00  0.00     0.060 A 
ATOM     35  C   UNL A   1      41.078  25.471  26.815  1.00  0.00     0.016 A 
ATOM     36  C   UNL A   1      42.849  25.034  28.454  1.00  0.00     0.016 A 
ATOM     37  C   UNL A   1      40.800  26.655  27.453  1.00  0.00     0.010 A 
ATOM     38  C   UNL A   1      42.565  26.213  29.092  1.00  0.00     0.010 A 
ATOM     39  C   UNL A   1      41.631  27.059  28.505  1.00  0.00    -0.014 A 
BRANCH  39  40
ATOM     40  C   UNL A   1      41.462  28.394  29.025  1.00  0.00     0.031 A 
ATOM     41  C   UNL A   1      42.483  29.320  28.503  1.00  0.00     0.074 A 
ATOM     42  C   UNL A   1      40.447  28.737  29.841  1.00  0.00     0.049 A 
ATOM     43  N   UNL A   1      43.504  29.785  29.138  1.00  0.00    -0.248 NA
ATOM     44  C   UNL A   1      42.514  29.558  27.052  1.00  0.00     0.031 C 
ATOM     45  C   UNL A   1      39.274  27.956  30.242  1.00  0.00     0.029 A 
ATOM     46  N   UNL A   1      40.224  29.934  30.441  1.00  0.00    -0.354 N 
ATOM     47  C   UNL A   1      44.169  30.587  28.223  1.00  0.00     0.074 A 
ATOM     48  C   UNL A   1      43.663  30.221  26.928  1.00  0.00     0.031 C 
ATOM     49  C   UNL A   1      38.362  28.779  30.815  1.00  0.00     0.029 A 
ATOM     50  C   UNL A   1      38.942  30.107  30.949  1.00  0.00     0.049 A 
ATOM     51  H   UNL A   1      40.919  30.628  30.510  1.00  0.00     0.167 HD
ATOM     52  C   UNL A   1      44.876  31.670  28.638  1.00  0.00     0.034 A 
ATOM     53  C   UNL A   1      38.394  31.279  31.381  1.00  0.00     0.034 A 
ATOM     54  C   UNL A   1      45.166  31.592  30.053  1.00  0.00     0.049 A 
ATOM     55  C   UNL A   1      39.537  32.169  31.725  1.00  0.00     0.074 A 
ATOM     56  C   UNL A   1      45.862  30.696  30.842  1.00  0.00     0.029 A 
ATOM     57  N   UNL A   1      44.356  32.295  30.919  1.00  0.00    -0.354 N 
ATOM     58  N   UNL A   1      40.361  31.909  32.706  1.00  0.00    -0.248 NA
ATOM     59  C   UNL A   1      40.085  33.023  30.677  1.00  0.00     0.031 C 
ATOM     60  C   UNL A   1      45.075  30.561  32.025  1.00  0.00     0.029 A 
ATOM     61  C   UNL A   1      43.996  31.443  31.938  1.00  0.00     0.049 A 
ATOM     62  H   UNL A   1      44.085  33.237  30.825  1.00  0.00     0.167 HD
ATOM     63  C   UNL A   1      41.627  32.180  32.202  1.00  0.00     0.074 A 
ATOM     64  C   UNL A   1      41.387  32.942  30.976  1.00  0.00     0.031 C 
ATOM     65  C   UNL A   1      42.732  31.512  32.653  1.00  0.00     0.034 A 
BRANCH  52  66
ATOM     66  C   UNL A   1      44.965  32.957  27.857  1.00  0.00     0.023 A 
ATOM     67  C   UNL A   1      44.125  34.010  28.252  1.00  0.00     0.031 A 
ATOM     68  C   UNL A   1      45.601  33.109  26.601  1.00  0.00     0.131 A 
ATOM     69  C   UNL A   1      43.880  35.094  27.392  1.00  0.00     0.055 A 
ATOM     70  C   UNL A   1      45.407  34.220  25.781  1.00  0.00     0.041 A 
ATOM     71  F   UNL A   1      46.359  32.157  26.047  1.00  0.00    -0.206 F 
ATOM     72  C   UNL A   1      44.517  35.207  26.159  1.00  0.00     0.022 A 
BRANCH  69  73
ATOM     73  S   UNL A   1      42.572  36.263  27.835  1.00  0.00     0.124 S 
ATOM     74  O   UNL A   1      42.893  36.554  29.229  1.00  0.00    -0.237 OA
ATOM     75  O   UNL A   1      42.800  37.342  26.881  1.00  0.00    -0.237 OA
ATOM     76  O   UNL A   1      41.347  35.493  27.626  1.00  0.00    -0.744 OA
ENDBRANCH  69  73
ENDBRANCH  52  66
BRANCH  53  77
ATOM     77  C   UNL A   1      37.021  31.773  31.050  1.00  0.00     0.023 A 
ATOM     78  C   UNL A   1      36.191  32.470  31.959  1.00  0.00     0.031 A 
ATOM     79  C   UNL A   1      36.594  31.752  29.701  1.00  0.00     0.131 A 
ATOM     80  C   UNL A   1      34.996  33.091  31.506  1.00  0.00     0.055 A 
ATOM     81  C   UNL A   1      35.418  32.366  29.261  1.00  0.00     0.041 A 
ATOM     82  F   UNL A   1      37.353  31.199  28.742  1.00  0.00    -0.206 F 
ATOM     83  C   UNL A   1      34.617  33.044  30.162  1.00  0.00     0.022 A 
BRANCH  80  84
ATOM     84  S   UNL A   1      33.928  34.031  32.652  1.00  0.00     0.124 S 
ATOM     85  O   UNL A   1      33.119  32.981  33.261  1.00  0.00    -0.237 OA
ATOM     86  O   UNL A   1      34.900  34.688  33.518  1.00  0.00    -0.237 OA
ATOM     87  O   UNL A   1      33.189  34.936  31.768  1.00  0.00    -0.744 OA
ENDBRANCH  80  84
ENDBRANCH  53  77
BRANCH  65  88
ATOM     88  C   UNL A   1      42.586  30.629  33.883  1.00  0.00     0.023 A 
ATOM     89  C   UNL A   1      42.422  29.222  33.863  1.00  0.00     0.031 A 
ATOM     90  C   UNL A   1      42.737  31.243  35.138  1.00  0.00     0.131 A 
ATOM     91  C   UNL A   1      42.401  28.493  35.071  1.00  0.00     0.055 A 
ATOM     92  C   UNL A   1      42.740  30.517  36.330  1.00  0.00     0.041 A 
ATOM     93  F   UNL A   1      42.923  32.571  35.227  1.00  0.00    -0.206 F 
ATOM     94  C   UNL A   1      42.565  29.139  36.301  1.00  0.00     0.022 A 
BRANCH  91  95
ATOM     95  S   UNL A   1      42.132  26.688  35.074  1.00  0.00     0.124 S 
ATOM     96  O   UNL A   1      42.455  26.298  36.441  1.00  0.00    -0.237 OA
ATOM     97  O   UNL A   1      40.728  26.576  34.689  1.00  0.00    -0.237 OA
ATOM     98  O   UNL A   1      43.077  26.203  34.064  1.00  0.00    -0.744 OA
ENDBRANCH  91  95
ENDBRANCH  65  88
ENDBRANCH  39  40
ENDBRANCH  32  34
ENDBRANCH  31  32
ENDBRANCH  30  31
ENDBRANCH  29  30
ENDBRANCH  28  29
ENDBRANCH   1  28
TORSDOF 22
ENDMDL
MODEL 3
REMARK VINA RESULT:     -10.3      5.727     11.952
REMARK SMILES C/C(=N\NC(N)=S)c1nnn(-c2ccc(C(=O)OCCOCCOC(=O)c3ccc(-c4c5nc(c(-c6cc(S(=O)(=O)[O-])ccc6F)c6ccc([nH]6)c(-c6cc(S(=O)(=O)[O-])ccc6F)c6nc(c(-c7cc(S(=O)(=O)[O-])ccc7F)c7ccc4[nH]7)C=C6)C=C5)cc3)cc2)c1C
REMARK SMILES IDX 20 1 19 2 18 3 16 4 17 5 15 6 12 7 13 8 91 9 14 10 90 11
REMARK SMILES IDX 11 12 8 13 9 14 92 15 10 16 93 17 2 18 1 19 3 20 4 21 5 23
REMARK SMILES IDX 7 24 6 25 21 28 22 29 23 30 24 31 25 32 26 33 27 34 28 35
REMARK SMILES IDX 89 36 29 37 88 38 30 39 31 40 32 41 82 42 33 43 87 44 81 45
REMARK SMILES IDX 83 46 34 47 86 48 80 49 79 50 35 52 67 53 47 54 66 55 48 56
REMARK SMILES IDX 51 57 65 58 84 59 49 60 50 61 64 63 85 64 52 65 36 66 37 67
REMARK SMILES IDX 45 68 38 69 44 70 46 71 43 72 39 73 40 74 41 75 42 76 68 77
REMARK SMILES IDX 69 78 77 79 70 80 76 81 78 82 75 83 71 84 72 85 73 86 74 87
REMARK SMILES IDX 53 88 54 89 62 90 55 91 61 92 63 93 60 94 56 95 57 96 58 97
REMARK SMILES IDX 59 98
REMARK H PARENT 4 22 6 26 6 27 83 51 51 62
REMARK Flexibility Score: inf
ROOT
ATOM      1  C   UNL A   1      44.333  19.321  25.327  1.00  0.00     0.202 C 
ENDROOT
BRANCH   1   2
ATOM      2  C   UNL A   1      43.070  18.530  25.665  1.00  0.00     0.261 C 
BRANCH   2   3
ATOM      3  O   UNL A   1      41.873  19.273  25.400  1.00  0.00    -0.460 OA
BRANCH   3   4
ATOM      4  C   UNL A   1      41.360  19.920  26.473  1.00  0.00     0.338 C 
ATOM      5  O   UNL A   1      41.929  20.181  27.519  1.00  0.00    -0.246 OA
BRANCH   4   6
ATOM      6  C   UNL A   1      39.993  20.393  26.174  1.00  0.00     0.060 A 
ATOM      7  C   UNL A   1      37.619  21.349  25.136  1.00  0.00     0.067 A 
ATOM      8  C   UNL A   1      37.913  19.991  24.987  1.00  0.00     0.029 A 
ATOM      9  C   UNL A   1      38.413  22.183  25.936  1.00  0.00     0.029 A 
ATOM     10  C   UNL A   1      39.127  19.523  25.490  1.00  0.00     0.018 A 
ATOM     11  C   UNL A   1      39.604  21.701  26.466  1.00  0.00     0.018 A 
BRANCH   7  12
ATOM     12  N   UNL A   1      36.693  21.947  24.259  1.00  0.00    -0.217 N 
ATOM     13  C   UNL A   1      34.861  22.754  23.405  1.00  0.00     0.132 A 
ATOM     14  N   UNL A   1      35.933  23.238  22.698  1.00  0.00    -0.128 NA
ATOM     15  C   UNL A   1      35.320  21.980  24.450  1.00  0.00     0.071 A 
ATOM     16  N   UNL A   1      37.045  22.823  23.295  1.00  0.00    -0.061 NA
ATOM     17  C   UNL A   1      34.623  21.421  25.635  1.00  0.00     0.069 C 
BRANCH  13  18
ATOM     18  C   UNL A   1      33.500  23.207  23.177  1.00  0.00     0.087 C 
ATOM     19  C   UNL A   1      32.526  22.167  22.692  1.00  0.00     0.071 C 
ATOM     20  N   UNL A   1      33.277  24.457  23.450  1.00  0.00    -0.176 NA
BRANCH  20  21
ATOM     21  N   UNL A   1      32.045  25.036  23.358  1.00  0.00    -0.254 N 
ATOM     22  H   UNL A   1      31.404  24.771  24.057  1.00  0.00     0.193 HD
BRANCH  21  23
ATOM     23  C   UNL A   1      31.566  25.937  22.430  1.00  0.00     0.184 C 
ATOM     24  S   UNL A   1      30.629  27.295  22.631  1.00  0.00    -0.040 S 
BRANCH  23  25
ATOM     25  N   UNL A   1      31.953  25.611  21.155  1.00  0.00    -0.375 N 
ATOM     26  H   UNL A   1      32.354  24.731  20.974  1.00  0.00     0.159 HD
ATOM     27  H   UNL A   1      31.830  26.257  20.423  1.00  0.00     0.159 HD
ENDBRANCH  23  25
ENDBRANCH  21  23
ENDBRANCH  20  21
ENDBRANCH  13  18
ENDBRANCH   7  12
ENDBRANCH   4   6
ENDBRANCH   3   4
ENDBRANCH   2   3
ENDBRANCH   1   2
BRANCH   1  28
ATOM     28  O   UNL A   1      44.219  20.447  24.459  1.00  0.00    -0.374 OA
BRANCH  28  29
ATOM     29  C   UNL A   1      44.256  21.771  24.983  1.00  0.00     0.202 C 
BRANCH  29  30
ATOM     30  C   UNL A   1      42.979  22.599  25.001  1.00  0.00     0.261 C 
BRANCH  30  31
ATOM     31  O   UNL A   1      42.881  23.396  26.168  1.00  0.00    -0.460 OA
BRANCH  31  32
ATOM     32  C   UNL A   1      42.992  24.726  25.933  1.00  0.00     0.338 C 
ATOM     33  O   UNL A   1      43.582  25.263  25.016  1.00  0.00    -0.246 OA
BRANCH  32  34
ATOM     34  C   UNL A   1      42.365  25.441  27.049  1.00  0.00     0.060 A 
ATOM     35  C   UNL A   1      41.216  26.163  26.729  1.00  0.00     0.016 A 
ATOM     36  C   UNL A   1      43.083  25.658  28.235  1.00  0.00     0.016 A 
ATOM     37  C   UNL A   1      40.964  27.306  27.446  1.00  0.00     0.010 A 
ATOM     38  C   UNL A   1      42.827  26.797  28.953  1.00  0.00     0.010 A 
ATOM     39  C   UNL A   1      41.852  27.662  28.469  1.00  0.00    -0.014 A 
BRANCH  39  40
ATOM     40  C   UNL A   1      41.701  28.965  29.071  1.00  0.00     0.031 A 
ATOM     41  C   UNL A   1      42.711  29.918  28.576  1.00  0.00     0.074 A 
ATOM     42  C   UNL A   1      40.710  29.261  29.934  1.00  0.00     0.049 A 
ATOM     43  N   UNL A   1      43.749  30.343  29.209  1.00  0.00    -0.248 NA
ATOM     44  C   UNL A   1      42.703  30.241  27.141  1.00  0.00     0.031 C 
ATOM     45  C   UNL A   1      39.547  28.459  30.320  1.00  0.00     0.029 A 
ATOM     46  N   UNL A   1      40.508  30.421  30.608  1.00  0.00    -0.354 N 
ATOM     47  C   UNL A   1      44.392  31.197  28.324  1.00  0.00     0.074 A 
ATOM     48  C   UNL A   1      43.850  30.909  27.024  1.00  0.00     0.031 C 
ATOM     49  C   UNL A   1      38.653  29.248  30.965  1.00  0.00     0.029 A 
ATOM     50  C   UNL A   1      39.240  30.565  31.161  1.00  0.00     0.049 A 
ATOM     51  H   UNL A   1      41.207  31.108  30.699  1.00  0.00     0.167 HD
ATOM     52  C   UNL A   1      45.113  32.253  28.782  1.00  0.00     0.034 A 
ATOM     53  C   UNL A   1      38.708  31.710  31.676  1.00  0.00     0.034 A 
ATOM     54  C   UNL A   1      45.442  32.091  30.182  1.00  0.00     0.049 A 
ATOM     55  C   UNL A   1      39.863  32.577  32.040  1.00  0.00     0.074 A 
ATOM     56  C   UNL A   1      46.156  31.149  30.898  1.00  0.00     0.029 A 
ATOM     57  N   UNL A   1      44.659  32.743  31.110  1.00  0.00    -0.354 N 
ATOM     58  N   UNL A   1      40.713  32.259  32.981  1.00  0.00    -0.248 NA
ATOM     59  C   UNL A   1      40.384  33.490  31.029  1.00  0.00     0.031 C 
ATOM     60  C   UNL A   1      45.403  30.946  32.092  1.00  0.00     0.029 A 
ATOM     61  C   UNL A   1      44.324  31.834  32.087  1.00  0.00     0.049 A 
ATOM     62  H   UNL A   1      44.388  33.690  31.079  1.00  0.00     0.167 HD
ATOM     63  C   UNL A   1      41.965  32.557  32.459  1.00  0.00     0.074 A 
ATOM     64  C   UNL A   1      41.694  33.390  31.286  1.00  0.00     0.031 C 
ATOM     65  C   UNL A   1      43.080  31.862  32.839  1.00  0.00     0.034 A 
BRANCH  52  66
ATOM     66  C   UNL A   1      45.185  33.583  28.076  1.00  0.00     0.023 A 
ATOM     67  C   UNL A   1      44.196  34.531  28.386  1.00  0.00     0.031 A 
ATOM     68  C   UNL A   1      45.976  33.863  26.935  1.00  0.00     0.131 A 
ATOM     69  C   UNL A   1      43.970  35.633  27.543  1.00  0.00     0.055 A 
ATOM     70  C   UNL A   1      45.792  34.994  26.141  1.00  0.00     0.041 A 
ATOM     71  F   UNL A   1      46.896  33.016  26.461  1.00  0.00    -0.206 F 
ATOM     72  C   UNL A   1      44.763  35.872  26.423  1.00  0.00     0.022 A 
BRANCH  69  73
ATOM     73  S   UNL A   1      42.502  36.649  27.835  1.00  0.00     0.124 S 
ATOM     74  O   UNL A   1      42.496  37.509  26.656  1.00  0.00    -0.237 OA
ATOM     75  O   UNL A   1      41.450  35.642  27.905  1.00  0.00    -0.237 OA
ATOM     76  O   UNL A   1      42.805  37.324  29.095  1.00  0.00    -0.744 OA
ENDBRANCH  69  73
ENDBRANCH  52  66
BRANCH  53  77
ATOM     77  C   UNL A   1      37.328  32.225  31.413  1.00  0.00     0.023 A 
ATOM     78  C   UNL A   1      36.800  32.447  30.120  1.00  0.00     0.031 A 
ATOM     79  C   UNL A   1      36.408  32.291  32.486  1.00  0.00     0.131 A 
ATOM     80  C   UNL A   1      35.418  32.730  29.950  1.00  0.00     0.055 A 
ATOM     81  C   UNL A   1      35.049  32.568  32.312  1.00  0.00     0.041 A 
ATOM     82  F   UNL A   1      36.785  32.005  33.742  1.00  0.00    -0.206 F 
ATOM     83  C   UNL A   1      34.547  32.783  31.041  1.00  0.00     0.022 A 
BRANCH  80  84
ATOM     84  S   UNL A   1      34.704  32.980  28.287  1.00  0.00     0.124 S 
ATOM     85  O   UNL A   1      34.476  31.613  27.834  1.00  0.00    -0.237 OA
ATOM     86  O   UNL A   1      33.517  33.777  28.572  1.00  0.00    -0.237 OA
ATOM     87  O   UNL A   1      35.759  33.694  27.564  1.00  0.00    -0.744 OA
ENDBRANCH  80  84
ENDBRANCH  53  77
BRANCH  65  88
ATOM     88  C   UNL A   1      42.966  30.909  34.019  1.00  0.00     0.023 A 
ATOM     89  C   UNL A   1      42.424  29.601  33.961  1.00  0.00     0.031 A 
ATOM     90  C   UNL A   1      43.543  31.315  35.234  1.00  0.00     0.131 A 
ATOM     91  C   UNL A   1      42.463  28.766  35.099  1.00  0.00     0.055 A 
ATOM     92  C   UNL A   1      43.602  30.479  36.349  1.00  0.00     0.041 A 
ATOM     93  F   UNL A   1      44.098  32.533  35.349  1.00  0.00    -0.206 F 
ATOM     94  C   UNL A   1      43.056  29.203  36.288  1.00  0.00     0.022 A 
BRANCH  91  95
ATOM     95  S   UNL A   1      41.720  27.100  35.066  1.00  0.00     0.124 S 
ATOM     96  O   UNL A   1      41.149  26.955  36.399  1.00  0.00    -0.237 OA
ATOM     97  O   UNL A   1      40.765  27.201  33.966  1.00  0.00    -0.237 OA
ATOM     98  O   UNL A   1      42.864  26.223  34.797  1.00  0.00    -0.744 OA
ENDBRANCH  91  95
ENDBRANCH  65  88
ENDBRANCH  39  40
ENDBRANCH  32  34
ENDBRANCH  31  32
ENDBRANCH  30  31
ENDBRANCH  29  30
ENDBRANCH  28  29
ENDBRANCH   1  28
TORSDOF 22
ENDMDL
