MODEL 1
REMARK VINA RESULT:     -11.0      0.000      0.000
REMARK SMILES O=C(OCCOCCOC(=O)[C@H](Cc1ccc(O)cc1)NC(=O)c1ccc(Cl)s1)c1ccc(-c2c3nc(c(-c4cc(S(=O)(=O)[O-])ccc4F)c4ccc([nH]4)c(-c4cc(S(=O)(=O)[O-])ccc4F)c4nc(c(-c5cc(S(=O)(=O)[O-])ccc5F)c5ccc2[nH]5)C=C4)C=C3)cc1
REMARK SMILES IDX 6 1 5 2 4 3 3 4 2 5 1 6 30 7 31 8 92 9 32 10 91 11 33 12
REMARK SMILES IDX 34 13 35 14 85 15 36 16 90 17 84 18 86 19 37 20 89 21 83 22
REMARK SMILES IDX 82 23 38 25 70 26 50 27 69 28 51 29 54 30 68 31 87 32 52 33
REMARK SMILES IDX 53 34 67 36 88 37 55 38 39 39 40 40 48 41 41 42 47 43 49 44
REMARK SMILES IDX 46 45 42 46 43 47 44 48 45 49 71 50 72 51 80 52 73 53 79 54
REMARK SMILES IDX 81 55 78 56 74 57 75 58 76 59 77 60 56 61 57 62 65 63 58 64
REMARK SMILES IDX 64 65 66 66 63 67 59 68 60 69 61 70 62 71 7 72 8 73 9 74
REMARK SMILES IDX 10 75 11 76 12 77 21 78 22 79 23 81 24 82 25 83 29 84 26 85
REMARK SMILES IDX 27 86 28 87 13 88 14 89 15 90 20 91 16 92 19 93 17 94 18 95
REMARK H PARENT 86 24 54 35 21 80 18 96
REMARK Flexibility Score: inf
ROOT
ATOM      1  O   UNL A   1      36.802  19.986  24.953  1.00  0.00    -0.374 OA
ENDROOT
BRANCH   1   2
ATOM      2  C   UNL A   1      38.208  19.949  24.695  1.00  0.00     0.202 C 
BRANCH   2   3
ATOM      3  C   UNL A   1      39.079  19.170  25.684  1.00  0.00     0.261 C 
BRANCH   3   4
ATOM      4  O   UNL A   1      40.319  19.861  25.906  1.00  0.00    -0.460 OA
BRANCH   4   5
ATOM      5  C   UNL A   1      40.769  20.376  27.075  1.00  0.00     0.338 C 
ATOM      6  O   UNL A   1      40.987  19.613  28.014  1.00  0.00    -0.246 OA
BRANCH   5   7
ATOM      7  C   UNL A   1      41.005  21.834  27.275  1.00  0.00     0.060 A 
ATOM      8  C   UNL A   1      40.431  22.842  26.494  1.00  0.00     0.016 A 
ATOM      9  C   UNL A   1      41.791  22.211  28.372  1.00  0.00     0.016 A 
ATOM     10  C   UNL A   1      40.694  24.180  26.723  1.00  0.00     0.010 A 
ATOM     11  C   UNL A   1      42.030  23.560  28.639  1.00  0.00     0.010 A 
ATOM     12  C   UNL A   1      41.499  24.541  27.793  1.00  0.00    -0.014 A 
BRANCH  12  13
ATOM     13  C   UNL A   1      41.881  25.953  27.919  1.00  0.00     0.031 A 
ATOM     14  C   UNL A   1      43.189  26.373  27.335  1.00  0.00     0.074 A 
ATOM     15  C   UNL A   1      41.014  26.830  28.451  1.00  0.00     0.049 A 
ATOM     16  N   UNL A   1      43.815  27.511  27.436  1.00  0.00    -0.248 NA
ATOM     17  C   UNL A   1      43.883  25.365  26.519  1.00  0.00     0.031 C 
ATOM     18  C   UNL A   1      39.656  26.508  28.896  1.00  0.00     0.029 A 
ATOM     19  N   UNL A   1      41.142  28.167  28.700  1.00  0.00    -0.354 N 
ATOM     20  C   UNL A   1      45.001  27.345  26.732  1.00  0.00     0.074 A 
ATOM     21  C   UNL A   1      45.003  25.996  26.209  1.00  0.00     0.031 C 
ATOM     22  C   UNL A   1      39.081  27.620  29.378  1.00  0.00     0.029 A 
ATOM     23  C   UNL A   1      40.056  28.704  29.348  1.00  0.00     0.049 A 
ATOM     24  H   UNL A   1      41.933  28.693  28.440  1.00  0.00     0.167 HD
ATOM     25  C   UNL A   1      45.997  28.246  26.563  1.00  0.00     0.034 A 
ATOM     26  C   UNL A   1      39.908  29.918  29.911  1.00  0.00     0.034 A 
ATOM     27  C   UNL A   1      45.947  29.565  27.142  1.00  0.00     0.049 A 
ATOM     28  C   UNL A   1      41.070  30.871  29.816  1.00  0.00     0.074 A 
ATOM     29  C   UNL A   1      46.910  30.554  27.149  1.00  0.00     0.029 A 
ATOM     30  N   UNL A   1      44.850  30.071  27.839  1.00  0.00    -0.354 N 
ATOM     31  N   UNL A   1      42.239  30.686  29.242  1.00  0.00    -0.248 NA
ATOM     32  C   UNL A   1      40.906  32.183  30.448  1.00  0.00     0.031 C 
ATOM     33  C   UNL A   1      46.419  31.632  27.898  1.00  0.00     0.029 A 
ATOM     34  C   UNL A   1      45.119  31.348  28.296  1.00  0.00     0.049 A 
ATOM     35  H   UNL A   1      44.005  29.588  27.985  1.00  0.00     0.167 HD
ATOM     36  C   UNL A   1      42.946  31.868  29.425  1.00  0.00     0.074 A 
ATOM     37  C   UNL A   1      42.065  32.760  30.158  1.00  0.00     0.031 C 
ATOM     38  C   UNL A   1      44.202  32.196  29.025  1.00  0.00     0.034 A 
BRANCH  25  39
ATOM     39  C   UNL A   1      47.231  27.760  25.841  1.00  0.00     0.023 A 
ATOM     40  C   UNL A   1      47.475  28.076  24.492  1.00  0.00     0.031 A 
ATOM     41  C   UNL A   1      48.097  26.845  26.466  1.00  0.00     0.131 A 
ATOM     42  C   UNL A   1      48.479  27.398  23.785  1.00  0.00     0.055 A 
ATOM     43  C   UNL A   1      49.155  26.245  25.780  1.00  0.00     0.041 A 
ATOM     44  F   UNL A   1      47.897  26.476  27.741  1.00  0.00    -0.206 F 
ATOM     45  C   UNL A   1      49.338  26.501  24.425  1.00  0.00     0.022 A 
BRANCH  42  46
ATOM     46  S   UNL A   1      48.509  27.542  21.974  1.00  0.00     0.124 S 
ATOM     47  O   UNL A   1      47.200  28.135  21.704  1.00  0.00    -0.237 OA
ATOM     48  O   UNL A   1      49.660  28.406  21.745  1.00  0.00    -0.237 OA
ATOM     49  O   UNL A   1      48.662  26.161  21.522  1.00  0.00    -0.744 OA
ENDBRANCH  42  46
ENDBRANCH  25  39
BRANCH  26  50
ATOM     50  C   UNL A   1      38.667  30.244  30.670  1.00  0.00     0.023 A 
ATOM     51  C   UNL A   1      37.650  31.032  30.112  1.00  0.00     0.031 A 
ATOM     52  C   UNL A   1      38.476  29.752  31.977  1.00  0.00     0.131 A 
ATOM     53  C   UNL A   1      36.497  31.319  30.864  1.00  0.00     0.055 A 
ATOM     54  C   UNL A   1      37.310  30.002  32.701  1.00  0.00     0.041 A 
ATOM     55  F   UNL A   1      39.417  28.991  32.560  1.00  0.00    -0.206 F 
ATOM     56  C   UNL A   1      36.314  30.797  32.146  1.00  0.00     0.022 A 
BRANCH  53  57
ATOM     57  S   UNL A   1      35.248  32.429  30.155  1.00  0.00     0.124 S 
ATOM     58  O   UNL A   1      36.053  33.592  29.799  1.00  0.00    -0.237 OA
ATOM     59  O   UNL A   1      34.736  31.637  29.042  1.00  0.00    -0.237 OA
ATOM     60  O   UNL A   1      34.310  32.633  31.257  1.00  0.00    -0.744 OA
ENDBRANCH  53  57
ENDBRANCH  26  50
BRANCH  38  61
ATOM     61  C   UNL A   1      44.660  33.597  29.327  1.00  0.00     0.023 A 
ATOM     62  C   UNL A   1      44.482  34.645  28.411  1.00  0.00     0.031 A 
ATOM     63  C   UNL A   1      45.258  33.882  30.567  1.00  0.00     0.131 A 
ATOM     64  C   UNL A   1      44.935  35.931  28.736  1.00  0.00     0.055 A 
ATOM     65  C   UNL A   1      45.660  35.172  30.905  1.00  0.00     0.041 A 
ATOM     66  F   UNL A   1      45.447  32.909  31.474  1.00  0.00    -0.206 F 
ATOM     67  C   UNL A   1      45.507  36.205  29.983  1.00  0.00     0.022 A 
BRANCH  64  68
ATOM     68  S   UNL A   1      44.820  37.236  27.483  1.00  0.00     0.124 S 
ATOM     69  O   UNL A   1      43.499  36.992  26.913  1.00  0.00    -0.237 OA
ATOM     70  O   UNL A   1      44.956  38.450  28.281  1.00  0.00    -0.237 OA
ATOM     71  O   UNL A   1      45.943  36.953  26.591  1.00  0.00    -0.744 OA
ENDBRANCH  64  68
ENDBRANCH  38  61
ENDBRANCH  12  13
ENDBRANCH   5   7
ENDBRANCH   4   5
ENDBRANCH   3   4
ENDBRANCH   2   3
ENDBRANCH   1   2
BRANCH   1  72
ATOM     72  C   UNL A   1      36.261  21.220  25.443  1.00  0.00     0.202 C 
BRANCH  72  73
ATOM     73  C   UNL A   1      35.341  21.835  24.386  1.00  0.00     0.261 C 
BRANCH  73  74
ATOM     74  O   UNL A   1      34.002  21.409  24.682  1.00  0.00    -0.462 OA
BRANCH  74  75
ATOM     75  C   UNL A   1      33.553  21.818  25.909  1.00  0.00     0.329 C 
ATOM     76  O   UNL A   1      33.677  21.175  26.943  1.00  0.00    -0.250 OA
BRANCH  75  77
ATOM     77  C   UNL A   1      33.045  23.265  25.811  1.00  0.00     0.197 C 
BRANCH  77  78
ATOM     78  N   UNL A   1      31.830  23.375  26.633  1.00  0.00    -0.338 N 
ATOM     79  C   UNL A   1      30.646  24.024  26.390  1.00  0.00     0.262 C 
ATOM     80  H   UNL A   1      31.873  22.907  27.498  1.00  0.00     0.164 HD
ATOM     81  O   UNL A   1      29.727  23.836  27.189  1.00  0.00    -0.268 OA
BRANCH  79  82
ATOM     82  C   UNL A   1      30.527  24.921  25.260  1.00  0.00     0.093 A 
ATOM     83  C   UNL A   1      30.458  24.647  23.906  1.00  0.00     0.027 A 
ATOM     84  S   UNL A   1      30.311  26.596  25.567  1.00  0.00    -0.118 S 
ATOM     85  C   UNL A   1      30.312  25.830  23.115  1.00  0.00     0.033 A 
ATOM     86  C   UNL A   1      30.197  26.938  23.914  1.00  0.00     0.094 A 
ATOM     87  Cl  UNL A   1      29.939  28.555  23.394  1.00  0.00    -0.072 Cl
ENDBRANCH  79  82
ENDBRANCH  77  78
BRANCH  77  88
ATOM     88  C   UNL A   1      34.130  24.276  26.214  1.00  0.00     0.072 C 
BRANCH  88  89
ATOM     89  C   UNL A   1      33.984  25.604  25.490  1.00  0.00    -0.045 A 
ATOM     90  C   UNL A   1      33.893  26.815  26.195  1.00  0.00     0.007 A 
ATOM     91  C   UNL A   1      33.969  25.643  24.087  1.00  0.00     0.007 A 
ATOM     92  C   UNL A   1      33.791  28.036  25.519  1.00  0.00     0.046 A 
ATOM     93  C   UNL A   1      33.856  26.862  23.412  1.00  0.00     0.046 A 
ATOM     94  C   UNL A   1      33.769  28.048  24.131  1.00  0.00     0.115 A 
BRANCH  94  95
ATOM     95  O   UNL A   1      33.665  29.207  23.425  1.00  0.00    -0.508 OA
ATOM     96  H   UNL A   1      33.752  29.198  22.492  1.00  0.00     0.293 HD
ENDBRANCH  94  95
ENDBRANCH  88  89
ENDBRANCH  77  88
ENDBRANCH  75  77
ENDBRANCH  74  75
ENDBRANCH  73  74
ENDBRANCH  72  73
ENDBRANCH   1  72
TORSDOF 22
ENDMDL
MODEL 2
REMARK VINA RESULT:     -10.9      1.745      2.323
REMARK SMILES O=C(OCCOCCOC(=O)[C@H](Cc1ccc(O)cc1)NC(=O)c1ccc(Cl)s1)c1ccc(-c2c3nc(c(-c4cc(S(=O)(=O)[O-])ccc4F)c4ccc([nH]4)c(-c4cc(S(=O)(=O)[O-])ccc4F)c4nc(c(-c5cc(S(=O)(=O)[O-])ccc5F)c5ccc2[nH]5)C=C4)C=C3)cc1
REMARK SMILES IDX 6 1 5 2 4 3 3 4 2 5 1 6 30 7 31 8 92 9 32 10 91 11 33 12
REMARK SMILES IDX 34 13 35 14 85 15 36 16 90 17 84 18 86 19 37 20 89 21 83 22
REMARK SMILES IDX 82 23 38 25 70 26 50 27 69 28 51 29 54 30 68 31 87 32 52 33
REMARK SMILES IDX 53 34 67 36 88 37 55 38 39 39 40 40 48 41 41 42 47 43 49 44
REMARK SMILES IDX 46 45 42 46 43 47 44 48 45 49 71 50 72 51 80 52 73 53 79 54
REMARK SMILES IDX 81 55 78 56 74 57 75 58 76 59 77 60 56 61 57 62 65 63 58 64
REMARK SMILES IDX 64 65 66 66 63 67 59 68 60 69 61 70 62 71 7 72 8 73 9 74
REMARK SMILES IDX 10 75 11 76 12 77 21 78 22 79 23 81 24 82 25 83 29 84 26 85
REMARK SMILES IDX 27 86 28 87 13 88 14 89 15 90 20 91 16 92 19 93 17 94 18 95
REMARK H PARENT 86 24 54 35 21 80 18 96
REMARK Flexibility Score: inf
ROOT
ATOM      1  O   UNL A   1      36.602  20.332  25.086  1.00  0.00    -0.374 OA
ENDROOT
BRANCH   1   2
ATOM      2  C   UNL A   1      37.970  20.121  24.731  1.00  0.00     0.202 C 
BRANCH   2   3
ATOM      3  C   UNL A   1      38.779  19.159  25.605  1.00  0.00     0.261 C 
BRANCH   3   4
ATOM      4  O   UNL A   1      40.106  19.670  25.812  1.00  0.00    -0.460 OA
BRANCH   4   5
ATOM      5  C   UNL A   1      40.621  20.162  26.964  1.00  0.00     0.338 C 
ATOM      6  O   UNL A   1      40.869  19.383  27.882  1.00  0.00    -0.246 OA
BRANCH   5   7
ATOM      7  C   UNL A   1      40.896  21.613  27.169  1.00  0.00     0.060 A 
ATOM      8  C   UNL A   1      40.349  22.638  26.392  1.00  0.00     0.016 A 
ATOM      9  C   UNL A   1      41.690  21.964  28.269  1.00  0.00     0.016 A 
ATOM     10  C   UNL A   1      40.647  23.968  26.626  1.00  0.00     0.010 A 
ATOM     11  C   UNL A   1      41.964  23.305  28.541  1.00  0.00     0.010 A 
ATOM     12  C   UNL A   1      41.460  24.304  27.699  1.00  0.00    -0.014 A 
BRANCH  12  13
ATOM     13  C   UNL A   1      41.878  25.704  27.830  1.00  0.00     0.031 A 
ATOM     14  C   UNL A   1      43.198  26.092  27.250  1.00  0.00     0.074 A 
ATOM     15  C   UNL A   1      41.034  26.602  28.363  1.00  0.00     0.049 A 
ATOM     16  N   UNL A   1      43.854  27.212  27.357  1.00  0.00    -0.248 NA
ATOM     17  C   UNL A   1      43.867  25.068  26.432  1.00  0.00     0.031 C 
ATOM     18  C   UNL A   1      39.667  26.314  28.805  1.00  0.00     0.029 A 
ATOM     19  N   UNL A   1      41.197  27.935  28.618  1.00  0.00    -0.354 N 
ATOM     20  C   UNL A   1      45.036  27.018  26.654  1.00  0.00     0.074 A 
ATOM     21  C   UNL A   1      45.004  25.672  26.126  1.00  0.00     0.031 C 
ATOM     22  C   UNL A   1      39.121  27.440  29.290  1.00  0.00     0.029 A 
ATOM     23  C   UNL A   1      40.124  28.497  29.266  1.00  0.00     0.049 A 
ATOM     24  H   UNL A   1      42.001  28.441  28.361  1.00  0.00     0.167 HD
ATOM     25  C   UNL A   1      46.057  27.893  26.490  1.00  0.00     0.034 A 
ATOM     26  C   UNL A   1      40.007  29.713  29.833  1.00  0.00     0.034 A 
ATOM     27  C   UNL A   1      46.040  29.211  27.074  1.00  0.00     0.049 A 
ATOM     28  C   UNL A   1      41.194  30.635  29.744  1.00  0.00     0.074 A 
ATOM     29  C   UNL A   1      47.029  30.174  27.085  1.00  0.00     0.029 A 
ATOM     30  N   UNL A   1      44.955  29.743  27.770  1.00  0.00    -0.354 N 
ATOM     31  N   UNL A   1      42.359  30.422  29.170  1.00  0.00    -0.248 NA
ATOM     32  C   UNL A   1      41.064  31.949  30.380  1.00  0.00     0.031 C 
ATOM     33  C   UNL A   1      46.565  31.262  27.837  1.00  0.00     0.029 A 
ATOM     34  C   UNL A   1      45.257  31.011  28.233  1.00  0.00     0.049 A 
ATOM     35  H   UNL A   1      44.097  29.282  27.913  1.00  0.00     0.167 HD
ATOM     36  C   UNL A   1      43.096  31.584  29.359  1.00  0.00     0.074 A 
ATOM     37  C   UNL A   1      42.237  32.496  30.094  1.00  0.00     0.031 C 
ATOM     38  C   UNL A   1      44.361  31.880  28.963  1.00  0.00     0.034 A 
BRANCH  25  39
ATOM     39  C   UNL A   1      47.279  27.377  25.769  1.00  0.00     0.023 A 
ATOM     40  C   UNL A   1      48.367  26.816  26.461  1.00  0.00     0.031 A 
ATOM     41  C   UNL A   1      47.419  27.586  24.385  1.00  0.00     0.131 A 
ATOM     42  C   UNL A   1      49.582  26.594  25.793  1.00  0.00     0.055 A 
ATOM     43  C   UNL A   1      48.600  27.273  23.709  1.00  0.00     0.041 A 
ATOM     44  F   UNL A   1      46.430  28.149  23.674  1.00  0.00    -0.206 F 
ATOM     45  C   UNL A   1      49.699  26.796  24.416  1.00  0.00     0.022 A 
BRANCH  42  46
ATOM     46  S   UNL A   1      51.063  26.245  26.786  1.00  0.00     0.124 S 
ATOM     47  O   UNL A   1      51.418  24.904  26.324  1.00  0.00    -0.237 OA
ATOM     48  O   UNL A   1      51.968  27.317  26.389  1.00  0.00    -0.237 OA
ATOM     49  O   UNL A   1      50.578  26.312  28.162  1.00  0.00    -0.744 OA
ENDBRANCH  42  46
ENDBRANCH  25  39
BRANCH  26  50
ATOM     50  C   UNL A   1      38.774  30.069  30.591  1.00  0.00     0.023 A 
ATOM     51  C   UNL A   1      37.780  30.887  30.035  1.00  0.00     0.031 A 
ATOM     52  C   UNL A   1      38.566  29.576  31.895  1.00  0.00     0.131 A 
ATOM     53  C   UNL A   1      36.633  31.202  30.785  1.00  0.00     0.055 A 
ATOM     54  C   UNL A   1      37.406  29.854  32.617  1.00  0.00     0.041 A 
ATOM     55  F   UNL A   1      39.484  28.786  32.476  1.00  0.00    -0.206 F 
ATOM     56  C   UNL A   1      36.433  30.679  32.065  1.00  0.00     0.022 A 
BRANCH  53  57
ATOM     57  S   UNL A   1      35.417  32.349  30.079  1.00  0.00     0.124 S 
ATOM     58  O   UNL A   1      34.431  32.433  31.151  1.00  0.00    -0.237 OA
ATOM     59  O   UNL A   1      36.223  33.544  29.853  1.00  0.00    -0.237 OA
ATOM     60  O   UNL A   1      34.966  31.665  28.869  1.00  0.00    -0.744 OA
ENDBRANCH  53  57
ENDBRANCH  26  50
BRANCH  38  61
ATOM     61  C   UNL A   1      44.856  33.268  29.271  1.00  0.00     0.023 A 
ATOM     62  C   UNL A   1      44.691  34.327  28.366  1.00  0.00     0.031 A 
ATOM     63  C   UNL A   1      45.476  33.528  30.505  1.00  0.00     0.131 A 
ATOM     64  C   UNL A   1      45.177  35.600  28.696  1.00  0.00     0.055 A 
ATOM     65  C   UNL A   1      45.912  34.805  30.849  1.00  0.00     0.041 A 
ATOM     66  F   UNL A   1      45.653  32.543  31.401  1.00  0.00    -0.206 F 
ATOM     67  C   UNL A   1      45.771  35.849  29.938  1.00  0.00     0.022 A 
BRANCH  64  68
ATOM     68  S   UNL A   1      45.077  36.918  27.456  1.00  0.00     0.124 S 
ATOM     69  O   UNL A   1      46.203  36.598  26.584  1.00  0.00    -0.237 OA
ATOM     70  O   UNL A   1      43.750  36.711  26.885  1.00  0.00    -0.237 OA
ATOM     71  O   UNL A   1      45.228  38.140  28.243  1.00  0.00    -0.744 OA
ENDBRANCH  64  68
ENDBRANCH  38  61
ENDBRANCH  12  13
ENDBRANCH   5   7
ENDBRANCH   4   5
ENDBRANCH   3   4
ENDBRANCH   2   3
ENDBRANCH   1   2
BRANCH   1  72
ATOM     72  C   UNL A   1      36.284  21.557  25.759  1.00  0.00     0.202 C 
BRANCH  72  73
ATOM     73  C   UNL A   1      36.093  22.675  24.731  1.00  0.00     0.261 C 
BRANCH  73  74
ATOM     74  O   UNL A   1      34.757  22.565  24.218  1.00  0.00    -0.462 OA
BRANCH  74  75
ATOM     75  C   UNL A   1      33.809  23.136  25.026  1.00  0.00     0.329 C 
ATOM     76  O   UNL A   1      33.464  22.691  26.111  1.00  0.00    -0.250 OA
BRANCH  75  77
ATOM     77  C   UNL A   1      33.395  24.496  24.443  1.00  0.00     0.197 C 
BRANCH  77  78
ATOM     78  N   UNL A   1      33.215  24.331  22.992  1.00  0.00    -0.338 N 
ATOM     79  C   UNL A   1      32.978  25.263  22.013  1.00  0.00     0.262 C 
ATOM     80  H   UNL A   1      33.272  23.402  22.672  1.00  0.00     0.164 HD
ATOM     81  O   UNL A   1      33.011  24.871  20.845  1.00  0.00    -0.268 OA
BRANCH  79  82
ATOM     82  C   UNL A   1      32.661  26.629  22.369  1.00  0.00     0.093 A 
ATOM     83  C   UNL A   1      33.494  27.713  22.581  1.00  0.00     0.027 A 
ATOM     84  S   UNL A   1      31.009  27.091  22.445  1.00  0.00    -0.118 S 
ATOM     85  C   UNL A   1      32.770  28.907  22.889  1.00  0.00     0.033 A 
ATOM     86  C   UNL A   1      31.419  28.689  22.817  1.00  0.00     0.094 A 
ATOM     87  Cl  UNL A   1      30.178  29.856  23.044  1.00  0.00    -0.072 Cl
ENDBRANCH  79  82
ENDBRANCH  77  78
BRANCH  77  88
ATOM     88  C   UNL A   1      32.143  25.054  25.139  1.00  0.00     0.072 C 
BRANCH  88  89
ATOM     89  C   UNL A   1      32.413  26.368  25.853  1.00  0.00    -0.045 A 
ATOM     90  C   UNL A   1      33.722  26.842  26.040  1.00  0.00     0.007 A 
ATOM     91  C   UNL A   1      31.345  27.152  26.313  1.00  0.00     0.007 A 
ATOM     92  C   UNL A   1      33.960  28.069  26.671  1.00  0.00     0.046 A 
ATOM     93  C   UNL A   1      31.582  28.373  26.952  1.00  0.00     0.046 A 
ATOM     94  C   UNL A   1      32.886  28.822  27.125  1.00  0.00     0.115 A 
BRANCH  94  95
ATOM     95  O   UNL A   1      33.063  30.019  27.750  1.00  0.00    -0.508 OA
ATOM     96  H   UNL A   1      33.205  30.796  27.244  1.00  0.00     0.293 HD
ENDBRANCH  94  95
ENDBRANCH  88  89
ENDBRANCH  77  88
ENDBRANCH  75  77
ENDBRANCH  74  75
ENDBRANCH  73  74
ENDBRANCH  72  73
ENDBRANCH   1  72
TORSDOF 22
ENDMDL
MODEL 3
REMARK VINA RESULT:     -10.3      5.648      9.018
REMARK SMILES O=C(OCCOCCOC(=O)[C@H](Cc1ccc(O)cc1)NC(=O)c1ccc(Cl)s1)c1ccc(-c2c3nc(c(-c4cc(S(=O)(=O)[O-])ccc4F)c4ccc([nH]4)c(-c4cc(S(=O)(=O)[O-])ccc4F)c4nc(c(-c5cc(S(=O)(=O)[O-])ccc5F)c5ccc2[nH]5)C=C4)C=C3)cc1
REMARK SMILES IDX 6 1 5 2 4 3 3 4 2 5 1 6 30 7 31 8 92 9 32 10 91 11 33 12
REMARK SMILES IDX 34 13 35 14 85 15 36 16 90 17 84 18 86 19 37 20 89 21 83 22
REMARK SMILES IDX 82 23 38 25 70 26 50 27 69 28 51 29 54 30 68 31 87 32 52 33
REMARK SMILES IDX 53 34 67 36 88 37 55 38 39 39 40 40 48 41 41 42 47 43 49 44
REMARK SMILES IDX 46 45 42 46 43 47 44 48 45 49 71 50 72 51 80 52 73 53 79 54
REMARK SMILES IDX 81 55 78 56 74 57 75 58 76 59 77 60 56 61 57 62 65 63 58 64
REMARK SMILES IDX 64 65 66 66 63 67 59 68 60 69 61 70 62 71 7 72 8 73 9 74
REMARK SMILES IDX 10 75 11 76 12 77 21 78 22 79 23 81 24 82 25 83 29 84 26 85
REMARK SMILES IDX 27 86 28 87 13 88 14 89 15 90 20 91 16 92 19 93 17 94 18 95
REMARK H PARENT 86 24 54 35 21 80 18 96
REMARK Flexibility Score: inf
ROOT
ATOM      1  O   UNL A   1      34.382  31.160  27.162  1.00  0.00    -0.374 OA
ENDROOT
BRANCH   1   2
ATOM      2  C   UNL A   1      34.252  32.487  27.675  1.00  0.00     0.202 C 
BRANCH   2   3
ATOM      3  C   UNL A   1      32.842  33.082  27.727  1.00  0.00     0.261 C 
BRANCH   3   4
ATOM      4  O   UNL A   1      32.859  34.342  28.416  1.00  0.00    -0.460 OA
BRANCH   4   5
ATOM      5  C   UNL A   1      33.297  34.579  29.675  1.00  0.00     0.338 C 
ATOM      6  O   UNL A   1      32.671  35.365  30.384  1.00  0.00    -0.246 OA
BRANCH   5   7
ATOM      7  C   UNL A   1      34.516  33.931  30.240  1.00  0.00     0.060 A 
ATOM      8  C   UNL A   1      34.497  32.845  31.120  1.00  0.00     0.016 A 
ATOM      9  C   UNL A   1      35.757  34.396  29.786  1.00  0.00     0.016 A 
ATOM     10  C   UNL A   1      35.661  32.289  31.616  1.00  0.00     0.010 A 
ATOM     11  C   UNL A   1      36.939  33.816  30.248  1.00  0.00     0.010 A 
ATOM     12  C   UNL A   1      36.886  32.778  31.185  1.00  0.00    -0.014 A 
BRANCH  12  13
ATOM     13  C   UNL A   1      38.096  32.271  31.841  1.00  0.00     0.031 A 
ATOM     14  C   UNL A   1      38.881  31.217  31.133  1.00  0.00     0.074 A 
ATOM     15  C   UNL A   1      38.515  32.831  32.988  1.00  0.00     0.049 A 
ATOM     16  N   UNL A   1      39.890  30.510  31.554  1.00  0.00    -0.248 NA
ATOM     17  C   UNL A   1      38.466  30.926  29.751  1.00  0.00     0.031 C 
ATOM     18  C   UNL A   1      37.877  33.972  33.649  1.00  0.00     0.029 A 
ATOM     19  N   UNL A   1      39.574  32.524  33.794  1.00  0.00    -0.354 N 
ATOM     20  C   UNL A   1      40.209  29.657  30.505  1.00  0.00     0.074 A 
ATOM     21  C   UNL A   1      39.284  29.938  29.429  1.00  0.00     0.031 C 
ATOM     22  C   UNL A   1      38.554  34.259  34.771  1.00  0.00     0.029 A 
ATOM     23  C   UNL A   1      39.616  33.275  34.943  1.00  0.00     0.049 A 
ATOM     24  H   UNL A   1      40.241  31.834  33.572  1.00  0.00     0.167 HD
ATOM     25  C   UNL A   1      41.181  28.714  30.469  1.00  0.00     0.034 A 
ATOM     26  C   UNL A   1      40.389  33.127  36.036  1.00  0.00     0.034 A 
ATOM     27  C   UNL A   1      42.048  28.461  31.593  1.00  0.00     0.049 A 
ATOM     28  C   UNL A   1      41.388  32.000  36.029  1.00  0.00     0.074 A 
ATOM     29  C   UNL A   1      43.009  27.483  31.752  1.00  0.00     0.029 A 
ATOM     30  N   UNL A   1      42.039  29.208  32.770  1.00  0.00    -0.354 N 
ATOM     31  N   UNL A   1      41.626  31.119  35.081  1.00  0.00    -0.248 NA
ATOM     32  C   UNL A   1      42.212  31.836  37.230  1.00  0.00     0.031 C 
ATOM     33  C   UNL A   1      43.538  27.602  33.044  1.00  0.00     0.029 A 
ATOM     34  C   UNL A   1      42.962  28.702  33.667  1.00  0.00     0.049 A 
ATOM     35  H   UNL A   1      41.459  29.985  32.939  1.00  0.00     0.167 HD
ATOM     36  C   UNL A   1      42.644  30.306  35.563  1.00  0.00     0.074 A 
ATOM     37  C   UNL A   1      42.977  30.809  36.884  1.00  0.00     0.031 C 
ATOM     38  C   UNL A   1      43.254  29.244  34.976  1.00  0.00     0.034 A 
BRANCH  25  39
ATOM     39  C   UNL A   1      41.234  27.847  29.235  1.00  0.00     0.023 A 
ATOM     40  C   UNL A   1      42.242  27.997  28.265  1.00  0.00     0.031 A 
ATOM     41  C   UNL A   1      40.178  26.962  28.951  1.00  0.00     0.131 A 
ATOM     42  C   UNL A   1      42.112  27.366  27.017  1.00  0.00     0.055 A 
ATOM     43  C   UNL A   1      40.106  26.263  27.744  1.00  0.00     0.041 A 
ATOM     44  F   UNL A   1      39.168  26.801  29.821  1.00  0.00    -0.206 F 
ATOM     45  C   UNL A   1      41.063  26.481  26.758  1.00  0.00     0.022 A 
BRANCH  42  46
ATOM     46  S   UNL A   1      43.212  27.885  25.668  1.00  0.00     0.124 S 
ATOM     47  O   UNL A   1      44.018  26.682  25.466  1.00  0.00    -0.237 OA
ATOM     48  O   UNL A   1      42.272  28.208  24.602  1.00  0.00    -0.237 OA
ATOM     49  O   UNL A   1      43.935  29.021  26.232  1.00  0.00    -0.744 OA
ENDBRANCH  42  46
ENDBRANCH  25  39
BRANCH  26  50
ATOM     50  C   UNL A   1      40.178  34.001  37.225  1.00  0.00     0.023 A 
ATOM     51  C   UNL A   1      39.437  33.568  38.333  1.00  0.00     0.031 A 
ATOM     52  C   UNL A   1      40.737  35.294  37.272  1.00  0.00     0.131 A 
ATOM     53  C   UNL A   1      39.259  34.425  39.434  1.00  0.00     0.055 A 
ATOM     54  C   UNL A   1      40.596  36.123  38.385  1.00  0.00     0.041 A 
ATOM     55  F   UNL A   1      41.458  35.760  36.239  1.00  0.00    -0.206 F 
ATOM     56  C   UNL A   1      39.847  35.692  39.473  1.00  0.00     0.022 A 
BRANCH  53  57
ATOM     57  S   UNL A   1      38.206  33.876  40.805  1.00  0.00     0.124 S 
ATOM     58  O   UNL A   1      39.094  32.961  41.514  1.00  0.00    -0.237 OA
ATOM     59  O   UNL A   1      37.908  35.134  41.481  1.00  0.00    -0.237 OA
ATOM     60  O   UNL A   1      37.071  33.249  40.132  1.00  0.00    -0.744 OA
ENDBRANCH  53  57
ENDBRANCH  26  50
BRANCH  38  61
ATOM     61  C   UNL A   1      44.380  28.604  35.744  1.00  0.00     0.023 A 
ATOM     62  C   UNL A   1      44.188  27.435  36.495  1.00  0.00     0.031 A 
ATOM     63  C   UNL A   1      45.666  29.168  35.692  1.00  0.00     0.131 A 
ATOM     64  C   UNL A   1      45.267  26.883  37.200  1.00  0.00     0.055 A 
ATOM     65  C   UNL A   1      46.745  28.586  36.353  1.00  0.00     0.041 A 
ATOM     66  F   UNL A   1      45.894  30.286  34.983  1.00  0.00    -0.206 F 
ATOM     67  C   UNL A   1      46.547  27.441  37.120  1.00  0.00     0.022 A 
BRANCH  64  68
ATOM     68  S   UNL A   1      44.964  25.454  38.274  1.00  0.00     0.124 S 
ATOM     69  O   UNL A   1      45.460  25.933  39.560  1.00  0.00    -0.237 OA
ATOM     70  O   UNL A   1      43.518  25.285  38.171  1.00  0.00    -0.237 OA
ATOM     71  O   UNL A   1      45.756  24.391  37.659  1.00  0.00    -0.744 OA
ENDBRANCH  64  68
ENDBRANCH  38  61
ENDBRANCH  12  13
ENDBRANCH   5   7
ENDBRANCH   4   5
ENDBRANCH   3   4
ENDBRANCH   2   3
ENDBRANCH   1   2
BRANCH   1  72
ATOM     72  C   UNL A   1      33.170  30.453  26.865  1.00  0.00     0.202 C 
BRANCH  72  73
ATOM     73  C   UNL A   1      33.504  29.093  26.248  1.00  0.00     0.261 C 
BRANCH  73  74
ATOM     74  O   UNL A   1      33.283  28.097  27.257  1.00  0.00    -0.462 OA
BRANCH  74  75
ATOM     75  C   UNL A   1      31.993  27.639  27.305  1.00  0.00     0.329 C 
ATOM     76  O   UNL A   1      31.113  28.118  28.006  1.00  0.00    -0.250 OA
BRANCH  75  77
ATOM     77  C   UNL A   1      31.791  26.569  26.220  1.00  0.00     0.197 C 
BRANCH  77  78
ATOM     78  N   UNL A   1      31.183  25.390  26.856  1.00  0.00    -0.338 N 
ATOM     79  C   UNL A   1      31.401  24.052  26.645  1.00  0.00     0.262 C 
ATOM     80  H   UNL A   1      30.509  25.594  27.544  1.00  0.00     0.164 HD
ATOM     81  O   UNL A   1      30.858  23.264  27.421  1.00  0.00    -0.268 OA
BRANCH  79  82
ATOM     82  C   UNL A   1      32.203  23.615  25.522  1.00  0.00     0.093 A 
ATOM     83  C   UNL A   1      31.820  23.178  24.267  1.00  0.00     0.027 A 
ATOM     84  S   UNL A   1      33.911  23.739  25.642  1.00  0.00    -0.118 S 
ATOM     85  C   UNL A   1      32.938  22.866  23.431  1.00  0.00     0.033 A 
ATOM     86  C   UNL A   1      34.116  23.156  24.067  1.00  0.00     0.094 A 
ATOM     87  Cl  UNL A   1      35.698  23.002  23.415  1.00  0.00    -0.072 Cl
ENDBRANCH  79  82
ENDBRANCH  77  78
BRANCH  77  88
ATOM     88  C   UNL A   1      30.962  27.105  25.042  1.00  0.00     0.072 C 
BRANCH  88  89
ATOM     89  C   UNL A   1      31.579  26.762  23.696  1.00  0.00    -0.045 A 
ATOM     90  C   UNL A   1      32.970  26.783  23.503  1.00  0.00     0.007 A 
ATOM     91  C   UNL A   1      30.759  26.384  22.622  1.00  0.00     0.007 A 
ATOM     92  C   UNL A   1      33.531  26.435  22.269  1.00  0.00     0.046 A 
ATOM     93  C   UNL A   1      31.319  26.047  21.386  1.00  0.00     0.046 A 
ATOM     94  C   UNL A   1      32.698  26.073  21.219  1.00  0.00     0.115 A 
BRANCH  94  95
ATOM     95  O   UNL A   1      33.192  25.732  19.996  1.00  0.00    -0.508 OA
ATOM     96  H   UNL A   1      33.012  26.271  19.251  1.00  0.00     0.293 HD
ENDBRANCH  94  95
ENDBRANCH  88  89
ENDBRANCH  77  88
ENDBRANCH  75  77
ENDBRANCH  74  75
ENDBRANCH  73  74
ENDBRANCH  72  73
ENDBRANCH   1  72
TORSDOF 22
ENDMDL
