MODEL 1
REMARK VINA RESULT:     -11.5      0.000      0.000
REMARK SMILES CCn1ccc(NC(=O)[C@H]2[C@@H](C(=O)OCCOCCOC(=O)c3ccc(-c4c5nc(c(-c6cc(S(=O)(=O)[O-])ccc6F)c6ccc([nH]6)c(-c6cc(S(=O)(=O)[O-])ccc6F)c6nc(c(-c7cc(S(=O)(=O)[O-])ccc7F)c7ccc4[nH]7)C=C6)C=C5)cc3)[C@H]3C=C[C@@H]2C3)n1
REMARK SMILES IDX 17 1 16 2 15 3 14 4 12 5 13 6 11 7 10 8 89 9 86 10 88 11
REMARK SMILES IDX 90 12 87 13 8 14 7 15 9 17 6 18 3 19 4 20 91 21 5 22 2 23
REMARK SMILES IDX 1 24 18 25 19 26 20 27 21 28 22 29 23 30 24 31 85 32 25 33
REMARK SMILES IDX 84 34 26 35 27 36 28 37 78 38 29 39 83 40 77 41 79 42 30 43
REMARK SMILES IDX 82 44 76 45 75 46 31 48 63 49 43 50 62 51 44 52 47 53 61 54
REMARK SMILES IDX 80 55 45 56 46 57 60 59 81 60 48 61 32 62 33 63 41 64 34 65
REMARK SMILES IDX 40 66 42 67 39 68 35 69 36 70 37 71 38 72 64 73 65 74 73 75
REMARK SMILES IDX 66 76 72 77 74 78 71 79 67 80 68 81 69 82 70 83 49 84 50 85
REMARK SMILES IDX 58 86 51 87 57 88 59 89 56 90 52 91 53 92 54 93 55 94
REMARK H PARENT 7 16 79 47 47 58
REMARK Flexibility Score: inf
ROOT
ATOM      1  O   UNL A   1      34.023  28.383  25.646  1.00  0.00    -0.374 OA
ENDROOT
BRANCH   1   2
ATOM      2  C   UNL A   1      33.098  27.556  24.933  1.00  0.00     0.202 C 
BRANCH   2   3
ATOM      3  C   UNL A   1      33.674  26.737  23.779  1.00  0.00     0.261 C 
BRANCH   3   4
ATOM      4  O   UNL A   1      33.829  25.345  24.133  1.00  0.00    -0.463 OA
BRANCH   4   5
ATOM      5  C   UNL A   1      33.948  24.483  23.111  1.00  0.00     0.310 C 
ATOM      6  O   UNL A   1      33.431  24.668  22.008  1.00  0.00    -0.252 OA
BRANCH   5   7
ATOM      7  C   UNL A   1      34.742  23.216  23.364  1.00  0.00     0.119 C 
ATOM      8  C   UNL A   1      34.424  21.871  24.148  1.00  0.00     0.100 C 
ATOM      9  C   UNL A   1      35.730  21.704  24.962  1.00  0.00     0.025 C 
ATOM     10  C   UNL A   1      36.117  23.652  23.983  1.00  0.00     0.027 C 
ATOM     11  C   UNL A   1      35.765  22.723  26.061  1.00  0.00    -0.027 C 
ATOM     12  C   UNL A   1      36.798  22.300  24.039  1.00  0.00     0.017 C 
ATOM     13  C   UNL A   1      36.009  23.899  25.474  1.00  0.00    -0.027 C 
BRANCH   8  14
ATOM     14  C   UNL A   1      33.069  21.688  24.843  1.00  0.00     0.230 C 
ATOM     15  N   UNL A   1      32.393  20.514  24.950  1.00  0.00    -0.309 N 
ATOM     16  H   UNL A   1      31.557  20.605  25.462  1.00  0.00     0.171 HD
ATOM     17  O   UNL A   1      32.474  22.683  25.275  1.00  0.00    -0.274 OA
BRANCH  15  18
ATOM     18  C   UNL A   1      32.604  19.234  24.512  1.00  0.00     0.154 A 
ATOM     19  N   UNL A   1      33.157  17.193  24.685  1.00  0.00    -0.271 N 
ATOM     20  C   UNL A   1      33.019  17.399  23.346  1.00  0.00     0.111 A 
ATOM     21  N   UNL A   1      32.881  18.290  25.414  1.00  0.00    -0.155 NA
ATOM     22  C   UNL A   1      32.523  18.674  23.224  1.00  0.00     0.068 A 
BRANCH  19  23
ATOM     23  C   UNL A   1      33.519  15.939  25.311  1.00  0.00     0.141 C 
ATOM     24  C   UNL A   1      32.323  15.106  25.688  1.00  0.00     0.029 C 
ENDBRANCH  19  23
ENDBRANCH  15  18
ENDBRANCH   8  14
ENDBRANCH   5   7
ENDBRANCH   4   5
ENDBRANCH   3   4
ENDBRANCH   2   3
ENDBRANCH   1   2
BRANCH   1  25
ATOM     25  C   UNL A   1      33.551  29.634  26.132  1.00  0.00     0.202 C 
BRANCH  25  26
ATOM     26  C   UNL A   1      34.135  30.127  27.444  1.00  0.00     0.261 C 
BRANCH  26  27
ATOM     27  O   UNL A   1      35.504  30.452  27.289  1.00  0.00    -0.460 OA
BRANCH  27  28
ATOM     28  C   UNL A   1      35.992  31.382  28.136  1.00  0.00     0.338 C 
ATOM     29  O   UNL A   1      35.714  32.576  28.169  1.00  0.00    -0.246 OA
BRANCH  28  30
ATOM     30  C   UNL A   1      37.041  30.733  28.923  1.00  0.00     0.060 A 
ATOM     31  C   UNL A   1      38.283  31.354  29.011  1.00  0.00     0.016 A 
ATOM     32  C   UNL A   1      36.856  29.404  29.326  1.00  0.00     0.016 A 
ATOM     33  C   UNL A   1      39.380  30.553  29.263  1.00  0.00     0.010 A 
ATOM     34  C   UNL A   1      37.936  28.624  29.632  1.00  0.00     0.010 A 
ATOM     35  C   UNL A   1      39.192  29.176  29.461  1.00  0.00    -0.014 A 
BRANCH  35  36
ATOM     36  C   UNL A   1      40.335  28.310  29.669  1.00  0.00     0.031 A 
ATOM     37  C   UNL A   1      40.593  28.196  31.118  1.00  0.00     0.074 A 
ATOM     38  C   UNL A   1      40.949  27.624  28.680  1.00  0.00     0.049 A 
ATOM     39  N   UNL A   1      41.391  28.937  31.813  1.00  0.00    -0.248 NA
ATOM     40  C   UNL A   1      39.615  27.455  31.939  1.00  0.00     0.031 C 
ATOM     41  C   UNL A   1      40.552  27.495  27.273  1.00  0.00     0.029 A 
ATOM     42  N   UNL A   1      42.055  26.828  28.741  1.00  0.00    -0.354 N 
ATOM     43  C   UNL A   1      41.251  28.473  33.112  1.00  0.00     0.074 A 
ATOM     44  C   UNL A   1      39.951  27.873  33.161  1.00  0.00     0.031 C 
ATOM     45  C   UNL A   1      41.273  26.508  26.681  1.00  0.00     0.029 A 
ATOM     46  C   UNL A   1      42.290  26.037  27.609  1.00  0.00     0.049 A 
ATOM     47  H   UNL A   1      42.647  26.811  29.528  1.00  0.00     0.167 HD
ATOM     48  C   UNL A   1      42.364  28.219  33.854  1.00  0.00     0.034 A 
ATOM     49  C   UNL A   1      43.245  25.063  27.482  1.00  0.00     0.034 A 
ATOM     50  C   UNL A   1      43.515  28.850  33.232  1.00  0.00     0.049 A 
ATOM     51  C   UNL A   1      44.267  25.367  28.505  1.00  0.00     0.074 A 
ATOM     52  C   UNL A   1      43.944  30.140  33.007  1.00  0.00     0.029 A 
ATOM     53  N   UNL A   1      44.164  28.044  32.327  1.00  0.00    -0.354 N 
ATOM     54  N   UNL A   1      45.007  26.441  28.460  1.00  0.00    -0.248 NA
ATOM     55  C   UNL A   1      44.160  24.738  29.814  1.00  0.00     0.031 C 
ATOM     56  C   UNL A   1      44.679  30.099  31.782  1.00  0.00     0.029 A 
ATOM     57  C   UNL A   1      44.757  28.780  31.336  1.00  0.00     0.049 A 
ATOM     58  H   UNL A   1      44.199  27.062  32.383  1.00  0.00     0.167 HD
ATOM     59  C   UNL A   1      45.101  26.859  29.775  1.00  0.00     0.074 A 
ATOM     60  C   UNL A   1      44.704  25.697  30.569  1.00  0.00     0.031 C 
ATOM     61  C   UNL A   1      45.173  28.190  30.072  1.00  0.00     0.034 A 
BRANCH  48  62
ATOM     62  C   UNL A   1      42.533  26.995  34.750  1.00  0.00     0.023 A 
ATOM     63  C   UNL A   1      43.338  25.954  34.245  1.00  0.00     0.031 A 
ATOM     64  C   UNL A   1      41.760  26.659  35.889  1.00  0.00     0.131 A 
ATOM     65  C   UNL A   1      43.278  24.658  34.788  1.00  0.00     0.055 A 
ATOM     66  C   UNL A   1      41.733  25.378  36.447  1.00  0.00     0.041 A 
ATOM     67  F   UNL A   1      40.927  27.506  36.499  1.00  0.00    -0.206 F 
ATOM     68  C   UNL A   1      42.474  24.361  35.882  1.00  0.00     0.022 A 
BRANCH  65  69
ATOM     69  S   UNL A   1      44.169  23.326  33.951  1.00  0.00     0.124 S 
ATOM     70  O   UNL A   1      44.258  22.322  35.006  1.00  0.00    -0.237 OA
ATOM     71  O   UNL A   1      43.274  23.021  32.839  1.00  0.00    -0.237 OA
ATOM     72  O   UNL A   1      45.436  23.951  33.576  1.00  0.00    -0.744 OA
ENDBRANCH  65  69
ENDBRANCH  48  62
BRANCH  49  73
ATOM     73  C   UNL A   1      43.094  23.689  26.905  1.00  0.00     0.023 A 
ATOM     74  C   UNL A   1      44.035  23.025  26.082  1.00  0.00     0.031 A 
ATOM     75  C   UNL A   1      42.080  22.877  27.447  1.00  0.00     0.131 A 
ATOM     76  C   UNL A   1      43.878  21.642  25.783  1.00  0.00     0.055 A 
ATOM     77  C   UNL A   1      41.885  21.537  27.102  1.00  0.00     0.041 A 
ATOM     78  F   UNL A   1      41.337  23.339  28.461  1.00  0.00    -0.206 F 
ATOM     79  C   UNL A   1      42.786  20.913  26.260  1.00  0.00     0.022 A 
BRANCH  76  80
ATOM     80  S   UNL A   1      45.168  20.707  24.877  1.00  0.00     0.124 S 
ATOM     81  O   UNL A   1      44.699  20.779  23.498  1.00  0.00    -0.237 OA
ATOM     82  O   UNL A   1      46.376  21.457  25.197  1.00  0.00    -0.237 OA
ATOM     83  O   UNL A   1      45.105  19.370  25.473  1.00  0.00    -0.744 OA
ENDBRANCH  76  80
ENDBRANCH  49  73
BRANCH  61  84
ATOM     84  C   UNL A   1      45.667  29.125  28.989  1.00  0.00     0.023 A 
ATOM     85  C   UNL A   1      44.900  30.081  28.283  1.00  0.00     0.031 A 
ATOM     86  C   UNL A   1      47.045  29.062  28.723  1.00  0.00     0.131 A 
ATOM     87  C   UNL A   1      45.536  30.933  27.352  1.00  0.00     0.055 A 
ATOM     88  C   UNL A   1      47.671  29.921  27.827  1.00  0.00     0.041 A 
ATOM     89  F   UNL A   1      47.820  28.173  29.367  1.00  0.00    -0.206 F 
ATOM     90  C   UNL A   1      46.917  30.860  27.134  1.00  0.00     0.022 A 
BRANCH  87  91
ATOM     91  S   UNL A   1      44.585  32.146  26.373  1.00  0.00     0.124 S 
ATOM     92  O   UNL A   1      43.355  31.432  26.049  1.00  0.00    -0.237 OA
ATOM     93  O   UNL A   1      44.448  33.265  27.302  1.00  0.00    -0.237 OA
ATOM     94  O   UNL A   1      45.453  32.415  25.225  1.00  0.00    -0.744 OA
ENDBRANCH  87  91
ENDBRANCH  61  84
ENDBRANCH  35  36
ENDBRANCH  28  30
ENDBRANCH  27  28
ENDBRANCH  26  27
ENDBRANCH  25  26
ENDBRANCH   1  25
TORSDOF 20
ENDMDL
MODEL 2
REMARK VINA RESULT:     -11.4      3.113      7.755
REMARK SMILES CCn1ccc(NC(=O)[C@H]2[C@@H](C(=O)OCCOCCOC(=O)c3ccc(-c4c5nc(c(-c6cc(S(=O)(=O)[O-])ccc6F)c6ccc([nH]6)c(-c6cc(S(=O)(=O)[O-])ccc6F)c6nc(c(-c7cc(S(=O)(=O)[O-])ccc7F)c7ccc4[nH]7)C=C6)C=C5)cc3)[C@H]3C=C[C@@H]2C3)n1
REMARK SMILES IDX 17 1 16 2 15 3 14 4 12 5 13 6 11 7 10 8 89 9 86 10 88 11
REMARK SMILES IDX 90 12 87 13 8 14 7 15 9 17 6 18 3 19 4 20 91 21 5 22 2 23
REMARK SMILES IDX 1 24 18 25 19 26 20 27 21 28 22 29 23 30 24 31 85 32 25 33
REMARK SMILES IDX 84 34 26 35 27 36 28 37 78 38 29 39 83 40 77 41 79 42 30 43
REMARK SMILES IDX 82 44 76 45 75 46 31 48 63 49 43 50 62 51 44 52 47 53 61 54
REMARK SMILES IDX 80 55 45 56 46 57 60 59 81 60 48 61 32 62 33 63 41 64 34 65
REMARK SMILES IDX 40 66 42 67 39 68 35 69 36 70 37 71 38 72 64 73 65 74 73 75
REMARK SMILES IDX 66 76 72 77 74 78 71 79 67 80 68 81 69 82 70 83 49 84 50 85
REMARK SMILES IDX 58 86 51 87 57 88 59 89 56 90 52 91 53 92 54 93 55 94
REMARK H PARENT 7 16 79 47 47 58
REMARK Flexibility Score: inf
ROOT
ATOM      1  O   UNL A   1      34.286  30.592  26.923  1.00  0.00    -0.374 OA
ENDROOT
BRANCH   1   2
ATOM      2  C   UNL A   1      33.576  29.349  26.898  1.00  0.00     0.202 C 
BRANCH   2   3
ATOM      3  C   UNL A   1      34.405  28.104  26.585  1.00  0.00     0.261 C 
BRANCH   3   4
ATOM      4  O   UNL A   1      33.576  27.003  26.151  1.00  0.00    -0.463 OA
BRANCH   4   5
ATOM      5  C   UNL A   1      33.695  26.642  24.865  1.00  0.00     0.310 C 
ATOM      6  O   UNL A   1      34.038  27.421  23.973  1.00  0.00    -0.252 OA
BRANCH   5   7
ATOM      7  C   UNL A   1      33.363  25.204  24.516  1.00  0.00     0.119 C 
ATOM      8  C   UNL A   1      32.270  24.181  25.048  1.00  0.00     0.100 C 
ATOM      9  C   UNL A   1      33.142  22.918  25.253  1.00  0.00     0.025 C 
ATOM     10  C   UNL A   1      34.692  24.380  24.650  1.00  0.00     0.027 C 
ATOM     11  C   UNL A   1      34.023  23.109  26.450  1.00  0.00    -0.027 C 
ATOM     12  C   UNL A   1      34.198  23.039  24.149  1.00  0.00     0.017 C 
ATOM     13  C   UNL A   1      34.966  23.984  26.086  1.00  0.00    -0.027 C 
BRANCH   8  14
ATOM     14  C   UNL A   1      31.287  24.607  26.145  1.00  0.00     0.230 C 
ATOM     15  N   UNL A   1      30.315  25.548  26.007  1.00  0.00    -0.309 N 
ATOM     16  H   UNL A   1      29.771  25.650  26.822  1.00  0.00     0.171 HD
ATOM     17  O   UNL A   1      31.416  24.143  27.285  1.00  0.00    -0.274 OA
BRANCH  15  18
ATOM     18  C   UNL A   1      29.916  26.384  25.000  1.00  0.00     0.154 A 
ATOM     19  N   UNL A   1      29.874  28.183  23.876  1.00  0.00    -0.271 N 
ATOM     20  C   UNL A   1      28.835  27.450  23.389  1.00  0.00     0.111 A 
ATOM     21  N   UNL A   1      30.563  27.540  24.838  1.00  0.00    -0.155 NA
ATOM     22  C   UNL A   1      28.934  26.226  24.005  1.00  0.00     0.068 A 
BRANCH  19  23
ATOM     23  C   UNL A   1      30.265  29.498  23.417  1.00  0.00     0.141 C 
ATOM     24  C   UNL A   1      29.876  29.759  21.986  1.00  0.00     0.029 C 
ENDBRANCH  19  23
ENDBRANCH  15  18
ENDBRANCH   8  14
ENDBRANCH   5   7
ENDBRANCH   4   5
ENDBRANCH   3   4
ENDBRANCH   2   3
ENDBRANCH   1   2
BRANCH   1  25
ATOM     25  C   UNL A   1      34.230  31.360  28.118  1.00  0.00     0.202 C 
BRANCH  25  26
ATOM     26  C   UNL A   1      35.522  31.511  28.900  1.00  0.00     0.261 C 
BRANCH  26  27
ATOM     27  O   UNL A   1      36.450  30.508  28.528  1.00  0.00    -0.460 OA
BRANCH  27  28
ATOM     28  C   UNL A   1      36.748  29.596  29.476  1.00  0.00     0.338 C 
ATOM     29  O   UNL A   1      36.245  29.488  30.589  1.00  0.00    -0.246 OA
BRANCH  28  30
ATOM     30  C   UNL A   1      37.905  28.841  28.992  1.00  0.00     0.060 A 
ATOM     31  C   UNL A   1      38.459  27.872  29.822  1.00  0.00     0.016 A 
ATOM     32  C   UNL A   1      38.574  29.296  27.848  1.00  0.00     0.016 A 
ATOM     33  C   UNL A   1      39.790  27.556  29.634  1.00  0.00     0.010 A 
ATOM     34  C   UNL A   1      39.875  28.939  27.628  1.00  0.00     0.010 A 
ATOM     35  C   UNL A   1      40.504  28.184  28.602  1.00  0.00    -0.014 A 
BRANCH  35  36
ATOM     36  C   UNL A   1      41.915  27.911  28.425  1.00  0.00     0.031 A 
ATOM     37  C   UNL A   1      42.070  26.615  27.734  1.00  0.00     0.074 A 
ATOM     38  C   UNL A   1      42.896  28.789  28.728  1.00  0.00     0.049 A 
ATOM     39  N   UNL A   1      42.211  25.460  28.296  1.00  0.00    -0.248 NA
ATOM     40  C   UNL A   1      41.660  26.533  26.317  1.00  0.00     0.031 C 
ATOM     41  C   UNL A   1      42.772  30.187  29.158  1.00  0.00     0.029 A 
ATOM     42  N   UNL A   1      44.249  28.629  28.658  1.00  0.00    -0.354 N 
ATOM     43  C   UNL A   1      42.267  24.565  27.238  1.00  0.00     0.074 A 
ATOM     44  C   UNL A   1      41.581  25.210  26.160  1.00  0.00     0.031 C 
ATOM     45  C   UNL A   1      43.984  30.796  29.096  1.00  0.00     0.029 A 
ATOM     46  C   UNL A   1      45.000  29.805  28.777  1.00  0.00     0.049 A 
ATOM     47  H   UNL A   1      44.668  27.747  28.532  1.00  0.00     0.167 HD
ATOM     48  C   UNL A   1      43.247  23.620  27.215  1.00  0.00     0.034 A 
ATOM     49  C   UNL A   1      46.354  29.926  28.603  1.00  0.00     0.034 A 
ATOM     50  C   UNL A   1      43.844  23.509  28.535  1.00  0.00     0.049 A 
ATOM     51  C   UNL A   1      46.906  28.569  28.793  1.00  0.00     0.074 A 
ATOM     52  C   UNL A   1      43.439  23.077  29.779  1.00  0.00     0.029 A 
ATOM     53  N   UNL A   1      44.917  24.348  28.728  1.00  0.00    -0.354 N 
ATOM     54  N   UNL A   1      46.864  27.949  29.941  1.00  0.00    -0.248 NA
ATOM     55  C   UNL A   1      47.087  27.713  27.629  1.00  0.00     0.031 C 
ATOM     56  C   UNL A   1      44.153  23.879  30.723  1.00  0.00     0.029 A 
ATOM     57  C   UNL A   1      45.036  24.716  30.041  1.00  0.00     0.049 A 
ATOM     58  H   UNL A   1      45.524  24.645  28.012  1.00  0.00     0.167 HD
ATOM     59  C   UNL A   1      46.582  26.634  29.620  1.00  0.00     0.074 A 
ATOM     60  C   UNL A   1      46.890  26.519  28.195  1.00  0.00     0.031 C 
ATOM     61  C   UNL A   1      45.824  25.867  30.457  1.00  0.00     0.034 A 
BRANCH  48  62
ATOM     62  C   UNL A   1      44.036  23.237  25.966  1.00  0.00     0.023 A 
ATOM     63  C   UNL A   1      44.013  21.876  25.603  1.00  0.00     0.031 A 
ATOM     64  C   UNL A   1      45.008  24.022  25.297  1.00  0.00     0.131 A 
ATOM     65  C   UNL A   1      44.967  21.343  24.716  1.00  0.00     0.055 A 
ATOM     66  C   UNL A   1      45.929  23.493  24.390  1.00  0.00     0.041 A 
ATOM     67  F   UNL A   1      45.190  25.326  25.518  1.00  0.00    -0.206 F 
ATOM     68  C   UNL A   1      45.931  22.142  24.113  1.00  0.00     0.022 A 
BRANCH  65  69
ATOM     69  S   UNL A   1      45.014  19.552  24.469  1.00  0.00     0.124 S 
ATOM     70  O   UNL A   1      44.431  19.422  23.139  1.00  0.00    -0.237 OA
ATOM     71  O   UNL A   1      46.443  19.273  24.581  1.00  0.00    -0.237 OA
ATOM     72  O   UNL A   1      44.194  19.039  25.564  1.00  0.00    -0.744 OA
ENDBRANCH  65  69
ENDBRANCH  48  62
BRANCH  49  73
ATOM     73  C   UNL A   1      47.097  30.978  27.838  1.00  0.00     0.023 A 
ATOM     74  C   UNL A   1      46.516  32.058  27.131  1.00  0.00     0.031 A 
ATOM     75  C   UNL A   1      48.482  31.079  28.071  1.00  0.00     0.131 A 
ATOM     76  C   UNL A   1      47.333  33.114  26.635  1.00  0.00     0.055 A 
ATOM     77  C   UNL A   1      49.295  32.076  27.529  1.00  0.00     0.041 A 
ATOM     78  F   UNL A   1      49.058  30.276  28.976  1.00  0.00    -0.206 F 
ATOM     79  C   UNL A   1      48.720  33.102  26.802  1.00  0.00     0.022 A 
BRANCH  76  80
ATOM     80  S   UNL A   1      46.602  34.614  25.879  1.00  0.00     0.124 S 
ATOM     81  O   UNL A   1      47.772  35.300  25.344  1.00  0.00    -0.237 OA
ATOM     82  O   UNL A   1      45.673  34.051  24.908  1.00  0.00    -0.237 OA
ATOM     83  O   UNL A   1      45.963  35.292  27.010  1.00  0.00    -0.744 OA
ENDBRANCH  76  80
ENDBRANCH  49  73
BRANCH  61  84
ATOM     84  C   UNL A   1      45.752  26.277  31.913  1.00  0.00     0.023 A 
ATOM     85  C   UNL A   1      44.676  26.934  32.554  1.00  0.00     0.031 A 
ATOM     86  C   UNL A   1      46.853  25.896  32.699  1.00  0.00     0.131 A 
ATOM     87  C   UNL A   1      44.739  27.176  33.945  1.00  0.00     0.055 A 
ATOM     88  C   UNL A   1      46.898  26.113  34.072  1.00  0.00     0.041 A 
ATOM     89  F   UNL A   1      47.901  25.269  32.140  1.00  0.00    -0.206 F 
ATOM     90  C   UNL A   1      45.841  26.757  34.701  1.00  0.00     0.022 A 
BRANCH  87  91
ATOM     91  S   UNL A   1      43.404  28.069  34.813  1.00  0.00     0.124 S 
ATOM     92  O   UNL A   1      43.329  29.341  34.103  1.00  0.00    -0.237 OA
ATOM     93  O   UNL A   1      42.262  27.175  34.644  1.00  0.00    -0.237 OA
ATOM     94  O   UNL A   1      43.897  28.169  36.188  1.00  0.00    -0.744 OA
ENDBRANCH  87  91
ENDBRANCH  61  84
ENDBRANCH  35  36
ENDBRANCH  28  30
ENDBRANCH  27  28
ENDBRANCH  26  27
ENDBRANCH  25  26
ENDBRANCH   1  25
TORSDOF 20
ENDMDL
MODEL 3
REMARK VINA RESULT:     -11.4      3.585      9.385
REMARK SMILES CCn1ccc(NC(=O)[C@H]2[C@@H](C(=O)OCCOCCOC(=O)c3ccc(-c4c5nc(c(-c6cc(S(=O)(=O)[O-])ccc6F)c6ccc([nH]6)c(-c6cc(S(=O)(=O)[O-])ccc6F)c6nc(c(-c7cc(S(=O)(=O)[O-])ccc7F)c7ccc4[nH]7)C=C6)C=C5)cc3)[C@H]3C=C[C@@H]2C3)n1
REMARK SMILES IDX 17 1 16 2 15 3 14 4 12 5 13 6 11 7 10 8 89 9 86 10 88 11
REMARK SMILES IDX 90 12 87 13 8 14 7 15 9 17 6 18 3 19 4 20 91 21 5 22 2 23
REMARK SMILES IDX 1 24 18 25 19 26 20 27 21 28 22 29 23 30 24 31 85 32 25 33
REMARK SMILES IDX 84 34 26 35 27 36 28 37 78 38 29 39 83 40 77 41 79 42 30 43
REMARK SMILES IDX 82 44 76 45 75 46 31 48 63 49 43 50 62 51 44 52 47 53 61 54
REMARK SMILES IDX 80 55 45 56 46 57 60 59 81 60 48 61 32 62 33 63 41 64 34 65
REMARK SMILES IDX 40 66 42 67 39 68 35 69 36 70 37 71 38 72 64 73 65 74 73 75
REMARK SMILES IDX 66 76 72 77 74 78 71 79 67 80 68 81 69 82 70 83 49 84 50 85
REMARK SMILES IDX 58 86 51 87 57 88 59 89 56 90 52 91 53 92 54 93 55 94
REMARK H PARENT 7 16 79 47 47 58
REMARK Flexibility Score: inf
ROOT
ATOM      1  O   UNL A   1      36.849  23.157  25.581  1.00  0.00    -0.374 OA
ENDROOT
BRANCH   1   2
ATOM      2  C   UNL A   1      35.442  23.155  25.324  1.00  0.00     0.202 C 
BRANCH   2   3
ATOM      3  C   UNL A   1      34.818  24.503  24.964  1.00  0.00     0.261 C 
BRANCH   3   4
ATOM      4  O   UNL A   1      34.050  24.430  23.742  1.00  0.00    -0.463 OA
BRANCH   4   5
ATOM      5  C   UNL A   1      33.657  25.600  23.219  1.00  0.00     0.310 C 
ATOM      6  O   UNL A   1      33.671  25.840  22.010  1.00  0.00    -0.252 OA
BRANCH   5   7
ATOM      7  C   UNL A   1      33.200  26.673  24.189  1.00  0.00     0.119 C 
ATOM      8  C   UNL A   1      31.778  27.077  24.774  1.00  0.00     0.100 C 
ATOM      9  C   UNL A   1      31.827  28.614  24.597  1.00  0.00     0.025 C 
ATOM     10  C   UNL A   1      33.746  28.042  23.651  1.00  0.00     0.027 C 
ATOM     11  C   UNL A   1      31.693  28.953  23.143  1.00  0.00    -0.027 C 
ATOM     12  C   UNL A   1      33.312  28.941  24.789  1.00  0.00     0.017 C 
ATOM     13  C   UNL A   1      32.854  28.619  22.571  1.00  0.00    -0.027 C 
BRANCH   8  14
ATOM     14  C   UNL A   1      30.524  26.306  24.346  1.00  0.00     0.230 C 
ATOM     15  N   UNL A   1      30.272  24.999  24.623  1.00  0.00    -0.309 N 
ATOM     16  H   UNL A   1      29.395  24.704  24.285  1.00  0.00     0.171 HD
ATOM     17  O   UNL A   1      29.695  26.860  23.613  1.00  0.00    -0.274 OA
BRANCH  15  18
ATOM     18  C   UNL A   1      30.952  23.998  25.263  1.00  0.00     0.154 A 
ATOM     19  N   UNL A   1      31.763  22.053  25.506  1.00  0.00    -0.271 N 
ATOM     20  C   UNL A   1      31.905  22.639  26.727  1.00  0.00     0.111 A 
ATOM     21  N   UNL A   1      31.211  22.874  24.593  1.00  0.00    -0.155 NA
ATOM     22  C   UNL A   1      31.517  23.945  26.551  1.00  0.00     0.068 A 
BRANCH  19  23
ATOM     23  C   UNL A   1      32.181  20.711  25.162  1.00  0.00     0.141 C 
ATOM     24  C   UNL A   1      32.958  20.651  23.874  1.00  0.00     0.029 C 
ENDBRANCH  19  23
ENDBRANCH  15  18
ENDBRANCH   8  14
ENDBRANCH   5   7
ENDBRANCH   4   5
ENDBRANCH   3   4
ENDBRANCH   2   3
ENDBRANCH   1   2
BRANCH   1  25
ATOM     25  C   UNL A   1      37.536  21.913  25.507  1.00  0.00     0.202 C 
BRANCH  25  26
ATOM     26  C   UNL A   1      38.949  21.873  26.059  1.00  0.00     0.261 C 
BRANCH  26  27
ATOM     27  O   UNL A   1      39.328  23.146  26.550  1.00  0.00    -0.460 OA
BRANCH  27  28
ATOM     28  C   UNL A   1      40.407  23.172  27.360  1.00  0.00     0.338 C 
ATOM     29  O   UNL A   1      40.878  22.239  28.001  1.00  0.00    -0.246 OA
BRANCH  28  30
ATOM     30  C   UNL A   1      40.833  24.568  27.457  1.00  0.00     0.060 A 
ATOM     31  C   UNL A   1      41.722  24.921  28.468  1.00  0.00     0.016 A 
ATOM     32  C   UNL A   1      40.137  25.537  26.722  1.00  0.00     0.016 A 
ATOM     33  C   UNL A   1      41.709  26.232  28.899  1.00  0.00     0.010 A 
ATOM     34  C   UNL A   1      40.169  26.847  27.113  1.00  0.00     0.010 A 
ATOM     35  C   UNL A   1      40.845  27.150  28.280  1.00  0.00    -0.014 A 
BRANCH  35  36
ATOM     36  C   UNL A   1      40.774  28.516  28.757  1.00  0.00     0.031 A 
ATOM     37  C   UNL A   1      41.906  29.279  28.194  1.00  0.00     0.074 A 
ATOM     38  C   UNL A   1      39.746  29.008  29.481  1.00  0.00     0.049 A 
ATOM     39  N   UNL A   1      43.062  29.451  28.745  1.00  0.00    -0.248 NA
ATOM     40  C   UNL A   1      41.898  29.561  26.744  1.00  0.00     0.031 C 
ATOM     41  C   UNL A   1      38.476  28.358  29.825  1.00  0.00     0.029 A 
ATOM     42  N   UNL A   1      39.592  30.248  30.028  1.00  0.00    -0.354 N 
ATOM     43  C   UNL A   1      43.782  30.186  27.815  1.00  0.00     0.074 A 
ATOM     44  C   UNL A   1      43.175  29.897  26.551  1.00  0.00     0.031 C 
ATOM     45  C   UNL A   1      37.610  29.277  30.326  1.00  0.00     0.029 A 
ATOM     46  C   UNL A   1      38.303  30.546  30.488  1.00  0.00     0.049 A 
ATOM     47  H   UNL A   1      40.336  30.890  30.093  1.00  0.00     0.167 HD
ATOM     48  C   UNL A   1      44.475  31.284  28.226  1.00  0.00     0.034 A 
ATOM     49  C   UNL A   1      37.863  31.761  30.945  1.00  0.00     0.034 A 
ATOM     50  C   UNL A   1      44.616  31.255  29.671  1.00  0.00     0.049 A 
ATOM     51  C   UNL A   1      39.077  32.501  31.348  1.00  0.00     0.074 A 
ATOM     52  C   UNL A   1      45.280  30.476  30.593  1.00  0.00     0.029 A 
ATOM     53  N   UNL A   1      43.592  31.886  30.338  1.00  0.00    -0.354 N 
ATOM     54  N   UNL A   1      39.830  32.124  32.345  1.00  0.00    -0.248 NA
ATOM     55  C   UNL A   1      39.718  33.380  30.380  1.00  0.00     0.031 C 
ATOM     56  C   UNL A   1      44.465  30.479  31.767  1.00  0.00     0.029 A 
ATOM     57  C   UNL A   1      43.374  31.325  31.568  1.00  0.00     0.049 A 
ATOM     58  H   UNL A   1      43.080  32.645  29.978  1.00  0.00     0.167 HD
ATOM     59  C   UNL A   1      41.124  32.355  31.914  1.00  0.00     0.074 A 
ATOM     60  C   UNL A   1      40.987  33.268  30.781  1.00  0.00     0.031 C 
ATOM     61  C   UNL A   1      42.139  31.532  32.309  1.00  0.00     0.034 A 
BRANCH  48  62
ATOM     62  C   UNL A   1      44.513  32.605  27.463  1.00  0.00     0.023 A 
ATOM     63  C   UNL A   1      43.835  33.691  28.054  1.00  0.00     0.031 A 
ATOM     64  C   UNL A   1      44.899  32.801  26.114  1.00  0.00     0.131 A 
ATOM     65  C   UNL A   1      43.489  34.829  27.303  1.00  0.00     0.055 A 
ATOM     66  C   UNL A   1      44.584  33.949  25.384  1.00  0.00     0.041 A 
ATOM     67  F   UNL A   1      45.537  31.882  25.383  1.00  0.00    -0.206 F 
ATOM     68  C   UNL A   1      43.852  34.962  25.968  1.00  0.00     0.022 A 
BRANCH  65  69
ATOM     69  S   UNL A   1      42.429  36.080  28.065  1.00  0.00     0.124 S 
ATOM     70  O   UNL A   1      42.831  35.996  29.465  1.00  0.00    -0.237 OA
ATOM     71  O   UNL A   1      42.828  37.287  27.347  1.00  0.00    -0.237 OA
ATOM     72  O   UNL A   1      41.079  35.601  27.774  1.00  0.00    -0.744 OA
ENDBRANCH  65  69
ENDBRANCH  48  62
BRANCH  49  73
ATOM     73  C   UNL A   1      36.585  32.467  30.612  1.00  0.00     0.023 A 
ATOM     74  C   UNL A   1      35.713  33.088  31.538  1.00  0.00     0.031 A 
ATOM     75  C   UNL A   1      36.371  32.796  29.260  1.00  0.00     0.131 A 
ATOM     76  C   UNL A   1      34.650  33.917  31.078  1.00  0.00     0.055 A 
ATOM     77  C   UNL A   1      35.290  33.553  28.802  1.00  0.00     0.041 A 
ATOM     78  F   UNL A   1      37.314  32.508  28.354  1.00  0.00    -0.206 F 
ATOM     79  C   UNL A   1      34.419  34.117  29.715  1.00  0.00     0.022 A 
BRANCH  76  80
ATOM     80  S   UNL A   1      33.618  34.882  32.245  1.00  0.00     0.124 S 
ATOM     81  O   UNL A   1      32.531  35.348  31.392  1.00  0.00    -0.237 OA
ATOM     82  O   UNL A   1      33.276  33.887  33.253  1.00  0.00    -0.237 OA
ATOM     83  O   UNL A   1      34.521  35.937  32.711  1.00  0.00    -0.744 OA
ENDBRANCH  76  80
ENDBRANCH  49  73
BRANCH  61  84
ATOM     84  C   UNL A   1      41.942  30.734  33.581  1.00  0.00     0.023 A 
ATOM     85  C   UNL A   1      41.823  29.328  33.687  1.00  0.00     0.031 A 
ATOM     86  C   UNL A   1      41.945  31.485  34.769  1.00  0.00     0.131 A 
ATOM     87  C   UNL A   1      41.721  28.734  34.965  1.00  0.00     0.055 A 
ATOM     88  C   UNL A   1      41.870  30.892  36.024  1.00  0.00     0.041 A 
ATOM     89  F   UNL A   1      42.055  32.823  34.724  1.00  0.00    -0.206 F 
ATOM     90  C   UNL A   1      41.755  29.512  36.128  1.00  0.00     0.022 A 
BRANCH  87  91
ATOM     91  S   UNL A   1      41.510  26.930  35.157  1.00  0.00     0.124 S 
ATOM     92  O   UNL A   1      41.224  26.771  36.579  1.00  0.00    -0.237 OA
ATOM     93  O   UNL A   1      40.405  26.641  34.248  1.00  0.00    -0.237 OA
ATOM     94  O   UNL A   1      42.802  26.388  34.732  1.00  0.00    -0.744 OA
ENDBRANCH  87  91
ENDBRANCH  61  84
ENDBRANCH  35  36
ENDBRANCH  28  30
ENDBRANCH  27  28
ENDBRANCH  26  27
ENDBRANCH  25  26
ENDBRANCH   1  25
TORSDOF 20
ENDMDL
