MODEL 1
REMARK VINA RESULT:     -10.4      0.000      0.000
REMARK SMILES Cc1cscc1C(=O)NC[C@@](C)(O)C(=O)OCCOCCOC(=O)c1ccc(-c2c3nc(c(-c4cc(S(=O)(=O)[O-])ccc4F)c4ccc([nH]4)c(-c4cc(S(=O)(=O)[O-])ccc4F)c4nc(c(-c5cc(S(=O)(=O)[O-])ccc5F)c5ccc2[nH]5)C=C4)C=C3)cc1
REMARK SMILES IDX 19 1 18 2 17 3 16 4 14 5 15 6 11 7 12 8 10 9 9 10 7 11 8 12
REMARK SMILES IDX 6 14 1 15 2 16 3 17 4 18 5 19 13 20 20 22 21 23 22 24 23 25
REMARK SMILES IDX 24 26 25 27 26 28 87 29 27 30 86 31 28 32 29 33 30 34 80 35
REMARK SMILES IDX 31 36 85 37 79 38 81 39 32 40 84 41 78 42 77 43 33 45 65 46
REMARK SMILES IDX 45 47 64 48 46 49 49 50 63 51 82 52 47 53 48 54 62 56 83 57
REMARK SMILES IDX 50 58 34 59 35 60 43 61 36 62 42 63 44 64 41 65 37 66 38 67
REMARK SMILES IDX 39 68 40 69 66 70 67 71 75 72 68 73 74 74 76 75 73 76 69 77
REMARK SMILES IDX 70 78 71 79 72 80 51 81 52 82 60 83 53 84 59 85 61 86 58 87
REMARK SMILES IDX 54 88 55 89 56 90 57 91
REMARK H PARENT 9 13 13 21 81 44 49 55
REMARK Flexibility Score: inf
ROOT
ATOM      1  O   UNL A   1      37.210  21.488  24.642  1.00  0.00    -0.374 OA
ENDROOT
BRANCH   1   2
ATOM      2  C   UNL A   1      36.498  22.313  25.564  1.00  0.00     0.202 C 
BRANCH   2   3
ATOM      3  C   UNL A   1      35.056  21.907  25.862  1.00  0.00     0.261 C 
BRANCH   3   4
ATOM      4  O   UNL A   1      34.165  22.667  25.036  1.00  0.00    -0.461 OA
BRANCH   4   5
ATOM      5  C   UNL A   1      32.960  22.104  24.763  1.00  0.00     0.339 C 
ATOM      6  O   UNL A   1      32.395  21.278  25.470  1.00  0.00    -0.249 OA
BRANCH   5   7
ATOM      7  C   UNL A   1      32.391  22.624  23.425  1.00  0.00     0.176 C 
ATOM      8  C   UNL A   1      32.064  21.398  22.574  1.00  0.00     0.057 C 
BRANCH   7   9
ATOM      9  C   UNL A   1      31.186  23.565  23.660  1.00  0.00     0.163 C 
BRANCH   9  10
ATOM     10  N   UNL A   1      30.619  23.698  24.977  1.00  0.00    -0.348 N 
ATOM     11  C   UNL A   1      30.458  24.761  25.829  1.00  0.00     0.252 C 
ATOM     12  O   UNL A   1      29.909  24.478  26.901  1.00  0.00    -0.269 OA
ATOM     13  H   UNL A   1      30.274  22.850  25.341  1.00  0.00     0.163 HD
BRANCH  11  14
ATOM     14  C   UNL A   1      30.925  26.146  25.588  1.00  0.00     0.053 A 
ATOM     15  C   UNL A   1      29.696  27.184  23.445  1.00  0.00     0.046 C 
ATOM     16  C   UNL A   1      30.632  27.195  24.609  1.00  0.00    -0.028 A 
ATOM     17  C   UNL A   1      31.360  28.351  24.872  1.00  0.00     0.069 A 
ATOM     18  S   UNL A   1      32.319  28.255  26.266  1.00  0.00    -0.151 S 
ATOM     19  C   UNL A   1      31.812  26.658  26.537  1.00  0.00     0.079 A 
ENDBRANCH  11  14
ENDBRANCH   9  10
ENDBRANCH   7   9
BRANCH   7  20
ATOM     20  O   UNL A   1      33.338  23.413  22.676  1.00  0.00    -0.377 OA
ATOM     21  H   UNL A   1      33.877  23.939  23.288  1.00  0.00     0.212 HD
ENDBRANCH   7  20
ENDBRANCH   5   7
ENDBRANCH   4   5
ENDBRANCH   3   4
ENDBRANCH   2   3
ENDBRANCH   1   2
BRANCH   1  22
ATOM     22  C   UNL A   1      37.243  20.087  24.903  1.00  0.00     0.202 C 
BRANCH  22  23
ATOM     23  C   UNL A   1      38.610  19.416  25.085  1.00  0.00     0.261 C 
BRANCH  23  24
ATOM     24  O   UNL A   1      39.196  19.665  26.369  1.00  0.00    -0.460 OA
BRANCH  24  25
ATOM     25  C   UNL A   1      40.524  19.929  26.332  1.00  0.00     0.338 C 
ATOM     26  O   UNL A   1      41.401  19.234  25.833  1.00  0.00    -0.246 OA
BRANCH  25  27
ATOM     27  C   UNL A   1      40.761  21.300  26.811  1.00  0.00     0.060 A 
ATOM     28  C   UNL A   1      40.175  22.347  26.087  1.00  0.00     0.016 A 
ATOM     29  C   UNL A   1      41.563  21.561  27.923  1.00  0.00     0.016 A 
ATOM     30  C   UNL A   1      40.421  23.666  26.452  1.00  0.00     0.010 A 
ATOM     31  C   UNL A   1      41.818  22.887  28.281  1.00  0.00     0.010 A 
ATOM     32  C   UNL A   1      41.274  23.943  27.527  1.00  0.00    -0.014 A 
BRANCH  32  33
ATOM     33  C   UNL A   1      41.725  25.336  27.754  1.00  0.00     0.031 A 
ATOM     34  C   UNL A   1      43.096  25.733  27.283  1.00  0.00     0.074 A 
ATOM     35  C   UNL A   1      40.910  26.234  28.336  1.00  0.00     0.049 A 
ATOM     36  N   UNL A   1      43.720  26.874  27.409  1.00  0.00    -0.248 NA
ATOM     37  C   UNL A   1      43.870  24.696  26.580  1.00  0.00     0.031 C 
ATOM     38  C   UNL A   1      39.545  25.964  28.784  1.00  0.00     0.029 A 
ATOM     39  N   UNL A   1      41.116  27.551  28.655  1.00  0.00    -0.354 N 
ATOM     40  C   UNL A   1      44.962  26.693  26.811  1.00  0.00     0.074 A 
ATOM     41  C   UNL A   1      45.016  25.319  26.358  1.00  0.00     0.031 C 
ATOM     42  C   UNL A   1      39.037  27.083  29.327  1.00  0.00     0.029 A 
ATOM     43  C   UNL A   1      40.054  28.133  29.306  1.00  0.00     0.049 A 
ATOM     44  H   UNL A   1      41.946  28.034  28.437  1.00  0.00     0.167 HD
ATOM     45  C   UNL A   1      45.961  27.596  26.649  1.00  0.00     0.034 A 
ATOM     46  C   UNL A   1      39.933  29.362  29.849  1.00  0.00     0.034 A 
ATOM     47  C   UNL A   1      45.885  28.958  27.117  1.00  0.00     0.049 A 
ATOM     48  C   UNL A   1      41.092  30.323  29.732  1.00  0.00     0.074 A 
ATOM     49  C   UNL A   1      46.825  29.965  26.993  1.00  0.00     0.029 A 
ATOM     50  N   UNL A   1      44.812  29.500  27.814  1.00  0.00    -0.354 N 
ATOM     51  N   UNL A   1      42.259  30.146  29.155  1.00  0.00    -0.248 NA
ATOM     52  C   UNL A   1      40.915  31.651  30.334  1.00  0.00     0.031 C 
ATOM     53  C   UNL A   1      46.359  31.087  27.685  1.00  0.00     0.029 A 
ATOM     54  C   UNL A   1      45.086  30.814  28.162  1.00  0.00     0.049 A 
ATOM     55  H   UNL A   1      43.979  29.022  28.030  1.00  0.00     0.167 HD
ATOM     56  C   UNL A   1      42.940  31.354  29.294  1.00  0.00     0.074 A 
ATOM     57  C   UNL A   1      42.048  32.252  29.997  1.00  0.00     0.031 C 
ATOM     58  C   UNL A   1      44.186  31.694  28.874  1.00  0.00     0.034 A 
BRANCH  45  59
ATOM     59  C   UNL A   1      47.235  27.117  25.994  1.00  0.00     0.023 A 
ATOM     60  C   UNL A   1      48.202  26.375  26.696  1.00  0.00     0.031 A 
ATOM     61  C   UNL A   1      47.498  27.431  24.649  1.00  0.00     0.131 A 
ATOM     62  C   UNL A   1      49.412  26.034  26.072  1.00  0.00     0.055 A 
ATOM     63  C   UNL A   1      48.668  27.017  24.009  1.00  0.00     0.041 A 
ATOM     64  F   UNL A   1      46.627  28.160  23.934  1.00  0.00    -0.206 F 
ATOM     65  C   UNL A   1      49.640  26.326  24.726  1.00  0.00     0.022 A 
BRANCH  62  66
ATOM     66  S   UNL A   1      50.744  25.333  27.086  1.00  0.00     0.124 S 
ATOM     67  O   UNL A   1      51.144  26.488  27.886  1.00  0.00    -0.237 OA
ATOM     68  O   UNL A   1      50.064  24.261  27.803  1.00  0.00    -0.237 OA
ATOM     69  O   UNL A   1      51.731  24.897  26.100  1.00  0.00    -0.744 OA
ENDBRANCH  62  66
ENDBRANCH  45  59
BRANCH  46  70
ATOM     70  C   UNL A   1      38.694  29.744  30.587  1.00  0.00     0.023 A 
ATOM     71  C   UNL A   1      37.696  30.525  29.982  1.00  0.00     0.031 A 
ATOM     72  C   UNL A   1      38.517  29.381  31.935  1.00  0.00     0.131 A 
ATOM     73  C   UNL A   1      36.594  30.958  30.736  1.00  0.00     0.055 A 
ATOM     74  C   UNL A   1      37.389  29.763  32.662  1.00  0.00     0.041 A 
ATOM     75  F   UNL A   1      39.440  28.638  32.567  1.00  0.00    -0.206 F 
ATOM     76  C   UNL A   1      36.426  30.570  32.067  1.00  0.00     0.022 A 
BRANCH  73  77
ATOM     77  S   UNL A   1      35.429  32.125  29.978  1.00  0.00     0.124 S 
ATOM     78  O   UNL A   1      36.312  33.226  29.608  1.00  0.00    -0.237 OA
ATOM     79  O   UNL A   1      34.886  31.337  28.876  1.00  0.00    -0.237 OA
ATOM     80  O   UNL A   1      34.489  32.415  31.058  1.00  0.00    -0.744 OA
ENDBRANCH  73  77
ENDBRANCH  46  70
BRANCH  58  81
ATOM     81  C   UNL A   1      44.633  33.115  29.122  1.00  0.00     0.023 A 
ATOM     82  C   UNL A   1      44.218  34.179  28.304  1.00  0.00     0.031 A 
ATOM     83  C   UNL A   1      45.495  33.405  30.196  1.00  0.00     0.131 A 
ATOM     84  C   UNL A   1      44.710  35.473  28.536  1.00  0.00     0.055 A 
ATOM     85  C   UNL A   1      45.926  34.705  30.463  1.00  0.00     0.041 A 
ATOM     86  F   UNL A   1      45.928  32.428  31.009  1.00  0.00    -0.206 F 
ATOM     87  C   UNL A   1      45.545  35.745  29.622  1.00  0.00     0.022 A 
BRANCH  84  88
ATOM     88  S   UNL A   1      44.328  36.778  27.336  1.00  0.00     0.124 S 
ATOM     89  O   UNL A   1      45.644  37.075  26.782  1.00  0.00    -0.237 OA
ATOM     90  O   UNL A   1      43.394  36.110  26.435  1.00  0.00    -0.237 OA
ATOM     91  O   UNL A   1      43.745  37.838  28.156  1.00  0.00    -0.744 OA
ENDBRANCH  84  88
ENDBRANCH  58  81
ENDBRANCH  32  33
ENDBRANCH  25  27
ENDBRANCH  24  25
ENDBRANCH  23  24
ENDBRANCH  22  23
ENDBRANCH   1  22
TORSDOF 21
ENDMDL
MODEL 2
REMARK VINA RESULT:     -10.3      1.902      2.301
REMARK SMILES Cc1cscc1C(=O)NC[C@@](C)(O)C(=O)OCCOCCOC(=O)c1ccc(-c2c3nc(c(-c4cc(S(=O)(=O)[O-])ccc4F)c4ccc([nH]4)c(-c4cc(S(=O)(=O)[O-])ccc4F)c4nc(c(-c5cc(S(=O)(=O)[O-])ccc5F)c5ccc2[nH]5)C=C4)C=C3)cc1
REMARK SMILES IDX 19 1 18 2 17 3 16 4 14 5 15 6 11 7 12 8 10 9 9 10 7 11 8 12
REMARK SMILES IDX 6 14 1 15 2 16 3 17 4 18 5 19 13 20 20 22 21 23 22 24 23 25
REMARK SMILES IDX 24 26 25 27 26 28 87 29 27 30 86 31 28 32 29 33 30 34 80 35
REMARK SMILES IDX 31 36 85 37 79 38 81 39 32 40 84 41 78 42 77 43 33 45 65 46
REMARK SMILES IDX 45 47 64 48 46 49 49 50 63 51 82 52 47 53 48 54 62 56 83 57
REMARK SMILES IDX 50 58 34 59 35 60 43 61 36 62 42 63 44 64 41 65 37 66 38 67
REMARK SMILES IDX 39 68 40 69 66 70 67 71 75 72 68 73 74 74 76 75 73 76 69 77
REMARK SMILES IDX 70 78 71 79 72 80 51 81 52 82 60 83 53 84 59 85 61 86 58 87
REMARK SMILES IDX 54 88 55 89 56 90 57 91
REMARK H PARENT 9 13 13 21 81 44 49 55
REMARK Flexibility Score: inf
ROOT
ATOM      1  O   UNL A   1      37.580  21.479  24.636  1.00  0.00    -0.374 OA
ENDROOT
BRANCH   1   2
ATOM      2  C   UNL A   1      36.294  21.955  24.244  1.00  0.00     0.202 C 
BRANCH   2   3
ATOM      3  C   UNL A   1      36.274  23.202  23.361  1.00  0.00     0.261 C 
BRANCH   3   4
ATOM      4  O   UNL A   1      34.972  23.357  22.782  1.00  0.00    -0.461 OA
BRANCH   4   5
ATOM      5  C   UNL A   1      34.153  24.271  23.363  1.00  0.00     0.339 C 
ATOM      6  O   UNL A   1      34.494  25.073  24.224  1.00  0.00    -0.249 OA
BRANCH   5   7
ATOM      7  C   UNL A   1      32.714  24.158  22.814  1.00  0.00     0.176 C 
ATOM      8  C   UNL A   1      31.796  23.929  24.013  1.00  0.00     0.057 C 
BRANCH   7   9
ATOM      9  C   UNL A   1      32.343  25.400  21.968  1.00  0.00     0.163 C 
BRANCH   9  10
ATOM     10  N   UNL A   1      33.324  26.423  21.716  1.00  0.00    -0.348 N 
ATOM     11  C   UNL A   1      33.530  27.676  22.236  1.00  0.00     0.252 C 
ATOM     12  O   UNL A   1      34.504  28.272  21.761  1.00  0.00    -0.269 OA
ATOM     13  H   UNL A   1      33.985  26.171  21.031  1.00  0.00     0.163 HD
BRANCH  11  14
ATOM     14  C   UNL A   1      32.674  28.353  23.238  1.00  0.00     0.053 A 
ATOM     15  C   UNL A   1      30.094  28.160  22.541  1.00  0.00     0.046 C 
ATOM     16  C   UNL A   1      31.237  28.576  23.408  1.00  0.00    -0.028 A 
ATOM     17  C   UNL A   1      30.968  29.275  24.580  1.00  0.00     0.069 A 
ATOM     18  S   UNL A   1      32.346  29.612  25.508  1.00  0.00    -0.151 S 
ATOM     19  C   UNL A   1      33.340  28.863  24.354  1.00  0.00     0.079 A 
ENDBRANCH  11  14
ENDBRANCH   9  10
ENDBRANCH   7   9
BRANCH   7  20
ATOM     20  O   UNL A   1      32.533  23.036  21.926  1.00  0.00    -0.377 OA
ATOM     21  H   UNL A   1      32.535  23.347  21.007  1.00  0.00     0.212 HD
ENDBRANCH   7  20
ENDBRANCH   5   7
ENDBRANCH   4   5
ENDBRANCH   3   4
ENDBRANCH   2   3
ENDBRANCH   1   2
BRANCH   1  22
ATOM     22  C   UNL A   1      37.694  20.100  24.980  1.00  0.00     0.202 C 
BRANCH  22  23
ATOM     23  C   UNL A   1      39.074  19.566  25.385  1.00  0.00     0.261 C 
BRANCH  23  24
ATOM     24  O   UNL A   1      39.531  20.077  26.643  1.00  0.00    -0.460 OA
BRANCH  24  25
ATOM     25  C   UNL A   1      40.849  20.388  26.671  1.00  0.00     0.338 C 
ATOM     26  O   UNL A   1      41.775  19.718  26.232  1.00  0.00    -0.246 OA
BRANCH  25  27
ATOM     27  C   UNL A   1      41.012  21.775  27.137  1.00  0.00     0.060 A 
ATOM     28  C   UNL A   1      40.403  22.785  26.382  1.00  0.00     0.016 A 
ATOM     29  C   UNL A   1      41.768  22.085  28.269  1.00  0.00     0.016 A 
ATOM     30  C   UNL A   1      40.580  24.118  26.734  1.00  0.00     0.010 A 
ATOM     31  C   UNL A   1      41.955  23.425  28.615  1.00  0.00     0.010 A 
ATOM     32  C   UNL A   1      41.388  24.447  27.830  1.00  0.00    -0.014 A 
BRANCH  32  33
ATOM     33  C   UNL A   1      41.771  25.861  28.050  1.00  0.00     0.031 A 
ATOM     34  C   UNL A   1      43.117  26.324  27.568  1.00  0.00     0.074 A 
ATOM     35  C   UNL A   1      40.917  26.719  28.637  1.00  0.00     0.049 A 
ATOM     36  N   UNL A   1      43.685  27.495  27.687  1.00  0.00    -0.248 NA
ATOM     37  C   UNL A   1      43.936  25.325  26.862  1.00  0.00     0.031 C 
ATOM     38  C   UNL A   1      39.570  26.383  29.095  1.00  0.00     0.029 A 
ATOM     39  N   UNL A   1      41.060  28.046  28.951  1.00  0.00    -0.354 N 
ATOM     40  C   UNL A   1      44.930  27.374  27.080  1.00  0.00     0.074 A 
ATOM     41  C   UNL A   1      45.049  26.004  26.630  1.00  0.00     0.031 C 
ATOM     42  C   UNL A   1      39.011  27.477  29.640  1.00  0.00     0.029 A 
ATOM     43  C   UNL A   1      39.975  28.576  29.608  1.00  0.00     0.049 A 
ATOM     44  H   UNL A   1      41.863  28.569  28.726  1.00  0.00     0.167 HD
ATOM     45  C   UNL A   1      45.881  28.325  26.908  1.00  0.00     0.034 A 
ATOM     46  C   UNL A   1      39.797  29.799  30.149  1.00  0.00     0.034 A 
ATOM     47  C   UNL A   1      45.742  29.683  27.373  1.00  0.00     0.049 A 
ATOM     48  C   UNL A   1      40.906  30.816  30.021  1.00  0.00     0.074 A 
ATOM     49  C   UNL A   1      46.630  30.735  27.240  1.00  0.00     0.029 A 
ATOM     50  N   UNL A   1      44.648  30.174  28.078  1.00  0.00    -0.354 N 
ATOM     51  N   UNL A   1      42.076  30.695  29.436  1.00  0.00    -0.248 NA
ATOM     52  C   UNL A   1      40.668  32.135  30.621  1.00  0.00     0.031 C 
ATOM     53  C   UNL A   1      46.113  31.834  27.933  1.00  0.00     0.029 A 
ATOM     54  C   UNL A   1      44.859  31.500  28.420  1.00  0.00     0.049 A 
ATOM     55  H   UNL A   1      43.841  29.655  28.301  1.00  0.00     0.167 HD
ATOM     56  C   UNL A   1      42.697  31.936  29.567  1.00  0.00     0.074 A 
ATOM     57  C   UNL A   1      41.767  32.790  30.274  1.00  0.00     0.031 C 
ATOM     58  C   UNL A   1      43.922  32.336  29.137  1.00  0.00     0.034 A 
BRANCH  45  59
ATOM     59  C   UNL A   1      47.173  27.908  26.245  1.00  0.00     0.023 A 
ATOM     60  C   UNL A   1      47.371  28.026  24.858  1.00  0.00     0.031 A 
ATOM     61  C   UNL A   1      48.214  27.356  27.012  1.00  0.00     0.131 A 
ATOM     62  C   UNL A   1      48.551  27.537  24.274  1.00  0.00     0.055 A 
ATOM     63  C   UNL A   1      49.419  26.948  26.437  1.00  0.00     0.041 A 
ATOM     64  F   UNL A   1      48.073  27.191  28.337  1.00  0.00    -0.206 F 
ATOM     65  C   UNL A   1      49.587  27.024  25.058  1.00  0.00     0.022 A 
BRANCH  62  66
ATOM     66  S   UNL A   1      48.653  27.446  22.465  1.00  0.00     0.124 S 
ATOM     67  O   UNL A   1      48.572  26.004  22.239  1.00  0.00    -0.237 OA
ATOM     68  O   UNL A   1      47.495  28.225  22.045  1.00  0.00    -0.237 OA
ATOM     69  O   UNL A   1      49.952  28.044  22.165  1.00  0.00    -0.744 OA
ENDBRANCH  62  66
ENDBRANCH  45  59
BRANCH  46  70
ATOM     70  C   UNL A   1      38.546  30.122  30.896  1.00  0.00     0.023 A 
ATOM     71  C   UNL A   1      37.526  30.890  30.312  1.00  0.00     0.031 A 
ATOM     72  C   UNL A   1      38.377  29.712  32.231  1.00  0.00     0.131 A 
ATOM     73  C   UNL A   1      36.411  31.267  31.076  1.00  0.00     0.055 A 
ATOM     74  C   UNL A   1      37.238  30.039  32.967  1.00  0.00     0.041 A 
ATOM     75  F   UNL A   1      39.322  28.978  32.842  1.00  0.00    -0.206 F 
ATOM     76  C   UNL A   1      36.252  30.834  32.394  1.00  0.00     0.022 A 
BRANCH  73  77
ATOM     77  S   UNL A   1      35.213  32.422  30.351  1.00  0.00     0.124 S 
ATOM     78  O   UNL A   1      36.061  33.563  30.027  1.00  0.00    -0.237 OA
ATOM     79  O   UNL A   1      34.703  31.656  29.218  1.00  0.00    -0.237 OA
ATOM     80  O   UNL A   1      34.256  32.642  31.434  1.00  0.00    -0.744 OA
ENDBRANCH  73  77
ENDBRANCH  46  70
BRANCH  58  81
ATOM     81  C   UNL A   1      44.300  33.778  29.378  1.00  0.00     0.023 A 
ATOM     82  C   UNL A   1      44.026  34.787  28.438  1.00  0.00     0.031 A 
ATOM     83  C   UNL A   1      44.950  34.147  30.570  1.00  0.00     0.131 A 
ATOM     84  C   UNL A   1      44.453  36.101  28.679  1.00  0.00     0.055 A 
ATOM     85  C   UNL A   1      45.310  35.468  30.835  1.00  0.00     0.041 A 
ATOM     86  F   UNL A   1      45.240  33.225  31.503  1.00  0.00    -0.206 F 
ATOM     87  C   UNL A   1      45.075  36.452  29.879  1.00  0.00     0.022 A 
BRANCH  84  88
ATOM     88  S   UNL A   1      44.278  37.330  27.356  1.00  0.00     0.124 S 
ATOM     89  O   UNL A   1      44.170  38.574  28.111  1.00  0.00    -0.237 OA
ATOM     90  O   UNL A   1      45.513  37.151  26.598  1.00  0.00    -0.237 OA
ATOM     91  O   UNL A   1      43.061  36.916  26.662  1.00  0.00    -0.744 OA
ENDBRANCH  84  88
ENDBRANCH  58  81
ENDBRANCH  32  33
ENDBRANCH  25  27
ENDBRANCH  24  25
ENDBRANCH  23  24
ENDBRANCH  22  23
ENDBRANCH   1  22
TORSDOF 21
ENDMDL
MODEL 3
REMARK VINA RESULT:     -10.2      2.299      2.749
REMARK SMILES Cc1cscc1C(=O)NC[C@@](C)(O)C(=O)OCCOCCOC(=O)c1ccc(-c2c3nc(c(-c4cc(S(=O)(=O)[O-])ccc4F)c4ccc([nH]4)c(-c4cc(S(=O)(=O)[O-])ccc4F)c4nc(c(-c5cc(S(=O)(=O)[O-])ccc5F)c5ccc2[nH]5)C=C4)C=C3)cc1
REMARK SMILES IDX 19 1 18 2 17 3 16 4 14 5 15 6 11 7 12 8 10 9 9 10 7 11 8 12
REMARK SMILES IDX 6 14 1 15 2 16 3 17 4 18 5 19 13 20 20 22 21 23 22 24 23 25
REMARK SMILES IDX 24 26 25 27 26 28 87 29 27 30 86 31 28 32 29 33 30 34 80 35
REMARK SMILES IDX 31 36 85 37 79 38 81 39 32 40 84 41 78 42 77 43 33 45 65 46
REMARK SMILES IDX 45 47 64 48 46 49 49 50 63 51 82 52 47 53 48 54 62 56 83 57
REMARK SMILES IDX 50 58 34 59 35 60 43 61 36 62 42 63 44 64 41 65 37 66 38 67
REMARK SMILES IDX 39 68 40 69 66 70 67 71 75 72 68 73 74 74 76 75 73 76 69 77
REMARK SMILES IDX 70 78 71 79 72 80 51 81 52 82 60 83 53 84 59 85 61 86 58 87
REMARK SMILES IDX 54 88 55 89 56 90 57 91
REMARK H PARENT 9 13 13 21 81 44 49 55
REMARK Flexibility Score: inf
ROOT
ATOM      1  O   UNL A   1      37.420  21.459  24.728  1.00  0.00    -0.374 OA
ENDROOT
BRANCH   1   2
ATOM      2  C   UNL A   1      36.113  21.976  24.482  1.00  0.00     0.202 C 
BRANCH   2   3
ATOM      3  C   UNL A   1      36.041  23.394  23.919  1.00  0.00     0.261 C 
BRANCH   3   4
ATOM      4  O   UNL A   1      34.853  23.536  23.130  1.00  0.00    -0.461 OA
BRANCH   4   5
ATOM      5  C   UNL A   1      33.919  24.409  23.588  1.00  0.00     0.339 C 
ATOM      6  O   UNL A   1      34.113  25.254  24.455  1.00  0.00    -0.249 OA
BRANCH   5   7
ATOM      7  C   UNL A   1      32.560  24.189  22.890  1.00  0.00     0.176 C 
ATOM      8  C   UNL A   1      31.540  23.885  23.985  1.00  0.00     0.057 C 
BRANCH   7   9
ATOM      9  C   UNL A   1      32.187  25.402  22.004  1.00  0.00     0.163 C 
BRANCH   9  10
ATOM     10  N   UNL A   1      33.179  26.394  21.681  1.00  0.00    -0.348 N 
ATOM     11  C   UNL A   1      33.443  27.651  22.163  1.00  0.00     0.252 C 
ATOM     12  O   UNL A   1      34.406  28.212  21.626  1.00  0.00    -0.269 OA
ATOM     13  H   UNL A   1      33.797  26.112  20.968  1.00  0.00     0.163 HD
BRANCH  11  14
ATOM     14  C   UNL A   1      32.658  28.370  23.193  1.00  0.00     0.053 A 
ATOM     15  C   UNL A   1      30.057  28.369  22.549  1.00  0.00     0.046 C 
ATOM     16  C   UNL A   1      31.243  28.690  23.398  1.00  0.00    -0.028 A 
ATOM     17  C   UNL A   1      31.049  29.386  24.586  1.00  0.00     0.069 A 
ATOM     18  S   UNL A   1      32.465  29.610  25.489  1.00  0.00    -0.151 S 
ATOM     19  C   UNL A   1      33.380  28.813  24.303  1.00  0.00     0.079 A 
ENDBRANCH  11  14
ENDBRANCH   9  10
ENDBRANCH   7   9
BRANCH   7  20
ATOM     20  O   UNL A   1      32.560  23.060  21.992  1.00  0.00    -0.377 OA
ATOM     21  H   UNL A   1      31.654  22.883  21.694  1.00  0.00     0.212 HD
ENDBRANCH   7  20
ENDBRANCH   5   7
ENDBRANCH   4   5
ENDBRANCH   3   4
ENDBRANCH   2   3
ENDBRANCH   1   2
BRANCH   1  22
ATOM     22  C   UNL A   1      37.554  20.046  24.863  1.00  0.00     0.202 C 
BRANCH  22  23
ATOM     23  C   UNL A   1      38.913  19.486  25.303  1.00  0.00     0.261 C 
BRANCH  23  24
ATOM     24  O   UNL A   1      39.366  20.019  26.553  1.00  0.00    -0.460 OA
BRANCH  24  25
ATOM     25  C   UNL A   1      40.697  20.269  26.600  1.00  0.00     0.338 C 
ATOM     26  O   UNL A   1      41.599  19.546  26.197  1.00  0.00    -0.246 OA
BRANCH  25  27
ATOM     27  C   UNL A   1      40.916  21.658  27.036  1.00  0.00     0.060 A 
ATOM     28  C   UNL A   1      40.244  22.668  26.336  1.00  0.00     0.016 A 
ATOM     29  C   UNL A   1      41.782  21.970  28.085  1.00  0.00     0.016 A 
ATOM     30  C   UNL A   1      40.465  24.002  26.657  1.00  0.00     0.010 A 
ATOM     31  C   UNL A   1      42.013  23.312  28.399  1.00  0.00     0.010 A 
ATOM     32  C   UNL A   1      41.380  24.332  27.665  1.00  0.00    -0.014 A 
BRANCH  32  33
ATOM     33  C   UNL A   1      41.794  25.744  27.834  1.00  0.00     0.031 A 
ATOM     34  C   UNL A   1      43.106  26.183  27.248  1.00  0.00     0.074 A 
ATOM     35  C   UNL A   1      40.995  26.621  28.468  1.00  0.00     0.049 A 
ATOM     36  N   UNL A   1      43.694  27.348  27.307  1.00  0.00    -0.248 NA
ATOM     37  C   UNL A   1      43.860  25.163  26.501  1.00  0.00     0.031 C 
ATOM     38  C   UNL A   1      39.681  26.310  29.028  1.00  0.00     0.029 A 
ATOM     39  N   UNL A   1      41.175  27.951  28.749  1.00  0.00    -0.354 N 
ATOM     40  C   UNL A   1      44.890  27.202  26.612  1.00  0.00     0.074 A 
ATOM     41  C   UNL A   1      44.961  25.824  26.177  1.00  0.00     0.031 C 
ATOM     42  C   UNL A   1      39.176  27.419  29.594  1.00  0.00     0.029 A 
ATOM     43  C   UNL A   1      40.147  28.504  29.475  1.00  0.00     0.049 A 
ATOM     44  H   UNL A   1      41.965  28.461  28.458  1.00  0.00     0.167 HD
ATOM     45  C   UNL A   1      45.838  28.139  26.357  1.00  0.00     0.034 A 
ATOM     46  C   UNL A   1      40.023  29.738  30.007  1.00  0.00     0.034 A 
ATOM     47  C   UNL A   1      45.748  29.505  26.809  1.00  0.00     0.049 A 
ATOM     48  C   UNL A   1      41.132  30.739  29.783  1.00  0.00     0.074 A 
ATOM     49  C   UNL A   1      46.636  30.544  26.595  1.00  0.00     0.029 A 
ATOM     50  N   UNL A   1      44.714  30.020  27.583  1.00  0.00    -0.354 N 
ATOM     51  N   UNL A   1      42.254  30.595  29.116  1.00  0.00    -0.248 NA
ATOM     52  C   UNL A   1      40.953  32.070  30.378  1.00  0.00     0.031 C 
ATOM     53  C   UNL A   1      46.184  31.660  27.306  1.00  0.00     0.029 A 
ATOM     54  C   UNL A   1      44.964  31.349  27.888  1.00  0.00     0.049 A 
ATOM     55  H   UNL A   1      43.920  29.515  27.873  1.00  0.00     0.167 HD
ATOM     56  C   UNL A   1      42.897  31.829  29.182  1.00  0.00     0.074 A 
ATOM     57  C   UNL A   1      42.031  32.706  29.942  1.00  0.00     0.031 C 
ATOM     58  C   UNL A   1      44.092  32.207  28.658  1.00  0.00     0.034 A 
BRANCH  45  59
ATOM     59  C   UNL A   1      47.073  27.695  25.608  1.00  0.00     0.023 A 
ATOM     60  C   UNL A   1      47.262  27.983  24.245  1.00  0.00     0.031 A 
ATOM     61  C   UNL A   1      48.066  26.948  26.266  1.00  0.00     0.131 A 
ATOM     62  C   UNL A   1      48.380  27.469  23.569  1.00  0.00     0.055 A 
ATOM     63  C   UNL A   1      49.216  26.509  25.608  1.00  0.00     0.041 A 
ATOM     64  F   UNL A   1      47.928  26.617  27.559  1.00  0.00    -0.206 F 
ATOM     65  C   UNL A   1      49.371  26.757  24.247  1.00  0.00     0.022 A 
BRANCH  62  66
ATOM     66  S   UNL A   1      48.446  27.616  21.762  1.00  0.00     0.124 S 
ATOM     67  O   UNL A   1      48.643  26.225  21.360  1.00  0.00    -0.237 OA
ATOM     68  O   UNL A   1      47.146  28.195  21.445  1.00  0.00    -0.237 OA
ATOM     69  O   UNL A   1      49.593  28.492  21.532  1.00  0.00    -0.744 OA
ENDBRANCH  62  66
ENDBRANCH  45  59
BRANCH  46  70
ATOM     70  C   UNL A   1      38.834  30.087  30.838  1.00  0.00     0.023 A 
ATOM     71  C   UNL A   1      37.755  30.806  30.300  1.00  0.00     0.031 A 
ATOM     72  C   UNL A   1      38.786  29.756  32.205  1.00  0.00     0.131 A 
ATOM     73  C   UNL A   1      36.700  31.213  31.132  1.00  0.00     0.055 A 
ATOM     74  C   UNL A   1      37.706  30.110  33.015  1.00  0.00     0.041 A 
ATOM     75  F   UNL A   1      39.792  29.073  32.775  1.00  0.00    -0.206 F 
ATOM     76  C   UNL A   1      36.661  30.856  32.483  1.00  0.00     0.022 A 
BRANCH  73  77
ATOM     77  S   UNL A   1      35.424  32.306  30.447  1.00  0.00     0.124 S 
ATOM     78  O   UNL A   1      34.443  32.328  31.525  1.00  0.00    -0.237 OA
ATOM     79  O   UNL A   1      36.170  33.541  30.229  1.00  0.00    -0.237 OA
ATOM     80  O   UNL A   1      35.002  31.612  29.232  1.00  0.00    -0.744 OA
ENDBRANCH  73  77
ENDBRANCH  46  70
BRANCH  58  81
ATOM     81  C   UNL A   1      44.503  33.648  28.848  1.00  0.00     0.023 A 
ATOM     82  C   UNL A   1      45.249  34.068  29.963  1.00  0.00     0.031 A 
ATOM     83  C   UNL A   1      44.136  34.618  27.897  1.00  0.00     0.131 A 
ATOM     84  C   UNL A   1      45.553  35.427  30.129  1.00  0.00     0.055 A 
ATOM     85  C   UNL A   1      44.501  35.957  28.032  1.00  0.00     0.041 A 
ATOM     86  F   UNL A   1      43.420  34.276  26.813  1.00  0.00    -0.206 F 
ATOM     87  C   UNL A   1      45.202  36.371  29.161  1.00  0.00     0.022 A 
BRANCH  84  88
ATOM     88  S   UNL A   1      46.326  35.964  31.679  1.00  0.00     0.124 S 
ATOM     89  O   UNL A   1      45.750  37.292  31.861  1.00  0.00    -0.237 OA
ATOM     90  O   UNL A   1      45.878  34.942  32.621  1.00  0.00    -0.237 OA
ATOM     91  O   UNL A   1      47.755  35.943  31.377  1.00  0.00    -0.744 OA
ENDBRANCH  84  88
ENDBRANCH  58  81
ENDBRANCH  32  33
ENDBRANCH  25  27
ENDBRANCH  24  25
ENDBRANCH  23  24
ENDBRANCH  22  23
ENDBRANCH   1  22
TORSDOF 21
ENDMDL
