MODEL 1
REMARK VINA RESULT:      -9.9      0.000      0.000
REMARK SMILES CCCC[C@H](C(=O)OCCOCCOC(=O)c1ccc(-c2c3nc(c(-c4cc(S(=O)(=O)[O-])ccc4F)c4ccc([nH]4)c(-c4cc(S(=O)(=O)[O-])ccc4F)c4nc(c(-c5cc(S(=O)(=O)[O-])ccc5F)c5ccc2[nH]5)C=C4)C=C3)cc1)c1ccnn1C
REMARK SMILES IDX 11 1 10 2 9 3 8 4 6 5 7 6 5 7 4 8 3 9 2 10 1 11 80 12 81 13
REMARK SMILES IDX 84 14 82 15 83 16 85 17 12 18 13 19 14 20 15 21 16 22 17 23
REMARK SMILES IDX 18 24 79 25 19 26 78 27 20 28 21 29 22 30 72 31 23 32 77 33
REMARK SMILES IDX 71 34 73 35 24 36 76 37 70 38 69 39 25 41 57 42 37 43 56 44
REMARK SMILES IDX 38 45 41 46 55 47 74 48 39 49 40 50 54 52 75 53 42 54 26 55
REMARK SMILES IDX 27 56 35 57 28 58 34 59 36 60 33 61 29 62 30 63 31 64 32 65
REMARK SMILES IDX 58 66 59 67 67 68 60 69 66 70 68 71 65 72 61 73 62 74 63 75
REMARK SMILES IDX 64 76 43 77 44 78 52 79 45 80 51 81 53 82 50 83 46 84 47 85
REMARK SMILES IDX 48 86 49 87
REMARK H PARENT 73 40 41 51
REMARK Flexibility Score: inf
ROOT
ATOM      1  O   UNL A   1      36.069  22.380  24.733  1.00  0.00    -0.374 OA
ENDROOT
BRANCH   1   2
ATOM      2  C   UNL A   1      35.755  23.684  24.261  1.00  0.00     0.202 C 
BRANCH   2   3
ATOM      3  C   UNL A   1      34.545  23.842  23.337  1.00  0.00     0.261 C 
BRANCH   3   4
ATOM      4  O   UNL A   1      33.853  22.616  23.071  1.00  0.00    -0.463 OA
BRANCH   4   5
ATOM      5  C   UNL A   1      32.561  22.573  23.515  1.00  0.00     0.315 C 
ATOM      6  O   UNL A   1      31.686  23.368  23.194  1.00  0.00    -0.251 OA
BRANCH   5   7
ATOM      7  C   UNL A   1      32.362  21.395  24.463  1.00  0.00     0.148 C 
BRANCH   7   8
ATOM      8  C   UNL A   1      33.206  20.157  24.114  1.00  0.00     0.022 C 
BRANCH   8   9
ATOM      9  C   UNL A   1      32.542  18.786  24.330  1.00  0.00     0.001 C 
BRANCH   9  10
ATOM     10  C   UNL A   1      33.436  17.602  24.719  1.00  0.00    -0.003 C 
ATOM     11  C   UNL A   1      33.877  16.704  23.573  1.00  0.00     0.004 C 
ENDBRANCH   9  10
ENDBRANCH   8   9
ENDBRANCH   7   8
BRANCH   7  12
ATOM     12  C   UNL A   1      32.563  21.884  25.888  1.00  0.00     0.052 A 
ATOM     13  C   UNL A   1      33.694  21.762  26.682  1.00  0.00     0.046 A 
ATOM     14  N   UNL A   1      31.618  22.471  26.706  1.00  0.00    -0.272 N 
ATOM     15  C   UNL A   1      33.334  22.279  27.933  1.00  0.00     0.135 A 
ATOM     16  N   UNL A   1      32.085  22.737  27.946  1.00  0.00    -0.182 NA
ATOM     17  C   UNL A   1      30.257  22.867  26.428  1.00  0.00     0.174 C 
ENDBRANCH   7  12
ENDBRANCH   5   7
ENDBRANCH   4   5
ENDBRANCH   3   4
ENDBRANCH   2   3
ENDBRANCH   1   2
BRANCH   1  18
ATOM     18  C   UNL A   1      37.296  21.785  24.316  1.00  0.00     0.202 C 
BRANCH  18  19
ATOM     19  C   UNL A   1      38.020  20.845  25.287  1.00  0.00     0.261 C 
BRANCH  19  20
ATOM     20  O   UNL A   1      39.453  20.964  25.242  1.00  0.00    -0.460 OA
BRANCH  20  21
ATOM     21  C   UNL A   1      40.062  20.832  26.447  1.00  0.00     0.338 C 
ATOM     22  O   UNL A   1      40.514  19.801  26.931  1.00  0.00    -0.246 OA
BRANCH  21  23
ATOM     23  C   UNL A   1      40.274  22.145  27.077  1.00  0.00     0.060 A 
ATOM     24  C   UNL A   1      39.574  23.240  26.555  1.00  0.00     0.016 A 
ATOM     25  C   UNL A   1      41.249  22.327  28.061  1.00  0.00     0.016 A 
ATOM     26  C   UNL A   1      39.886  24.532  26.974  1.00  0.00     0.010 A 
ATOM     27  C   UNL A   1      41.568  23.627  28.472  1.00  0.00     0.010 A 
ATOM     28  C   UNL A   1      40.917  24.736  27.900  1.00  0.00    -0.014 A 
BRANCH  28  29
ATOM     29  C   UNL A   1      41.427  26.111  28.130  1.00  0.00     0.031 A 
ATOM     30  C   UNL A   1      42.806  26.464  27.644  1.00  0.00     0.074 A 
ATOM     31  C   UNL A   1      40.660  27.036  28.733  1.00  0.00     0.049 A 
ATOM     32  N   UNL A   1      43.469  27.586  27.763  1.00  0.00    -0.248 NA
ATOM     33  C   UNL A   1      43.538  25.406  26.929  1.00  0.00     0.031 C 
ATOM     34  C   UNL A   1      39.293  26.819  29.205  1.00  0.00     0.029 A 
ATOM     35  N   UNL A   1      40.925  28.343  29.057  1.00  0.00    -0.354 N 
ATOM     36  C   UNL A   1      44.697  27.369  27.144  1.00  0.00     0.074 A 
ATOM     37  C   UNL A   1      44.696  25.998  26.680  1.00  0.00     0.031 C 
ATOM     38  C   UNL A   1      38.844  27.951  29.774  1.00  0.00     0.029 A 
ATOM     39  C   UNL A   1      39.901  28.960  29.737  1.00  0.00     0.049 A 
ATOM     40  H   UNL A   1      41.767  28.796  28.824  1.00  0.00     0.167 HD
ATOM     41  C   UNL A   1      45.725  28.237  26.973  1.00  0.00     0.034 A 
ATOM     42  C   UNL A   1      39.838  30.188  30.290  1.00  0.00     0.034 A 
ATOM     43  C   UNL A   1      45.711  29.598  27.451  1.00  0.00     0.049 A 
ATOM     44  C   UNL A   1      41.023  31.113  30.152  1.00  0.00     0.074 A 
ATOM     45  C   UNL A   1      46.688  30.569  27.317  1.00  0.00     0.029 A 
ATOM     46  N   UNL A   1      44.672  30.179  28.167  1.00  0.00    -0.354 N 
ATOM     47  N   UNL A   1      42.173  30.901  29.552  1.00  0.00    -0.248 NA
ATOM     48  C   UNL A   1      40.897  32.446  30.756  1.00  0.00     0.031 C 
ATOM     49  C   UNL A   1      46.270  31.711  28.010  1.00  0.00     0.029 A 
ATOM     50  C   UNL A   1      44.999  31.481  28.511  1.00  0.00     0.049 A 
ATOM     51  H   UNL A   1      43.826  29.731  28.396  1.00  0.00     0.167 HD
ATOM     52  C   UNL A   1      42.895  32.086  29.686  1.00  0.00     0.074 A 
ATOM     53  C   UNL A   1      42.045  33.010  30.407  1.00  0.00     0.031 C 
ATOM     54  C   UNL A   1      44.144  32.386  29.245  1.00  0.00     0.034 A 
BRANCH  41  55
ATOM     55  C   UNL A   1      46.967  27.715  26.293  1.00  0.00     0.023 A 
ATOM     56  C   UNL A   1      47.255  28.004  24.947  1.00  0.00     0.031 A 
ATOM     57  C   UNL A   1      47.863  26.889  26.995  1.00  0.00     0.131 A 
ATOM     58  C   UNL A   1      48.373  27.420  24.330  1.00  0.00     0.055 A 
ATOM     59  C   UNL A   1      49.013  26.371  26.395  1.00  0.00     0.041 A 
ATOM     60  F   UNL A   1      47.627  26.559  28.275  1.00  0.00    -0.206 F 
ATOM     61  C   UNL A   1      49.266  26.624  25.051  1.00  0.00     0.022 A 
BRANCH  58  62
ATOM     62  S   UNL A   1      48.570  27.606  22.536  1.00  0.00     0.124 S 
ATOM     63  O   UNL A   1      48.659  26.213  22.103  1.00  0.00    -0.237 OA
ATOM     64  O   UNL A   1      47.354  28.316  22.157  1.00  0.00    -0.237 OA
ATOM     65  O   UNL A   1      49.807  28.372  22.405  1.00  0.00    -0.744 OA
ENDBRANCH  58  62
ENDBRANCH  41  55
BRANCH  42  66
ATOM     66  C   UNL A   1      38.636  30.605  31.066  1.00  0.00     0.023 A 
ATOM     67  C   UNL A   1      37.561  31.266  30.451  1.00  0.00     0.031 A 
ATOM     68  C   UNL A   1      38.570  30.390  32.455  1.00  0.00     0.131 A 
ATOM     69  C   UNL A   1      36.488  31.729  31.229  1.00  0.00     0.055 A 
ATOM     70  C   UNL A   1      37.477  30.807  33.216  1.00  0.00     0.041 A 
ATOM     71  F   UNL A   1      39.570  29.761  33.093  1.00  0.00    -0.206 F 
ATOM     72  C   UNL A   1      36.433  31.494  32.604  1.00  0.00     0.022 A 
BRANCH  69  73
ATOM     73  S   UNL A   1      35.197  32.718  30.427  1.00  0.00     0.124 S 
ATOM     74  O   UNL A   1      35.964  33.847  29.912  1.00  0.00    -0.237 OA
ATOM     75  O   UNL A   1      34.676  31.787  29.432  1.00  0.00    -0.237 OA
ATOM     76  O   UNL A   1      34.281  33.033  31.521  1.00  0.00    -0.744 OA
ENDBRANCH  69  73
ENDBRANCH  42  66
BRANCH  54  77
ATOM     77  C   UNL A   1      44.641  33.788  29.498  1.00  0.00     0.023 A 
ATOM     78  C   UNL A   1      44.469  34.817  28.556  1.00  0.00     0.031 A 
ATOM     79  C   UNL A   1      45.309  34.094  30.698  1.00  0.00     0.131 A 
ATOM     80  C   UNL A   1      45.006  36.089  28.805  1.00  0.00     0.055 A 
ATOM     81  C   UNL A   1      45.789  35.377  30.966  1.00  0.00     0.041 A 
ATOM     82  F   UNL A   1      45.503  33.150  31.632  1.00  0.00    -0.206 F 
ATOM     83  C   UNL A   1      45.650  36.379  30.010  1.00  0.00     0.022 A 
BRANCH  80  84
ATOM     84  S   UNL A   1      44.928  37.340  27.493  1.00  0.00     0.124 S 
ATOM     85  O   UNL A   1      43.495  37.605  27.411  1.00  0.00    -0.237 OA
ATOM     86  O   UNL A   1      45.746  38.418  28.039  1.00  0.00    -0.237 OA
ATOM     87  O   UNL A   1      45.500  36.657  26.334  1.00  0.00    -0.744 OA
ENDBRANCH  80  84
ENDBRANCH  54  77
ENDBRANCH  28  29
ENDBRANCH  21  23
ENDBRANCH  20  21
ENDBRANCH  19  20
ENDBRANCH  18  19
ENDBRANCH   1  18
TORSDOF 21
ENDMDL
MODEL 2
REMARK VINA RESULT:      -9.8      1.993      8.209
REMARK SMILES CCCC[C@H](C(=O)OCCOCCOC(=O)c1ccc(-c2c3nc(c(-c4cc(S(=O)(=O)[O-])ccc4F)c4ccc([nH]4)c(-c4cc(S(=O)(=O)[O-])ccc4F)c4nc(c(-c5cc(S(=O)(=O)[O-])ccc5F)c5ccc2[nH]5)C=C4)C=C3)cc1)c1ccnn1C
REMARK SMILES IDX 11 1 10 2 9 3 8 4 6 5 7 6 5 7 4 8 3 9 2 10 1 11 80 12 81 13
REMARK SMILES IDX 84 14 82 15 83 16 85 17 12 18 13 19 14 20 15 21 16 22 17 23
REMARK SMILES IDX 18 24 79 25 19 26 78 27 20 28 21 29 22 30 72 31 23 32 77 33
REMARK SMILES IDX 71 34 73 35 24 36 76 37 70 38 69 39 25 41 57 42 37 43 56 44
REMARK SMILES IDX 38 45 41 46 55 47 74 48 39 49 40 50 54 52 75 53 42 54 26 55
REMARK SMILES IDX 27 56 35 57 28 58 34 59 36 60 33 61 29 62 30 63 31 64 32 65
REMARK SMILES IDX 58 66 59 67 67 68 60 69 66 70 68 71 65 72 61 73 62 74 63 75
REMARK SMILES IDX 64 76 43 77 44 78 52 79 45 80 51 81 53 82 50 83 46 84 47 85
REMARK SMILES IDX 48 86 49 87
REMARK H PARENT 73 40 41 51
REMARK Flexibility Score: inf
ROOT
ATOM      1  O   UNL A   1      34.863  22.601  24.812  1.00  0.00    -0.374 OA
ENDROOT
BRANCH   1   2
ATOM      2  C   UNL A   1      33.660  22.911  24.120  1.00  0.00     0.202 C 
BRANCH   2   3
ATOM      3  C   UNL A   1      33.753  23.807  22.883  1.00  0.00     0.261 C 
BRANCH   3   4
ATOM      4  O   UNL A   1      33.839  25.206  23.185  1.00  0.00    -0.463 OA
BRANCH   4   5
ATOM      5  C   UNL A   1      33.171  26.026  22.319  1.00  0.00     0.315 C 
ATOM      6  O   UNL A   1      33.260  25.974  21.098  1.00  0.00    -0.251 OA
BRANCH   5   7
ATOM      7  C   UNL A   1      32.298  27.013  23.087  1.00  0.00     0.148 C 
BRANCH   7   8
ATOM      8  C   UNL A   1      31.188  27.660  22.242  1.00  0.00     0.022 C 
BRANCH   8   9
ATOM      9  C   UNL A   1      30.814  29.112  22.589  1.00  0.00     0.001 C 
BRANCH   9  10
ATOM     10  C   UNL A   1      29.438  29.376  23.214  1.00  0.00    -0.003 C 
ATOM     11  C   UNL A   1      28.455  28.216  23.157  1.00  0.00     0.004 C 
ENDBRANCH   9  10
ENDBRANCH   8   9
ENDBRANCH   7   8
BRANCH   7  12
ATOM     12  C   UNL A   1      31.783  26.326  24.342  1.00  0.00     0.052 A 
ATOM     13  C   UNL A   1      30.716  25.447  24.458  1.00  0.00     0.046 A 
ATOM     14  N   UNL A   1      32.229  26.516  25.635  1.00  0.00    -0.272 N 
ATOM     15  C   UNL A   1      30.592  25.185  25.829  1.00  0.00     0.135 A 
ATOM     16  N   UNL A   1      31.525  25.807  26.544  1.00  0.00    -0.182 NA
ATOM     17  C   UNL A   1      33.327  27.306  26.139  1.00  0.00     0.174 C 
ENDBRANCH   7  12
ENDBRANCH   5   7
ENDBRANCH   4   5
ENDBRANCH   3   4
ENDBRANCH   2   3
ENDBRANCH   1   2
BRANCH   1  18
ATOM     18  C   UNL A   1      35.624  21.476  24.380  1.00  0.00     0.202 C 
BRANCH  18  19
ATOM     19  C   UNL A   1      37.149  21.521  24.536  1.00  0.00     0.261 C 
BRANCH  19  20
ATOM     20  O   UNL A   1      37.588  21.487  25.906  1.00  0.00    -0.460 OA
BRANCH  20  21
ATOM     21  C   UNL A   1      38.932  21.400  26.059  1.00  0.00     0.338 C 
ATOM     22  O   UNL A   1      39.669  20.539  25.590  1.00  0.00    -0.246 OA
BRANCH  21  23
ATOM     23  C   UNL A   1      39.464  22.587  26.747  1.00  0.00     0.060 A 
ATOM     24  C   UNL A   1      38.883  23.827  26.451  1.00  0.00     0.016 A 
ATOM     25  C   UNL A   1      40.604  22.510  27.550  1.00  0.00     0.016 A 
ATOM     26  C   UNL A   1      39.473  25.002  26.912  1.00  0.00     0.010 A 
ATOM     27  C   UNL A   1      41.201  23.692  28.003  1.00  0.00     0.010 A 
ATOM     28  C   UNL A   1      40.662  24.943  27.650  1.00  0.00    -0.014 A 
BRANCH  28  29
ATOM     29  C   UNL A   1      41.427  26.191  27.897  1.00  0.00     0.031 A 
ATOM     30  C   UNL A   1      40.760  27.317  28.640  1.00  0.00     0.074 A 
ATOM     31  C   UNL A   1      42.705  26.305  27.494  1.00  0.00     0.049 A 
ATOM     32  N   UNL A   1      41.219  28.504  28.939  1.00  0.00    -0.248 NA
ATOM     33  C   UNL A   1      39.386  27.067  29.106  1.00  0.00     0.031 C 
ATOM     34  C   UNL A   1      43.468  25.264  26.807  1.00  0.00     0.029 A 
ATOM     35  N   UNL A   1      43.586  27.352  27.601  1.00  0.00    -0.354 N 
ATOM     36  C   UNL A   1      40.191  29.148  29.623  1.00  0.00     0.074 A 
ATOM     37  C   UNL A   1      39.075  28.227  29.664  1.00  0.00     0.031 C 
ATOM     38  C   UNL A   1      44.698  25.731  26.537  1.00  0.00     0.029 A 
ATOM     39  C   UNL A   1      44.800  27.113  27.002  1.00  0.00     0.049 A 
ATOM     40  H   UNL A   1      43.368  28.194  28.063  1.00  0.00     0.167 HD
ATOM     41  C   UNL A   1      40.183  30.388  30.170  1.00  0.00     0.034 A 
ATOM     42  C   UNL A   1      45.861  27.928  26.827  1.00  0.00     0.034 A 
ATOM     43  C   UNL A   1      41.303  31.296  30.110  1.00  0.00     0.049 A 
ATOM     44  C   UNL A   1      45.803  29.332  27.380  1.00  0.00     0.074 A 
ATOM     45  C   UNL A   1      41.412  32.568  30.646  1.00  0.00     0.029 A 
ATOM     46  N   UNL A   1      42.505  31.035  29.465  1.00  0.00    -0.354 N 
ATOM     47  N   UNL A   1      44.830  29.923  28.036  1.00  0.00    -0.248 NA
ATOM     48  C   UNL A   1      46.990  30.172  27.177  1.00  0.00     0.031 C 
ATOM     49  C   UNL A   1      42.650  33.099  30.266  1.00  0.00     0.029 A 
ATOM     50  C   UNL A   1      43.346  32.133  29.559  1.00  0.00     0.049 A 
ATOM     51  H   UNL A   1      42.728  30.192  29.008  1.00  0.00     0.167 HD
ATOM     52  C   UNL A   1      45.302  31.196  28.347  1.00  0.00     0.074 A 
ATOM     53  C   UNL A   1      46.649  31.280  27.821  1.00  0.00     0.031 C 
ATOM     54  C   UNL A   1      44.683  32.204  29.015  1.00  0.00     0.034 A 
BRANCH  41  55
ATOM     55  C   UNL A   1      38.904  30.850  30.825  1.00  0.00     0.023 A 
ATOM     56  C   UNL A   1      37.854  31.422  30.085  1.00  0.00     0.031 A 
ATOM     57  C   UNL A   1      38.745  30.741  32.218  1.00  0.00     0.131 A 
ATOM     58  C   UNL A   1      36.722  31.923  30.748  1.00  0.00     0.055 A 
ATOM     59  C   UNL A   1      37.584  31.175  32.863  1.00  0.00     0.041 A 
ATOM     60  F   UNL A   1      39.723  30.226  32.979  1.00  0.00    -0.206 F 
ATOM     61  C   UNL A   1      36.571  31.782  32.129  1.00  0.00     0.022 A 
BRANCH  58  62
ATOM     62  S   UNL A   1      35.511  32.882  29.797  1.00  0.00     0.124 S 
ATOM     63  O   UNL A   1      34.280  32.620  30.538  1.00  0.00    -0.237 OA
ATOM     64  O   UNL A   1      36.039  34.238  29.892  1.00  0.00    -0.237 OA
ATOM     65  O   UNL A   1      35.569  32.281  28.465  1.00  0.00    -0.744 OA
ENDBRANCH  58  62
ENDBRANCH  41  55
BRANCH  42  66
ATOM     66  C   UNL A   1      47.048  27.463  26.055  1.00  0.00     0.023 A 
ATOM     67  C   UNL A   1      47.234  27.824  24.712  1.00  0.00     0.031 A 
ATOM     68  C   UNL A   1      47.993  26.602  26.644  1.00  0.00     0.131 A 
ATOM     69  C   UNL A   1      48.313  27.291  23.988  1.00  0.00     0.055 A 
ATOM     70  C   UNL A   1      49.091  26.115  25.935  1.00  0.00     0.041 A 
ATOM     71  F   UNL A   1      47.862  26.226  27.926  1.00  0.00    -0.206 F 
ATOM     72  C   UNL A   1      49.248  26.449  24.593  1.00  0.00     0.022 A 
BRANCH  69  73
ATOM     73  S   UNL A   1      48.431  27.651  22.214  1.00  0.00     0.124 S 
ATOM     74  O   UNL A   1      48.486  26.310  21.642  1.00  0.00    -0.237 OA
ATOM     75  O   UNL A   1      47.205  28.403  21.976  1.00  0.00    -0.237 OA
ATOM     76  O   UNL A   1      49.665  28.427  22.107  1.00  0.00    -0.744 OA
ENDBRANCH  69  73
ENDBRANCH  42  66
BRANCH  54  77
ATOM     77  C   UNL A   1      45.479  33.465  29.246  1.00  0.00     0.023 A 
ATOM     78  C   UNL A   1      45.470  34.526  28.324  1.00  0.00     0.031 A 
ATOM     79  C   UNL A   1      46.268  33.598  30.403  1.00  0.00     0.131 A 
ATOM     80  C   UNL A   1      46.277  35.652  28.549  1.00  0.00     0.055 A 
ATOM     81  C   UNL A   1      47.024  34.747  30.649  1.00  0.00     0.041 A 
ATOM     82  F   UNL A   1      46.315  32.616  31.315  1.00  0.00    -0.206 F 
ATOM     83  C   UNL A   1      47.041  35.776  29.712  1.00  0.00     0.022 A 
BRANCH  80  84
ATOM     84  S   UNL A   1      46.385  36.919  27.254  1.00  0.00     0.124 S 
ATOM     85  O   UNL A   1      45.141  37.657  27.448  1.00  0.00    -0.237 OA
ATOM     86  O   UNL A   1      47.610  37.627  27.609  1.00  0.00    -0.237 OA
ATOM     87  O   UNL A   1      46.457  36.140  26.018  1.00  0.00    -0.744 OA
ENDBRANCH  80  84
ENDBRANCH  54  77
ENDBRANCH  28  29
ENDBRANCH  21  23
ENDBRANCH  20  21
ENDBRANCH  19  20
ENDBRANCH  18  19
ENDBRANCH   1  18
TORSDOF 21
ENDMDL
MODEL 3
REMARK VINA RESULT:      -9.6      4.973     10.222
REMARK SMILES CCCC[C@H](C(=O)OCCOCCOC(=O)c1ccc(-c2c3nc(c(-c4cc(S(=O)(=O)[O-])ccc4F)c4ccc([nH]4)c(-c4cc(S(=O)(=O)[O-])ccc4F)c4nc(c(-c5cc(S(=O)(=O)[O-])ccc5F)c5ccc2[nH]5)C=C4)C=C3)cc1)c1ccnn1C
REMARK SMILES IDX 11 1 10 2 9 3 8 4 6 5 7 6 5 7 4 8 3 9 2 10 1 11 80 12 81 13
REMARK SMILES IDX 84 14 82 15 83 16 85 17 12 18 13 19 14 20 15 21 16 22 17 23
REMARK SMILES IDX 18 24 79 25 19 26 78 27 20 28 21 29 22 30 72 31 23 32 77 33
REMARK SMILES IDX 71 34 73 35 24 36 76 37 70 38 69 39 25 41 57 42 37 43 56 44
REMARK SMILES IDX 38 45 41 46 55 47 74 48 39 49 40 50 54 52 75 53 42 54 26 55
REMARK SMILES IDX 27 56 35 57 28 58 34 59 36 60 33 61 29 62 30 63 31 64 32 65
REMARK SMILES IDX 58 66 59 67 67 68 60 69 66 70 68 71 65 72 61 73 62 74 63 75
REMARK SMILES IDX 64 76 43 77 44 78 52 79 45 80 51 81 53 82 50 83 46 84 47 85
REMARK SMILES IDX 48 86 49 87
REMARK H PARENT 73 40 41 51
REMARK Flexibility Score: inf
ROOT
ATOM      1  O   UNL A   1      32.518  29.105  25.443  1.00  0.00    -0.374 OA
ENDROOT
BRANCH   1   2
ATOM      2  C   UNL A   1      31.416  28.748  24.618  1.00  0.00     0.202 C 
BRANCH   2   3
ATOM      3  C   UNL A   1      31.707  28.299  23.184  1.00  0.00     0.261 C 
BRANCH   3   4
ATOM      4  O   UNL A   1      33.053  27.853  22.977  1.00  0.00    -0.463 OA
BRANCH   4   5
ATOM      5  C   UNL A   1      33.170  26.631  22.374  1.00  0.00     0.315 C 
ATOM      6  O   UNL A   1      33.766  26.425  21.324  1.00  0.00    -0.251 OA
BRANCH   5   7
ATOM      7  C   UNL A   1      32.458  25.561  23.196  1.00  0.00     0.148 C 
BRANCH   7   8
ATOM      8  C   UNL A   1      31.916  24.387  22.364  1.00  0.00     0.022 C 
BRANCH   8   9
ATOM      9  C   UNL A   1      31.378  23.177  23.147  1.00  0.00     0.001 C 
BRANCH   9  10
ATOM     10  C   UNL A   1      32.052  21.816  22.929  1.00  0.00    -0.003 C 
ATOM     11  C   UNL A   1      33.130  21.447  23.937  1.00  0.00     0.004 C 
ENDBRANCH   9  10
ENDBRANCH   8   9
ENDBRANCH   7   8
BRANCH   7  12
ATOM     12  C   UNL A   1      33.379  25.129  24.326  1.00  0.00     0.052 A 
ATOM     13  C   UNL A   1      34.697  24.708  24.240  1.00  0.00     0.046 A 
ATOM     14  N   UNL A   1      33.047  24.986  25.659  1.00  0.00    -0.272 N 
ATOM     15  C   UNL A   1      35.057  24.328  25.540  1.00  0.00     0.135 A 
ATOM     16  N   UNL A   1      34.069  24.521  26.410  1.00  0.00    -0.182 NA
ATOM     17  C   UNL A   1      31.818  25.288  26.354  1.00  0.00     0.174 C 
ENDBRANCH   7  12
ENDBRANCH   5   7
ENDBRANCH   4   5
ENDBRANCH   3   4
ENDBRANCH   2   3
ENDBRANCH   1   2
BRANCH   1  18
ATOM     18  C   UNL A   1      32.254  29.587  26.758  1.00  0.00     0.202 C 
BRANCH  18  19
ATOM     19  C   UNL A   1      32.321  31.098  27.011  1.00  0.00     0.261 C 
BRANCH  19  20
ATOM     20  O   UNL A   1      33.628  31.660  26.794  1.00  0.00    -0.460 OA
BRANCH  20  21
ATOM     21  C   UNL A   1      34.232  32.116  27.919  1.00  0.00     0.338 C 
ATOM     22  O   UNL A   1      33.744  32.858  28.764  1.00  0.00    -0.246 OA
BRANCH  21  23
ATOM     23  C   UNL A   1      35.543  31.475  28.112  1.00  0.00     0.060 A 
ATOM     24  C   UNL A   1      35.568  30.086  28.297  1.00  0.00     0.016 A 
ATOM     25  C   UNL A   1      36.706  32.233  28.257  1.00  0.00     0.016 A 
ATOM     26  C   UNL A   1      36.749  29.456  28.685  1.00  0.00     0.010 A 
ATOM     27  C   UNL A   1      37.888  31.599  28.657  1.00  0.00     0.010 A 
ATOM     28  C   UNL A   1      37.903  30.215  28.913  1.00  0.00    -0.014 A 
BRANCH  28  29
ATOM     29  C   UNL A   1      39.067  29.585  29.586  1.00  0.00     0.031 A 
ATOM     30  C   UNL A   1      39.449  30.053  30.964  1.00  0.00     0.074 A 
ATOM     31  C   UNL A   1      39.751  28.592  28.990  1.00  0.00     0.049 A 
ATOM     32  N   UNL A   1      40.442  29.673  31.727  1.00  0.00    -0.248 NA
ATOM     33  C   UNL A   1      38.593  31.091  31.561  1.00  0.00     0.031 C 
ATOM     34  C   UNL A   1      39.443  28.028  27.677  1.00  0.00     0.029 A 
ATOM     35  N   UNL A   1      40.848  27.885  29.413  1.00  0.00    -0.354 N 
ATOM     36  C   UNL A   1      40.337  30.429  32.891  1.00  0.00     0.074 A 
ATOM     37  C   UNL A   1      39.201  31.310  32.718  1.00  0.00     0.031 C 
ATOM     38  C   UNL A   1      40.344  27.072  27.392  1.00  0.00     0.029 A 
ATOM     39  C   UNL A   1      41.309  26.980  28.486  1.00  0.00     0.049 A 
ATOM     40  H   UNL A   1      41.266  28.014  30.294  1.00  0.00     0.167 HD
ATOM     41  C   UNL A   1      41.112  30.386  34.002  1.00  0.00     0.034 A 
ATOM     42  C   UNL A   1      42.401  26.188  28.509  1.00  0.00     0.034 A 
ATOM     43  C   UNL A   1      42.246  29.508  34.153  1.00  0.00     0.049 A 
ATOM     44  C   UNL A   1      43.293  26.209  29.727  1.00  0.00     0.074 A 
ATOM     45  C   UNL A   1      43.090  29.367  35.241  1.00  0.00     0.029 A 
ATOM     46  N   UNL A   1      42.706  28.628  33.181  1.00  0.00    -0.354 N 
ATOM     47  N   UNL A   1      43.175  26.918  30.827  1.00  0.00    -0.248 NA
ATOM     48  C   UNL A   1      44.459  25.316  29.709  1.00  0.00     0.031 C 
ATOM     49  C   UNL A   1      44.097  28.456  34.901  1.00  0.00     0.029 A 
ATOM     50  C   UNL A   1      43.840  27.969  33.630  1.00  0.00     0.049 A 
ATOM     51  H   UNL A   1      42.287  28.493  32.300  1.00  0.00     0.167 HD
ATOM     52  C   UNL A   1      44.238  26.534  31.642  1.00  0.00     0.074 A 
ATOM     53  C   UNL A   1      44.974  25.522  30.914  1.00  0.00     0.031 C 
ATOM     54  C   UNL A   1      44.571  26.972  32.884  1.00  0.00     0.034 A 
BRANCH  41  55
ATOM     55  C   UNL A   1      40.790  31.358  35.111  1.00  0.00     0.023 A 
ATOM     56  C   UNL A   1      39.698  31.165  35.976  1.00  0.00     0.031 A 
ATOM     57  C   UNL A   1      41.572  32.514  35.287  1.00  0.00     0.131 A 
ATOM     58  C   UNL A   1      39.381  32.142  36.932  1.00  0.00     0.055 A 
ATOM     59  C   UNL A   1      41.294  33.447  36.288  1.00  0.00     0.041 A 
ATOM     60  F   UNL A   1      42.612  32.765  34.476  1.00  0.00    -0.206 F 
ATOM     61  C   UNL A   1      40.185  33.271  37.109  1.00  0.00     0.022 A 
BRANCH  58  62
ATOM     62  S   UNL A   1      37.824  31.986  37.852  1.00  0.00     0.124 S 
ATOM     63  O   UNL A   1      38.260  32.261  39.218  1.00  0.00    -0.237 OA
ATOM     64  O   UNL A   1      36.987  33.005  37.229  1.00  0.00    -0.237 OA
ATOM     65  O   UNL A   1      37.417  30.604  37.601  1.00  0.00    -0.744 OA
ENDBRANCH  58  62
ENDBRANCH  41  55
BRANCH  42  66
ATOM     66  C   UNL A   1      42.745  25.344  27.330  1.00  0.00     0.023 A 
ATOM     67  C   UNL A   1      42.319  24.011  27.236  1.00  0.00     0.031 A 
ATOM     68  C   UNL A   1      43.556  25.852  26.298  1.00  0.00     0.131 A 
ATOM     69  C   UNL A   1      42.742  23.216  26.157  1.00  0.00     0.055 A 
ATOM     70  C   UNL A   1      43.932  25.073  25.202  1.00  0.00     0.041 A 
ATOM     71  F   UNL A   1      43.990  27.121  26.338  1.00  0.00    -0.206 F 
ATOM     72  C   UNL A   1      43.534  23.741  25.135  1.00  0.00     0.022 A 
BRANCH  69  73
ATOM     73  S   UNL A   1      42.304  21.456  26.152  1.00  0.00     0.124 S 
ATOM     74  O   UNL A   1      43.357  20.890  25.315  1.00  0.00    -0.237 OA
ATOM     75  O   UNL A   1      42.363  21.125  27.571  1.00  0.00    -0.237 OA
ATOM     76  O   UNL A   1      40.965  21.441  25.566  1.00  0.00    -0.744 OA
ENDBRANCH  69  73
ENDBRANCH  42  66
BRANCH  54  77
ATOM     77  C   UNL A   1      45.763  26.321  33.543  1.00  0.00     0.023 A 
ATOM     78  C   UNL A   1      45.645  25.122  34.268  1.00  0.00     0.031 A 
ATOM     79  C   UNL A   1      47.033  26.918  33.452  1.00  0.00     0.131 A 
ATOM     80  C   UNL A   1      46.767  24.588  34.920  1.00  0.00     0.055 A 
ATOM     81  C   UNL A   1      48.157  26.349  34.053  1.00  0.00     0.041 A 
ATOM     82  F   UNL A   1      47.203  28.063  32.773  1.00  0.00    -0.206 F 
ATOM     83  C   UNL A   1      48.025  25.185  34.804  1.00  0.00     0.022 A 
BRANCH  80  84
ATOM     84  S   UNL A   1      46.543  23.145  35.998  1.00  0.00     0.124 S 
ATOM     85  O   UNL A   1      47.035  22.059  35.156  1.00  0.00    -0.237 OA
ATOM     86  O   UNL A   1      47.370  23.484  37.150  1.00  0.00    -0.237 OA
ATOM     87  O   UNL A   1      45.104  23.128  36.253  1.00  0.00    -0.744 OA
ENDBRANCH  80  84
ENDBRANCH  54  77
ENDBRANCH  28  29
ENDBRANCH  21  23
ENDBRANCH  20  21
ENDBRANCH  19  20
ENDBRANCH  18  19
ENDBRANCH   1  18
TORSDOF 21
ENDMDL
