MODEL 1
REMARK VINA RESULT:     -11.4      0.000      0.000
REMARK SMILES CCc1ccc2[nH]c(C(=O)c3cc(C)ccn3)c(CC(=O)OCCOCCOC(=O)c3ccc(-c4c5nc(c(-c6cc(S(=O)(=O)[O-])ccc6F)c6ccc([nH]6)c(-c6cc(S(=O)(=O)[O-])ccc6F)c6nc(c(-c7cc(S(=O)(=O)[O-])ccc7F)c7ccc4[nH]7)C=C6)C=C5)cc3)c2c1
REMARK SMILES IDX 25 1 24 2 23 3 22 4 20 5 21 6 19 7 18 8 3 9 4 10 95 11 5 12
REMARK SMILES IDX 94 13 6 14 7 15 8 16 2 18 1 19 9 20 10 21 11 22 12 23 17 24
REMARK SMILES IDX 13 25 16 26 14 27 15 28 26 29 27 30 28 31 29 32 30 33 31 34
REMARK SMILES IDX 32 35 93 36 33 37 92 38 34 39 35 40 36 41 86 42 37 43 91 44
REMARK SMILES IDX 85 45 87 46 38 47 90 48 84 49 83 50 39 52 71 53 51 54 70 55
REMARK SMILES IDX 52 56 55 57 69 58 88 59 53 60 54 61 68 63 89 64 56 65 40 66
REMARK SMILES IDX 41 67 49 68 42 69 48 70 50 71 47 72 43 73 44 74 45 75 46 76
REMARK SMILES IDX 72 77 73 78 81 79 74 80 80 81 82 82 79 83 75 84 76 85 77 86
REMARK SMILES IDX 78 87 57 88 58 89 66 90 59 91 65 92 67 93 64 94 60 95 61 96
REMARK SMILES IDX 62 97 63 98
REMARK H PARENT 7 17 87 51 55 62
REMARK Flexibility Score: inf
ROOT
ATOM      1  O   UNL A   1      32.177  28.427  26.533  1.00  0.00    -0.374 OA
ENDROOT
BRANCH   1   2
ATOM      2  C   UNL A   1      31.321  27.286  26.525  1.00  0.00     0.202 C 
BRANCH   2   3
ATOM      3  C   UNL A   1      31.975  25.901  26.659  1.00  0.00     0.261 C 
BRANCH   3   4
ATOM      4  O   UNL A   1      31.056  24.847  27.019  1.00  0.00    -0.463 OA
BRANCH   4   5
ATOM      5  C   UNL A   1      31.527  23.581  26.850  1.00  0.00     0.310 C 
ATOM      6  O   UNL A   1      32.188  22.975  27.693  1.00  0.00    -0.252 OA
BRANCH   5   7
ATOM      7  C   UNL A   1      31.095  22.887  25.573  1.00  0.00     0.161 C 
BRANCH   7   8
ATOM      8  C   UNL A   1      31.915  23.089  24.327  1.00  0.00     0.000 A 
ATOM      9  C   UNL A   1      31.111  26.362  22.480  1.00  0.00    -0.048 A 
ATOM     10  C   UNL A   1      32.104  26.196  21.503  1.00  0.00     0.006 A 
ATOM     11  C   UNL A   1      30.915  25.337  23.423  1.00  0.00     0.014 A 
ATOM     12  C   UNL A   1      32.923  25.061  21.461  1.00  0.00     0.027 A 
ATOM     13  C   UNL A   1      31.763  24.205  23.437  1.00  0.00     0.004 A 
ATOM     14  C   UNL A   1      32.740  24.095  22.457  1.00  0.00     0.046 A 
ATOM     15  N   UNL A   1      33.415  22.921  22.694  1.00  0.00    -0.352 N 
ATOM     16  C   UNL A   1      33.061  22.387  23.918  1.00  0.00     0.093 A 
ATOM     17  H   UNL A   1      34.063  22.515  22.074  1.00  0.00     0.167 HD
BRANCH   9  18
ATOM     18  C   UNL A   1      30.297  27.638  22.468  1.00  0.00     0.032 C 
ATOM     19  C   UNL A   1      31.076  28.946  22.399  1.00  0.00     0.009 C 
ENDBRANCH   9  18
BRANCH  16  20
ATOM     20  C   UNL A   1      33.780  21.314  24.610  1.00  0.00     0.227 C 
ATOM     21  O   UNL A   1      33.256  20.246  24.922  1.00  0.00    -0.285 OA
BRANCH  20  22
ATOM     22  C   UNL A   1      35.228  21.479  24.945  1.00  0.00     0.113 A 
ATOM     23  C   UNL A   1      35.745  22.691  25.385  1.00  0.00     0.036 A 
ATOM     24  N   UNL A   1      35.980  20.360  24.794  1.00  0.00    -0.253 NA
ATOM     25  C   UNL A   1      37.120  22.760  25.647  1.00  0.00    -0.047 A 
ATOM     26  C   UNL A   1      37.302  20.457  25.020  1.00  0.00     0.112 A 
ATOM     27  C   UNL A   1      37.762  24.011  26.167  1.00  0.00     0.044 C 
ATOM     28  C   UNL A   1      37.910  21.624  25.442  1.00  0.00     0.023 A 
ENDBRANCH  20  22
ENDBRANCH  16  20
ENDBRANCH   7   8
ENDBRANCH   5   7
ENDBRANCH   4   5
ENDBRANCH   3   4
ENDBRANCH   2   3
ENDBRANCH   1   2
BRANCH   1  29
ATOM     29  C   UNL A   1      31.818  29.517  25.691  1.00  0.00     0.202 C 
BRANCH  29  30
ATOM     30  C   UNL A   1      31.815  30.920  26.304  1.00  0.00     0.261 C 
BRANCH  30  31
ATOM     31  O   UNL A   1      32.545  31.060  27.520  1.00  0.00    -0.460 OA
BRANCH  31  32
ATOM     32  C   UNL A   1      33.350  32.140  27.561  1.00  0.00     0.338 C 
ATOM     33  O   UNL A   1      33.051  33.317  27.397  1.00  0.00    -0.246 OA
BRANCH  32  34
ATOM     34  C   UNL A   1      34.693  31.694  27.919  1.00  0.00     0.060 A 
ATOM     35  C   UNL A   1      34.891  30.334  28.167  1.00  0.00     0.016 A 
ATOM     36  C   UNL A   1      35.718  32.628  28.090  1.00  0.00     0.016 A 
ATOM     37  C   UNL A   1      36.120  29.905  28.648  1.00  0.00     0.010 A 
ATOM     38  C   UNL A   1      36.951  32.194  28.568  1.00  0.00     0.010 A 
ATOM     39  C   UNL A   1      37.141  30.838  28.887  1.00  0.00    -0.014 A 
BRANCH  39  40
ATOM     40  C   UNL A   1      38.354  30.404  29.612  1.00  0.00     0.031 A 
ATOM     41  C   UNL A   1      38.566  30.886  31.018  1.00  0.00     0.074 A 
ATOM     42  C   UNL A   1      39.215  29.554  29.027  1.00  0.00     0.049 A 
ATOM     43  N   UNL A   1      39.540  30.621  31.848  1.00  0.00    -0.248 NA
ATOM     44  C   UNL A   1      37.544  31.796  31.557  1.00  0.00     0.031 C 
ATOM     45  C   UNL A   1      39.074  29.018  27.673  1.00  0.00     0.029 A 
ATOM     46  N   UNL A   1      40.373  28.995  29.495  1.00  0.00    -0.354 N 
ATOM     47  C   UNL A   1      39.242  31.320  33.013  1.00  0.00     0.074 A 
ATOM     48  C   UNL A   1      38.029  32.065  32.759  1.00  0.00     0.031 C 
ATOM     49  C   UNL A   1      40.113  28.206  27.418  1.00  0.00     0.029 A 
ATOM     50  C   UNL A   1      41.004  28.192  28.576  1.00  0.00     0.049 A 
ATOM     51  H   UNL A   1      40.720  29.153  30.402  1.00  0.00     0.167 HD
ATOM     52  C   UNL A   1      39.915  31.323  34.191  1.00  0.00     0.034 A 
ATOM     53  C   UNL A   1      42.177  27.535  28.659  1.00  0.00     0.034 A 
ATOM     54  C   UNL A   1      41.141  30.591  34.402  1.00  0.00     0.049 A 
ATOM     55  C   UNL A   1      42.949  27.608  29.954  1.00  0.00     0.074 A 
ATOM     56  C   UNL A   1      41.923  30.519  35.541  1.00  0.00     0.029 A 
ATOM     57  N   UNL A   1      41.773  29.810  33.438  1.00  0.00    -0.354 N 
ATOM     58  N   UNL A   1      42.652  28.259  31.056  1.00  0.00    -0.248 NA
ATOM     59  C   UNL A   1      44.200  26.845  30.022  1.00  0.00     0.031 C 
ATOM     60  C   UNL A   1      43.057  29.752  35.246  1.00  0.00     0.029 A 
ATOM     61  C   UNL A   1      42.948  29.279  33.947  1.00  0.00     0.049 A 
ATOM     62  H   UNL A   1      41.434  29.657  32.527  1.00  0.00     0.167 HD
ATOM     63  C   UNL A   1      43.671  27.968  31.958  1.00  0.00     0.074 A 
ATOM     64  C   UNL A   1      44.578  27.066  31.273  1.00  0.00     0.031 C 
ATOM     65  C   UNL A   1      43.845  28.398  33.234  1.00  0.00     0.034 A 
BRANCH  52  66
ATOM     66  C   UNL A   1      39.358  32.183  35.301  1.00  0.00     0.023 A 
ATOM     67  C   UNL A   1      39.761  33.521  35.473  1.00  0.00     0.031 A 
ATOM     68  C   UNL A   1      38.458  31.646  36.238  1.00  0.00     0.131 A 
ATOM     69  C   UNL A   1      39.333  34.245  36.596  1.00  0.00     0.055 A 
ATOM     70  C   UNL A   1      37.970  32.399  37.307  1.00  0.00     0.041 A 
ATOM     71  F   UNL A   1      38.055  30.369  36.144  1.00  0.00    -0.206 F 
ATOM     72  C   UNL A   1      38.420  33.701  37.502  1.00  0.00     0.022 A 
BRANCH  69  73
ATOM     73  S   UNL A   1      40.110  35.848  36.945  1.00  0.00     0.124 S 
ATOM     74  O   UNL A   1      39.698  36.634  35.784  1.00  0.00    -0.237 OA
ATOM     75  O   UNL A   1      39.504  36.222  38.218  1.00  0.00    -0.237 OA
ATOM     76  O   UNL A   1      41.537  35.534  37.000  1.00  0.00    -0.744 OA
ENDBRANCH  69  73
ENDBRANCH  52  66
BRANCH  53  77
ATOM     77  C   UNL A   1      42.702  26.789  27.482  1.00  0.00     0.023 A 
ATOM     78  C   UNL A   1      42.406  25.434  27.279  1.00  0.00     0.031 A 
ATOM     79  C   UNL A   1      43.533  27.431  26.543  1.00  0.00     0.131 A 
ATOM     80  C   UNL A   1      42.961  24.754  26.183  1.00  0.00     0.055 A 
ATOM     81  C   UNL A   1      44.043  26.763  25.429  1.00  0.00     0.041 A 
ATOM     82  F   UNL A   1      43.845  28.729  26.689  1.00  0.00    -0.206 F 
ATOM     83  C   UNL A   1      43.766  25.413  25.250  1.00  0.00     0.022 A 
BRANCH  80  84
ATOM     84  S   UNL A   1      42.671  22.970  26.027  1.00  0.00     0.124 S 
ATOM     85  O   UNL A   1      43.531  22.435  27.077  1.00  0.00    -0.237 OA
ATOM     86  O   UNL A   1      41.235  22.876  26.264  1.00  0.00    -0.237 OA
ATOM     87  O   UNL A   1      43.097  22.674  24.661  1.00  0.00    -0.744 OA
ENDBRANCH  80  84
ENDBRANCH  53  77
BRANCH  65  88
ATOM     88  C   UNL A   1      45.049  27.868  33.970  1.00  0.00     0.023 A 
ATOM     89  C   UNL A   1      46.281  28.545  33.955  1.00  0.00     0.031 A 
ATOM     90  C   UNL A   1      44.964  26.662  34.688  1.00  0.00     0.131 A 
ATOM     91  C   UNL A   1      47.394  27.982  34.596  1.00  0.00     0.055 A 
ATOM     92  C   UNL A   1      46.060  26.138  35.376  1.00  0.00     0.041 A 
ATOM     93  F   UNL A   1      43.811  25.974  34.735  1.00  0.00    -0.206 F 
ATOM     94  C   UNL A   1      47.287  26.791  35.320  1.00  0.00     0.022 A 
BRANCH  91  95
ATOM     95  S   UNL A   1      49.010  28.780  34.394  1.00  0.00     0.124 S 
ATOM     96  O   UNL A   1      48.852  29.991  35.192  1.00  0.00    -0.237 OA
ATOM     97  O   UNL A   1      49.924  27.776  34.932  1.00  0.00    -0.237 OA
ATOM     98  O   UNL A   1      49.108  28.996  32.952  1.00  0.00    -0.744 OA
ENDBRANCH  91  95
ENDBRANCH  65  88
ENDBRANCH  39  40
ENDBRANCH  32  34
ENDBRANCH  31  32
ENDBRANCH  30  31
ENDBRANCH  29  30
ENDBRANCH   1  29
TORSDOF 21
ENDMDL
MODEL 2
REMARK VINA RESULT:     -11.3      1.948      3.833
REMARK SMILES CCc1ccc2[nH]c(C(=O)c3cc(C)ccn3)c(CC(=O)OCCOCCOC(=O)c3ccc(-c4c5nc(c(-c6cc(S(=O)(=O)[O-])ccc6F)c6ccc([nH]6)c(-c6cc(S(=O)(=O)[O-])ccc6F)c6nc(c(-c7cc(S(=O)(=O)[O-])ccc7F)c7ccc4[nH]7)C=C6)C=C5)cc3)c2c1
REMARK SMILES IDX 25 1 24 2 23 3 22 4 20 5 21 6 19 7 18 8 3 9 4 10 95 11 5 12
REMARK SMILES IDX 94 13 6 14 7 15 8 16 2 18 1 19 9 20 10 21 11 22 12 23 17 24
REMARK SMILES IDX 13 25 16 26 14 27 15 28 26 29 27 30 28 31 29 32 30 33 31 34
REMARK SMILES IDX 32 35 93 36 33 37 92 38 34 39 35 40 36 41 86 42 37 43 91 44
REMARK SMILES IDX 85 45 87 46 38 47 90 48 84 49 83 50 39 52 71 53 51 54 70 55
REMARK SMILES IDX 52 56 55 57 69 58 88 59 53 60 54 61 68 63 89 64 56 65 40 66
REMARK SMILES IDX 41 67 49 68 42 69 48 70 50 71 47 72 43 73 44 74 45 75 46 76
REMARK SMILES IDX 72 77 73 78 81 79 74 80 80 81 82 82 79 83 75 84 76 85 77 86
REMARK SMILES IDX 78 87 57 88 58 89 66 90 59 91 65 92 67 93 64 94 60 95 61 96
REMARK SMILES IDX 62 97 63 98
REMARK H PARENT 7 17 87 51 55 62
REMARK Flexibility Score: inf
ROOT
ATOM      1  O   UNL A   1      32.423  30.687  26.360  1.00  0.00    -0.374 OA
ENDROOT
BRANCH   1   2
ATOM      2  C   UNL A   1      32.011  29.546  25.609  1.00  0.00     0.202 C 
BRANCH   2   3
ATOM      3  C   UNL A   1      32.139  28.167  26.276  1.00  0.00     0.261 C 
BRANCH   3   4
ATOM      4  O   UNL A   1      33.311  27.424  25.878  1.00  0.00    -0.463 OA
BRANCH   4   5
ATOM      5  C   UNL A   1      33.180  26.070  25.906  1.00  0.00     0.310 C 
ATOM      6  O   UNL A   1      32.300  25.477  26.530  1.00  0.00    -0.252 OA
BRANCH   5   7
ATOM      7  C   UNL A   1      34.137  25.301  25.016  1.00  0.00     0.161 C 
BRANCH   7   8
ATOM      8  C   UNL A   1      33.584  24.568  23.823  1.00  0.00     0.000 A 
ATOM      9  C   UNL A   1      32.863  20.856  24.509  1.00  0.00    -0.048 A 
ATOM     10  C   UNL A   1      32.311  20.604  23.244  1.00  0.00     0.006 A 
ATOM     11  C   UNL A   1      33.391  22.132  24.773  1.00  0.00     0.014 A 
ATOM     12  C   UNL A   1      32.242  21.592  22.254  1.00  0.00     0.027 A 
ATOM     13  C   UNL A   1      33.285  23.164  23.810  1.00  0.00     0.004 A 
ATOM     14  C   UNL A   1      32.718  22.867  22.578  1.00  0.00     0.046 A 
ATOM     15  N   UNL A   1      32.737  24.026  21.840  1.00  0.00    -0.352 N 
ATOM     16  C   UNL A   1      33.084  25.107  22.627  1.00  0.00     0.093 A 
ATOM     17  H   UNL A   1      32.532  24.078  20.878  1.00  0.00     0.167 HD
BRANCH   9  18
ATOM     18  C   UNL A   1      32.864  19.737  25.528  1.00  0.00     0.032 C 
ATOM     19  C   UNL A   1      32.779  18.315  24.983  1.00  0.00     0.009 C 
ENDBRANCH   9  18
BRANCH  16  20
ATOM     20  C   UNL A   1      32.926  26.514  22.245  1.00  0.00     0.227 C 
ATOM     21  O   UNL A   1      33.801  27.154  21.663  1.00  0.00    -0.285 OA
BRANCH  20  22
ATOM     22  C   UNL A   1      31.646  27.229  22.533  1.00  0.00     0.113 A 
ATOM     23  C   UNL A   1      30.558  26.582  23.106  1.00  0.00     0.036 A 
ATOM     24  N   UNL A   1      31.639  28.544  22.203  1.00  0.00    -0.253 NA
ATOM     25  C   UNL A   1      29.388  27.325  23.313  1.00  0.00    -0.047 A 
ATOM     26  C   UNL A   1      30.496  29.230  22.380  1.00  0.00     0.112 A 
ATOM     27  C   UNL A   1      28.179  26.725  23.965  1.00  0.00     0.044 C 
ATOM     28  C   UNL A   1      29.357  28.668  22.925  1.00  0.00     0.023 A 
ENDBRANCH  20  22
ENDBRANCH  16  20
ENDBRANCH   7   8
ENDBRANCH   5   7
ENDBRANCH   4   5
ENDBRANCH   3   4
ENDBRANCH   2   3
ENDBRANCH   1   2
BRANCH   1  29
ATOM     29  C   UNL A   1      31.469  31.728  26.540  1.00  0.00     0.202 C 
BRANCH  29  30
ATOM     30  C   UNL A   1      31.967  33.062  27.104  1.00  0.00     0.261 C 
BRANCH  30  31
ATOM     31  O   UNL A   1      33.382  33.226  27.132  1.00  0.00    -0.460 OA
BRANCH  31  32
ATOM     32  C   UNL A   1      33.870  33.614  28.327  1.00  0.00     0.338 C 
ATOM     33  O   UNL A   1      33.391  34.418  29.118  1.00  0.00    -0.246 OA
BRANCH  32  34
ATOM     34  C   UNL A   1      35.081  32.845  28.597  1.00  0.00     0.060 A 
ATOM     35  C   UNL A   1      34.944  31.585  29.185  1.00  0.00     0.016 A 
ATOM     36  C   UNL A   1      36.336  33.406  28.347  1.00  0.00     0.016 A 
ATOM     37  C   UNL A   1      36.081  30.897  29.582  1.00  0.00     0.010 A 
ATOM     38  C   UNL A   1      37.475  32.710  28.743  1.00  0.00     0.010 A 
ATOM     39  C   UNL A   1      37.348  31.473  29.398  1.00  0.00    -0.014 A 
BRANCH  39  40
ATOM     40  C   UNL A   1      38.523  30.839  30.031  1.00  0.00     0.031 A 
ATOM     41  C   UNL A   1      38.906  31.253  31.423  1.00  0.00     0.074 A 
ATOM     42  C   UNL A   1      39.196  29.876  29.379  1.00  0.00     0.049 A 
ATOM     43  N   UNL A   1      39.880  30.821  32.179  1.00  0.00    -0.248 NA
ATOM     44  C   UNL A   1      38.081  32.303  32.041  1.00  0.00     0.031 C 
ATOM     45  C   UNL A   1      38.879  29.395  28.034  1.00  0.00     0.029 A 
ATOM     46  N   UNL A   1      40.280  29.132  29.759  1.00  0.00    -0.354 N 
ATOM     47  C   UNL A   1      39.779  31.536  33.368  1.00  0.00     0.074 A 
ATOM     48  C   UNL A   1      38.684  32.468  33.207  1.00  0.00     0.031 C 
ATOM     49  C   UNL A   1      39.756  28.434  27.698  1.00  0.00     0.029 A 
ATOM     50  C   UNL A   1      40.711  28.257  28.790  1.00  0.00     0.049 A 
ATOM     51  H   UNL A   1      40.710  29.215  30.640  1.00  0.00     0.167 HD
ATOM     52  C   UNL A   1      40.523  31.409  34.495  1.00  0.00     0.034 A 
ATOM     53  C   UNL A   1      41.768  27.422  28.784  1.00  0.00     0.034 A 
ATOM     54  C   UNL A   1      41.629  30.488  34.612  1.00  0.00     0.049 A 
ATOM     55  C   UNL A   1      42.628  27.346  30.021  1.00  0.00     0.074 A 
ATOM     56  C   UNL A   1      42.465  30.271  35.692  1.00  0.00     0.029 A 
ATOM     57  N   UNL A   1      42.060  29.637  33.599  1.00  0.00    -0.354 N 
ATOM     58  N   UNL A   1      42.515  28.015  31.147  1.00  0.00    -0.248 NA
ATOM     59  C   UNL A   1      43.744  26.395  29.993  1.00  0.00     0.031 C 
ATOM     60  C   UNL A   1      43.440  29.341  35.310  1.00  0.00     0.029 A 
ATOM     61  C   UNL A   1      43.168  28.917  34.018  1.00  0.00     0.049 A 
ATOM     62  H   UNL A   1      41.639  29.558  32.713  1.00  0.00     0.167 HD
ATOM     63  C   UNL A   1      43.535  27.548  31.971  1.00  0.00     0.074 A 
ATOM     64  C   UNL A   1      44.238  26.528  31.215  1.00  0.00     0.031 C 
ATOM     65  C   UNL A   1      43.863  27.920  33.235  1.00  0.00     0.034 A 
BRANCH  52  66
ATOM     66  C   UNL A   1      40.187  32.324  35.650  1.00  0.00     0.023 A 
ATOM     67  C   UNL A   1      39.186  31.998  36.584  1.00  0.00     0.031 A 
ATOM     68  C   UNL A   1      40.833  33.565  35.788  1.00  0.00     0.131 A 
ATOM     69  C   UNL A   1      38.802  32.933  37.558  1.00  0.00     0.055 A 
ATOM     70  C   UNL A   1      40.504  34.457  36.812  1.00  0.00     0.041 A 
ATOM     71  F   UNL A   1      41.778  33.944  34.915  1.00  0.00    -0.206 F 
ATOM     72  C   UNL A   1      39.472  34.151  37.694  1.00  0.00     0.022 A 
BRANCH  69  73
ATOM     73  S   UNL A   1      37.312  32.604  38.540  1.00  0.00     0.124 S 
ATOM     74  O   UNL A   1      37.544  33.439  39.717  1.00  0.00    -0.237 OA
ATOM     75  O   UNL A   1      36.243  33.039  37.648  1.00  0.00    -0.237 OA
ATOM     76  O   UNL A   1      37.374  31.164  38.786  1.00  0.00    -0.744 OA
ENDBRANCH  69  73
ENDBRANCH  52  66
BRANCH  53  77
ATOM     77  C   UNL A   1      42.085  26.626  27.566  1.00  0.00     0.023 A 
ATOM     78  C   UNL A   1      41.784  25.259  27.482  1.00  0.00     0.031 A 
ATOM     79  C   UNL A   1      42.719  27.231  26.463  1.00  0.00     0.131 A 
ATOM     80  C   UNL A   1      42.144  24.533  26.335  1.00  0.00     0.055 A 
ATOM     81  C   UNL A   1      43.032  26.516  25.307  1.00  0.00     0.041 A 
ATOM     82  F   UNL A   1      43.027  28.538  26.491  1.00  0.00    -0.206 F 
ATOM     83  C   UNL A   1      42.753  25.155  25.243  1.00  0.00     0.022 A 
BRANCH  80  84
ATOM     84  S   UNL A   1      41.866  22.740  26.316  1.00  0.00     0.124 S 
ATOM     85  O   UNL A   1      40.411  22.664  26.390  1.00  0.00    -0.237 OA
ATOM     86  O   UNL A   1      42.465  22.356  25.043  1.00  0.00    -0.237 OA
ATOM     87  O   UNL A   1      42.578  22.273  27.503  1.00  0.00    -0.744 OA
ENDBRANCH  80  84
ENDBRANCH  53  77
BRANCH  65  88
ATOM     88  C   UNL A   1      45.015  27.192  33.880  1.00  0.00     0.023 A 
ATOM     89  C   UNL A   1      46.333  27.675  33.795  1.00  0.00     0.031 A 
ATOM     90  C   UNL A   1      44.792  25.993  34.579  1.00  0.00     0.131 A 
ATOM     91  C   UNL A   1      47.385  26.931  34.350  1.00  0.00     0.055 A 
ATOM     92  C   UNL A   1      45.835  25.288  35.181  1.00  0.00     0.041 A 
ATOM     93  F   UNL A   1      43.552  25.487  34.690  1.00  0.00    -0.206 F 
ATOM     94  C   UNL A   1      47.142  25.749  35.057  1.00  0.00     0.022 A 
BRANCH  91  95
ATOM     95  S   UNL A   1      49.088  27.479  34.055  1.00  0.00     0.124 S 
ATOM     96  O   UNL A   1      49.745  26.234  33.670  1.00  0.00    -0.237 OA
ATOM     97  O   UNL A   1      48.919  28.465  32.992  1.00  0.00    -0.237 OA
ATOM     98  O   UNL A   1      49.502  28.025  35.346  1.00  0.00    -0.744 OA
ENDBRANCH  91  95
ENDBRANCH  65  88
ENDBRANCH  39  40
ENDBRANCH  32  34
ENDBRANCH  31  32
ENDBRANCH  30  31
ENDBRANCH  29  30
ENDBRANCH   1  29
TORSDOF 21
ENDMDL
MODEL 3
REMARK VINA RESULT:     -11.2      2.992      8.465
REMARK SMILES CCc1ccc2[nH]c(C(=O)c3cc(C)ccn3)c(CC(=O)OCCOCCOC(=O)c3ccc(-c4c5nc(c(-c6cc(S(=O)(=O)[O-])ccc6F)c6ccc([nH]6)c(-c6cc(S(=O)(=O)[O-])ccc6F)c6nc(c(-c7cc(S(=O)(=O)[O-])ccc7F)c7ccc4[nH]7)C=C6)C=C5)cc3)c2c1
REMARK SMILES IDX 25 1 24 2 23 3 22 4 20 5 21 6 19 7 18 8 3 9 4 10 95 11 5 12
REMARK SMILES IDX 94 13 6 14 7 15 8 16 2 18 1 19 9 20 10 21 11 22 12 23 17 24
REMARK SMILES IDX 13 25 16 26 14 27 15 28 26 29 27 30 28 31 29 32 30 33 31 34
REMARK SMILES IDX 32 35 93 36 33 37 92 38 34 39 35 40 36 41 86 42 37 43 91 44
REMARK SMILES IDX 85 45 87 46 38 47 90 48 84 49 83 50 39 52 71 53 51 54 70 55
REMARK SMILES IDX 52 56 55 57 69 58 88 59 53 60 54 61 68 63 89 64 56 65 40 66
REMARK SMILES IDX 41 67 49 68 42 69 48 70 50 71 47 72 43 73 44 74 45 75 46 76
REMARK SMILES IDX 72 77 73 78 81 79 74 80 80 81 82 82 79 83 75 84 76 85 77 86
REMARK SMILES IDX 78 87 57 88 58 89 66 90 59 91 65 92 67 93 64 94 60 95 61 96
REMARK SMILES IDX 62 97 63 98
REMARK H PARENT 7 17 87 51 55 62
REMARK Flexibility Score: inf
ROOT
ATOM      1  O   UNL A   1      32.359  30.645  26.448  1.00  0.00    -0.374 OA
ENDROOT
BRANCH   1   2
ATOM      2  C   UNL A   1      32.056  29.516  25.631  1.00  0.00     0.202 C 
BRANCH   2   3
ATOM      3  C   UNL A   1      32.092  28.126  26.287  1.00  0.00     0.261 C 
BRANCH   3   4
ATOM      4  O   UNL A   1      33.264  27.349  25.958  1.00  0.00    -0.463 OA
BRANCH   4   5
ATOM      5  C   UNL A   1      33.086  25.999  25.959  1.00  0.00     0.310 C 
ATOM      6  O   UNL A   1      32.158  25.429  26.533  1.00  0.00    -0.252 OA
BRANCH   5   7
ATOM      7  C   UNL A   1      34.057  25.211  25.103  1.00  0.00     0.161 C 
BRANCH   7   8
ATOM      8  C   UNL A   1      33.536  24.511  23.877  1.00  0.00     0.000 A 
ATOM      9  C   UNL A   1      32.805  20.780  24.439  1.00  0.00    -0.048 A 
ATOM     10  C   UNL A   1      32.286  20.563  23.154  1.00  0.00     0.006 A 
ATOM     11  C   UNL A   1      33.324  22.048  24.752  1.00  0.00     0.014 A 
ATOM     12  C   UNL A   1      32.240  21.578  22.191  1.00  0.00     0.027 A 
ATOM     13  C   UNL A   1      33.241  23.107  23.817  1.00  0.00     0.004 A 
ATOM     14  C   UNL A   1      32.705  22.844  22.563  1.00  0.00     0.046 A 
ATOM     15  N   UNL A   1      32.740  24.023  21.858  1.00  0.00    -0.352 N 
ATOM     16  C   UNL A   1      33.065  25.082  22.684  1.00  0.00     0.093 A 
ATOM     17  H   UNL A   1      32.559  24.102  20.893  1.00  0.00     0.167 HD
BRANCH   9  18
ATOM     18  C   UNL A   1      32.783  19.632  25.426  1.00  0.00     0.032 C 
ATOM     19  C   UNL A   1      33.067  18.243  24.866  1.00  0.00     0.009 C 
ENDBRANCH   9  18
BRANCH  16  20
ATOM     20  C   UNL A   1      32.914  26.499  22.338  1.00  0.00     0.227 C 
ATOM     21  O   UNL A   1      33.805  27.158  21.803  1.00  0.00    -0.285 OA
BRANCH  20  22
ATOM     22  C   UNL A   1      31.622  27.202  22.606  1.00  0.00     0.113 A 
ATOM     23  C   UNL A   1      30.543  26.552  23.191  1.00  0.00     0.036 A 
ATOM     24  N   UNL A   1      31.597  28.508  22.243  1.00  0.00    -0.253 NA
ATOM     25  C   UNL A   1      29.361  27.283  23.378  1.00  0.00    -0.047 A 
ATOM     26  C   UNL A   1      30.443  29.182  22.402  1.00  0.00     0.112 A 
ATOM     27  C   UNL A   1      28.159  26.681  24.040  1.00  0.00     0.044 C 
ATOM     28  C   UNL A   1      29.312  28.616  22.957  1.00  0.00     0.023 A 
ENDBRANCH  20  22
ENDBRANCH  16  20
ENDBRANCH   7   8
ENDBRANCH   5   7
ENDBRANCH   4   5
ENDBRANCH   3   4
ENDBRANCH   2   3
ENDBRANCH   1   2
BRANCH   1  29
ATOM     29  C   UNL A   1      31.471  31.755  26.383  1.00  0.00     0.202 C 
BRANCH  29  30
ATOM     30  C   UNL A   1      31.884  33.042  27.102  1.00  0.00     0.261 C 
BRANCH  30  31
ATOM     31  O   UNL A   1      33.129  32.986  27.793  1.00  0.00    -0.460 OA
BRANCH  31  32
ATOM     32  C   UNL A   1      33.419  34.096  28.500  1.00  0.00     0.338 C 
ATOM     33  O   UNL A   1      32.892  35.200  28.432  1.00  0.00    -0.246 OA
BRANCH  32  34
ATOM     34  C   UNL A   1      34.461  33.761  29.466  1.00  0.00     0.060 A 
ATOM     35  C   UNL A   1      35.765  34.189  29.203  1.00  0.00     0.016 A 
ATOM     36  C   UNL A   1      34.161  32.960  30.571  1.00  0.00     0.016 A 
ATOM     37  C   UNL A   1      36.796  33.763  30.028  1.00  0.00     0.010 A 
ATOM     38  C   UNL A   1      35.197  32.538  31.399  1.00  0.00     0.010 A 
ATOM     39  C   UNL A   1      36.521  32.906  31.105  1.00  0.00    -0.014 A 
BRANCH  39  40
ATOM     40  C   UNL A   1      37.648  32.279  31.828  1.00  0.00     0.031 A 
ATOM     41  C   UNL A   1      38.422  31.184  31.151  1.00  0.00     0.074 A 
ATOM     42  C   UNL A   1      37.993  32.726  33.048  1.00  0.00     0.049 A 
ATOM     43  N   UNL A   1      39.454  30.508  31.582  1.00  0.00    -0.248 NA
ATOM     44  C   UNL A   1      37.962  30.795  29.808  1.00  0.00     0.031 C 
ATOM     45  C   UNL A   1      37.311  33.801  33.770  1.00  0.00     0.029 A 
ATOM     46  N   UNL A   1      38.997  32.334  33.890  1.00  0.00    -0.354 N 
ATOM     47  C   UNL A   1      39.777  29.622  30.559  1.00  0.00     0.074 A 
ATOM     48  C   UNL A   1      38.794  29.810  29.513  1.00  0.00     0.031 C 
ATOM     49  C   UNL A   1      37.919  33.981  34.954  1.00  0.00     0.029 A 
ATOM     50  C   UNL A   1      39.008  33.015  35.084  1.00  0.00     0.049 A 
ATOM     51  H   UNL A   1      39.650  31.633  33.663  1.00  0.00     0.167 HD
ATOM     52  C   UNL A   1      40.811  28.747  30.496  1.00  0.00     0.034 A 
ATOM     53  C   UNL A   1      39.799  32.860  36.163  1.00  0.00     0.034 A 
ATOM     54  C   UNL A   1      41.757  28.563  31.571  1.00  0.00     0.049 A 
ATOM     55  C   UNL A   1      40.900  31.831  36.103  1.00  0.00     0.074 A 
ATOM     56  C   UNL A   1      42.839  27.704  31.635  1.00  0.00     0.029 A 
ATOM     57  N   UNL A   1      41.720  29.247  32.782  1.00  0.00    -0.354 N 
ATOM     58  N   UNL A   1      41.208  31.008  35.125  1.00  0.00    -0.248 NA
ATOM     59  C   UNL A   1      41.768  31.721  37.280  1.00  0.00     0.031 C 
ATOM     60  C   UNL A   1      43.415  27.821  32.907  1.00  0.00     0.029 A 
ATOM     61  C   UNL A   1      42.741  28.808  33.611  1.00  0.00     0.049 A 
ATOM     62  H   UNL A   1      41.064  29.942  33.017  1.00  0.00     0.167 HD
ATOM     63  C   UNL A   1      42.321  30.296  35.563  1.00  0.00     0.074 A 
ATOM     64  C   UNL A   1      42.638  30.803  36.885  1.00  0.00     0.031 C 
ATOM     65  C   UNL A   1      43.022  29.317  34.934  1.00  0.00     0.034 A 
BRANCH  52  66
ATOM     66  C   UNL A   1      40.923  27.900  29.249  1.00  0.00     0.023 A 
ATOM     67  C   UNL A   1      41.889  28.165  28.261  1.00  0.00     0.031 A 
ATOM     68  C   UNL A   1      40.017  26.852  29.014  1.00  0.00     0.131 A 
ATOM     69  C   UNL A   1      41.873  27.451  27.053  1.00  0.00     0.055 A 
ATOM     70  C   UNL A   1      40.060  26.089  27.845  1.00  0.00     0.041 A 
ATOM     71  F   UNL A   1      39.056  26.566  29.906  1.00  0.00    -0.206 F 
ATOM     72  C   UNL A   1      40.980  26.397  26.848  1.00  0.00     0.022 A 
BRANCH  69  73
ATOM     73  S   UNL A   1      42.927  28.022  25.690  1.00  0.00     0.124 S 
ATOM     74  O   UNL A   1      42.689  29.464  25.717  1.00  0.00    -0.237 OA
ATOM     75  O   UNL A   1      44.253  27.584  26.112  1.00  0.00    -0.237 OA
ATOM     76  O   UNL A   1      42.383  27.332  24.522  1.00  0.00    -0.744 OA
ENDBRANCH  69  73
ENDBRANCH  52  66
BRANCH  53  77
ATOM     77  C   UNL A   1      39.557  33.669  37.390  1.00  0.00     0.023 A 
ATOM     78  C   UNL A   1      39.034  33.095  38.558  1.00  0.00     0.031 A 
ATOM     79  C   UNL A   1      39.837  35.050  37.401  1.00  0.00     0.131 A 
ATOM     80  C   UNL A   1      38.774  33.903  39.677  1.00  0.00     0.055 A 
ATOM     81  C   UNL A   1      39.622  35.838  38.532  1.00  0.00     0.041 A 
ATOM     82  F   UNL A   1      40.342  35.648  36.310  1.00  0.00    -0.206 F 
ATOM     83  C   UNL A   1      39.078  35.266  39.676  1.00  0.00     0.022 A 
BRANCH  80  84
ATOM     84  S   UNL A   1      37.968  33.156  41.121  1.00  0.00     0.124 S 
ATOM     85  O   UNL A   1      38.115  31.732  40.841  1.00  0.00    -0.237 OA
ATOM     86  O   UNL A   1      38.771  33.681  42.220  1.00  0.00    -0.237 OA
ATOM     87  O   UNL A   1      36.601  33.669  41.050  1.00  0.00    -0.744 OA
ENDBRANCH  80  84
ENDBRANCH  53  77
BRANCH  65  88
ATOM     88  C   UNL A   1      44.216  28.759  35.668  1.00  0.00     0.023 A 
ATOM     89  C   UNL A   1      44.097  27.672  36.551  1.00  0.00     0.031 A 
ATOM     90  C   UNL A   1      45.486  29.333  35.488  1.00  0.00     0.131 A 
ATOM     91  C   UNL A   1      45.220  27.229  37.265  1.00  0.00     0.055 A 
ATOM     92  C   UNL A   1      46.612  28.848  36.156  1.00  0.00     0.041 A 
ATOM     93  F   UNL A   1      45.655  30.374  34.657  1.00  0.00    -0.206 F 
ATOM     94  C   UNL A   1      46.480  27.799  37.061  1.00  0.00     0.022 A 
BRANCH  91  95
ATOM     95  S   UNL A   1      44.995  25.956  38.537  1.00  0.00     0.124 S 
ATOM     96  O   UNL A   1      46.315  25.911  39.158  1.00  0.00    -0.237 OA
ATOM     97  O   UNL A   1      43.925  26.518  39.356  1.00  0.00    -0.237 OA
ATOM     98  O   UNL A   1      44.629  24.766  37.772  1.00  0.00    -0.744 OA
ENDBRANCH  91  95
ENDBRANCH  65  88
ENDBRANCH  39  40
ENDBRANCH  32  34
ENDBRANCH  31  32
ENDBRANCH  30  31
ENDBRANCH  29  30
ENDBRANCH   1  29
TORSDOF 21
ENDMDL
