MODEL 1
REMARK VINA RESULT:     -10.7      0.000      0.000
REMARK SMILES CC(C)C[C@@H](C(=O)OCCOCCOC(=O)c1ccc(-c2c3nc(c(-c4cc(S(=O)(=O)[O-])ccc4F)c4ccc([nH]4)c(-c4cc(S(=O)(=O)[O-])ccc4F)c4nc(c(-c5cc(S(=O)(=O)[O-])ccc5F)c5ccc2[nH]5)C=C4)C=C3)cc1)[C@@H]1CCC[C@@H](C)C1
REMARK SMILES IDX 12 1 11 2 10 3 9 4 8 5 6 6 7 7 5 8 4 9 2 10 1 11 3 12 80 13
REMARK SMILES IDX 81 14 86 15 82 16 84 17 83 18 85 19 13 20 14 21 15 22 16 23
REMARK SMILES IDX 17 24 18 25 79 26 19 27 78 28 20 29 21 30 22 31 72 32 23 33
REMARK SMILES IDX 77 34 71 35 73 36 24 37 76 38 70 39 69 40 25 42 57 43 37 44
REMARK SMILES IDX 56 45 38 46 41 47 55 48 74 49 39 50 40 51 54 53 75 54 42 55
REMARK SMILES IDX 26 56 27 57 35 58 28 59 34 60 36 61 33 62 29 63 30 64 31 65
REMARK SMILES IDX 32 66 58 67 59 68 67 69 60 70 66 71 68 72 65 73 61 74 62 75
REMARK SMILES IDX 63 76 64 77 43 78 44 79 52 80 45 81 51 82 53 83 50 84 46 85
REMARK SMILES IDX 47 86 48 87 49 88
REMARK H PARENT 73 41 41 52
REMARK Flexibility Score: inf
ROOT
ATOM      1  C   UNL A   1      35.926  20.538  24.943  1.00  0.00     0.202 C 
ENDROOT
BRANCH   1   2
ATOM      2  O   UNL A   1      35.417  21.137  26.137  1.00  0.00    -0.374 OA
BRANCH   2   3
ATOM      3  C   UNL A   1      35.133  22.528  26.070  1.00  0.00     0.202 C 
BRANCH   3   4
ATOM      4  C   UNL A   1      33.834  22.900  26.804  1.00  0.00     0.261 C 
BRANCH   4   5
ATOM      5  O   UNL A   1      33.302  24.225  26.566  1.00  0.00    -0.463 OA
BRANCH   5   6
ATOM      6  C   UNL A   1      31.949  24.314  26.587  1.00  0.00     0.309 C 
ATOM      7  O   UNL A   1      31.218  23.704  27.363  1.00  0.00    -0.252 OA
BRANCH   6   8
ATOM      8  C   UNL A   1      31.340  25.061  25.410  1.00  0.00     0.102 C 
BRANCH   8   9
ATOM      9  C   UNL A   1      32.483  25.299  24.379  1.00  0.00     0.018 C 
BRANCH   9  10
ATOM     10  C   UNL A   1      32.238  24.743  22.960  1.00  0.00    -0.017 C 
ATOM     11  C   UNL A   1      32.915  25.598  21.889  1.00  0.00     0.007 C 
ATOM     12  C   UNL A   1      32.760  23.306  22.877  1.00  0.00     0.007 C 
ENDBRANCH   9  10
ENDBRANCH   8   9
BRANCH   8  13
ATOM     13  C   UNL A   1      30.499  26.372  25.548  1.00  0.00     0.003 C 
ATOM     14  C   UNL A   1      30.072  27.190  24.315  1.00  0.00     0.004 C 
ATOM     15  C   UNL A   1      31.191  27.283  26.599  1.00  0.00     0.007 C 
ATOM     16  C   UNL A   1      30.967  28.349  23.866  1.00  0.00     0.001 C 
ATOM     17  C   UNL A   1      32.291  28.148  25.969  1.00  0.00    -0.014 C 
ATOM     18  C   UNL A   1      31.630  29.121  24.995  1.00  0.00     0.003 C 
ATOM     19  C   UNL A   1      33.106  28.890  27.024  1.00  0.00     0.007 C 
ENDBRANCH   8  13
ENDBRANCH   6   8
ENDBRANCH   5   6
ENDBRANCH   4   5
ENDBRANCH   3   4
ENDBRANCH   2   3
ENDBRANCH   1   2
BRANCH   1  20
ATOM     20  C   UNL A   1      37.389  20.102  25.012  1.00  0.00     0.261 C 
BRANCH  20  21
ATOM     21  O   UNL A   1      38.296  21.196  25.242  1.00  0.00    -0.460 OA
BRANCH  21  22
ATOM     22  C   UNL A   1      39.358  20.941  26.030  1.00  0.00     0.338 C 
ATOM     23  O   UNL A   1      39.949  19.873  26.143  1.00  0.00    -0.246 OA
BRANCH  22  24
ATOM     24  C   UNL A   1      39.807  22.209  26.629  1.00  0.00     0.060 A 
ATOM     25  C   UNL A   1      39.204  23.396  26.204  1.00  0.00     0.016 A 
ATOM     26  C   UNL A   1      40.840  22.240  27.573  1.00  0.00     0.016 A 
ATOM     27  C   UNL A   1      39.656  24.624  26.696  1.00  0.00     0.010 A 
ATOM     28  C   UNL A   1      41.288  23.474  28.066  1.00  0.00     0.010 A 
ATOM     29  C   UNL A   1      40.719  24.676  27.608  1.00  0.00    -0.014 A 
BRANCH  29  30
ATOM     30  C   UNL A   1      41.307  25.999  27.966  1.00  0.00     0.031 A 
ATOM     31  C   UNL A   1      42.695  26.339  27.487  1.00  0.00     0.074 A 
ATOM     32  C   UNL A   1      40.597  26.909  28.659  1.00  0.00     0.049 A 
ATOM     33  N   UNL A   1      43.365  27.456  27.610  1.00  0.00    -0.248 NA
ATOM     34  C   UNL A   1      43.421  25.277  26.775  1.00  0.00     0.031 C 
ATOM     35  C   UNL A   1      39.243  26.707  29.175  1.00  0.00     0.029 A 
ATOM     36  N   UNL A   1      40.912  28.191  29.044  1.00  0.00    -0.354 N 
ATOM     37  C   UNL A   1      44.589  27.237  26.982  1.00  0.00     0.074 A 
ATOM     38  C   UNL A   1      44.582  25.864  26.524  1.00  0.00     0.031 C 
ATOM     39  C   UNL A   1      38.843  27.827  29.805  1.00  0.00     0.029 A 
ATOM     40  C   UNL A   1      39.916  28.820  29.754  1.00  0.00     0.049 A 
ATOM     41  H   UNL A   1      41.772  28.618  28.830  1.00  0.00     0.167 HD
ATOM     42  C   UNL A   1      45.615  28.103  26.789  1.00  0.00     0.034 A 
ATOM     43  C   UNL A   1      39.873  30.051  30.303  1.00  0.00     0.034 A 
ATOM     44  C   UNL A   1      45.622  29.466  27.261  1.00  0.00     0.049 A 
ATOM     45  C   UNL A   1      41.050  30.982  30.120  1.00  0.00     0.074 A 
ATOM     46  C   UNL A   1      46.602  30.431  27.097  1.00  0.00     0.029 A 
ATOM     47  N   UNL A   1      44.608  30.057  28.003  1.00  0.00    -0.354 N 
ATOM     48  N   UNL A   1      42.178  30.774  29.480  1.00  0.00    -0.248 NA
ATOM     49  C   UNL A   1      40.939  32.320  30.719  1.00  0.00     0.031 C 
ATOM     50  C   UNL A   1      46.210  31.580  27.795  1.00  0.00     0.029 A 
ATOM     51  C   UNL A   1      44.953  31.359  28.333  1.00  0.00     0.049 A 
ATOM     52  H   UNL A   1      43.766  29.614  28.259  1.00  0.00     0.167 HD
ATOM     53  C   UNL A   1      42.893  31.966  29.573  1.00  0.00     0.074 A 
ATOM     54  C   UNL A   1      42.065  32.891  30.317  1.00  0.00     0.031 C 
ATOM     55  C   UNL A   1      44.123  32.271  29.084  1.00  0.00     0.034 A 
BRANCH  42  56
ATOM     56  C   UNL A   1      46.834  27.580  26.069  1.00  0.00     0.023 A 
ATOM     57  C   UNL A   1      47.095  27.906  24.726  1.00  0.00     0.031 A 
ATOM     58  C   UNL A   1      47.738  26.729  26.729  1.00  0.00     0.131 A 
ATOM     59  C   UNL A   1      48.196  27.336  24.069  1.00  0.00     0.055 A 
ATOM     60  C   UNL A   1      48.869  26.221  26.090  1.00  0.00     0.041 A 
ATOM     61  F   UNL A   1      47.527  26.368  28.004  1.00  0.00    -0.206 F 
ATOM     62  C   UNL A   1      49.098  26.512  24.749  1.00  0.00     0.022 A 
BRANCH  59  63
ATOM     63  S   UNL A   1      48.365  27.583  22.280  1.00  0.00     0.124 S 
ATOM     64  O   UNL A   1      48.594  26.217  21.814  1.00  0.00    -0.237 OA
ATOM     65  O   UNL A   1      47.082  28.175  21.922  1.00  0.00    -0.237 OA
ATOM     66  O   UNL A   1      49.518  28.475  22.164  1.00  0.00    -0.744 OA
ENDBRANCH  59  63
ENDBRANCH  42  56
BRANCH  43  67
ATOM     67  C   UNL A   1      38.689  30.486  31.103  1.00  0.00     0.023 A 
ATOM     68  C   UNL A   1      37.590  31.121  30.503  1.00  0.00     0.031 A 
ATOM     69  C   UNL A   1      38.677  30.332  32.501  1.00  0.00     0.131 A 
ATOM     70  C   UNL A   1      36.548  31.622  31.300  1.00  0.00     0.055 A 
ATOM     71  C   UNL A   1      37.614  30.786  33.285  1.00  0.00     0.041 A 
ATOM     72  F   UNL A   1      39.703  29.734  33.127  1.00  0.00    -0.206 F 
ATOM     73  C   UNL A   1      36.548  31.448  32.687  1.00  0.00     0.022 A 
BRANCH  70  74
ATOM     74  S   UNL A   1      35.230  32.587  30.509  1.00  0.00     0.124 S 
ATOM     75  O   UNL A   1      34.226  32.639  31.565  1.00  0.00    -0.237 OA
ATOM     76  O   UNL A   1      35.913  33.841  30.210  1.00  0.00    -0.237 OA
ATOM     77  O   UNL A   1      34.871  31.781  29.345  1.00  0.00    -0.744 OA
ENDBRANCH  70  74
ENDBRANCH  43  67
BRANCH  55  78
ATOM     78  C   UNL A   1      44.622  33.679  29.302  1.00  0.00     0.023 A 
ATOM     79  C   UNL A   1      45.390  34.027  30.427  1.00  0.00     0.031 A 
ATOM     80  C   UNL A   1      44.311  34.691  28.375  1.00  0.00     0.131 A 
ATOM     81  C   UNL A   1      45.775  35.362  30.626  1.00  0.00     0.055 A 
ATOM     82  C   UNL A   1      44.746  36.005  28.549  1.00  0.00     0.041 A 
ATOM     83  F   UNL A   1      43.581  34.415  27.284  1.00  0.00    -0.206 F 
ATOM     84  C   UNL A   1      45.470  36.350  29.686  1.00  0.00     0.022 A 
BRANCH  81  85
ATOM     85  S   UNL A   1      46.603  35.810  32.176  1.00  0.00     0.124 S 
ATOM     86  O   UNL A   1      45.846  35.042  33.159  1.00  0.00    -0.237 OA
ATOM     87  O   UNL A   1      47.973  35.366  31.938  1.00  0.00    -0.237 OA
ATOM     88  O   UNL A   1      46.427  37.260  32.254  1.00  0.00    -0.744 OA
ENDBRANCH  81  85
ENDBRANCH  55  78
ENDBRANCH  29  30
ENDBRANCH  22  24
ENDBRANCH  21  22
ENDBRANCH  20  21
ENDBRANCH   1  20
TORSDOF 20
ENDMDL
MODEL 2
REMARK VINA RESULT:     -10.7      2.047      2.689
REMARK SMILES CC(C)C[C@@H](C(=O)OCCOCCOC(=O)c1ccc(-c2c3nc(c(-c4cc(S(=O)(=O)[O-])ccc4F)c4ccc([nH]4)c(-c4cc(S(=O)(=O)[O-])ccc4F)c4nc(c(-c5cc(S(=O)(=O)[O-])ccc5F)c5ccc2[nH]5)C=C4)C=C3)cc1)[C@@H]1CCC[C@@H](C)C1
REMARK SMILES IDX 12 1 11 2 10 3 9 4 8 5 6 6 7 7 5 8 4 9 2 10 1 11 3 12 80 13
REMARK SMILES IDX 81 14 86 15 82 16 84 17 83 18 85 19 13 20 14 21 15 22 16 23
REMARK SMILES IDX 17 24 18 25 79 26 19 27 78 28 20 29 21 30 22 31 72 32 23 33
REMARK SMILES IDX 77 34 71 35 73 36 24 37 76 38 70 39 69 40 25 42 57 43 37 44
REMARK SMILES IDX 56 45 38 46 41 47 55 48 74 49 39 50 40 51 54 53 75 54 42 55
REMARK SMILES IDX 26 56 27 57 35 58 28 59 34 60 36 61 33 62 29 63 30 64 31 65
REMARK SMILES IDX 32 66 58 67 59 68 67 69 60 70 66 71 68 72 65 73 61 74 62 75
REMARK SMILES IDX 63 76 64 77 43 78 44 79 52 80 45 81 51 82 53 83 50 84 46 85
REMARK SMILES IDX 47 86 48 87 49 88
REMARK H PARENT 73 41 41 52
REMARK Flexibility Score: inf
ROOT
ATOM      1  C   UNL A   1      35.701  21.409  24.970  1.00  0.00     0.202 C 
ENDROOT
BRANCH   1   2
ATOM      2  O   UNL A   1      35.063  21.790  26.191  1.00  0.00    -0.374 OA
BRANCH   2   3
ATOM      3  C   UNL A   1      33.908  21.046  26.554  1.00  0.00     0.202 C 
BRANCH   3   4
ATOM      4  C   UNL A   1      33.034  20.687  25.341  1.00  0.00     0.261 C 
BRANCH   4   5
ATOM      5  O   UNL A   1      31.663  21.153  25.359  1.00  0.00    -0.463 OA
BRANCH   5   6
ATOM      6  C   UNL A   1      31.498  22.439  25.757  1.00  0.00     0.309 C 
ATOM      7  O   UNL A   1      30.783  22.797  26.690  1.00  0.00    -0.252 OA
BRANCH   6   8
ATOM      8  C   UNL A   1      32.082  23.480  24.815  1.00  0.00     0.102 C 
BRANCH   8   9
ATOM      9  C   UNL A   1      32.001  24.854  25.545  1.00  0.00     0.018 C 
BRANCH   9  10
ATOM     10  C   UNL A   1      33.346  25.447  26.017  1.00  0.00    -0.017 C 
ATOM     11  C   UNL A   1      34.512  24.971  25.151  1.00  0.00     0.007 C 
ATOM     12  C   UNL A   1      33.270  26.976  25.985  1.00  0.00     0.007 C 
ENDBRANCH   9  10
ENDBRANCH   8   9
BRANCH   8  13
ATOM     13  C   UNL A   1      31.628  23.667  23.330  1.00  0.00     0.003 C 
ATOM     14  C   UNL A   1      32.634  24.013  22.216  1.00  0.00     0.004 C 
ATOM     15  C   UNL A   1      30.427  24.653  23.311  1.00  0.00     0.007 C 
ATOM     16  C   UNL A   1      32.847  25.488  21.862  1.00  0.00     0.001 C 
ATOM     17  C   UNL A   1      30.889  26.115  23.271  1.00  0.00    -0.014 C 
ATOM     18  C   UNL A   1      31.600  26.353  21.941  1.00  0.00     0.003 C 
ATOM     19  C   UNL A   1      29.726  27.085  23.457  1.00  0.00     0.007 C 
ENDBRANCH   8  13
ENDBRANCH   6   8
ENDBRANCH   5   6
ENDBRANCH   4   5
ENDBRANCH   3   4
ENDBRANCH   2   3
ENDBRANCH   1   2
BRANCH   1  20
ATOM     20  C   UNL A   1      36.920  20.502  25.134  1.00  0.00     0.261 C 
BRANCH  20  21
ATOM     21  O   UNL A   1      38.170  21.202  24.996  1.00  0.00    -0.460 OA
BRANCH  21  22
ATOM     22  C   UNL A   1      39.140  20.879  25.874  1.00  0.00     0.338 C 
ATOM     23  O   UNL A   1      39.636  19.773  26.045  1.00  0.00    -0.246 OA
BRANCH  22  24
ATOM     24  C   UNL A   1      39.631  22.119  26.500  1.00  0.00     0.060 A 
ATOM     25  C   UNL A   1      39.071  23.334  26.098  1.00  0.00     0.016 A 
ATOM     26  C   UNL A   1      40.663  22.094  27.446  1.00  0.00     0.016 A 
ATOM     27  C   UNL A   1      39.564  24.535  26.616  1.00  0.00     0.010 A 
ATOM     28  C   UNL A   1      41.152  23.302  27.964  1.00  0.00     0.010 A 
ATOM     29  C   UNL A   1      40.626  24.532  27.530  1.00  0.00    -0.014 A 
BRANCH  29  30
ATOM     30  C   UNL A   1      41.259  25.826  27.916  1.00  0.00     0.031 A 
ATOM     31  C   UNL A   1      42.666  26.119  27.463  1.00  0.00     0.074 A 
ATOM     32  C   UNL A   1      40.574  26.753  28.612  1.00  0.00     0.049 A 
ATOM     33  N   UNL A   1      43.377  27.207  27.612  1.00  0.00    -0.248 NA
ATOM     34  C   UNL A   1      43.362  25.039  26.747  1.00  0.00     0.031 C 
ATOM     35  C   UNL A   1      39.205  26.597  29.104  1.00  0.00     0.029 A 
ATOM     36  N   UNL A   1      40.933  28.016  29.019  1.00  0.00    -0.354 N 
ATOM     37  C   UNL A   1      44.601  26.950  26.999  1.00  0.00     0.074 A 
ATOM     38  C   UNL A   1      44.549  25.584  26.521  1.00  0.00     0.031 C 
ATOM     39  C   UNL A   1      38.840  27.722  29.744  1.00  0.00     0.029 A 
ATOM     40  C   UNL A   1      39.950  28.673  29.724  1.00  0.00     0.049 A 
ATOM     41  H   UNL A   1      41.812  28.413  28.825  1.00  0.00     0.167 HD
ATOM     42  C   UNL A   1      45.663  27.778  26.834  1.00  0.00     0.034 A 
ATOM     43  C   UNL A   1      39.946  29.898  30.290  1.00  0.00     0.034 A 
ATOM     44  C   UNL A   1      45.715  29.133  27.326  1.00  0.00     0.049 A 
ATOM     45  C   UNL A   1      41.162  30.785  30.138  1.00  0.00     0.074 A 
ATOM     46  C   UNL A   1      46.734  30.061  27.191  1.00  0.00     0.029 A 
ATOM     47  N   UNL A   1      44.713  29.752  28.061  1.00  0.00    -0.354 N 
ATOM     48  N   UNL A   1      42.290  30.542  29.512  1.00  0.00    -0.248 NA
ATOM     49  C   UNL A   1      41.092  32.118  30.754  1.00  0.00     0.031 C 
ATOM     50  C   UNL A   1      46.376  31.215  27.899  1.00  0.00     0.029 A 
ATOM     51  C   UNL A   1      45.103  31.035  28.415  1.00  0.00     0.049 A 
ATOM     52  H   UNL A   1      43.851  29.339  28.298  1.00  0.00     0.167 HD
ATOM     53  C   UNL A   1      43.049  31.704  29.633  1.00  0.00     0.074 A 
ATOM     54  C   UNL A   1      42.245  32.650  30.378  1.00  0.00     0.031 C 
ATOM     55  C   UNL A   1      44.297  31.968  29.167  1.00  0.00     0.034 A 
BRANCH  42  56
ATOM     56  C   UNL A   1      46.871  27.218  26.125  1.00  0.00     0.023 A 
ATOM     57  C   UNL A   1      47.887  26.537  26.819  1.00  0.00     0.031 A 
ATOM     58  C   UNL A   1      47.018  27.383  24.736  1.00  0.00     0.131 A 
ATOM     59  C   UNL A   1      49.032  26.101  26.134  1.00  0.00     0.055 A 
ATOM     60  C   UNL A   1      48.127  26.885  24.050  1.00  0.00     0.041 A 
ATOM     61  F   UNL A   1      46.090  28.042  24.025  1.00  0.00    -0.206 F 
ATOM     62  C   UNL A   1      49.149  26.251  24.750  1.00  0.00     0.022 A 
BRANCH  59  63
ATOM     63  S   UNL A   1      50.424  25.447  27.096  1.00  0.00     0.124 S 
ATOM     64  O   UNL A   1      51.404  25.172  26.047  1.00  0.00    -0.237 OA
ATOM     65  O   UNL A   1      50.738  26.557  27.989  1.00  0.00    -0.237 OA
ATOM     66  O   UNL A   1      49.867  24.262  27.745  1.00  0.00    -0.744 OA
ENDBRANCH  59  63
ENDBRANCH  42  56
BRANCH  43  67
ATOM     67  C   UNL A   1      38.768  30.367  31.078  1.00  0.00     0.023 A 
ATOM     68  C   UNL A   1      37.687  31.020  30.465  1.00  0.00     0.031 A 
ATOM     69  C   UNL A   1      38.744  30.228  32.478  1.00  0.00     0.131 A 
ATOM     70  C   UNL A   1      36.652  31.552  31.251  1.00  0.00     0.055 A 
ATOM     71  C   UNL A   1      37.688  30.713  33.251  1.00  0.00     0.041 A 
ATOM     72  F   UNL A   1      39.753  29.614  33.116  1.00  0.00    -0.206 F 
ATOM     73  C   UNL A   1      36.640  31.393  32.640  1.00  0.00     0.022 A 
BRANCH  70  74
ATOM     74  S   UNL A   1      35.360  32.537  30.443  1.00  0.00     0.124 S 
ATOM     75  O   UNL A   1      36.062  33.787  30.177  1.00  0.00    -0.237 OA
ATOM     76  O   UNL A   1      35.043  31.719  29.277  1.00  0.00    -0.237 OA
ATOM     77  O   UNL A   1      34.308  32.614  31.453  1.00  0.00    -0.744 OA
ENDBRANCH  70  74
ENDBRANCH  43  67
BRANCH  55  78
ATOM     78  C   UNL A   1      44.847  33.352  29.413  1.00  0.00     0.023 A 
ATOM     79  C   UNL A   1      44.735  34.376  28.455  1.00  0.00     0.031 A 
ATOM     80  C   UNL A   1      45.504  33.647  30.621  1.00  0.00     0.131 A 
ATOM     81  C   UNL A   1      45.321  35.627  28.697  1.00  0.00     0.055 A 
ATOM     82  C   UNL A   1      46.035  34.911  30.880  1.00  0.00     0.041 A 
ATOM     83  F   UNL A   1      45.640  32.708  31.571  1.00  0.00    -0.206 F 
ATOM     84  C   UNL A   1      45.957  35.906  29.910  1.00  0.00     0.022 A 
BRANCH  81  85
ATOM     85  S   UNL A   1      45.321  36.863  27.369  1.00  0.00     0.124 S 
ATOM     86  O   UNL A   1      43.894  37.101  27.174  1.00  0.00    -0.237 OA
ATOM     87  O   UNL A   1      46.076  37.962  27.965  1.00  0.00    -0.237 OA
ATOM     88  O   UNL A   1      45.992  36.180  26.263  1.00  0.00    -0.744 OA
ENDBRANCH  81  85
ENDBRANCH  55  78
ENDBRANCH  29  30
ENDBRANCH  22  24
ENDBRANCH  21  22
ENDBRANCH  20  21
ENDBRANCH   1  20
TORSDOF 20
ENDMDL
MODEL 3
REMARK VINA RESULT:     -10.6      1.572      2.049
REMARK SMILES CC(C)C[C@@H](C(=O)OCCOCCOC(=O)c1ccc(-c2c3nc(c(-c4cc(S(=O)(=O)[O-])ccc4F)c4ccc([nH]4)c(-c4cc(S(=O)(=O)[O-])ccc4F)c4nc(c(-c5cc(S(=O)(=O)[O-])ccc5F)c5ccc2[nH]5)C=C4)C=C3)cc1)[C@@H]1CCC[C@@H](C)C1
REMARK SMILES IDX 12 1 11 2 10 3 9 4 8 5 6 6 7 7 5 8 4 9 2 10 1 11 3 12 80 13
REMARK SMILES IDX 81 14 86 15 82 16 84 17 83 18 85 19 13 20 14 21 15 22 16 23
REMARK SMILES IDX 17 24 18 25 79 26 19 27 78 28 20 29 21 30 22 31 72 32 23 33
REMARK SMILES IDX 77 34 71 35 73 36 24 37 76 38 70 39 69 40 25 42 57 43 37 44
REMARK SMILES IDX 56 45 38 46 41 47 55 48 74 49 39 50 40 51 54 53 75 54 42 55
REMARK SMILES IDX 26 56 27 57 35 58 28 59 34 60 36 61 33 62 29 63 30 64 31 65
REMARK SMILES IDX 32 66 58 67 59 68 67 69 60 70 66 71 68 72 65 73 61 74 62 75
REMARK SMILES IDX 63 76 64 77 43 78 44 79 52 80 45 81 51 82 53 83 50 84 46 85
REMARK SMILES IDX 47 86 48 87 49 88
REMARK H PARENT 73 41 41 52
REMARK Flexibility Score: inf
ROOT
ATOM      1  C   UNL A   1      35.705  21.282  24.979  1.00  0.00     0.202 C 
ENDROOT
BRANCH   1   2
ATOM      2  O   UNL A   1      34.515  20.610  25.398  1.00  0.00    -0.374 OA
BRANCH   2   3
ATOM      3  C   UNL A   1      33.612  21.369  26.191  1.00  0.00     0.202 C 
BRANCH   3   4
ATOM      4  C   UNL A   1      33.079  22.608  25.454  1.00  0.00     0.261 C 
BRANCH   4   5
ATOM      5  O   UNL A   1      33.258  23.887  26.106  1.00  0.00    -0.463 OA
BRANCH   5   6
ATOM      6  C   UNL A   1      34.114  24.736  25.485  1.00  0.00     0.309 C 
ATOM      7  O   UNL A   1      35.340  24.673  25.559  1.00  0.00    -0.252 OA
BRANCH   6   8
ATOM      8  C   UNL A   1      33.461  25.955  24.854  1.00  0.00     0.102 C 
BRANCH   8   9
ATOM      9  C   UNL A   1      33.640  25.823  23.312  1.00  0.00     0.018 C 
BRANCH   9  10
ATOM     10  C   UNL A   1      32.494  25.116  22.557  1.00  0.00    -0.017 C 
ATOM     11  C   UNL A   1      31.162  25.247  23.296  1.00  0.00     0.007 C 
ATOM     12  C   UNL A   1      32.364  25.710  21.152  1.00  0.00     0.007 C 
ENDBRANCH   9  10
ENDBRANCH   8   9
BRANCH   8  13
ATOM     13  C   UNL A   1      33.769  27.429  25.276  1.00  0.00     0.003 C 
ATOM     14  C   UNL A   1      33.656  27.888  26.742  1.00  0.00     0.004 C 
ATOM     15  C   UNL A   1      32.971  28.377  24.340  1.00  0.00     0.007 C 
ATOM     16  C   UNL A   1      32.336  28.508  27.209  1.00  0.00     0.001 C 
ATOM     17  C   UNL A   1      31.543  28.614  24.848  1.00  0.00    -0.014 C 
ATOM     18  C   UNL A   1      31.629  29.368  26.173  1.00  0.00     0.003 C 
ATOM     19  C   UNL A   1      30.696  29.375  23.834  1.00  0.00     0.007 C 
ENDBRANCH   8  13
ENDBRANCH   6   8
ENDBRANCH   5   6
ENDBRANCH   4   5
ENDBRANCH   3   4
ENDBRANCH   2   3
ENDBRANCH   1   2
BRANCH   1  20
ATOM     20  C   UNL A   1      36.976  20.435  25.029  1.00  0.00     0.261 C 
BRANCH  20  21
ATOM     21  O   UNL A   1      38.182  21.219  24.980  1.00  0.00    -0.460 OA
BRANCH  21  22
ATOM     22  C   UNL A   1      39.148  20.892  25.861  1.00  0.00     0.338 C 
ATOM     23  O   UNL A   1      39.642  19.784  26.031  1.00  0.00    -0.246 OA
BRANCH  22  24
ATOM     24  C   UNL A   1      39.638  22.130  26.492  1.00  0.00     0.060 A 
ATOM     25  C   UNL A   1      39.069  23.345  26.104  1.00  0.00     0.016 A 
ATOM     26  C   UNL A   1      40.677  22.103  27.430  1.00  0.00     0.016 A 
ATOM     27  C   UNL A   1      39.560  24.545  26.626  1.00  0.00     0.010 A 
ATOM     28  C   UNL A   1      41.164  23.309  27.954  1.00  0.00     0.010 A 
ATOM     29  C   UNL A   1      40.629  24.540  27.533  1.00  0.00    -0.014 A 
BRANCH  29  30
ATOM     30  C   UNL A   1      41.259  25.833  27.923  1.00  0.00     0.031 A 
ATOM     31  C   UNL A   1      42.666  26.130  27.474  1.00  0.00     0.074 A 
ATOM     32  C   UNL A   1      40.571  26.758  28.621  1.00  0.00     0.049 A 
ATOM     33  N   UNL A   1      43.375  27.220  27.627  1.00  0.00    -0.248 NA
ATOM     34  C   UNL A   1      43.366  25.054  26.756  1.00  0.00     0.031 C 
ATOM     35  C   UNL A   1      39.202  26.597  29.110  1.00  0.00     0.029 A 
ATOM     36  N   UNL A   1      40.926  28.020  29.032  1.00  0.00    -0.354 N 
ATOM     37  C   UNL A   1      44.601  26.966  27.017  1.00  0.00     0.074 A 
ATOM     38  C   UNL A   1      44.552  25.602  26.535  1.00  0.00     0.031 C 
ATOM     39  C   UNL A   1      38.832  27.720  29.752  1.00  0.00     0.029 A 
ATOM     40  C   UNL A   1      39.941  28.673  29.737  1.00  0.00     0.049 A 
ATOM     41  H   UNL A   1      41.805  28.419  28.841  1.00  0.00     0.167 HD
ATOM     42  C   UNL A   1      45.662  27.797  26.856  1.00  0.00     0.034 A 
ATOM     43  C   UNL A   1      39.934  29.897  30.307  1.00  0.00     0.034 A 
ATOM     44  C   UNL A   1      45.710  29.150  27.352  1.00  0.00     0.049 A 
ATOM     45  C   UNL A   1      41.148  30.786  30.159  1.00  0.00     0.074 A 
ATOM     46  C   UNL A   1      46.727  30.081  27.221  1.00  0.00     0.029 A 
ATOM     47  N   UNL A   1      44.706  29.765  28.087  1.00  0.00    -0.354 N 
ATOM     48  N   UNL A   1      42.278  30.547  29.535  1.00  0.00    -0.248 NA
ATOM     49  C   UNL A   1      41.075  32.117  30.779  1.00  0.00     0.031 C 
ATOM     50  C   UNL A   1      46.366  31.232  27.932  1.00  0.00     0.029 A 
ATOM     51  C   UNL A   1      45.092  31.048  28.445  1.00  0.00     0.049 A 
ATOM     52  H   UNL A   1      43.843  29.350  28.321  1.00  0.00     0.167 HD
ATOM     53  C   UNL A   1      43.035  31.710  29.661  1.00  0.00     0.074 A 
ATOM     54  C   UNL A   1      42.228  32.653  30.407  1.00  0.00     0.031 C 
ATOM     55  C   UNL A   1      44.283  31.978  29.198  1.00  0.00     0.034 A 
BRANCH  42  56
ATOM     56  C   UNL A   1      46.872  27.241  26.147  1.00  0.00     0.023 A 
ATOM     57  C   UNL A   1      47.888  26.560  26.842  1.00  0.00     0.031 A 
ATOM     58  C   UNL A   1      47.022  27.410  24.759  1.00  0.00     0.131 A 
ATOM     59  C   UNL A   1      49.035  26.128  26.158  1.00  0.00     0.055 A 
ATOM     60  C   UNL A   1      48.132  26.916  24.074  1.00  0.00     0.041 A 
ATOM     61  F   UNL A   1      46.093  28.070  24.049  1.00  0.00    -0.206 F 
ATOM     62  C   UNL A   1      49.154  26.283  24.775  1.00  0.00     0.022 A 
BRANCH  59  63
ATOM     63  S   UNL A   1      50.427  25.475  27.121  1.00  0.00     0.124 S 
ATOM     64  O   UNL A   1      49.821  24.308  27.760  1.00  0.00    -0.237 OA
ATOM     65  O   UNL A   1      51.419  25.195  26.090  1.00  0.00    -0.237 OA
ATOM     66  O   UNL A   1      50.761  26.571  28.028  1.00  0.00    -0.744 OA
ENDBRANCH  59  63
ENDBRANCH  42  56
BRANCH  43  67
ATOM     67  C   UNL A   1      38.754  30.361  31.094  1.00  0.00     0.023 A 
ATOM     68  C   UNL A   1      37.681  31.032  30.484  1.00  0.00     0.031 A 
ATOM     69  C   UNL A   1      38.718  30.199  32.491  1.00  0.00     0.131 A 
ATOM     70  C   UNL A   1      36.645  31.559  31.271  1.00  0.00     0.055 A 
ATOM     71  C   UNL A   1      37.659  30.679  33.264  1.00  0.00     0.041 A 
ATOM     72  F   UNL A   1      39.718  29.567  33.126  1.00  0.00    -0.206 F 
ATOM     73  C   UNL A   1      36.621  31.376  32.656  1.00  0.00     0.022 A 
BRANCH  70  74
ATOM     74  S   UNL A   1      35.366  32.567  30.469  1.00  0.00     0.124 S 
ATOM     75  O   UNL A   1      34.985  31.723  29.343  1.00  0.00    -0.237 OA
ATOM     76  O   UNL A   1      34.378  32.703  31.534  1.00  0.00    -0.237 OA
ATOM     77  O   UNL A   1      36.074  33.796  30.117  1.00  0.00    -0.744 OA
ENDBRANCH  70  74
ENDBRANCH  43  67
BRANCH  55  78
ATOM     78  C   UNL A   1      44.830  33.362  29.449  1.00  0.00     0.023 A 
ATOM     79  C   UNL A   1      45.589  33.664  30.594  1.00  0.00     0.031 A 
ATOM     80  C   UNL A   1      44.575  34.400  28.533  1.00  0.00     0.131 A 
ATOM     81  C   UNL A   1      46.018  34.980  30.822  1.00  0.00     0.055 A 
ATOM     82  C   UNL A   1      45.054  35.694  28.737  1.00  0.00     0.041 A 
ATOM     83  F   UNL A   1      43.856  34.169  27.424  1.00  0.00    -0.206 F 
ATOM     84  C   UNL A   1      45.768  35.994  29.893  1.00  0.00     0.022 A 
BRANCH  81  85
ATOM     85  S   UNL A   1      46.833  35.372  32.395  1.00  0.00     0.124 S 
ATOM     86  O   UNL A   1      47.040  34.047  32.969  1.00  0.00    -0.237 OA
ATOM     87  O   UNL A   1      48.036  36.073  31.957  1.00  0.00    -0.237 OA
ATOM     88  O   UNL A   1      45.852  36.203  33.092  1.00  0.00    -0.744 OA
ENDBRANCH  81  85
ENDBRANCH  55  78
ENDBRANCH  29  30
ENDBRANCH  22  24
ENDBRANCH  21  22
ENDBRANCH  20  21
ENDBRANCH   1  20
TORSDOF 20
ENDMDL
