MODEL 1
REMARK VINA RESULT:     -11.5      0.000      0.000
REMARK SMILES COc1ccc2cc([C@H](C)C(=O)OCCOCCOC(=O)c3ccc(-c4c5nc(c(-c6cc(S(=O)(=O)[O-])ccc6F)c6ccc([nH]6)c(-c6cc(S(=O)(=O)[O-])ccc6F)c6nc(c(-c7cc(S(=O)(=O)[O-])ccc7F)c7ccc4[nH]7)C=C6)C=C5)cc3)ccc2c1
REMARK SMILES IDX 17 1 16 2 15 3 14 4 13 5 11 6 12 7 9 8 10 9 8 10 3 11 4 12
REMARK SMILES IDX 88 13 5 14 87 15 6 16 86 17 7 18 85 19 2 20 1 21 18 22 19 23
REMARK SMILES IDX 20 24 21 25 22 26 23 27 84 28 24 29 83 30 25 31 26 32 27 33
REMARK SMILES IDX 77 34 28 35 82 36 76 37 78 38 29 39 81 40 75 41 74 42 30 44
REMARK SMILES IDX 62 45 42 46 61 47 43 48 46 49 60 50 79 51 44 52 45 53 59 55
REMARK SMILES IDX 80 56 47 57 31 58 32 59 40 60 33 61 39 62 41 63 38 64 34 65
REMARK SMILES IDX 35 66 36 67 37 68 63 69 64 70 72 71 65 72 71 73 73 74 70 75
REMARK SMILES IDX 66 76 67 77 68 78 69 79 48 80 49 81 57 82 50 83 56 84 58 85
REMARK SMILES IDX 55 86 51 87 52 88 53 89 54 90
REMARK H PARENT 78 43 46 54
REMARK Flexibility Score: inf
ROOT
ATOM      1  C   UNL A   1      35.561  21.909  25.919  1.00  0.00     0.202 C 
ENDROOT
BRANCH   1   2
ATOM      2  O   UNL A   1      34.239  22.004  25.396  1.00  0.00    -0.374 OA
BRANCH   2   3
ATOM      3  C   UNL A   1      34.070  22.558  24.091  1.00  0.00     0.202 C 
BRANCH   3   4
ATOM      4  C   UNL A   1      34.168  24.081  23.966  1.00  0.00     0.261 C 
BRANCH   4   5
ATOM      5  O   UNL A   1      33.586  24.752  25.096  1.00  0.00    -0.463 OA
BRANCH   5   6
ATOM      6  C   UNL A   1      32.227  24.813  25.113  1.00  0.00     0.313 C 
ATOM      7  O   UNL A   1      31.522  24.590  26.092  1.00  0.00    -0.252 OA
BRANCH   6   8
ATOM      8  C   UNL A   1      31.647  25.171  23.746  1.00  0.00     0.126 C 
ATOM      9  C   UNL A   1      30.682  24.128  23.173  1.00  0.00     0.025 C 
BRANCH   8  10
ATOM     10  C   UNL A   1      31.112  26.586  23.802  1.00  0.00    -0.033 A 
ATOM     11  C   UNL A   1      28.124  30.636  23.207  1.00  0.00     0.119 A 
ATOM     12  C   UNL A   1      27.309  29.521  23.016  1.00  0.00     0.047 A 
ATOM     13  C   UNL A   1      29.480  30.464  23.496  1.00  0.00     0.055 A 
ATOM     14  C   UNL A   1      27.843  28.239  23.142  1.00  0.00     0.012 A 
ATOM     15  C   UNL A   1      30.032  29.183  23.626  1.00  0.00    -0.015 A 
ATOM     16  C   UNL A   1      29.198  28.060  23.447  1.00  0.00    -0.018 A 
ATOM     17  C   UNL A   1      31.394  28.988  23.906  1.00  0.00     0.009 A 
ATOM     18  C   UNL A   1      29.745  26.779  23.546  1.00  0.00     0.013 A 
ATOM     19  C   UNL A   1      31.933  27.703  23.983  1.00  0.00     0.005 A 
BRANCH  11  20
ATOM     20  O   UNL A   1      27.709  31.935  23.091  1.00  0.00    -0.497 OA
ATOM     21  C   UNL A   1      28.715  32.856  22.693  1.00  0.00     0.278 C 
ENDBRANCH  11  20
ENDBRANCH   8  10
ENDBRANCH   6   8
ENDBRANCH   5   6
ENDBRANCH   4   5
ENDBRANCH   3   4
ENDBRANCH   2   3
ENDBRANCH   1   2
BRANCH   1  22
ATOM     22  C   UNL A   1      36.502  20.873  25.295  1.00  0.00     0.261 C 
BRANCH  22  23
ATOM     23  O   UNL A   1      37.766  21.434  24.898  1.00  0.00    -0.460 OA
BRANCH  23  24
ATOM     24  C   UNL A   1      38.798  21.111  25.712  1.00  0.00     0.338 C 
ATOM     25  O   UNL A   1      39.349  20.018  25.794  1.00  0.00    -0.246 OA
BRANCH  24  26
ATOM     26  C   UNL A   1      39.330  22.306  26.390  1.00  0.00     0.060 A 
ATOM     27  C   UNL A   1      38.768  23.542  26.043  1.00  0.00     0.016 A 
ATOM     28  C   UNL A   1      40.420  22.242  27.260  1.00  0.00     0.016 A 
ATOM     29  C   UNL A   1      39.333  24.724  26.515  1.00  0.00     0.010 A 
ATOM     30  C   UNL A   1      40.991  23.433  27.728  1.00  0.00     0.010 A 
ATOM     31  C   UNL A   1      40.477  24.679  27.322  1.00  0.00    -0.014 A 
BRANCH  31  32
ATOM     32  C   UNL A   1      41.227  25.934  27.583  1.00  0.00     0.031 A 
ATOM     33  C   UNL A   1      40.569  27.014  28.401  1.00  0.00     0.074 A 
ATOM     34  C   UNL A   1      42.491  26.088  27.150  1.00  0.00     0.049 A 
ATOM     35  N   UNL A   1      41.023  28.194  28.740  1.00  0.00    -0.248 NA
ATOM     36  C   UNL A   1      39.217  26.721  28.900  1.00  0.00     0.031 C 
ATOM     37  C   UNL A   1      43.252  25.091  26.398  1.00  0.00     0.029 A 
ATOM     38  N   UNL A   1      43.358  27.144  27.282  1.00  0.00    -0.354 N 
ATOM     39  C   UNL A   1      40.011  28.787  29.491  1.00  0.00     0.074 A 
ATOM     40  C   UNL A   1      38.908  27.850  29.520  1.00  0.00     0.031 C 
ATOM     41  C   UNL A   1      44.472  25.588  26.128  1.00  0.00     0.029 A 
ATOM     42  C   UNL A   1      44.566  26.948  26.656  1.00  0.00     0.049 A 
ATOM     43  H   UNL A   1      43.136  27.965  27.779  1.00  0.00     0.167 HD
ATOM     44  C   UNL A   1      40.008  29.994  30.106  1.00  0.00     0.034 A 
ATOM     45  C   UNL A   1      45.617  27.780  26.505  1.00  0.00     0.034 A 
ATOM     46  C   UNL A   1      41.112  30.922  30.061  1.00  0.00     0.049 A 
ATOM     47  C   UNL A   1      45.557  29.157  27.126  1.00  0.00     0.074 A 
ATOM     48  C   UNL A   1      41.217  32.169  30.653  1.00  0.00     0.029 A 
ATOM     49  N   UNL A   1      42.301  30.709  29.374  1.00  0.00    -0.354 N 
ATOM     50  N   UNL A   1      44.595  29.705  27.831  1.00  0.00    -0.248 NA
ATOM     51  C   UNL A   1      46.729  30.021  26.933  1.00  0.00     0.031 C 
ATOM     52  C   UNL A   1      42.437  32.738  30.267  1.00  0.00     0.029 A 
ATOM     53  C   UNL A   1      43.129  31.814  29.500  1.00  0.00     0.049 A 
ATOM     54  H   UNL A   1      42.524  29.893  28.871  1.00  0.00     0.167 HD
ATOM     55  C   UNL A   1      45.064  30.966  28.197  1.00  0.00     0.074 A 
ATOM     56  C   UNL A   1      46.395  31.090  27.642  1.00  0.00     0.031 C 
ATOM     57  C   UNL A   1      44.453  31.930  28.933  1.00  0.00     0.034 A 
BRANCH  44  58
ATOM     58  C   UNL A   1      38.746  30.398  30.833  1.00  0.00     0.023 A 
ATOM     59  C   UNL A   1      37.700  31.078  30.185  1.00  0.00     0.031 A 
ATOM     60  C   UNL A   1      38.604  30.127  32.206  1.00  0.00     0.131 A 
ATOM     61  C   UNL A   1      36.595  31.527  30.922  1.00  0.00     0.055 A 
ATOM     62  C   UNL A   1      37.465  30.508  32.917  1.00  0.00     0.041 A 
ATOM     63  F   UNL A   1      39.580  29.502  32.884  1.00  0.00    -0.206 F 
ATOM     64  C   UNL A   1      36.458  31.225  32.279  1.00  0.00     0.022 A 
BRANCH  61  65
ATOM     65  S   UNL A   1      35.406  32.638  30.118  1.00  0.00     0.124 S 
ATOM     66  O   UNL A   1      36.207  33.846  29.937  1.00  0.00    -0.237 OA
ATOM     67  O   UNL A   1      35.067  31.908  28.902  1.00  0.00    -0.237 OA
ATOM     68  O   UNL A   1      34.328  32.755  31.098  1.00  0.00    -0.744 OA
ENDBRANCH  61  65
ENDBRANCH  44  58
BRANCH  45  69
ATOM     69  C   UNL A   1      46.802  27.362  25.703  1.00  0.00     0.023 A 
ATOM     70  C   UNL A   1      46.981  27.803  24.381  1.00  0.00     0.031 A 
ATOM     71  C   UNL A   1      47.746  26.463  26.231  1.00  0.00     0.131 A 
ATOM     72  C   UNL A   1      48.051  27.309  23.618  1.00  0.00     0.055 A 
ATOM     73  C   UNL A   1      48.838  26.016  25.486  1.00  0.00     0.041 A 
ATOM     74  F   UNL A   1      47.622  26.009  27.488  1.00  0.00    -0.206 F 
ATOM     75  C   UNL A   1      48.988  26.429  24.166  1.00  0.00     0.022 A 
BRANCH  72  76
ATOM     76  S   UNL A   1      48.153  27.766  21.866  1.00  0.00     0.124 S 
ATOM     77  O   UNL A   1      48.330  26.466  21.230  1.00  0.00    -0.237 OA
ATOM     78  O   UNL A   1      46.866  28.418  21.649  1.00  0.00    -0.237 OA
ATOM     79  O   UNL A   1      49.315  28.651  21.813  1.00  0.00    -0.744 OA
ENDBRANCH  72  76
ENDBRANCH  45  69
BRANCH  57  80
ATOM     80  C   UNL A   1      45.246  33.183  29.223  1.00  0.00     0.023 A 
ATOM     81  C   UNL A   1      45.221  34.294  28.363  1.00  0.00     0.031 A 
ATOM     82  C   UNL A   1      46.046  33.258  30.377  1.00  0.00     0.131 A 
ATOM     83  C   UNL A   1      46.023  35.412  28.642  1.00  0.00     0.055 A 
ATOM     84  C   UNL A   1      46.796  34.395  30.681  1.00  0.00     0.041 A 
ATOM     85  F   UNL A   1      46.109  32.226  31.234  1.00  0.00    -0.206 F 
ATOM     86  C   UNL A   1      46.797  35.476  29.804  1.00  0.00     0.022 A 
BRANCH  83  87
ATOM     87  S   UNL A   1      46.112  36.749  27.419  1.00  0.00     0.124 S 
ATOM     88  O   UNL A   1      46.592  36.046  26.233  1.00  0.00    -0.237 OA
ATOM     89  O   UNL A   1      44.731  37.218  27.368  1.00  0.00    -0.237 OA
ATOM     90  O   UNL A   1      47.064  37.691  28.008  1.00  0.00    -0.744 OA
ENDBRANCH  83  87
ENDBRANCH  57  80
ENDBRANCH  31  32
ENDBRANCH  24  26
ENDBRANCH  23  24
ENDBRANCH  22  23
ENDBRANCH   1  22
TORSDOF 19
ENDMDL
MODEL 2
REMARK VINA RESULT:     -11.5      1.535      7.659
REMARK SMILES COc1ccc2cc([C@H](C)C(=O)OCCOCCOC(=O)c3ccc(-c4c5nc(c(-c6cc(S(=O)(=O)[O-])ccc6F)c6ccc([nH]6)c(-c6cc(S(=O)(=O)[O-])ccc6F)c6nc(c(-c7cc(S(=O)(=O)[O-])ccc7F)c7ccc4[nH]7)C=C6)C=C5)cc3)ccc2c1
REMARK SMILES IDX 17 1 16 2 15 3 14 4 13 5 11 6 12 7 9 8 10 9 8 10 3 11 4 12
REMARK SMILES IDX 88 13 5 14 87 15 6 16 86 17 7 18 85 19 2 20 1 21 18 22 19 23
REMARK SMILES IDX 20 24 21 25 22 26 23 27 84 28 24 29 83 30 25 31 26 32 27 33
REMARK SMILES IDX 77 34 28 35 82 36 76 37 78 38 29 39 81 40 75 41 74 42 30 44
REMARK SMILES IDX 62 45 42 46 61 47 43 48 46 49 60 50 79 51 44 52 45 53 59 55
REMARK SMILES IDX 80 56 47 57 31 58 32 59 40 60 33 61 39 62 41 63 38 64 34 65
REMARK SMILES IDX 35 66 36 67 37 68 63 69 64 70 72 71 65 72 71 73 73 74 70 75
REMARK SMILES IDX 66 76 67 77 68 78 69 79 48 80 49 81 57 82 50 83 56 84 58 85
REMARK SMILES IDX 55 86 51 87 52 88 53 89 54 90
REMARK H PARENT 78 43 46 54
REMARK Flexibility Score: inf
ROOT
ATOM      1  C   UNL A   1      35.848  20.483  24.968  1.00  0.00     0.202 C 
ENDROOT
BRANCH   1   2
ATOM      2  O   UNL A   1      35.449  21.722  25.549  1.00  0.00    -0.374 OA
BRANCH   2   3
ATOM      3  C   UNL A   1      34.279  22.358  25.037  1.00  0.00     0.202 C 
BRANCH   3   4
ATOM      4  C   UNL A   1      33.368  23.056  26.051  1.00  0.00     0.261 C 
BRANCH   4   5
ATOM      5  O   UNL A   1      33.268  24.467  25.802  1.00  0.00    -0.463 OA
BRANCH   5   6
ATOM      6  C   UNL A   1      32.006  24.958  25.673  1.00  0.00     0.313 C 
ATOM      7  O   UNL A   1      31.211  25.115  26.594  1.00  0.00    -0.252 OA
BRANCH   6   8
ATOM      8  C   UNL A   1      31.656  25.280  24.221  1.00  0.00     0.126 C 
ATOM      9  C   UNL A   1      30.811  24.211  23.520  1.00  0.00     0.025 C 
BRANCH   8  10
ATOM     10  C   UNL A   1      31.103  26.687  24.156  1.00  0.00    -0.033 A 
ATOM     11  C   UNL A   1      28.136  30.656  23.090  1.00  0.00     0.119 A 
ATOM     12  C   UNL A   1      27.353  29.520  22.886  1.00  0.00     0.047 A 
ATOM     13  C   UNL A   1      29.463  30.520  23.506  1.00  0.00     0.055 A 
ATOM     14  C   UNL A   1      27.888  28.254  23.125  1.00  0.00     0.012 A 
ATOM     15  C   UNL A   1      30.015  29.255  23.751  1.00  0.00    -0.015 A 
ATOM     16  C   UNL A   1      29.212  28.111  23.558  1.00  0.00    -0.018 A 
ATOM     17  C   UNL A   1      31.349  29.096  24.159  1.00  0.00     0.009 A 
ATOM     18  C   UNL A   1      29.762  26.846  23.771  1.00  0.00     0.013 A 
ATOM     19  C   UNL A   1      31.892  27.824  24.350  1.00  0.00     0.005 A 
BRANCH  11  20
ATOM     20  O   UNL A   1      27.719  31.940  22.870  1.00  0.00    -0.497 OA
ATOM     21  C   UNL A   1      28.744  32.923  22.919  1.00  0.00     0.278 C 
ENDBRANCH  11  20
ENDBRANCH   8  10
ENDBRANCH   6   8
ENDBRANCH   5   6
ENDBRANCH   4   5
ENDBRANCH   3   4
ENDBRANCH   2   3
ENDBRANCH   1   2
BRANCH   1  22
ATOM     22  C   UNL A   1      37.336  20.121  25.013  1.00  0.00     0.261 C 
BRANCH  22  23
ATOM     23  O   UNL A   1      38.184  21.268  25.203  1.00  0.00    -0.460 OA
BRANCH  23  24
ATOM     24  C   UNL A   1      39.269  21.035  25.978  1.00  0.00     0.338 C 
ATOM     25  O   UNL A   1      39.939  20.008  26.008  1.00  0.00    -0.246 OA
BRANCH  24  26
ATOM     26  C   UNL A   1      39.685  22.260  26.684  1.00  0.00     0.060 A 
ATOM     27  C   UNL A   1      38.988  23.438  26.388  1.00  0.00     0.016 A 
ATOM     28  C   UNL A   1      40.795  22.286  27.532  1.00  0.00     0.016 A 
ATOM     29  C   UNL A   1      39.433  24.659  26.888  1.00  0.00     0.010 A 
ATOM     30  C   UNL A   1      41.246  23.518  28.027  1.00  0.00     0.010 A 
ATOM     31  C   UNL A   1      40.593  24.712  27.671  1.00  0.00    -0.014 A 
BRANCH  31  32
ATOM     32  C   UNL A   1      41.211  26.033  27.959  1.00  0.00     0.031 A 
ATOM     33  C   UNL A   1      42.612  26.297  27.472  1.00  0.00     0.074 A 
ATOM     34  C   UNL A   1      40.520  26.999  28.589  1.00  0.00     0.049 A 
ATOM     35  N   UNL A   1      43.356  27.363  27.619  1.00  0.00    -0.248 NA
ATOM     36  C   UNL A   1      43.256  25.210  26.720  1.00  0.00     0.031 C 
ATOM     37  C   UNL A   1      39.140  26.879  29.057  1.00  0.00     0.029 A 
ATOM     38  N   UNL A   1      40.887  28.272  28.945  1.00  0.00    -0.354 N 
ATOM     39  C   UNL A   1      44.559  27.075  26.981  1.00  0.00     0.074 A 
ATOM     40  C   UNL A   1      44.456  25.720  26.483  1.00  0.00     0.031 C 
ATOM     41  C   UNL A   1      38.779  28.032  29.646  1.00  0.00     0.029 A 
ATOM     42  C   UNL A   1      39.910  28.957  29.629  1.00  0.00     0.049 A 
ATOM     43  H   UNL A   1      41.766  28.659  28.730  1.00  0.00     0.167 HD
ATOM     44  C   UNL A   1      45.645  27.871  26.817  1.00  0.00     0.034 A 
ATOM     45  C   UNL A   1      39.937  30.180  30.197  1.00  0.00     0.034 A 
ATOM     46  C   UNL A   1      45.737  29.217  27.328  1.00  0.00     0.049 A 
ATOM     47  C   UNL A   1      41.190  31.017  30.079  1.00  0.00     0.074 A 
ATOM     48  C   UNL A   1      46.787  30.113  27.214  1.00  0.00     0.029 A 
ATOM     49  N   UNL A   1      44.747  29.860  28.060  1.00  0.00    -0.354 N 
ATOM     50  N   UNL A   1      42.320  30.733  29.474  1.00  0.00    -0.248 NA
ATOM     51  C   UNL A   1      41.163  32.341  30.713  1.00  0.00     0.031 C 
ATOM     52  C   UNL A   1      46.460  31.267  27.936  1.00  0.00     0.029 A 
ATOM     53  C   UNL A   1      45.174  31.125  28.433  1.00  0.00     0.049 A 
ATOM     54  H   UNL A   1      43.869  29.473  28.283  1.00  0.00     0.167 HD
ATOM     55  C   UNL A   1      43.126  31.860  29.626  1.00  0.00     0.074 A 
ATOM     56  C   UNL A   1      42.347  32.829  30.370  1.00  0.00     0.031 C 
ATOM     57  C   UNL A   1      44.390  32.079  29.183  1.00  0.00     0.034 A 
BRANCH  44  58
ATOM     58  C   UNL A   1      46.836  27.278  26.102  1.00  0.00     0.023 A 
ATOM     59  C   UNL A   1      47.843  26.579  26.790  1.00  0.00     0.031 A 
ATOM     60  C   UNL A   1      46.984  27.447  24.714  1.00  0.00     0.131 A 
ATOM     61  C   UNL A   1      48.985  26.139  26.103  1.00  0.00     0.055 A 
ATOM     62  C   UNL A   1      48.084  26.937  24.022  1.00  0.00     0.041 A 
ATOM     63  F   UNL A   1      46.066  28.127  24.007  1.00  0.00    -0.206 F 
ATOM     64  C   UNL A   1      49.100  26.291  24.719  1.00  0.00     0.022 A 
BRANCH  61  65
ATOM     65  S   UNL A   1      50.383  25.494  27.063  1.00  0.00     0.124 S 
ATOM     66  O   UNL A   1      51.359  25.217  26.012  1.00  0.00    -0.237 OA
ATOM     67  O   UNL A   1      50.696  26.608  27.950  1.00  0.00    -0.237 OA
ATOM     68  O   UNL A   1      49.832  24.309  27.719  1.00  0.00    -0.744 OA
ENDBRANCH  61  65
ENDBRANCH  44  58
BRANCH  45  69
ATOM     69  C   UNL A   1      38.763  30.680  30.967  1.00  0.00     0.023 A 
ATOM     70  C   UNL A   1      37.656  31.254  30.320  1.00  0.00     0.031 A 
ATOM     71  C   UNL A   1      38.757  30.644  32.374  1.00  0.00     0.131 A 
ATOM     72  C   UNL A   1      36.613  31.809  31.078  1.00  0.00     0.055 A 
ATOM     73  C   UNL A   1      37.693  31.149  33.122  1.00  0.00     0.041 A 
ATOM     74  F   UNL A   1      39.790  30.109  33.043  1.00  0.00    -0.206 F 
ATOM     75  C   UNL A   1      36.617  31.749  32.473  1.00  0.00     0.022 A 
BRANCH  72  76
ATOM     76  S   UNL A   1      35.286  32.692  30.213  1.00  0.00     0.124 S 
ATOM     77  O   UNL A   1      34.929  31.741  29.167  1.00  0.00    -0.237 OA
ATOM     78  O   UNL A   1      34.303  32.877  31.276  1.00  0.00    -0.237 OA
ATOM     79  O   UNL A   1      35.937  33.916  29.750  1.00  0.00    -0.744 OA
ENDBRANCH  72  76
ENDBRANCH  45  69
BRANCH  57  80
ATOM     80  C   UNL A   1      44.989  33.441  29.449  1.00  0.00     0.023 A 
ATOM     81  C   UNL A   1      44.873  34.496  28.528  1.00  0.00     0.031 A 
ATOM     82  C   UNL A   1      45.693  33.679  30.643  1.00  0.00     0.131 A 
ATOM     83  C   UNL A   1      45.499  35.725  28.791  1.00  0.00     0.055 A 
ATOM     84  C   UNL A   1      46.263  34.921  30.926  1.00  0.00     0.041 A 
ATOM     85  F   UNL A   1      45.836  32.707  31.558  1.00  0.00    -0.206 F 
ATOM     86  C   UNL A   1      46.179  35.949  29.992  1.00  0.00     0.022 A 
BRANCH  83  87
ATOM     87  S   UNL A   1      45.490  37.003  27.504  1.00  0.00     0.124 S 
ATOM     88  O   UNL A   1      46.224  36.351  26.423  1.00  0.00    -0.237 OA
ATOM     89  O   UNL A   1      44.064  37.206  27.274  1.00  0.00    -0.237 OA
ATOM     90  O   UNL A   1      46.183  38.128  28.131  1.00  0.00    -0.744 OA
ENDBRANCH  83  87
ENDBRANCH  57  80
ENDBRANCH  31  32
ENDBRANCH  24  26
ENDBRANCH  23  24
ENDBRANCH  22  23
ENDBRANCH   1  22
TORSDOF 19
ENDMDL
MODEL 3
REMARK VINA RESULT:     -11.2      4.977      8.161
REMARK SMILES COc1ccc2cc([C@H](C)C(=O)OCCOCCOC(=O)c3ccc(-c4c5nc(c(-c6cc(S(=O)(=O)[O-])ccc6F)c6ccc([nH]6)c(-c6cc(S(=O)(=O)[O-])ccc6F)c6nc(c(-c7cc(S(=O)(=O)[O-])ccc7F)c7ccc4[nH]7)C=C6)C=C5)cc3)ccc2c1
REMARK SMILES IDX 17 1 16 2 15 3 14 4 13 5 11 6 12 7 9 8 10 9 8 10 3 11 4 12
REMARK SMILES IDX 88 13 5 14 87 15 6 16 86 17 7 18 85 19 2 20 1 21 18 22 19 23
REMARK SMILES IDX 20 24 21 25 22 26 23 27 84 28 24 29 83 30 25 31 26 32 27 33
REMARK SMILES IDX 77 34 28 35 82 36 76 37 78 38 29 39 81 40 75 41 74 42 30 44
REMARK SMILES IDX 62 45 42 46 61 47 43 48 46 49 60 50 79 51 44 52 45 53 59 55
REMARK SMILES IDX 80 56 47 57 31 58 32 59 40 60 33 61 39 62 41 63 38 64 34 65
REMARK SMILES IDX 35 66 36 67 37 68 63 69 64 70 72 71 65 72 71 73 73 74 70 75
REMARK SMILES IDX 66 76 67 77 68 78 69 79 48 80 49 81 57 82 50 83 56 84 58 85
REMARK SMILES IDX 55 86 51 87 52 88 53 89 54 90
REMARK H PARENT 78 43 46 54
REMARK Flexibility Score: inf
ROOT
ATOM      1  C   UNL A   1      32.093  29.770  25.384  1.00  0.00     0.202 C 
ENDROOT
BRANCH   1   2
ATOM      2  O   UNL A   1      31.112  29.397  24.420  1.00  0.00    -0.374 OA
BRANCH   2   3
ATOM      3  C   UNL A   1      31.559  28.802  23.202  1.00  0.00     0.202 C 
BRANCH   3   4
ATOM      4  C   UNL A   1      31.095  27.370  22.919  1.00  0.00     0.261 C 
BRANCH   4   5
ATOM      5  O   UNL A   1      31.845  26.403  23.672  1.00  0.00    -0.463 OA
BRANCH   5   6
ATOM      6  C   UNL A   1      33.144  26.240  23.299  1.00  0.00     0.313 C 
ATOM      7  O   UNL A   1      33.561  26.303  22.147  1.00  0.00    -0.252 OA
BRANCH   6   8
ATOM      8  C   UNL A   1      34.053  25.935  24.488  1.00  0.00     0.126 C 
ATOM      9  C   UNL A   1      33.559  26.498  25.825  1.00  0.00     0.025 C 
BRANCH   8  10
ATOM     10  C   UNL A   1      34.373  24.456  24.488  1.00  0.00    -0.033 A 
ATOM     11  C   UNL A   1      33.861  19.414  24.532  1.00  0.00     0.119 A 
ATOM     12  C   UNL A   1      32.626  19.926  24.136  1.00  0.00     0.047 A 
ATOM     13  C   UNL A   1      34.915  20.285  24.821  1.00  0.00     0.055 A 
ATOM     14  C   UNL A   1      32.455  21.303  24.002  1.00  0.00     0.012 A 
ATOM     15  C   UNL A   1      34.758  21.672  24.690  1.00  0.00    -0.015 A 
ATOM     16  C   UNL A   1      33.511  22.181  24.274  1.00  0.00    -0.018 A 
ATOM     17  C   UNL A   1      35.801  22.565  24.986  1.00  0.00     0.009 A 
ATOM     18  C   UNL A   1      33.337  23.563  24.169  1.00  0.00     0.013 A 
ATOM     19  C   UNL A   1      35.608  23.945  24.895  1.00  0.00     0.005 A 
BRANCH  11  20
ATOM     20  O   UNL A   1      34.133  18.085  24.712  1.00  0.00    -0.497 OA
ATOM     21  C   UNL A   1      33.854  17.255  23.592  1.00  0.00     0.278 C 
ENDBRANCH  11  20
ENDBRANCH   8  10
ENDBRANCH   6   8
ENDBRANCH   5   6
ENDBRANCH   4   5
ENDBRANCH   3   4
ENDBRANCH   2   3
ENDBRANCH   1   2
BRANCH   1  22
ATOM     22  C   UNL A   1      31.771  30.946  26.311  1.00  0.00     0.261 C 
BRANCH  22  23
ATOM     23  O   UNL A   1      32.592  30.965  27.493  1.00  0.00    -0.460 OA
BRANCH  23  24
ATOM     24  C   UNL A   1      33.464  31.999  27.548  1.00  0.00     0.338 C 
ATOM     25  O   UNL A   1      33.186  33.193  27.512  1.00  0.00    -0.246 OA
BRANCH  24  26
ATOM     26  C   UNL A   1      34.826  31.523  27.848  1.00  0.00     0.060 A 
ATOM     27  C   UNL A   1      34.996  30.147  28.044  1.00  0.00     0.016 A 
ATOM     28  C   UNL A   1      35.894  32.404  28.040  1.00  0.00     0.016 A 
ATOM     29  C   UNL A   1      36.216  29.649  28.494  1.00  0.00     0.010 A 
ATOM     30  C   UNL A   1      37.118  31.901  28.500  1.00  0.00     0.010 A 
ATOM     31  C   UNL A   1      37.270  30.529  28.771  1.00  0.00    -0.014 A 
BRANCH  31  32
ATOM     32  C   UNL A   1      38.456  30.025  29.510  1.00  0.00     0.031 A 
ATOM     33  C   UNL A   1      38.709  30.533  30.905  1.00  0.00     0.074 A 
ATOM     34  C   UNL A   1      39.261  29.090  28.975  1.00  0.00     0.049 A 
ATOM     35  N   UNL A   1      39.684  30.250  31.730  1.00  0.00    -0.248 NA
ATOM     36  C   UNL A   1      37.728  31.491  31.437  1.00  0.00     0.031 C 
ATOM     37  C   UNL A   1      39.085  28.482  27.656  1.00  0.00     0.029 A 
ATOM     38  N   UNL A   1      40.388  28.489  29.475  1.00  0.00    -0.354 N 
ATOM     39  C   UNL A   1      39.438  30.996  32.879  1.00  0.00     0.074 A 
ATOM     40  C   UNL A   1      38.244  31.774  32.625  1.00  0.00     0.031 C 
ATOM     41  C   UNL A   1      40.077  27.598  27.449  1.00  0.00     0.029 A 
ATOM     42  C   UNL A   1      40.975  27.603  28.602  1.00  0.00     0.049 A 
ATOM     43  H   UNL A   1      40.743  28.674  30.374  1.00  0.00     0.167 HD
ATOM     44  C   UNL A   1      40.137  31.023  34.040  1.00  0.00     0.034 A 
ATOM     45  C   UNL A   1      42.120  26.897  28.713  1.00  0.00     0.034 A 
ATOM     46  C   UNL A   1      41.331  30.248  34.276  1.00  0.00     0.049 A 
ATOM     47  C   UNL A   1      42.931  27.008  29.982  1.00  0.00     0.074 A 
ATOM     48  C   UNL A   1      42.114  30.195  35.417  1.00  0.00     0.029 A 
ATOM     49  N   UNL A   1      41.925  29.400  33.349  1.00  0.00    -0.354 N 
ATOM     50  N   UNL A   1      42.688  27.718  31.060  1.00  0.00    -0.248 NA
ATOM     51  C   UNL A   1      44.166  26.216  30.050  1.00  0.00     0.031 C 
ATOM     52  C   UNL A   1      43.216  29.372  35.156  1.00  0.00     0.029 A 
ATOM     53  C   UNL A   1      43.080  28.846  33.880  1.00  0.00     0.049 A 
ATOM     54  H   UNL A   1      41.576  29.218  32.447  1.00  0.00     0.167 HD
ATOM     55  C   UNL A   1      43.722  27.429  31.947  1.00  0.00     0.074 A 
ATOM     56  C   UNL A   1      44.584  26.474  31.282  1.00  0.00     0.031 C 
ATOM     57  C   UNL A   1      43.936  27.901  33.202  1.00  0.00     0.034 A 
BRANCH  44  58
ATOM     58  C   UNL A   1      39.651  31.962  35.119  1.00  0.00     0.023 A 
ATOM     59  C   UNL A   1      40.144  33.273  35.240  1.00  0.00     0.031 A 
ATOM     60  C   UNL A   1      38.705  31.525  36.064  1.00  0.00     0.131 A 
ATOM     61  C   UNL A   1      39.746  34.074  36.320  1.00  0.00     0.055 A 
ATOM     62  C   UNL A   1      38.253  32.355  37.091  1.00  0.00     0.041 A 
ATOM     63  F   UNL A   1      38.216  30.276  36.014  1.00  0.00    -0.206 F 
ATOM     64  C   UNL A   1      38.784  33.633  37.232  1.00  0.00     0.022 A 
BRANCH  61  65
ATOM     65  S   UNL A   1      40.608  35.646  36.602  1.00  0.00     0.124 S 
ATOM     66  O   UNL A   1      40.742  35.652  38.057  1.00  0.00    -0.237 OA
ATOM     67  O   UNL A   1      41.842  35.467  35.847  1.00  0.00    -0.237 OA
ATOM     68  O   UNL A   1      39.685  36.645  36.065  1.00  0.00    -0.744 OA
ENDBRANCH  61  65
ENDBRANCH  44  58
BRANCH  45  69
ATOM     69  C   UNL A   1      42.597  26.052  27.581  1.00  0.00     0.023 A 
ATOM     70  C   UNL A   1      42.128  24.741  27.400  1.00  0.00     0.031 A 
ATOM     71  C   UNL A   1      43.579  26.529  26.693  1.00  0.00     0.131 A 
ATOM     72  C   UNL A   1      42.674  23.937  26.387  1.00  0.00     0.055 A 
ATOM     73  C   UNL A   1      44.081  25.743  25.655  1.00  0.00     0.041 A 
ATOM     74  F   UNL A   1      44.064  27.774  26.823  1.00  0.00    -0.206 F 
ATOM     75  C   UNL A   1      43.637  24.433  25.505  1.00  0.00     0.022 A 
BRANCH  72  76
ATOM     76  S   UNL A   1      42.169  22.198  26.291  1.00  0.00     0.124 S 
ATOM     77  O   UNL A   1      42.640  21.681  27.571  1.00  0.00    -0.237 OA
ATOM     78  O   UNL A   1      40.722  22.311  26.137  1.00  0.00    -0.237 OA
ATOM     79  O   UNL A   1      42.882  21.701  25.116  1.00  0.00    -0.744 OA
ENDBRANCH  72  76
ENDBRANCH  45  69
BRANCH  57  80
ATOM     80  C   UNL A   1      45.124  27.348  33.955  1.00  0.00     0.023 A 
ATOM     81  C   UNL A   1      45.038  26.173  34.720  1.00  0.00     0.031 A 
ATOM     82  C   UNL A   1      46.360  28.018  33.908  1.00  0.00     0.131 A 
ATOM     83  C   UNL A   1      46.152  25.732  35.452  1.00  0.00     0.055 A 
ATOM     84  C   UNL A   1      47.481  27.542  34.590  1.00  0.00     0.041 A 
ATOM     85  F   UNL A   1      46.500  29.146  33.194  1.00  0.00    -0.206 F 
ATOM     86  C   UNL A   1      47.377  26.400  35.378  1.00  0.00     0.022 A 
BRANCH  83  87
ATOM     87  S   UNL A   1      45.956  24.321  36.575  1.00  0.00     0.124 S 
ATOM     88  O   UNL A   1      46.661  24.781  37.768  1.00  0.00    -0.237 OA
ATOM     89  O   UNL A   1      44.505  24.215  36.693  1.00  0.00    -0.237 OA
ATOM     90  O   UNL A   1      46.601  23.220  35.861  1.00  0.00    -0.744 OA
ENDBRANCH  83  87
ENDBRANCH  57  80
ENDBRANCH  31  32
ENDBRANCH  24  26
ENDBRANCH  23  24
ENDBRANCH  22  23
ENDBRANCH   1  22
TORSDOF 19
ENDMDL
