MODEL 1
REMARK VINA RESULT:     -10.3      0.000      0.000
REMARK SMILES O=C(OCCOCCOC(=O)c1cc(/C=C/c2cc(O)cc(O)c2)ccc1O)c1ccc(-c2c3nc(c(-c4cc(S(=O)(=O)[O-])ccc4F)c4ccc([nH]4)c(-c4cc(S(=O)(=O)[O-])ccc4F)c4nc(c(-c5cc(S(=O)(=O)[O-])ccc5F)c5ccc2[nH]5)C=C4)C=C3)cc1
REMARK SMILES IDX 6 1 5 2 4 3 3 4 2 5 1 6 29 7 30 8 91 9 31 10 90 11 32 12
REMARK SMILES IDX 33 13 34 14 84 15 35 16 89 17 83 18 85 19 36 20 88 21 82 22
REMARK SMILES IDX 81 23 37 25 69 26 49 27 68 28 50 29 53 30 67 31 86 32 51 33
REMARK SMILES IDX 52 34 66 36 87 37 54 38 38 39 39 40 47 41 40 42 46 43 48 44
REMARK SMILES IDX 45 45 41 46 42 47 43 48 44 49 70 50 71 51 79 52 72 53 78 54
REMARK SMILES IDX 80 55 77 56 73 57 74 58 75 59 76 60 55 61 56 62 64 63 57 64
REMARK SMILES IDX 63 65 65 66 62 67 58 68 59 69 60 70 61 71 7 72 8 73 9 74
REMARK SMILES IDX 10 75 11 76 12 77 13 78 27 79 14 80 26 81 25 82 28 83 15 85
REMARK SMILES IDX 16 86 17 87 18 88 24 89 19 90 22 91 21 92 20 93 23 95
REMARK H PARENT 85 24 53 35 28 84 20 94 23 96
REMARK Flexibility Score: inf
ROOT
ATOM      1  O   UNL A   1      42.620  18.531  25.415  1.00  0.00    -0.374 OA
ENDROOT
BRANCH   1   2
ATOM      2  C   UNL A   1      41.951  19.281  26.427  1.00  0.00     0.202 C 
BRANCH   2   3
ATOM      3  C   UNL A   1      40.504  19.646  26.086  1.00  0.00     0.261 C 
BRANCH   3   4
ATOM      4  O   UNL A   1      40.076  20.767  26.880  1.00  0.00    -0.460 OA
BRANCH   4   5
ATOM      5  C   UNL A   1      39.474  21.906  26.465  1.00  0.00     0.338 C 
ATOM      6  O   UNL A   1      38.495  21.812  25.725  1.00  0.00    -0.246 OA
BRANCH   5   7
ATOM      7  C   UNL A   1      39.936  23.276  26.847  1.00  0.00     0.060 A 
ATOM      8  C   UNL A   1      39.437  24.463  26.308  1.00  0.00     0.016 A 
ATOM      9  C   UNL A   1      40.866  23.371  27.896  1.00  0.00     0.016 A 
ATOM     10  C   UNL A   1      39.878  25.703  26.742  1.00  0.00     0.010 A 
ATOM     11  C   UNL A   1      41.285  24.617  28.372  1.00  0.00     0.010 A 
ATOM     12  C   UNL A   1      40.795  25.788  27.782  1.00  0.00    -0.014 A 
BRANCH  12  13
ATOM     13  C   UNL A   1      41.278  27.127  28.162  1.00  0.00     0.031 A 
ATOM     14  C   UNL A   1      42.679  27.506  27.803  1.00  0.00     0.074 A 
ATOM     15  C   UNL A   1      40.415  28.011  28.693  1.00  0.00     0.049 A 
ATOM     16  N   UNL A   1      43.331  28.607  28.055  1.00  0.00    -0.248 NA
ATOM     17  C   UNL A   1      43.445  26.506  27.044  1.00  0.00     0.031 C 
ATOM     18  C   UNL A   1      38.996  27.746  28.953  1.00  0.00     0.029 A 
ATOM     19  N   UNL A   1      40.586  29.311  29.083  1.00  0.00    -0.354 N 
ATOM     20  C   UNL A   1      44.594  28.427  27.504  1.00  0.00     0.074 A 
ATOM     21  C   UNL A   1      44.618  27.105  26.918  1.00  0.00     0.031 C 
ATOM     22  C   UNL A   1      38.426  28.856  29.446  1.00  0.00     0.029 A 
ATOM     23  C   UNL A   1      39.449  29.882  29.606  1.00  0.00     0.049 A 
ATOM     24  H   UNL A   1      41.441  29.792  28.996  1.00  0.00     0.167 HD
ATOM     25  C   UNL A   1      45.635  29.294  27.504  1.00  0.00     0.034 A 
ATOM     26  C   UNL A   1      39.277  31.085  30.190  1.00  0.00     0.034 A 
ATOM     27  C   UNL A   1      45.566  30.591  28.130  1.00  0.00     0.049 A 
ATOM     28  C   UNL A   1      40.479  31.991  30.276  1.00  0.00     0.074 A 
ATOM     29  C   UNL A   1      46.560  31.539  28.283  1.00  0.00     0.029 A 
ATOM     30  N   UNL A   1      44.419  31.118  28.722  1.00  0.00    -0.354 N 
ATOM     31  N   UNL A   1      41.698  31.788  29.823  1.00  0.00    -0.248 NA
ATOM     32  C   UNL A   1      40.293  33.275  30.956  1.00  0.00     0.031 C 
ATOM     33  C   UNL A   1      46.034  32.606  29.022  1.00  0.00     0.029 A 
ATOM     34  C   UNL A   1      44.689  32.362  29.266  1.00  0.00     0.049 A 
ATOM     35  H   UNL A   1      43.544  30.671  28.750  1.00  0.00     0.167 HD
ATOM     36  C   UNL A   1      42.422  32.927  30.156  1.00  0.00     0.074 A 
ATOM     37  C   UNL A   1      41.494  33.821  30.824  1.00  0.00     0.031 C 
ATOM     38  C   UNL A   1      43.733  33.214  29.938  1.00  0.00     0.034 A 
BRANCH  25  39
ATOM     39  C   UNL A   1      46.930  28.795  26.912  1.00  0.00     0.023 A 
ATOM     40  C   UNL A   1      47.124  28.698  25.521  1.00  0.00     0.031 A 
ATOM     41  C   UNL A   1      47.938  28.290  27.752  1.00  0.00     0.131 A 
ATOM     42  C   UNL A   1      48.246  28.019  25.016  1.00  0.00     0.055 A 
ATOM     43  C   UNL A   1      49.094  27.695  27.241  1.00  0.00     0.041 A 
ATOM     44  F   UNL A   1      47.797  28.324  29.086  1.00  0.00    -0.206 F 
ATOM     45  C   UNL A   1      49.244  27.537  25.867  1.00  0.00     0.022 A 
BRANCH  42  46
ATOM     46  S   UNL A   1      48.290  27.608  23.249  1.00  0.00     0.124 S 
ATOM     47  O   UNL A   1      47.067  28.245  22.766  1.00  0.00    -0.237 OA
ATOM     48  O   UNL A   1      49.542  28.216  22.813  1.00  0.00    -0.237 OA
ATOM     49  O   UNL A   1      48.266  26.146  23.235  1.00  0.00    -0.744 OA
ENDBRANCH  42  46
ENDBRANCH  25  39
BRANCH  26  50
ATOM     50  C   UNL A   1      37.966  31.451  30.803  1.00  0.00     0.023 A 
ATOM     51  C   UNL A   1      36.973  32.132  30.079  1.00  0.00     0.031 A 
ATOM     52  C   UNL A   1      37.697  31.149  32.153  1.00  0.00     0.131 A 
ATOM     53  C   UNL A   1      35.778  32.512  30.715  1.00  0.00     0.055 A 
ATOM     54  C   UNL A   1      36.487  31.479  32.763  1.00  0.00     0.041 A 
ATOM     55  F   UNL A   1      38.612  30.508  32.900  1.00  0.00    -0.206 F 
ATOM     56  C   UNL A   1      35.522  32.176  32.046  1.00  0.00     0.022 A 
BRANCH  53  57
ATOM     57  S   UNL A   1      34.585  33.529  29.800  1.00  0.00     0.124 S 
ATOM     58  O   UNL A   1      35.465  34.423  29.056  1.00  0.00    -0.237 OA
ATOM     59  O   UNL A   1      33.872  32.529  29.014  1.00  0.00    -0.237 OA
ATOM     60  O   UNL A   1      33.799  34.165  30.856  1.00  0.00    -0.744 OA
ENDBRANCH  53  57
ENDBRANCH  26  50
BRANCH  38  61
ATOM     61  C   UNL A   1      44.210  34.562  30.410  1.00  0.00     0.023 A 
ATOM     62  C   UNL A   1      44.105  35.702  29.596  1.00  0.00     0.031 A 
ATOM     63  C   UNL A   1      44.776  34.702  31.687  1.00  0.00     0.131 A 
ATOM     64  C   UNL A   1      44.611  36.928  30.051  1.00  0.00     0.055 A 
ATOM     65  C   UNL A   1      45.224  35.936  32.157  1.00  0.00     0.041 A 
ATOM     66  F   UNL A   1      44.898  33.640  32.501  1.00  0.00    -0.206 F 
ATOM     67  C   UNL A   1      45.154  37.055  31.334  1.00  0.00     0.022 A 
BRANCH  64  68
ATOM     68  S   UNL A   1      44.626  38.339  28.912  1.00  0.00     0.124 S 
ATOM     69  O   UNL A   1      45.362  37.800  27.773  1.00  0.00    -0.237 OA
ATOM     70  O   UNL A   1      43.203  38.580  28.696  1.00  0.00    -0.237 OA
ATOM     71  O   UNL A   1      45.323  39.380  29.666  1.00  0.00    -0.744 OA
ENDBRANCH  64  68
ENDBRANCH  38  61
ENDBRANCH  12  13
ENDBRANCH   5   7
ENDBRANCH   4   5
ENDBRANCH   3   4
ENDBRANCH   2   3
ENDBRANCH   1   2
BRANCH   1  72
ATOM     72  C   UNL A   1      44.046  18.456  25.532  1.00  0.00     0.202 C 
BRANCH  72  73
ATOM     73  C   UNL A   1      44.677  19.459  24.568  1.00  0.00     0.261 C 
BRANCH  73  74
ATOM     74  O   UNL A   1      45.027  20.624  25.328  1.00  0.00    -0.460 OA
BRANCH  74  75
ATOM     75  C   UNL A   1      44.730  21.817  24.749  1.00  0.00     0.342 C 
ATOM     76  O   UNL A   1      43.856  22.049  23.931  1.00  0.00    -0.246 OA
BRANCH  75  77
ATOM     77  C   UNL A   1      45.465  22.869  25.482  1.00  0.00     0.102 A 
ATOM     78  C   UNL A   1      45.131  23.071  26.835  1.00  0.00     0.027 A 
ATOM     79  C   UNL A   1      46.523  23.576  24.906  1.00  0.00     0.130 A 
ATOM     80  C   UNL A   1      45.895  23.930  27.632  1.00  0.00    -0.025 A 
ATOM     81  C   UNL A   1      47.267  24.461  25.680  1.00  0.00     0.048 A 
ATOM     82  C   UNL A   1      46.957  24.628  27.032  1.00  0.00     0.012 A 
BRANCH  79  83
ATOM     83  O   UNL A   1      46.829  23.423  23.584  1.00  0.00    -0.507 OA
ATOM     84  H   UNL A   1      46.854  22.567  23.205  1.00  0.00     0.293 HD
ENDBRANCH  79  83
BRANCH  80  85
ATOM     85  C   UNL A   1      45.634  24.184  29.058  1.00  0.00     0.009 C 
ATOM     86  C   UNL A   1      44.506  23.920  29.740  1.00  0.00     0.009 C 
BRANCH  86  87
ATOM     87  C   UNL A   1      44.400  24.189  31.187  1.00  0.00    -0.018 A 
ATOM     88  C   UNL A   1      44.717  25.451  31.714  1.00  0.00     0.054 A 
ATOM     89  C   UNL A   1      43.971  23.178  32.060  1.00  0.00     0.054 A 
ATOM     90  C   UNL A   1      44.658  25.673  33.089  1.00  0.00     0.119 A 
ATOM     91  C   UNL A   1      43.915  23.424  33.434  1.00  0.00     0.119 A 
ATOM     92  C   UNL A   1      44.271  24.661  33.956  1.00  0.00     0.092 A 
BRANCH  90  93
ATOM     93  O   UNL A   1      44.980  26.887  33.622  1.00  0.00    -0.508 OA
ATOM     94  H   UNL A   1      44.920  27.023  34.548  1.00  0.00     0.293 HD
ENDBRANCH  90  93
BRANCH  91  95
ATOM     95  O   UNL A   1      43.520  22.460  34.316  1.00  0.00    -0.508 OA
ATOM     96  H   UNL A   1      43.964  22.365  35.135  1.00  0.00     0.293 HD
ENDBRANCH  91  95
ENDBRANCH  86  87
ENDBRANCH  80  85
ENDBRANCH  75  77
ENDBRANCH  74  75
ENDBRANCH  73  74
ENDBRANCH  72  73
ENDBRANCH   1  72
TORSDOF 22
ENDMDL
MODEL 2
REMARK VINA RESULT:      -9.7      3.956     12.156
REMARK SMILES O=C(OCCOCCOC(=O)c1cc(/C=C/c2cc(O)cc(O)c2)ccc1O)c1ccc(-c2c3nc(c(-c4cc(S(=O)(=O)[O-])ccc4F)c4ccc([nH]4)c(-c4cc(S(=O)(=O)[O-])ccc4F)c4nc(c(-c5cc(S(=O)(=O)[O-])ccc5F)c5ccc2[nH]5)C=C4)C=C3)cc1
REMARK SMILES IDX 6 1 5 2 4 3 3 4 2 5 1 6 29 7 30 8 91 9 31 10 90 11 32 12
REMARK SMILES IDX 33 13 34 14 84 15 35 16 89 17 83 18 85 19 36 20 88 21 82 22
REMARK SMILES IDX 81 23 37 25 69 26 49 27 68 28 50 29 53 30 67 31 86 32 51 33
REMARK SMILES IDX 52 34 66 36 87 37 54 38 38 39 39 40 47 41 40 42 46 43 48 44
REMARK SMILES IDX 45 45 41 46 42 47 43 48 44 49 70 50 71 51 79 52 72 53 78 54
REMARK SMILES IDX 80 55 77 56 73 57 74 58 75 59 76 60 55 61 56 62 64 63 57 64
REMARK SMILES IDX 63 65 65 66 62 67 58 68 59 69 60 70 61 71 7 72 8 73 9 74
REMARK SMILES IDX 10 75 11 76 12 77 13 78 27 79 14 80 26 81 25 82 28 83 15 85
REMARK SMILES IDX 16 86 17 87 18 88 24 89 19 90 22 91 21 92 20 93 23 95
REMARK H PARENT 85 24 53 35 28 84 20 94 23 96
REMARK Flexibility Score: inf
ROOT
ATOM      1  O   UNL A   1      33.935  35.103  29.718  1.00  0.00    -0.374 OA
ENDROOT
BRANCH   1   2
ATOM      2  C   UNL A   1      33.593  34.224  28.648  1.00  0.00     0.202 C 
BRANCH   2   3
ATOM      3  C   UNL A   1      34.567  33.058  28.456  1.00  0.00     0.261 C 
BRANCH   3   4
ATOM      4  O   UNL A   1      33.909  31.968  27.787  1.00  0.00    -0.460 OA
BRANCH   4   5
ATOM      5  C   UNL A   1      34.349  30.699  27.621  1.00  0.00     0.338 C 
ATOM      6  O   UNL A   1      33.598  29.887  27.081  1.00  0.00    -0.246 OA
BRANCH   5   7
ATOM      7  C   UNL A   1      35.694  30.222  28.066  1.00  0.00     0.060 A 
ATOM      8  C   UNL A   1      36.869  30.350  27.323  1.00  0.00     0.016 A 
ATOM      9  C   UNL A   1      35.794  29.701  29.367  1.00  0.00     0.016 A 
ATOM     10  C   UNL A   1      38.093  29.927  27.816  1.00  0.00     0.010 A 
ATOM     11  C   UNL A   1      37.031  29.311  29.891  1.00  0.00     0.010 A 
ATOM     12  C   UNL A   1      38.184  29.416  29.105  1.00  0.00    -0.014 A 
BRANCH  12  13
ATOM     13  C   UNL A   1      39.496  28.923  29.556  1.00  0.00     0.031 A 
ATOM     14  C   UNL A   1      40.160  29.616  30.703  1.00  0.00     0.074 A 
ATOM     15  C   UNL A   1      39.994  27.794  29.022  1.00  0.00     0.049 A 
ATOM     16  N   UNL A   1      41.319  29.385  31.253  1.00  0.00    -0.248 NA
ATOM     17  C   UNL A   1      39.403  30.716  31.319  1.00  0.00     0.031 C 
ATOM     18  C   UNL A   1      39.335  26.995  27.984  1.00  0.00     0.029 A 
ATOM     19  N   UNL A   1      41.146  27.106  29.288  1.00  0.00    -0.354 N 
ATOM     20  C   UNL A   1      41.444  30.323  32.271  1.00  0.00     0.074 A 
ATOM     21  C   UNL A   1      40.247  31.135  32.248  1.00  0.00     0.031 C 
ATOM     22  C   UNL A   1      40.088  25.918  27.715  1.00  0.00     0.029 A 
ATOM     23  C   UNL A   1      41.313  25.989  28.502  1.00  0.00     0.049 A 
ATOM     24  H   UNL A   1      41.792  27.382  29.978  1.00  0.00     0.167 HD
ATOM     25  C   UNL A   1      42.476  30.487  33.132  1.00  0.00     0.034 A 
ATOM     26  C   UNL A   1      42.363  25.150  28.405  1.00  0.00     0.034 A 
ATOM     27  C   UNL A   1      43.661  29.666  33.091  1.00  0.00     0.049 A 
ATOM     28  C   UNL A   1      43.549  25.418  29.298  1.00  0.00     0.074 A 
ATOM     29  C   UNL A   1      44.818  29.768  33.840  1.00  0.00     0.029 A 
ATOM     30  N   UNL A   1      43.838  28.585  32.230  1.00  0.00    -0.354 N 
ATOM     31  N   UNL A   1      43.697  26.357  30.209  1.00  0.00    -0.248 NA
ATOM     32  C   UNL A   1      44.705  24.531  29.149  1.00  0.00     0.031 C 
ATOM     33  C   UNL A   1      45.716  28.792  33.389  1.00  0.00     0.029 A 
ATOM     34  C   UNL A   1      45.094  28.030  32.409  1.00  0.00     0.049 A 
ATOM     35  H   UNL A   1      43.167  28.261  31.588  1.00  0.00     0.167 HD
ATOM     36  C   UNL A   1      44.964  26.165  30.748  1.00  0.00     0.074 A 
ATOM     37  C   UNL A   1      45.523  25.005  30.078  1.00  0.00     0.031 C 
ATOM     38  C   UNL A   1      45.615  26.879  31.705  1.00  0.00     0.034 A 
BRANCH  25  39
ATOM     39  C   UNL A   1      42.385  31.658  34.081  1.00  0.00     0.023 A 
ATOM     40  C   UNL A   1      41.714  31.566  35.315  1.00  0.00     0.031 A 
ATOM     41  C   UNL A   1      42.867  32.919  33.689  1.00  0.00     0.131 A 
ATOM     42  C   UNL A   1      41.455  32.729  36.059  1.00  0.00     0.055 A 
ATOM     43  C   UNL A   1      42.684  34.057  34.477  1.00  0.00     0.041 A 
ATOM     44  F   UNL A   1      43.488  33.076  32.509  1.00  0.00    -0.206 F 
ATOM     45  C   UNL A   1      41.955  33.970  35.660  1.00  0.00     0.022 A 
BRANCH  42  46
ATOM     46  S   UNL A   1      40.295  32.628  37.452  1.00  0.00     0.124 S 
ATOM     47  O   UNL A   1      41.157  32.125  38.520  1.00  0.00    -0.237 OA
ATOM     48  O   UNL A   1      39.846  34.008  37.591  1.00  0.00    -0.237 OA
ATOM     49  O   UNL A   1      39.281  31.684  36.988  1.00  0.00    -0.744 OA
ENDBRANCH  42  46
ENDBRANCH  25  39
BRANCH  26  50
ATOM     50  C   UNL A   1      42.375  24.062  27.383  1.00  0.00     0.023 A 
ATOM     51  C   UNL A   1      41.816  22.799  27.639  1.00  0.00     0.031 A 
ATOM     52  C   UNL A   1      42.984  24.264  26.128  1.00  0.00     0.131 A 
ATOM     53  C   UNL A   1      41.904  21.784  26.670  1.00  0.00     0.055 A 
ATOM     54  C   UNL A   1      43.020  23.270  25.149  1.00  0.00     0.041 A 
ATOM     55  F   UNL A   1      43.545  25.447  25.829  1.00  0.00    -0.206 F 
ATOM     56  C   UNL A   1      42.488  22.016  25.423  1.00  0.00     0.022 A 
BRANCH  53  57
ATOM     57  S   UNL A   1      41.318  20.118  27.091  1.00  0.00     0.124 S 
ATOM     58  O   UNL A   1      40.768  20.325  28.426  1.00  0.00    -0.237 OA
ATOM     59  O   UNL A   1      40.350  19.860  26.031  1.00  0.00    -0.237 OA
ATOM     60  O   UNL A   1      42.531  19.305  27.036  1.00  0.00    -0.744 OA
ENDBRANCH  53  57
ENDBRANCH  26  50
BRANCH  38  61
ATOM     61  C   UNL A   1      46.987  26.391  32.086  1.00  0.00     0.023 A 
ATOM     62  C   UNL A   1      47.173  25.461  33.122  1.00  0.00     0.031 A 
ATOM     63  C   UNL A   1      48.119  26.866  31.404  1.00  0.00     0.131 A 
ATOM     64  C   UNL A   1      48.472  25.073  33.482  1.00  0.00     0.055 A 
ATOM     65  C   UNL A   1      49.404  26.433  31.728  1.00  0.00     0.041 A 
ATOM     66  F   UNL A   1      47.991  27.757  30.406  1.00  0.00    -0.206 F 
ATOM     67  C   UNL A   1      49.587  25.540  32.779  1.00  0.00     0.022 A 
BRANCH  64  68
ATOM     68  S   UNL A   1      48.690  24.014  34.937  1.00  0.00     0.124 S 
ATOM     69  O   UNL A   1      49.537  24.841  35.790  1.00  0.00    -0.237 OA
ATOM     70  O   UNL A   1      47.318  23.823  35.394  1.00  0.00    -0.237 OA
ATOM     71  O   UNL A   1      49.335  22.818  34.396  1.00  0.00    -0.744 OA
ENDBRANCH  64  68
ENDBRANCH  38  61
ENDBRANCH  12  13
ENDBRANCH   5   7
ENDBRANCH   4   5
ENDBRANCH   3   4
ENDBRANCH   2   3
ENDBRANCH   1   2
BRANCH   1  72
ATOM     72  C   UNL A   1      32.844  35.813  30.316  1.00  0.00     0.202 C 
BRANCH  72  73
ATOM     73  C   UNL A   1      33.018  35.803  31.834  1.00  0.00     0.261 C 
BRANCH  73  74
ATOM     74  O   UNL A   1      34.372  35.416  32.109  1.00  0.00    -0.460 OA
BRANCH  74  75
ATOM     75  C   UNL A   1      34.528  34.223  32.739  1.00  0.00     0.342 C 
ATOM     76  O   UNL A   1      33.765  33.272  32.730  1.00  0.00    -0.246 OA
BRANCH  75  77
ATOM     77  C   UNL A   1      35.922  34.148  33.224  1.00  0.00     0.102 A 
ATOM     78  C   UNL A   1      36.949  34.303  32.272  1.00  0.00     0.027 A 
ATOM     79  C   UNL A   1      36.233  34.032  34.581  1.00  0.00     0.130 A 
ATOM     80  C   UNL A   1      38.283  34.409  32.681  1.00  0.00    -0.025 A 
ATOM     81  C   UNL A   1      37.559  34.100  34.995  1.00  0.00     0.048 A 
ATOM     82  C   UNL A   1      38.571  34.294  34.051  1.00  0.00     0.012 A 
BRANCH  79  83
ATOM     83  O   UNL A   1      35.251  33.836  35.509  1.00  0.00    -0.507 OA
ATOM     84  H   UNL A   1      34.552  34.454  35.588  1.00  0.00     0.293 HD
ENDBRANCH  79  83
BRANCH  80  85
ATOM     85  C   UNL A   1      39.416  34.595  31.760  1.00  0.00     0.009 C 
ATOM     86  C   UNL A   1      39.496  34.204  30.476  1.00  0.00     0.009 C 
BRANCH  86  87
ATOM     87  C   UNL A   1      40.686  34.499  29.655  1.00  0.00    -0.018 A 
ATOM     88  C   UNL A   1      41.898  33.822  29.865  1.00  0.00     0.054 A 
ATOM     89  C   UNL A   1      40.617  35.465  28.640  1.00  0.00     0.054 A 
ATOM     90  C   UNL A   1      43.025  34.147  29.112  1.00  0.00     0.119 A 
ATOM     91  C   UNL A   1      41.758  35.772  27.895  1.00  0.00     0.119 A 
ATOM     92  C   UNL A   1      42.966  35.130  28.135  1.00  0.00     0.092 A 
BRANCH  90  93
ATOM     93  O   UNL A   1      44.216  33.513  29.314  1.00  0.00    -0.508 OA
ATOM     94  H   UNL A   1      45.018  33.995  29.264  1.00  0.00     0.293 HD
ENDBRANCH  90  93
BRANCH  91  95
ATOM     95  O   UNL A   1      41.735  36.719  26.912  1.00  0.00    -0.508 OA
ATOM     96  H   UNL A   1      41.601  36.465  26.020  1.00  0.00     0.293 HD
ENDBRANCH  91  95
ENDBRANCH  86  87
ENDBRANCH  80  85
ENDBRANCH  75  77
ENDBRANCH  74  75
ENDBRANCH  73  74
ENDBRANCH  72  73
ENDBRANCH   1  72
TORSDOF 22
ENDMDL
MODEL 3
REMARK VINA RESULT:      -9.6      5.836     11.003
REMARK SMILES O=C(OCCOCCOC(=O)c1cc(/C=C/c2cc(O)cc(O)c2)ccc1O)c1ccc(-c2c3nc(c(-c4cc(S(=O)(=O)[O-])ccc4F)c4ccc([nH]4)c(-c4cc(S(=O)(=O)[O-])ccc4F)c4nc(c(-c5cc(S(=O)(=O)[O-])ccc5F)c5ccc2[nH]5)C=C4)C=C3)cc1
REMARK SMILES IDX 6 1 5 2 4 3 3 4 2 5 1 6 29 7 30 8 91 9 31 10 90 11 32 12
REMARK SMILES IDX 33 13 34 14 84 15 35 16 89 17 83 18 85 19 36 20 88 21 82 22
REMARK SMILES IDX 81 23 37 25 69 26 49 27 68 28 50 29 53 30 67 31 86 32 51 33
REMARK SMILES IDX 52 34 66 36 87 37 54 38 38 39 39 40 47 41 40 42 46 43 48 44
REMARK SMILES IDX 45 45 41 46 42 47 43 48 44 49 70 50 71 51 79 52 72 53 78 54
REMARK SMILES IDX 80 55 77 56 73 57 74 58 75 59 76 60 55 61 56 62 64 63 57 64
REMARK SMILES IDX 63 65 65 66 62 67 58 68 59 69 60 70 61 71 7 72 8 73 9 74
REMARK SMILES IDX 10 75 11 76 12 77 13 78 27 79 14 80 26 81 25 82 28 83 15 85
REMARK SMILES IDX 16 86 17 87 18 88 24 89 19 90 22 91 21 92 20 93 23 95
REMARK H PARENT 85 24 53 35 28 84 20 94 23 96
REMARK Flexibility Score: inf
ROOT
ATOM      1  O   UNL A   1      34.132  30.589  27.333  1.00  0.00    -0.374 OA
ENDROOT
BRANCH   1   2
ATOM      2  C   UNL A   1      32.827  31.166  27.339  1.00  0.00     0.202 C 
BRANCH   2   3
ATOM      3  C   UNL A   1      32.780  32.618  26.856  1.00  0.00     0.261 C 
BRANCH   3   4
ATOM      4  O   UNL A   1      32.465  33.495  27.952  1.00  0.00    -0.460 OA
BRANCH   4   5
ATOM      5  C   UNL A   1      33.308  34.265  28.678  1.00  0.00     0.338 C 
ATOM      6  O   UNL A   1      33.089  35.475  28.736  1.00  0.00    -0.246 OA
BRANCH   5   7
ATOM      7  C   UNL A   1      34.500  33.732  29.407  1.00  0.00     0.060 A 
ATOM      8  C   UNL A   1      35.825  34.040  29.096  1.00  0.00     0.016 A 
ATOM      9  C   UNL A   1      34.258  32.947  30.547  1.00  0.00     0.016 A 
ATOM     10  C   UNL A   1      36.883  33.547  29.844  1.00  0.00     0.010 A 
ATOM     11  C   UNL A   1      35.315  32.480  31.334  1.00  0.00     0.010 A 
ATOM     12  C   UNL A   1      36.635  32.774  30.972  1.00  0.00    -0.014 A 
BRANCH  12  13
ATOM     13  C   UNL A   1      37.795  32.223  31.694  1.00  0.00     0.031 A 
ATOM     14  C   UNL A   1      38.612  31.165  31.025  1.00  0.00     0.074 A 
ATOM     15  C   UNL A   1      38.165  32.776  32.863  1.00  0.00     0.049 A 
ATOM     16  N   UNL A   1      39.650  30.514  31.469  1.00  0.00    -0.248 NA
ATOM     17  C   UNL A   1      38.203  30.799  29.660  1.00  0.00     0.031 C 
ATOM     18  C   UNL A   1      37.483  33.900  33.512  1.00  0.00     0.029 A 
ATOM     19  N   UNL A   1      39.210  32.494  33.698  1.00  0.00    -0.354 N 
ATOM     20  C   UNL A   1      40.012  29.644  30.447  1.00  0.00     0.074 A 
ATOM     21  C   UNL A   1      39.069  29.843  29.367  1.00  0.00     0.031 C 
ATOM     22  C   UNL A   1      38.140  34.220  34.637  1.00  0.00     0.029 A 
ATOM     23  C   UNL A   1      39.239  33.280  34.827  1.00  0.00     0.049 A 
ATOM     24  H   UNL A   1      39.879  31.797  33.509  1.00  0.00     0.167 HD
ATOM     25  C   UNL A   1      41.035  28.757  30.429  1.00  0.00     0.034 A 
ATOM     26  C   UNL A   1      40.039  33.210  35.909  1.00  0.00     0.034 A 
ATOM     27  C   UNL A   1      41.928  28.579  31.547  1.00  0.00     0.049 A 
ATOM     28  C   UNL A   1      41.103  32.141  35.915  1.00  0.00     0.074 A 
ATOM     29  C   UNL A   1      42.952  27.665  31.707  1.00  0.00     0.029 A 
ATOM     30  N   UNL A   1      41.888  29.340  32.714  1.00  0.00    -0.354 N 
ATOM     31  N   UNL A   1      41.395  31.265  34.977  1.00  0.00    -0.248 NA
ATOM     32  C   UNL A   1      41.935  32.041  37.116  1.00  0.00     0.031 C 
ATOM     33  C   UNL A   1      43.487  27.830  32.991  1.00  0.00     0.029 A 
ATOM     34  C   UNL A   1      42.848  28.897  33.608  1.00  0.00     0.049 A 
ATOM     35  H   UNL A   1      41.267  30.084  32.880  1.00  0.00     0.167 HD
ATOM     36  C   UNL A   1      42.454  30.514  35.475  1.00  0.00     0.074 A 
ATOM     37  C   UNL A   1      42.763  31.061  36.783  1.00  0.00     0.031 C 
ATOM     38  C   UNL A   1      43.111  29.466  34.912  1.00  0.00     0.034 A 
BRANCH  25  39
ATOM     39  C   UNL A   1      41.136  27.866  29.215  1.00  0.00     0.023 A 
ATOM     40  C   UNL A   1      42.149  28.032  28.252  1.00  0.00     0.031 A 
ATOM     41  C   UNL A   1      40.130  26.919  28.954  1.00  0.00     0.131 A 
ATOM     42  C   UNL A   1      42.075  27.339  27.032  1.00  0.00     0.055 A 
ATOM     43  C   UNL A   1      40.112  26.168  27.777  1.00  0.00     0.041 A 
ATOM     44  F   UNL A   1      39.120  26.738  29.820  1.00  0.00    -0.206 F 
ATOM     45  C   UNL A   1      41.076  26.391  26.798  1.00  0.00     0.022 A 
BRANCH  42  46
ATOM     46  S   UNL A   1      43.188  27.831  25.685  1.00  0.00     0.124 S 
ATOM     47  O   UNL A   1      43.917  26.590  25.435  1.00  0.00    -0.237 OA
ATOM     48  O   UNL A   1      42.257  28.246  24.641  1.00  0.00    -0.237 OA
ATOM     49  O   UNL A   1      43.986  28.904  26.274  1.00  0.00    -0.744 OA
ENDBRANCH  42  46
ENDBRANCH  25  39
BRANCH  26  50
ATOM     50  C   UNL A   1      39.808  34.100  37.085  1.00  0.00     0.023 A 
ATOM     51  C   UNL A   1      39.179  33.638  38.253  1.00  0.00     0.031 A 
ATOM     52  C   UNL A   1      40.192  35.456  37.043  1.00  0.00     0.131 A 
ATOM     53  C   UNL A   1      38.926  34.527  39.312  1.00  0.00     0.055 A 
ATOM     54  C   UNL A   1      39.988  36.321  38.119  1.00  0.00     0.041 A 
ATOM     55  F   UNL A   1      40.788  35.959  35.950  1.00  0.00    -0.206 F 
ATOM     56  C   UNL A   1      39.340  35.860  39.259  1.00  0.00     0.022 A 
BRANCH  53  57
ATOM     57  S   UNL A   1      37.969  33.941  40.738  1.00  0.00     0.124 S 
ATOM     58  O   UNL A   1      36.866  33.240  40.089  1.00  0.00    -0.237 OA
ATOM     59  O   UNL A   1      38.941  33.105  41.433  1.00  0.00    -0.237 OA
ATOM     60  O   UNL A   1      37.600  35.173  41.432  1.00  0.00    -0.744 OA
ENDBRANCH  53  57
ENDBRANCH  26  50
BRANCH  38  61
ATOM     61  C   UNL A   1      44.243  28.878  35.714  1.00  0.00     0.023 A 
ATOM     62  C   UNL A   1      44.049  27.766  36.550  1.00  0.00     0.031 A 
ATOM     63  C   UNL A   1      45.527  29.441  35.638  1.00  0.00     0.131 A 
ATOM     64  C   UNL A   1      45.115  27.283  37.321  1.00  0.00     0.055 A 
ATOM     65  C   UNL A   1      46.598  28.920  36.363  1.00  0.00     0.041 A 
ATOM     66  F   UNL A   1      45.761  30.505  34.852  1.00  0.00    -0.206 F 
ATOM     67  C   UNL A   1      46.393  27.842  37.219  1.00  0.00     0.022 A 
BRANCH  64  68
ATOM     68  S   UNL A   1      44.791  25.965  38.523  1.00  0.00     0.124 S 
ATOM     69  O   UNL A   1      46.049  25.914  39.262  1.00  0.00    -0.237 OA
ATOM     70  O   UNL A   1      43.642  26.487  39.256  1.00  0.00    -0.237 OA
ATOM     71  O   UNL A   1      44.514  24.799  37.686  1.00  0.00    -0.744 OA
ENDBRANCH  64  68
ENDBRANCH  38  61
ENDBRANCH  12  13
ENDBRANCH   5   7
ENDBRANCH   4   5
ENDBRANCH   3   4
ENDBRANCH   2   3
ENDBRANCH   1   2
BRANCH   1  72
ATOM     72  C   UNL A   1      34.183  29.162  27.209  1.00  0.00     0.202 C 
BRANCH  72  73
ATOM     73  C   UNL A   1      32.761  28.625  27.059  1.00  0.00     0.261 C 
BRANCH  73  74
ATOM     74  O   UNL A   1      32.786  27.618  26.038  1.00  0.00    -0.460 OA
BRANCH  74  75
ATOM     75  C   UNL A   1      31.986  27.847  24.965  1.00  0.00     0.342 C 
ATOM     76  O   UNL A   1      31.262  28.808  24.768  1.00  0.00    -0.246 OA
BRANCH  75  77
ATOM     77  C   UNL A   1      32.340  26.862  23.921  1.00  0.00     0.102 A 
ATOM     78  C   UNL A   1      32.190  25.498  24.238  1.00  0.00     0.027 A 
ATOM     79  C   UNL A   1      32.711  27.247  22.630  1.00  0.00     0.130 A 
ATOM     80  C   UNL A   1      32.347  24.520  23.250  1.00  0.00    -0.025 A 
ATOM     81  C   UNL A   1      32.905  26.281  21.649  1.00  0.00     0.048 A 
ATOM     82  C   UNL A   1      32.717  24.931  21.959  1.00  0.00     0.012 A 
BRANCH  79  83
ATOM     83  O   UNL A   1      32.904  28.563  22.321  1.00  0.00    -0.507 OA
ATOM     84  H   UNL A   1      32.904  28.839  21.426  1.00  0.00     0.293 HD
ENDBRANCH  79  83
BRANCH  80  85
ATOM     85  C   UNL A   1      32.188  23.076  23.485  1.00  0.00     0.009 C 
ATOM     86  C   UNL A   1      33.158  22.146  23.537  1.00  0.00     0.009 C 
BRANCH  86  87
ATOM     87  C   UNL A   1      32.854  20.732  23.828  1.00  0.00    -0.018 A 
ATOM     88  C   UNL A   1      32.980  20.215  25.127  1.00  0.00     0.054 A 
ATOM     89  C   UNL A   1      32.423  19.881  22.799  1.00  0.00     0.054 A 
ATOM     90  C   UNL A   1      32.734  18.866  25.374  1.00  0.00     0.119 A 
ATOM     91  C   UNL A   1      32.178  18.533  23.070  1.00  0.00     0.119 A 
ATOM     92  C   UNL A   1      32.347  18.015  24.348  1.00  0.00     0.092 A 
BRANCH  90  93
ATOM     93  O   UNL A   1      32.870  18.341  26.626  1.00  0.00    -0.508 OA
ATOM     94  H   UNL A   1      32.502  18.787  27.363  1.00  0.00     0.293 HD
ENDBRANCH  90  93
BRANCH  91  95
ATOM     95  O   UNL A   1      31.776  17.670  22.092  1.00  0.00    -0.508 OA
ATOM     96  H   UNL A   1      30.887  17.681  21.795  1.00  0.00     0.293 HD
ENDBRANCH  91  95
ENDBRANCH  86  87
ENDBRANCH  80  85
ENDBRANCH  75  77
ENDBRANCH  74  75
ENDBRANCH  73  74
ENDBRANCH  72  73
ENDBRANCH   1  72
TORSDOF 22
ENDMDL
