MODEL 1
REMARK VINA RESULT:      -9.9      0.000      0.000
REMARK SMILES CC[C@@](C)(NS(=O)(=O)c1ccc(Cl)s1)C(=O)OCCOCCOC(=O)c1ccc(-c2c3nc(c(-c4cc(S(=O)(=O)[O-])ccc4F)c4ccc([nH]4)c(-c4cc(S(=O)(=O)[O-])ccc4F)c4nc(c(-c5cc(S(=O)(=O)[O-])ccc5F)c5ccc2[nH]5)C=C4)C=C3)cc1
REMARK SMILES IDX 20 1 19 2 18 3 17 4 15 5 16 6 3 7 4 8 2 9 1 10 5 11 6 13
REMARK SMILES IDX 7 14 8 15 9 16 10 17 14 18 11 19 12 20 13 21 21 22 22 23
REMARK SMILES IDX 23 24 24 25 25 26 26 27 27 28 88 29 28 30 87 31 29 32 30 33
REMARK SMILES IDX 31 34 81 35 32 36 86 37 80 38 82 39 33 40 85 41 79 42 78 43
REMARK SMILES IDX 34 45 66 46 46 47 65 48 47 49 50 50 64 51 83 52 48 53 49 54
REMARK SMILES IDX 63 56 84 57 51 58 35 59 36 60 44 61 37 62 43 63 45 64 42 65
REMARK SMILES IDX 38 66 39 67 40 68 41 69 67 70 68 71 76 72 69 73 75 74 77 75
REMARK SMILES IDX 74 76 70 77 71 78 72 79 73 80 52 81 53 82 61 83 54 84 60 85
REMARK SMILES IDX 62 86 59 87 55 88 56 89 57 90 58 91
REMARK H PARENT 5 12 82 44 50 55
REMARK Flexibility Score: inf
ROOT
ATOM      1  O   UNL A   1      31.801  29.105  24.479  1.00  0.00    -0.374 OA
ENDROOT
BRANCH   1   2
ATOM      2  C   UNL A   1      30.593  29.378  23.760  1.00  0.00     0.202 C 
BRANCH   2   3
ATOM      3  C   UNL A   1      30.600  28.721  22.375  1.00  0.00     0.261 C 
BRANCH   3   4
ATOM      4  O   UNL A   1      30.284  27.325  22.523  1.00  0.00    -0.462 OA
BRANCH   4   5
ATOM      5  C   UNL A   1      31.212  26.415  22.148  1.00  0.00     0.327 C 
ATOM      6  O   UNL A   1      31.643  26.315  21.005  1.00  0.00    -0.250 OA
BRANCH   5   7
ATOM      7  C   UNL A   1      31.653  25.516  23.329  1.00  0.00     0.127 C 
ATOM      8  C   UNL A   1      33.033  26.007  23.765  1.00  0.00     0.042 C 
BRANCH   7   9
ATOM      9  C   UNL A   1      30.609  25.655  24.482  1.00  0.00     0.032 C 
ATOM     10  C   UNL A   1      31.136  25.851  25.897  1.00  0.00     0.006 C 
ENDBRANCH   7   9
BRANCH   7  11
ATOM     11  N   UNL A   1      31.628  24.054  23.004  1.00  0.00    -0.193 NA
ATOM     12  H   UNL A   1      31.035  23.988  22.177  1.00  0.00     0.142 HD
BRANCH  11  13
ATOM     13  S   UNL A   1      32.906  23.032  22.681  1.00  0.00     0.251 S 
ATOM     14  O   UNL A   1      32.408  21.695  22.495  1.00  0.00    -0.206 OA
ATOM     15  O   UNL A   1      33.658  23.699  21.632  1.00  0.00    -0.206 OA
BRANCH  13  16
ATOM     16  C   UNL A   1      34.008  22.953  24.059  1.00  0.00     0.136 A 
ATOM     17  C   UNL A   1      33.830  22.752  25.417  1.00  0.00     0.035 A 
ATOM     18  S   UNL A   1      35.663  23.106  23.688  1.00  0.00    -0.110 S 
ATOM     19  C   UNL A   1      35.046  22.929  26.152  1.00  0.00     0.034 A 
ATOM     20  C   UNL A   1      36.083  23.233  25.310  1.00  0.00     0.094 A 
ATOM     21  Cl  UNL A   1      37.683  23.697  25.725  1.00  0.00    -0.072 Cl
ENDBRANCH  13  16
ENDBRANCH  11  13
ENDBRANCH   7  11
ENDBRANCH   5   7
ENDBRANCH   4   5
ENDBRANCH   3   4
ENDBRANCH   2   3
ENDBRANCH   1   2
BRANCH   1  22
ATOM     22  C   UNL A   1      31.992  29.887  25.663  1.00  0.00     0.202 C 
BRANCH  22  23
ATOM     23  C   UNL A   1      33.413  29.808  26.222  1.00  0.00     0.261 C 
BRANCH  23  24
ATOM     24  O   UNL A   1      33.480  30.430  27.522  1.00  0.00    -0.460 OA
BRANCH  24  25
ATOM     25  C   UNL A   1      34.430  31.384  27.683  1.00  0.00     0.338 C 
ATOM     26  O   UNL A   1      34.305  32.568  27.417  1.00  0.00    -0.246 OA
BRANCH  25  27
ATOM     27  C   UNL A   1      35.639  30.818  28.341  1.00  0.00     0.060 A 
ATOM     28  C   UNL A   1      36.886  31.284  27.909  1.00  0.00     0.016 A 
ATOM     29  C   UNL A   1      35.577  29.855  29.359  1.00  0.00     0.016 A 
ATOM     30  C   UNL A   1      38.063  30.793  28.481  1.00  0.00     0.010 A 
ATOM     31  C   UNL A   1      36.760  29.370  29.940  1.00  0.00     0.010 A 
ATOM     32  C   UNL A   1      38.011  29.823  29.492  1.00  0.00    -0.014 A 
BRANCH  32  33
ATOM     33  C   UNL A   1      39.276  29.193  29.955  1.00  0.00     0.031 A 
ATOM     34  C   UNL A   1      39.933  29.723  31.196  1.00  0.00     0.074 A 
ATOM     35  C   UNL A   1      39.808  28.127  29.330  1.00  0.00     0.049 A 
ATOM     36  N   UNL A   1      40.954  29.246  31.859  1.00  0.00    -0.248 NA
ATOM     37  C   UNL A   1      39.351  30.946  31.767  1.00  0.00     0.031 C 
ATOM     38  C   UNL A   1      39.261  27.504  28.132  1.00  0.00     0.029 A 
ATOM     39  N   UNL A   1      40.921  27.373  29.614  1.00  0.00    -0.354 N 
ATOM     40  C   UNL A   1      41.105  30.079  32.959  1.00  0.00     0.074 A 
ATOM     41  C   UNL A   1      40.120  31.133  32.829  1.00  0.00     0.031 C 
ATOM     42  C   UNL A   1      40.038  26.469  27.771  1.00  0.00     0.029 A 
ATOM     43  C   UNL A   1      41.150  26.360  28.712  1.00  0.00     0.049 A 
ATOM     44  H   UNL A   1      41.500  27.542  30.392  1.00  0.00     0.167 HD
ATOM     45  C   UNL A   1      41.966  29.961  34.000  1.00  0.00     0.034 A 
ATOM     46  C   UNL A   1      42.144  25.450  28.646  1.00  0.00     0.034 A 
ATOM     47  C   UNL A   1      42.991  28.952  34.090  1.00  0.00     0.049 A 
ATOM     48  C   UNL A   1      43.185  25.427  29.738  1.00  0.00     0.074 A 
ATOM     49  C   UNL A   1      43.921  28.752  35.094  1.00  0.00     0.029 A 
ATOM     50  N   UNL A   1      43.245  27.993  33.118  1.00  0.00    -0.354 N 
ATOM     51  N   UNL A   1      43.273  26.179  30.811  1.00  0.00    -0.248 NA
ATOM     52  C   UNL A   1      44.247  24.420  29.621  1.00  0.00     0.031 C 
ATOM     53  C   UNL A   1      44.778  27.718  34.698  1.00  0.00     0.029 A 
ATOM     54  C   UNL A   1      44.345  27.228  33.477  1.00  0.00     0.049 A 
ATOM     55  H   UNL A   1      42.721  27.875  32.292  1.00  0.00     0.167 HD
ATOM     56  C   UNL A   1      44.379  25.710  31.513  1.00  0.00     0.074 A 
ATOM     57  C   UNL A   1      44.923  24.609  30.745  1.00  0.00     0.031 C 
ATOM     58  C   UNL A   1      44.890  26.143  32.695  1.00  0.00     0.034 A 
BRANCH  45  59
ATOM     59  C   UNL A   1      41.836  30.990  35.091  1.00  0.00     0.023 A 
ATOM     60  C   UNL A   1      40.667  31.080  35.868  1.00  0.00     0.031 A 
ATOM     61  C   UNL A   1      42.848  31.940  35.305  1.00  0.00     0.131 A 
ATOM     62  C   UNL A   1      40.503  32.146  36.763  1.00  0.00     0.055 A 
ATOM     63  C   UNL A   1      42.710  32.956  36.251  1.00  0.00     0.041 A 
ATOM     64  F   UNL A   1      43.974  31.914  34.574  1.00  0.00    -0.206 F 
ATOM     65  C   UNL A   1      41.526  33.074  36.975  1.00  0.00     0.022 A 
BRANCH  62  66
ATOM     66  S   UNL A   1      38.878  32.391  37.530  1.00  0.00     0.124 S 
ATOM     67  O   UNL A   1      39.238  32.587  38.932  1.00  0.00    -0.237 OA
ATOM     68  O   UNL A   1      38.371  33.565  36.829  1.00  0.00    -0.237 OA
ATOM     69  O   UNL A   1      38.174  31.142  37.246  1.00  0.00    -0.744 OA
ENDBRANCH  62  66
ENDBRANCH  45  59
BRANCH  46  70
ATOM     70  C   UNL A   1      42.233  24.504  27.498  1.00  0.00     0.023 A 
ATOM     71  C   UNL A   1      41.538  23.284  27.498  1.00  0.00     0.031 A 
ATOM     72  C   UNL A   1      43.079  24.783  26.409  1.00  0.00     0.131 A 
ATOM     73  C   UNL A   1      41.737  22.367  26.452  1.00  0.00     0.055 A 
ATOM     74  C   UNL A   1      43.241  23.886  25.352  1.00  0.00     0.041 A 
ATOM     75  F   UNL A   1      43.761  25.937  26.358  1.00  0.00    -0.206 F 
ATOM     76  C   UNL A   1      42.578  22.664  25.376  1.00  0.00     0.022 A 
BRANCH  73  77
ATOM     77  S   UNL A   1      40.938  20.742  26.555  1.00  0.00     0.124 S 
ATOM     78  O   UNL A   1      40.829  20.553  27.996  1.00  0.00    -0.237 OA
ATOM     79  O   UNL A   1      39.688  20.975  25.839  1.00  0.00    -0.237 OA
ATOM     80  O   UNL A   1      41.882  19.855  25.878  1.00  0.00    -0.744 OA
ENDBRANCH  73  77
ENDBRANCH  46  70
BRANCH  58  81
ATOM     81  C   UNL A   1      46.077  25.391  33.242  1.00  0.00     0.023 A 
ATOM     82  C   UNL A   1      45.924  24.247  34.043  1.00  0.00     0.031 A 
ATOM     83  C   UNL A   1      47.382  25.836  32.963  1.00  0.00     0.131 A 
ATOM     84  C   UNL A   1      47.056  23.612  34.577  1.00  0.00     0.055 A 
ATOM     85  C   UNL A   1      48.506  25.170  33.454  1.00  0.00     0.041 A 
ATOM     86  F   UNL A   1      47.586  26.926  32.206  1.00  0.00    -0.206 F 
ATOM     87  C   UNL A   1      48.346  24.057  34.275  1.00  0.00     0.022 A 
BRANCH  84  88
ATOM     88  S   UNL A   1      46.820  22.233  35.733  1.00  0.00     0.124 S 
ATOM     89  O   UNL A   1      48.049  21.468  35.548  1.00  0.00    -0.237 OA
ATOM     90  O   UNL A   1      46.684  22.919  37.015  1.00  0.00    -0.237 OA
ATOM     91  O   UNL A   1      45.604  21.582  35.249  1.00  0.00    -0.744 OA
ENDBRANCH  84  88
ENDBRANCH  58  81
ENDBRANCH  32  33
ENDBRANCH  25  27
ENDBRANCH  24  25
ENDBRANCH  23  24
ENDBRANCH  22  23
ENDBRANCH   1  22
TORSDOF 21
ENDMDL
MODEL 2
REMARK VINA RESULT:      -9.7      1.968      2.369
REMARK SMILES CC[C@@](C)(NS(=O)(=O)c1ccc(Cl)s1)C(=O)OCCOCCOC(=O)c1ccc(-c2c3nc(c(-c4cc(S(=O)(=O)[O-])ccc4F)c4ccc([nH]4)c(-c4cc(S(=O)(=O)[O-])ccc4F)c4nc(c(-c5cc(S(=O)(=O)[O-])ccc5F)c5ccc2[nH]5)C=C4)C=C3)cc1
REMARK SMILES IDX 20 1 19 2 18 3 17 4 15 5 16 6 3 7 4 8 2 9 1 10 5 11 6 13
REMARK SMILES IDX 7 14 8 15 9 16 10 17 14 18 11 19 12 20 13 21 21 22 22 23
REMARK SMILES IDX 23 24 24 25 25 26 26 27 27 28 88 29 28 30 87 31 29 32 30 33
REMARK SMILES IDX 31 34 81 35 32 36 86 37 80 38 82 39 33 40 85 41 79 42 78 43
REMARK SMILES IDX 34 45 66 46 46 47 65 48 47 49 50 50 64 51 83 52 48 53 49 54
REMARK SMILES IDX 63 56 84 57 51 58 35 59 36 60 44 61 37 62 43 63 45 64 42 65
REMARK SMILES IDX 38 66 39 67 40 68 41 69 67 70 68 71 76 72 69 73 75 74 77 75
REMARK SMILES IDX 74 76 70 77 71 78 72 79 73 80 52 81 53 82 61 83 54 84 60 85
REMARK SMILES IDX 62 86 59 87 55 88 56 89 57 90 58 91
REMARK H PARENT 5 12 82 44 50 55
REMARK Flexibility Score: inf
ROOT
ATOM      1  O   UNL A   1      31.001  29.700  24.770  1.00  0.00    -0.374 OA
ENDROOT
BRANCH   1   2
ATOM      2  C   UNL A   1      31.192  28.865  23.622  1.00  0.00     0.202 C 
BRANCH   2   3
ATOM      3  C   UNL A   1      32.323  27.854  23.841  1.00  0.00     0.261 C 
BRANCH   3   4
ATOM      4  O   UNL A   1      31.767  26.648  24.396  1.00  0.00    -0.462 OA
BRANCH   4   5
ATOM      5  C   UNL A   1      32.001  25.481  23.755  1.00  0.00     0.327 C 
ATOM      6  O   UNL A   1      31.765  25.299  22.566  1.00  0.00    -0.250 OA
BRANCH   5   7
ATOM      7  C   UNL A   1      32.591  24.407  24.702  1.00  0.00     0.127 C 
ATOM      8  C   UNL A   1      34.093  24.676  24.792  1.00  0.00     0.042 C 
BRANCH   7   9
ATOM      9  C   UNL A   1      31.905  24.539  26.098  1.00  0.00     0.032 C 
ATOM     10  C   UNL A   1      30.394  24.731  26.132  1.00  0.00     0.006 C 
ENDBRANCH   7   9
BRANCH   7  11
ATOM     11  N   UNL A   1      32.271  23.005  24.282  1.00  0.00    -0.193 NA
ATOM     12  H   UNL A   1      32.878  22.836  23.480  1.00  0.00     0.142 HD
BRANCH  11  13
ATOM     13  S   UNL A   1      32.361  21.599  25.174  1.00  0.00     0.251 S 
ATOM     14  O   UNL A   1      33.518  21.652  26.028  1.00  0.00    -0.206 OA
ATOM     15  O   UNL A   1      31.030  21.429  25.733  1.00  0.00    -0.206 OA
BRANCH  13  16
ATOM     16  C   UNL A   1      32.599  20.202  24.119  1.00  0.00     0.136 A 
ATOM     17  C   UNL A   1      32.155  19.874  22.850  1.00  0.00     0.035 A 
ATOM     18  S   UNL A   1      33.628  18.988  24.727  1.00  0.00    -0.110 S 
ATOM     19  C   UNL A   1      32.508  18.535  22.485  1.00  0.00     0.034 A 
ATOM     20  C   UNL A   1      33.220  17.930  23.487  1.00  0.00     0.094 A 
ATOM     21  Cl  UNL A   1      33.716  16.290  23.591  1.00  0.00    -0.072 Cl
ENDBRANCH  13  16
ENDBRANCH  11  13
ENDBRANCH   7  11
ENDBRANCH   5   7
ENDBRANCH   4   5
ENDBRANCH   3   4
ENDBRANCH   2   3
ENDBRANCH   1   2
BRANCH   1  22
ATOM     22  C   UNL A   1      32.200  30.057  25.465  1.00  0.00     0.202 C 
BRANCH  22  23
ATOM     23  C   UNL A   1      31.992  31.148  26.517  1.00  0.00     0.261 C 
BRANCH  23  24
ATOM     24  O   UNL A   1      32.927  30.987  27.604  1.00  0.00    -0.460 OA
BRANCH  24  25
ATOM     25  C   UNL A   1      33.756  32.034  27.841  1.00  0.00     0.338 C 
ATOM     26  O   UNL A   1      33.444  33.212  27.812  1.00  0.00    -0.246 OA
BRANCH  25  27
ATOM     27  C   UNL A   1      35.101  31.555  28.260  1.00  0.00     0.060 A 
ATOM     28  C   UNL A   1      35.235  30.197  28.571  1.00  0.00     0.016 A 
ATOM     29  C   UNL A   1      36.219  32.397  28.353  1.00  0.00     0.016 A 
ATOM     30  C   UNL A   1      36.469  29.681  28.975  1.00  0.00     0.010 A 
ATOM     31  C   UNL A   1      37.461  31.875  28.750  1.00  0.00     0.010 A 
ATOM     32  C   UNL A   1      37.589  30.516  29.080  1.00  0.00    -0.014 A 
BRANCH  32  33
ATOM     33  C   UNL A   1      38.839  29.978  29.680  1.00  0.00     0.031 A 
ATOM     34  C   UNL A   1      39.287  30.509  31.011  1.00  0.00     0.074 A 
ATOM     35  C   UNL A   1      39.540  28.990  29.095  1.00  0.00     0.049 A 
ATOM     36  N   UNL A   1      40.257  30.095  31.782  1.00  0.00    -0.248 NA
ATOM     37  C   UNL A   1      38.530  31.652  31.542  1.00  0.00     0.031 C 
ATOM     38  C   UNL A   1      39.204  28.373  27.818  1.00  0.00     0.029 A 
ATOM     39  N   UNL A   1      40.673  28.324  29.493  1.00  0.00    -0.354 N 
ATOM     40  C   UNL A   1      40.195  30.890  32.918  1.00  0.00     0.074 A 
ATOM     41  C   UNL A   1      39.141  31.859  32.697  1.00  0.00     0.031 C 
ATOM     42  C   UNL A   1      40.110  27.426  27.526  1.00  0.00     0.029 A 
ATOM     43  C   UNL A   1      41.103  27.374  28.596  1.00  0.00     0.049 A 
ATOM     44  H   UNL A   1      41.133  28.509  30.343  1.00  0.00     0.167 HD
ATOM     45  C   UNL A   1      40.927  30.802  34.056  1.00  0.00     0.034 A 
ATOM     46  C   UNL A   1      42.176  26.557  28.628  1.00  0.00     0.034 A 
ATOM     47  C   UNL A   1      42.021  29.883  34.243  1.00  0.00     0.049 A 
ATOM     48  C   UNL A   1      43.072  26.577  29.842  1.00  0.00     0.074 A 
ATOM     49  C   UNL A   1      42.834  29.721  35.350  1.00  0.00     0.029 A 
ATOM     50  N   UNL A   1      42.480  28.992  33.281  1.00  0.00    -0.354 N 
ATOM     51  N   UNL A   1      42.958  27.287  30.940  1.00  0.00    -0.248 NA
ATOM     52  C   UNL A   1      44.227  25.671  29.829  1.00  0.00     0.031 C 
ATOM     53  C   UNL A   1      43.825  28.784  35.034  1.00  0.00     0.029 A 
ATOM     54  C   UNL A   1      43.592  28.311  33.752  1.00  0.00     0.049 A 
ATOM     55  H   UNL A   1      42.075  28.864  32.393  1.00  0.00     0.167 HD
ATOM     56  C   UNL A   1      44.007  26.887  31.762  1.00  0.00     0.074 A 
ATOM     57  C   UNL A   1      44.740  25.871  31.034  1.00  0.00     0.031 C 
ATOM     58  C   UNL A   1      44.326  27.311  33.012  1.00  0.00     0.034 A 
BRANCH  45  59
ATOM     59  C   UNL A   1      40.571  31.769  35.153  1.00  0.00     0.023 A 
ATOM     60  C   UNL A   1      39.542  31.479  36.068  1.00  0.00     0.031 A 
ATOM     61  C   UNL A   1      41.202  33.020  35.239  1.00  0.00     0.131 A 
ATOM     62  C   UNL A   1      39.119  32.461  36.976  1.00  0.00     0.055 A 
ATOM     63  C   UNL A   1      40.825  33.966  36.194  1.00  0.00     0.041 A 
ATOM     64  F   UNL A   1      42.172  33.357  34.375  1.00  0.00    -0.206 F 
ATOM     65  C   UNL A   1      39.767  33.695  37.059  1.00  0.00     0.022 A 
BRANCH  62  66
ATOM     66  S   UNL A   1      37.611  32.157  37.937  1.00  0.00     0.124 S 
ATOM     67  O   UNL A   1      36.652  33.033  37.271  1.00  0.00    -0.237 OA
ATOM     68  O   UNL A   1      37.403  30.725  37.756  1.00  0.00    -0.237 OA
ATOM     69  O   UNL A   1      37.981  32.567  39.292  1.00  0.00    -0.744 OA
ENDBRANCH  62  66
ENDBRANCH  45  59
BRANCH  46  70
ATOM     70  C   UNL A   1      42.492  25.672  27.471  1.00  0.00     0.023 A 
ATOM     71  C   UNL A   1      42.019  24.351  27.408  1.00  0.00     0.031 A 
ATOM     72  C   UNL A   1      43.337  26.122  26.440  1.00  0.00     0.131 A 
ATOM     73  C   UNL A   1      42.432  23.511  26.360  1.00  0.00     0.055 A 
ATOM     74  C   UNL A   1      43.712  25.295  25.380  1.00  0.00     0.041 A 
ATOM     75  F   UNL A   1      43.812  27.377  26.451  1.00  0.00    -0.206 F 
ATOM     76  C   UNL A   1      43.270  23.977  25.343  1.00  0.00     0.022 A 
BRANCH  73  77
ATOM     77  S   UNL A   1      41.922  21.771  26.386  1.00  0.00     0.124 S 
ATOM     78  O   UNL A   1      42.723  21.208  25.307  1.00  0.00    -0.237 OA
ATOM     79  O   UNL A   1      42.291  21.369  27.739  1.00  0.00    -0.237 OA
ATOM     80  O   UNL A   1      40.485  21.834  26.129  1.00  0.00    -0.744 OA
ENDBRANCH  73  77
ENDBRANCH  46  70
BRANCH  58  81
ATOM     81  C   UNL A   1      45.501  26.642  33.681  1.00  0.00     0.023 A 
ATOM     82  C   UNL A   1      45.347  25.483  34.460  1.00  0.00     0.031 A 
ATOM     83  C   UNL A   1      46.792  27.183  33.544  1.00  0.00     0.131 A 
ATOM     84  C   UNL A   1      46.459  24.926  35.110  1.00  0.00     0.055 A 
ATOM     85  C   UNL A   1      47.903  26.595  34.150  1.00  0.00     0.041 A 
ATOM     86  F   UNL A   1      46.995  28.291  32.814  1.00  0.00    -0.206 F 
ATOM     87  C   UNL A   1      47.739  25.466  34.948  1.00  0.00     0.022 A 
BRANCH  84  88
ATOM     88  S   UNL A   1      46.203  23.524  36.233  1.00  0.00     0.124 S 
ATOM     89  O   UNL A   1      46.721  24.046  37.494  1.00  0.00    -0.237 OA
ATOM     90  O   UNL A   1      44.758  23.331  36.169  1.00  0.00    -0.237 OA
ATOM     91  O   UNL A   1      46.997  22.453  35.633  1.00  0.00    -0.744 OA
ENDBRANCH  84  88
ENDBRANCH  58  81
ENDBRANCH  32  33
ENDBRANCH  25  27
ENDBRANCH  24  25
ENDBRANCH  23  24
ENDBRANCH  22  23
ENDBRANCH   1  22
TORSDOF 21
ENDMDL
MODEL 3
REMARK VINA RESULT:      -9.5      5.501     10.093
REMARK SMILES CC[C@@](C)(NS(=O)(=O)c1ccc(Cl)s1)C(=O)OCCOCCOC(=O)c1ccc(-c2c3nc(c(-c4cc(S(=O)(=O)[O-])ccc4F)c4ccc([nH]4)c(-c4cc(S(=O)(=O)[O-])ccc4F)c4nc(c(-c5cc(S(=O)(=O)[O-])ccc5F)c5ccc2[nH]5)C=C4)C=C3)cc1
REMARK SMILES IDX 20 1 19 2 18 3 17 4 15 5 16 6 3 7 4 8 2 9 1 10 5 11 6 13
REMARK SMILES IDX 7 14 8 15 9 16 10 17 14 18 11 19 12 20 13 21 21 22 22 23
REMARK SMILES IDX 23 24 24 25 25 26 26 27 27 28 88 29 28 30 87 31 29 32 30 33
REMARK SMILES IDX 31 34 81 35 32 36 86 37 80 38 82 39 33 40 85 41 79 42 78 43
REMARK SMILES IDX 34 45 66 46 46 47 65 48 47 49 50 50 64 51 83 52 48 53 49 54
REMARK SMILES IDX 63 56 84 57 51 58 35 59 36 60 44 61 37 62 43 63 45 64 42 65
REMARK SMILES IDX 38 66 39 67 40 68 41 69 67 70 68 71 76 72 69 73 75 74 77 75
REMARK SMILES IDX 74 76 70 77 71 78 72 79 73 80 52 81 53 82 61 83 54 84 60 85
REMARK SMILES IDX 62 86 59 87 55 88 56 89 57 90 58 91
REMARK H PARENT 5 12 82 44 50 55
REMARK Flexibility Score: inf
ROOT
ATOM      1  O   UNL A   1      38.246  21.269  25.764  1.00  0.00    -0.374 OA
ENDROOT
BRANCH   1   2
ATOM      2  C   UNL A   1      36.970  21.919  25.771  1.00  0.00     0.202 C 
BRANCH   2   3
ATOM      3  C   UNL A   1      37.080  23.384  25.334  1.00  0.00     0.261 C 
BRANCH   3   4
ATOM      4  O   UNL A   1      35.814  23.803  24.795  1.00  0.00    -0.462 OA
BRANCH   4   5
ATOM      5  C   UNL A   1      35.409  23.268  23.621  1.00  0.00     0.327 C 
ATOM      6  O   UNL A   1      36.135  23.147  22.642  1.00  0.00    -0.250 OA
BRANCH   5   7
ATOM      7  C   UNL A   1      33.921  22.837  23.662  1.00  0.00     0.127 C 
ATOM      8  C   UNL A   1      33.276  23.594  24.822  1.00  0.00     0.042 C 
BRANCH   7   9
ATOM      9  C   UNL A   1      33.255  23.207  22.300  1.00  0.00     0.032 C 
ATOM     10  C   UNL A   1      32.580  24.567  22.185  1.00  0.00     0.006 C 
ENDBRANCH   7   9
BRANCH   7  11
ATOM     11  N   UNL A   1      33.736  21.354  23.756  1.00  0.00    -0.193 NA
ATOM     12  H   UNL A   1      34.667  20.970  23.594  1.00  0.00     0.142 HD
BRANCH  11  13
ATOM     13  S   UNL A   1      33.131  20.453  25.023  1.00  0.00     0.251 S 
ATOM     14  O   UNL A   1      33.839  20.795  26.228  1.00  0.00    -0.206 OA
ATOM     15  O   UNL A   1      31.689  20.612  24.935  1.00  0.00    -0.206 OA
BRANCH  13  16
ATOM     16  C   UNL A   1      33.421  18.731  24.761  1.00  0.00     0.136 A 
ATOM     17  C   UNL A   1      34.178  18.015  23.849  1.00  0.00     0.035 A 
ATOM     18  S   UNL A   1      32.667  17.680  25.870  1.00  0.00    -0.110 S 
ATOM     19  C   UNL A   1      33.960  16.604  23.958  1.00  0.00     0.034 A 
ATOM     20  C   UNL A   1      33.068  16.325  24.960  1.00  0.00     0.094 A 
ATOM     21  Cl  UNL A   1      32.366  14.812  25.361  1.00  0.00    -0.072 Cl
ENDBRANCH  13  16
ENDBRANCH  11  13
ENDBRANCH   7  11
ENDBRANCH   5   7
ENDBRANCH   4   5
ENDBRANCH   3   4
ENDBRANCH   2   3
ENDBRANCH   1   2
BRANCH   1  22
ATOM     22  C   UNL A   1      38.293  20.033  25.042  1.00  0.00     0.202 C 
BRANCH  22  23
ATOM     23  C   UNL A   1      39.463  19.136  25.447  1.00  0.00     0.261 C 
BRANCH  23  24
ATOM     24  O   UNL A   1      40.283  19.789  26.438  1.00  0.00    -0.460 OA
BRANCH  24  25
ATOM     25  C   UNL A   1      41.616  19.816  26.190  1.00  0.00     0.338 C 
ATOM     26  O   UNL A   1      42.277  18.896  25.738  1.00  0.00    -0.246 OA
BRANCH  25  27
ATOM     27  C   UNL A   1      42.170  21.174  26.439  1.00  0.00     0.060 A 
ATOM     28  C   UNL A   1      42.348  21.564  27.772  1.00  0.00     0.016 A 
ATOM     29  C   UNL A   1      42.517  22.061  25.410  1.00  0.00     0.016 A 
ATOM     30  C   UNL A   1      42.861  22.827  28.078  1.00  0.00     0.010 A 
ATOM     31  C   UNL A   1      43.042  23.326  25.718  1.00  0.00     0.010 A 
ATOM     32  C   UNL A   1      43.200  23.724  27.057  1.00  0.00    -0.014 A 
BRANCH  32  33
ATOM     33  C   UNL A   1      43.574  25.119  27.412  1.00  0.00     0.031 A 
ATOM     34  C   UNL A   1      44.992  25.562  27.198  1.00  0.00     0.074 A 
ATOM     35  C   UNL A   1      42.666  26.006  27.858  1.00  0.00     0.049 A 
ATOM     36  N   UNL A   1      45.510  26.757  27.304  1.00  0.00    -0.248 NA
ATOM     37  C   UNL A   1      45.947  24.515  26.804  1.00  0.00     0.031 C 
ATOM     38  C   UNL A   1      41.257  25.712  28.089  1.00  0.00     0.029 A 
ATOM     39  N   UNL A   1      42.784  27.333  28.191  1.00  0.00    -0.354 N 
ATOM     40  C   UNL A   1      46.840  26.621  26.934  1.00  0.00     0.074 A 
ATOM     41  C   UNL A   1      47.065  25.213  26.678  1.00  0.00     0.031 C 
ATOM     42  C   UNL A   1      40.637  26.817  28.535  1.00  0.00     0.029 A 
ATOM     43  C   UNL A   1      41.611  27.901  28.632  1.00  0.00     0.049 A 
ATOM     44  H   UNL A   1      43.629  27.831  28.120  1.00  0.00     0.167 HD
ATOM     45  C   UNL A   1      47.784  27.584  26.790  1.00  0.00     0.034 A 
ATOM     46  C   UNL A   1      41.349  29.150  29.068  1.00  0.00     0.034 A 
ATOM     47  C   UNL A   1      47.575  28.973  27.114  1.00  0.00     0.049 A 
ATOM     48  C   UNL A   1      42.454  30.178  29.042  1.00  0.00     0.074 A 
ATOM     49  C   UNL A   1      48.466  30.026  27.016  1.00  0.00     0.029 A 
ATOM     50  N   UNL A   1      46.399  29.496  27.635  1.00  0.00    -0.354 N 
ATOM     51  N   UNL A   1      43.691  30.049  28.623  1.00  0.00    -0.248 NA
ATOM     52  C   UNL A   1      42.120  31.523  29.529  1.00  0.00     0.031 C 
ATOM     53  C   UNL A   1      47.853  31.170  27.541  1.00  0.00     0.029 A 
ATOM     54  C   UNL A   1      46.556  30.848  27.906  1.00  0.00     0.049 A 
ATOM     55  H   UNL A   1      45.574  28.982  27.790  1.00  0.00     0.167 HD
ATOM     56  C   UNL A   1      44.272  31.306  28.762  1.00  0.00     0.074 A 
ATOM     57  C   UNL A   1      43.248  32.179  29.301  1.00  0.00     0.031 C 
ATOM     58  C   UNL A   1      45.534  31.706  28.459  1.00  0.00     0.034 A 
BRANCH  45  59
ATOM     59  C   UNL A   1      49.131  27.128  26.297  1.00  0.00     0.023 A 
ATOM     60  C   UNL A   1      50.186  26.882  27.194  1.00  0.00     0.031 A 
ATOM     61  C   UNL A   1      49.390  27.018  24.921  1.00  0.00     0.131 A 
ATOM     62  C   UNL A   1      51.473  26.619  26.703  1.00  0.00     0.055 A 
ATOM     63  C   UNL A   1      50.657  26.683  24.440  1.00  0.00     0.041 A 
ATOM     64  F   UNL A   1      48.426  27.267  24.021  1.00  0.00    -0.206 F 
ATOM     65  C   UNL A   1      51.711  26.497  25.331  1.00  0.00     0.022 A 
BRANCH  62  66
ATOM     66  S   UNL A   1      52.857  26.591  27.874  1.00  0.00     0.124 S 
ATOM     67  O   UNL A   1      53.368  27.954  27.761  1.00  0.00    -0.237 OA
ATOM     68  O   UNL A   1      52.200  26.256  29.133  1.00  0.00    -0.237 OA
ATOM     69  O   UNL A   1      53.740  25.557  27.337  1.00  0.00    -0.744 OA
ENDBRANCH  62  66
ENDBRANCH  45  59
BRANCH  46  70
ATOM     70  C   UNL A   1      40.001  29.503  29.598  1.00  0.00     0.023 A 
ATOM     71  C   UNL A   1      39.739  29.524  30.977  1.00  0.00     0.031 A 
ATOM     72  C   UNL A   1      38.934  29.757  28.718  1.00  0.00     0.131 A 
ATOM     73  C   UNL A   1      38.430  29.747  31.436  1.00  0.00     0.055 A 
ATOM     74  C   UNL A   1      37.643  30.019  29.181  1.00  0.00     0.041 A 
ATOM     75  F   UNL A   1      39.133  29.754  27.391  1.00  0.00    -0.206 F 
ATOM     76  C   UNL A   1      37.383  30.002  30.546  1.00  0.00     0.022 A 
BRANCH  73  77
ATOM     77  S   UNL A   1      38.097  29.623  33.215  1.00  0.00     0.124 S 
ATOM     78  O   UNL A   1      39.417  29.309  33.745  1.00  0.00    -0.237 OA
ATOM     79  O   UNL A   1      37.581  30.954  33.518  1.00  0.00    -0.237 OA
ATOM     80  O   UNL A   1      37.115  28.544  33.302  1.00  0.00    -0.744 OA
ENDBRANCH  73  77
ENDBRANCH  46  70
BRANCH  58  81
ATOM     81  C   UNL A   1      45.858  33.163  28.669  1.00  0.00     0.023 A 
ATOM     82  C   UNL A   1      46.408  33.633  29.874  1.00  0.00     0.031 A 
ATOM     83  C   UNL A   1      45.604  34.096  27.648  1.00  0.00     0.131 A 
ATOM     84  C   UNL A   1      46.643  35.006  30.046  1.00  0.00     0.055 A 
ATOM     85  C   UNL A   1      45.888  35.454  27.805  1.00  0.00     0.041 A 
ATOM     86  F   UNL A   1      45.076  33.702  26.478  1.00  0.00    -0.206 F 
ATOM     87  C   UNL A   1      46.400  35.917  29.014  1.00  0.00     0.022 A 
BRANCH  84  88
ATOM     88  S   UNL A   1      47.205  35.600  31.666  1.00  0.00     0.124 S 
ATOM     89  O   UNL A   1      46.063  35.282  32.518  1.00  0.00    -0.237 OA
ATOM     90  O   UNL A   1      48.408  34.805  31.891  1.00  0.00    -0.237 OA
ATOM     91  O   UNL A   1      47.437  37.026  31.447  1.00  0.00    -0.744 OA
ENDBRANCH  84  88
ENDBRANCH  58  81
ENDBRANCH  32  33
ENDBRANCH  25  27
ENDBRANCH  24  25
ENDBRANCH  23  24
ENDBRANCH  22  23
ENDBRANCH   1  22
TORSDOF 21
ENDMDL
