MODEL 1
REMARK VINA RESULT:     -11.4      0.000      0.000
REMARK SMILES C[C@H](C(=O)OCCOCCOC(=O)c1ccc(-c2c3nc(c(-c4cc(S(=O)(=O)[O-])ccc4F)c4ccc([nH]4)c(-c4cc(S(=O)(=O)[O-])ccc4F)c4nc(c(-c5cc(S(=O)(=O)[O-])ccc5F)c5ccc2[nH]5)C=C4)C=C3)cc1)[C@H](C)[NH+]1CCN(c2ccccc2Cl)CC1
REMARK SMILES IDX 8 1 7 2 6 3 5 4 3 5 4 6 2 7 1 8 77 9 78 10 79 11 80 12 91 13
REMARK SMILES IDX 81 15 90 16 82 17 83 18 84 19 88 20 85 21 87 22 89 23 86 24
REMARK SMILES IDX 9 25 10 26 11 27 12 28 13 29 14 30 15 31 76 32 16 33 75 34
REMARK SMILES IDX 17 35 18 36 19 37 69 38 20 39 74 40 68 41 70 42 21 43 73 44
REMARK SMILES IDX 67 45 66 46 22 48 54 49 34 50 53 51 35 52 38 53 52 54 71 55
REMARK SMILES IDX 36 56 37 57 51 59 72 60 39 61 23 62 24 63 32 64 25 65 31 66
REMARK SMILES IDX 33 67 30 68 26 69 27 70 28 71 29 72 55 73 56 74 64 75 57 76
REMARK SMILES IDX 63 77 65 78 62 79 58 80 59 81 60 82 61 83 40 84 41 85 49 86
REMARK SMILES IDX 42 87 48 88 50 89 47 90 43 91 44 92 45 93 46 94
REMARK H PARENT 79 14 70 47 38 58
REMARK Flexibility Score: inf
ROOT
ATOM      1  O   UNL A   1      36.192  22.077  25.722  1.00  0.00    -0.374 OA
ENDROOT
BRANCH   1   2
ATOM      2  C   UNL A   1      36.167  23.244  24.892  1.00  0.00     0.202 C 
BRANCH   2   3
ATOM      3  C   UNL A   1      35.582  23.110  23.479  1.00  0.00     0.261 C 
BRANCH   3   4
ATOM      4  O   UNL A   1      34.266  23.703  23.375  1.00  0.00    -0.463 OA
BRANCH   4   5
ATOM      5  C   UNL A   1      33.424  23.170  22.441  1.00  0.00     0.314 C 
ATOM      6  O   UNL A   1      33.525  23.352  21.236  1.00  0.00    -0.252 OA
BRANCH   5   7
ATOM      7  C   UNL A   1      32.306  22.364  23.107  1.00  0.00     0.154 C 
ATOM      8  C   UNL A   1      32.063  21.147  22.223  1.00  0.00     0.026 C 
BRANCH   7   9
ATOM      9  C   UNL A   1      32.425  22.159  24.681  1.00  0.00     0.195 C 
ATOM     10  C   UNL A   1      32.533  20.661  24.987  1.00  0.00     0.076 C 
BRANCH   9  11
ATOM     11  N   UNL A   1      31.718  22.963  25.713  1.00  0.00    -0.329 N 
ATOM     12  C   UNL A   1      32.512  23.679  26.714  1.00  0.00     0.284 C 
ATOM     13  C   UNL A   1      30.689  23.928  25.219  1.00  0.00     0.284 C 
ATOM     14  H   UNL A   1      31.276  22.165  26.171  1.00  0.00     0.348 HD
ATOM     15  C   UNL A   1      33.238  24.900  26.148  1.00  0.00     0.178 C 
ATOM     16  C   UNL A   1      31.223  25.310  24.721  1.00  0.00     0.178 C 
ATOM     17  N   UNL A   1      32.241  25.839  25.636  1.00  0.00    -0.359 N 
BRANCH  17  18
ATOM     18  C   UNL A   1      32.396  27.176  25.936  1.00  0.00     0.056 A 
ATOM     19  C   UNL A   1      31.783  27.692  27.095  1.00  0.00     0.027 A 
ATOM     20  C   UNL A   1      33.030  28.092  25.075  1.00  0.00     0.064 A 
ATOM     21  C   UNL A   1      31.769  29.060  27.371  1.00  0.00     0.002 A 
ATOM     22  C   UNL A   1      33.020  29.463  25.355  1.00  0.00     0.023 A 
ATOM     23  Cl  UNL A   1      33.730  27.609  23.565  1.00  0.00    -0.082 Cl
ATOM     24  C   UNL A   1      32.382  29.947  26.495  1.00  0.00     0.002 A 
ENDBRANCH  17  18
ENDBRANCH   9  11
ENDBRANCH   7   9
ENDBRANCH   5   7
ENDBRANCH   4   5
ENDBRANCH   3   4
ENDBRANCH   2   3
ENDBRANCH   1   2
BRANCH   1  25
ATOM     25  C   UNL A   1      36.485  20.844  25.081  1.00  0.00     0.202 C 
BRANCH  25  26
ATOM     26  C   UNL A   1      37.912  20.284  25.188  1.00  0.00     0.261 C 
BRANCH  26  27
ATOM     27  O   UNL A   1      38.907  21.301  25.275  1.00  0.00    -0.460 OA
BRANCH  27  28
ATOM     28  C   UNL A   1      39.789  21.079  26.277  1.00  0.00     0.338 C 
ATOM     29  O   UNL A   1      40.371  20.035  26.536  1.00  0.00    -0.246 OA
BRANCH  28  30
ATOM     30  C   UNL A   1      40.112  22.357  26.915  1.00  0.00     0.060 A 
ATOM     31  C   UNL A   1      39.381  23.473  26.495  1.00  0.00     0.016 A 
ATOM     32  C   UNL A   1      41.121  22.463  27.875  1.00  0.00     0.016 A 
ATOM     33  C   UNL A   1      39.700  24.726  26.991  1.00  0.00     0.010 A 
ATOM     34  C   UNL A   1      41.449  23.726  28.365  1.00  0.00     0.010 A 
ATOM     35  C   UNL A   1      40.767  24.859  27.888  1.00  0.00    -0.014 A 
BRANCH  35  36
ATOM     36  C   UNL A   1      41.294  26.212  28.153  1.00  0.00     0.031 A 
ATOM     37  C   UNL A   1      42.675  26.540  27.662  1.00  0.00     0.074 A 
ATOM     38  C   UNL A   1      40.522  27.130  28.756  1.00  0.00     0.049 A 
ATOM     39  N   UNL A   1      43.353  27.648  27.775  1.00  0.00    -0.248 NA
ATOM     40  C   UNL A   1      43.387  25.466  26.948  1.00  0.00     0.031 C 
ATOM     41  C   UNL A   1      39.148  26.908  29.206  1.00  0.00     0.029 A 
ATOM     42  N   UNL A   1      40.779  28.433  29.082  1.00  0.00    -0.354 N 
ATOM     43  C   UNL A   1      44.574  27.407  27.154  1.00  0.00     0.074 A 
ATOM     44  C   UNL A   1      44.558  26.033  26.703  1.00  0.00     0.031 C 
ATOM     45  C   UNL A   1      38.681  28.043  29.752  1.00  0.00     0.029 A 
ATOM     46  C   UNL A   1      39.737  29.053  29.728  1.00  0.00     0.049 A 
ATOM     47  H   UNL A   1      41.630  28.883  28.875  1.00  0.00     0.167 HD
ATOM     48  C   UNL A   1      45.608  28.262  26.975  1.00  0.00     0.034 A 
ATOM     49  C   UNL A   1      39.664  30.289  30.259  1.00  0.00     0.034 A 
ATOM     50  C   UNL A   1      45.591  29.624  27.447  1.00  0.00     0.049 A 
ATOM     51  C   UNL A   1      40.865  31.194  30.125  1.00  0.00     0.074 A 
ATOM     52  C   UNL A   1      46.569  30.594  27.320  1.00  0.00     0.029 A 
ATOM     53  N   UNL A   1      44.543  30.205  28.153  1.00  0.00    -0.354 N 
ATOM     54  N   UNL A   1      42.014  30.961  29.533  1.00  0.00    -0.248 NA
ATOM     55  C   UNL A   1      40.754  32.529  30.722  1.00  0.00     0.031 C 
ATOM     56  C   UNL A   1      46.148  31.729  28.022  1.00  0.00     0.029 A 
ATOM     57  C   UNL A   1      44.868  31.504  28.504  1.00  0.00     0.049 A 
ATOM     58  H   UNL A   1      43.693  29.757  28.372  1.00  0.00     0.167 HD
ATOM     59  C   UNL A   1      42.752  32.136  29.657  1.00  0.00     0.074 A 
ATOM     60  C   UNL A   1      41.907  33.077  30.367  1.00  0.00     0.031 C 
ATOM     61  C   UNL A   1      44.007  32.417  29.222  1.00  0.00     0.034 A 
BRANCH  48  62
ATOM     62  C   UNL A   1      46.850  27.727  26.304  1.00  0.00     0.023 A 
ATOM     63  C   UNL A   1      47.155  28.007  24.960  1.00  0.00     0.031 A 
ATOM     64  C   UNL A   1      47.729  26.890  27.016  1.00  0.00     0.131 A 
ATOM     65  C   UNL A   1      48.267  27.402  24.353  1.00  0.00     0.055 A 
ATOM     66  C   UNL A   1      48.879  26.358  26.429  1.00  0.00     0.041 A 
ATOM     67  F   UNL A   1      47.475  26.560  28.292  1.00  0.00    -0.206 F 
ATOM     68  C   UNL A   1      49.146  26.601  25.086  1.00  0.00     0.022 A 
BRANCH  65  69
ATOM     69  S   UNL A   1      48.467  27.555  22.556  1.00  0.00     0.124 S 
ATOM     70  O   UNL A   1      48.522  26.155  22.145  1.00  0.00    -0.237 OA
ATOM     71  O   UNL A   1      47.268  28.290  22.167  1.00  0.00    -0.237 OA
ATOM     72  O   UNL A   1      49.723  28.289  22.412  1.00  0.00    -0.744 OA
ENDBRANCH  65  69
ENDBRANCH  48  62
BRANCH  49  73
ATOM     73  C   UNL A   1      38.439  30.731  30.985  1.00  0.00     0.023 A 
ATOM     74  C   UNL A   1      37.402  31.398  30.317  1.00  0.00     0.031 A 
ATOM     75  C   UNL A   1      38.312  30.537  32.372  1.00  0.00     0.131 A 
ATOM     76  C   UNL A   1      36.307  31.892  31.043  1.00  0.00     0.055 A 
ATOM     77  C   UNL A   1      37.191  30.977  33.080  1.00  0.00     0.041 A 
ATOM     78  F   UNL A   1      39.275  29.906  33.063  1.00  0.00    -0.206 F 
ATOM     79  C   UNL A   1      36.186  31.672  32.417  1.00  0.00     0.022 A 
BRANCH  76  80
ATOM     80  S   UNL A   1      35.086  32.918  30.178  1.00  0.00     0.124 S 
ATOM     81  O   UNL A   1      34.492  31.957  29.257  1.00  0.00    -0.237 OA
ATOM     82  O   UNL A   1      34.236  33.367  31.276  1.00  0.00    -0.237 OA
ATOM     83  O   UNL A   1      35.900  33.960  29.555  1.00  0.00    -0.744 OA
ENDBRANCH  76  80
ENDBRANCH  49  73
BRANCH  61  84
ATOM     84  C   UNL A   1      44.515  33.819  29.463  1.00  0.00     0.023 A 
ATOM     85  C   UNL A   1      44.299  34.855  28.538  1.00  0.00     0.031 A 
ATOM     86  C   UNL A   1      45.232  34.116  30.635  1.00  0.00     0.131 A 
ATOM     87  C   UNL A   1      44.850  36.123  28.771  1.00  0.00     0.055 A 
ATOM     88  C   UNL A   1      45.714  35.399  30.896  1.00  0.00     0.041 A 
ATOM     89  F   UNL A   1      45.471  33.165  31.551  1.00  0.00    -0.206 F 
ATOM     90  C   UNL A   1      45.537  36.408  29.954  1.00  0.00     0.022 A 
BRANCH  87  91
ATOM     91  S   UNL A   1      44.750  37.367  27.456  1.00  0.00     0.124 S 
ATOM     92  O   UNL A   1      44.905  38.610  28.204  1.00  0.00    -0.237 OA
ATOM     93  O   UNL A   1      45.868  36.999  26.593  1.00  0.00    -0.237 OA
ATOM     94  O   UNL A   1      43.425  37.150  26.878  1.00  0.00    -0.744 OA
ENDBRANCH  87  91
ENDBRANCH  61  84
ENDBRANCH  35  36
ENDBRANCH  28  30
ENDBRANCH  27  28
ENDBRANCH  26  27
ENDBRANCH  25  26
ENDBRANCH   1  25
TORSDOF 20
ENDMDL
MODEL 2
REMARK VINA RESULT:     -11.3      2.213      2.834
REMARK SMILES C[C@H](C(=O)OCCOCCOC(=O)c1ccc(-c2c3nc(c(-c4cc(S(=O)(=O)[O-])ccc4F)c4ccc([nH]4)c(-c4cc(S(=O)(=O)[O-])ccc4F)c4nc(c(-c5cc(S(=O)(=O)[O-])ccc5F)c5ccc2[nH]5)C=C4)C=C3)cc1)[C@H](C)[NH+]1CCN(c2ccccc2Cl)CC1
REMARK SMILES IDX 8 1 7 2 6 3 5 4 3 5 4 6 2 7 1 8 77 9 78 10 79 11 80 12 91 13
REMARK SMILES IDX 81 15 90 16 82 17 83 18 84 19 88 20 85 21 87 22 89 23 86 24
REMARK SMILES IDX 9 25 10 26 11 27 12 28 13 29 14 30 15 31 76 32 16 33 75 34
REMARK SMILES IDX 17 35 18 36 19 37 69 38 20 39 74 40 68 41 70 42 21 43 73 44
REMARK SMILES IDX 67 45 66 46 22 48 54 49 34 50 53 51 35 52 38 53 52 54 71 55
REMARK SMILES IDX 36 56 37 57 51 59 72 60 39 61 23 62 24 63 32 64 25 65 31 66
REMARK SMILES IDX 33 67 30 68 26 69 27 70 28 71 29 72 55 73 56 74 64 75 57 76
REMARK SMILES IDX 63 77 65 78 62 79 58 80 59 81 60 82 61 83 40 84 41 85 49 86
REMARK SMILES IDX 42 87 48 88 50 89 47 90 43 91 44 92 45 93 46 94
REMARK H PARENT 79 14 70 47 38 58
REMARK Flexibility Score: inf
ROOT
ATOM      1  O   UNL A   1      35.448  21.142  26.011  1.00  0.00    -0.374 OA
ENDROOT
BRANCH   1   2
ATOM      2  C   UNL A   1      34.082  20.914  26.373  1.00  0.00     0.202 C 
BRANCH   2   3
ATOM      3  C   UNL A   1      33.091  22.077  26.221  1.00  0.00     0.261 C 
BRANCH   3   4
ATOM      4  O   UNL A   1      33.619  23.315  26.753  1.00  0.00    -0.463 OA
BRANCH   4   5
ATOM      5  C   UNL A   1      33.166  24.471  26.183  1.00  0.00     0.314 C 
ATOM      6  O   UNL A   1      32.067  24.962  26.398  1.00  0.00    -0.252 OA
BRANCH   5   7
ATOM      7  C   UNL A   1      34.194  25.037  25.200  1.00  0.00     0.154 C 
ATOM      8  C   UNL A   1      35.538  24.431  25.581  1.00  0.00     0.026 C 
BRANCH   7   9
ATOM      9  C   UNL A   1      33.766  25.058  23.666  1.00  0.00     0.195 C 
ATOM     10  C   UNL A   1      34.345  23.824  22.966  1.00  0.00     0.076 C 
BRANCH   9  11
ATOM     11  N   UNL A   1      33.661  26.273  22.815  1.00  0.00    -0.329 N 
ATOM     12  C   UNL A   1      32.695  26.279  21.714  1.00  0.00     0.284 C 
ATOM     13  C   UNL A   1      33.499  27.576  23.528  1.00  0.00     0.284 C 
ATOM     14  H   UNL A   1      34.596  26.192  22.416  1.00  0.00     0.348 HD
ATOM     15  C   UNL A   1      31.243  26.388  22.184  1.00  0.00     0.178 C 
ATOM     16  C   UNL A   1      32.046  27.943  23.974  1.00  0.00     0.178 C 
ATOM     17  N   UNL A   1      31.081  27.647  22.909  1.00  0.00    -0.359 N 
BRANCH  17  18
ATOM     18  C   UNL A   1      29.965  28.410  22.638  1.00  0.00     0.056 A 
ATOM     19  C   UNL A   1      30.126  29.652  21.993  1.00  0.00     0.027 A 
ATOM     20  C   UNL A   1      28.674  28.076  23.089  1.00  0.00     0.064 A 
ATOM     21  C   UNL A   1      29.060  30.539  21.833  1.00  0.00     0.002 A 
ATOM     22  C   UNL A   1      27.604  28.964  22.922  1.00  0.00     0.023 A 
ATOM     23  Cl  UNL A   1      28.354  26.630  23.990  1.00  0.00    -0.082 Cl
ATOM     24  C   UNL A   1      27.799  30.197  22.305  1.00  0.00     0.002 A 
ENDBRANCH  17  18
ENDBRANCH   9  11
ENDBRANCH   7   9
ENDBRANCH   5   7
ENDBRANCH   4   5
ENDBRANCH   3   4
ENDBRANCH   2   3
ENDBRANCH   1   2
BRANCH   1  25
ATOM     25  C   UNL A   1      35.986  20.310  24.994  1.00  0.00     0.202 C 
BRANCH  25  26
ATOM     26  C   UNL A   1      37.511  20.275  24.805  1.00  0.00     0.261 C 
BRANCH  26  27
ATOM     27  O   UNL A   1      38.163  21.441  25.304  1.00  0.00    -0.460 OA
BRANCH  27  28
ATOM     28  C   UNL A   1      39.256  21.147  26.044  1.00  0.00     0.338 C 
ATOM     29  O   UNL A   1      39.897  20.104  26.041  1.00  0.00    -0.246 OA
BRANCH  28  30
ATOM     30  C   UNL A   1      39.702  22.360  26.732  1.00  0.00     0.060 A 
ATOM     31  C   UNL A   1      39.047  23.550  26.398  1.00  0.00     0.016 A 
ATOM     32  C   UNL A   1      40.749  22.336  27.656  1.00  0.00     0.016 A 
ATOM     33  C   UNL A   1      39.482  24.747  26.944  1.00  0.00     0.010 A 
ATOM     34  C   UNL A   1      41.193  23.542  28.196  1.00  0.00     0.010 A 
ATOM     35  C   UNL A   1      40.587  24.749  27.804  1.00  0.00    -0.014 A 
BRANCH  35  36
ATOM     36  C   UNL A   1      41.229  26.040  28.117  1.00  0.00     0.031 A 
ATOM     37  C   UNL A   1      42.621  26.278  27.606  1.00  0.00     0.074 A 
ATOM     38  C   UNL A   1      40.547  26.988  28.778  1.00  0.00     0.049 A 
ATOM     39  N   UNL A   1      43.390  27.321  27.752  1.00  0.00    -0.248 NA
ATOM     40  C   UNL A   1      43.228  25.184  26.827  1.00  0.00     0.031 C 
ATOM     41  C   UNL A   1      39.169  26.858  29.252  1.00  0.00     0.029 A 
ATOM     42  N   UNL A   1      40.917  28.250  29.156  1.00  0.00    -0.354 N 
ATOM     43  C   UNL A   1      44.574  27.011  27.091  1.00  0.00     0.074 A 
ATOM     44  C   UNL A   1      44.436  25.666  26.579  1.00  0.00     0.031 C 
ATOM     45  C   UNL A   1      38.809  28.001  29.860  1.00  0.00     0.029 A 
ATOM     46  C   UNL A   1      39.944  28.921  29.855  1.00  0.00     0.049 A 
ATOM     47  H   UNL A   1      41.797  28.639  28.949  1.00  0.00     0.167 HD
ATOM     48  C   UNL A   1      45.671  27.787  26.924  1.00  0.00     0.034 A 
ATOM     49  C   UNL A   1      39.983  30.133  30.442  1.00  0.00     0.034 A 
ATOM     50  C   UNL A   1      45.775  29.123  27.457  1.00  0.00     0.049 A 
ATOM     51  C   UNL A   1      41.251  30.943  30.319  1.00  0.00     0.074 A 
ATOM     52  C   UNL A   1      46.826  30.015  27.350  1.00  0.00     0.029 A 
ATOM     53  N   UNL A   1      44.793  29.753  28.215  1.00  0.00    -0.354 N 
ATOM     54  N   UNL A   1      42.365  30.645  29.689  1.00  0.00    -0.248 NA
ATOM     55  C   UNL A   1      41.263  32.254  30.978  1.00  0.00     0.031 C 
ATOM     56  C   UNL A   1      46.516  31.146  28.112  1.00  0.00     0.029 A 
ATOM     57  C   UNL A   1      45.231  31.004  28.615  1.00  0.00     0.049 A 
ATOM     58  H   UNL A   1      43.915  29.365  28.434  1.00  0.00     0.167 HD
ATOM     59  C   UNL A   1      43.199  31.750  29.847  1.00  0.00     0.074 A 
ATOM     60  C   UNL A   1      42.449  32.722  30.619  1.00  0.00     0.031 C 
ATOM     61  C   UNL A   1      44.464  31.949  29.394  1.00  0.00     0.034 A 
BRANCH  48  62
ATOM     62  C   UNL A   1      46.850  27.185  26.200  1.00  0.00     0.023 A 
ATOM     63  C   UNL A   1      47.879  26.508  26.880  1.00  0.00     0.031 A 
ATOM     64  C   UNL A   1      46.964  27.321  24.805  1.00  0.00     0.131 A 
ATOM     65  C   UNL A   1      49.005  26.055  26.174  1.00  0.00     0.055 A 
ATOM     66  C   UNL A   1      48.047  26.796  24.097  1.00  0.00     0.041 A 
ATOM     67  F   UNL A   1      46.031  27.985  24.104  1.00  0.00    -0.206 F 
ATOM     68  C   UNL A   1      49.083  26.171  24.783  1.00  0.00     0.022 A 
BRANCH  65  69
ATOM     69  S   UNL A   1      50.434  25.447  27.112  1.00  0.00     0.124 S 
ATOM     70  O   UNL A   1      51.413  25.229  26.051  1.00  0.00    -0.237 OA
ATOM     71  O   UNL A   1      50.709  26.556  28.019  1.00  0.00    -0.237 OA
ATOM     72  O   UNL A   1      49.934  24.230  27.748  1.00  0.00    -0.744 OA
ENDBRANCH  65  69
ENDBRANCH  48  62
BRANCH  49  73
ATOM     73  C   UNL A   1      38.814  30.639  31.217  1.00  0.00     0.023 A 
ATOM     74  C   UNL A   1      37.837  31.443  30.614  1.00  0.00     0.031 A 
ATOM     75  C   UNL A   1      38.685  30.365  32.591  1.00  0.00     0.131 A 
ATOM     76  C   UNL A   1      36.803  31.988  31.390  1.00  0.00     0.055 A 
ATOM     77  C   UNL A   1      37.620  30.860  33.346  1.00  0.00     0.041 A 
ATOM     78  F   UNL A   1      39.592  29.602  33.222  1.00  0.00    -0.206 F 
ATOM     79  C   UNL A   1      36.678  31.689  32.749  1.00  0.00     0.022 A 
BRANCH  76  80
ATOM     80  S   UNL A   1      35.675  33.180  30.616  1.00  0.00     0.124 S 
ATOM     81  O   UNL A   1      36.227  33.278  29.269  1.00  0.00    -0.237 OA
ATOM     82  O   UNL A   1      34.389  32.500  30.736  1.00  0.00    -0.237 OA
ATOM     83  O   UNL A   1      35.826  34.375  31.442  1.00  0.00    -0.744 OA
ENDBRANCH  76  80
ENDBRANCH  49  73
BRANCH  61  84
ATOM     84  C   UNL A   1      45.090  33.292  29.685  1.00  0.00     0.023 A 
ATOM     85  C   UNL A   1      44.861  34.410  28.865  1.00  0.00     0.031 A 
ATOM     86  C   UNL A   1      45.934  33.449  30.798  1.00  0.00     0.131 A 
ATOM     87  C   UNL A   1      45.519  35.618  29.134  1.00  0.00     0.055 A 
ATOM     88  C   UNL A   1      46.528  34.674  31.103  1.00  0.00     0.041 A 
ATOM     89  F   UNL A   1      46.191  32.414  31.613  1.00  0.00    -0.206 F 
ATOM     90  C   UNL A   1      46.334  35.765  30.259  1.00  0.00     0.022 A 
BRANCH  87  91
ATOM     91  S   UNL A   1      45.383  36.967  27.929  1.00  0.00     0.124 S 
ATOM     92  O   UNL A   1      44.674  37.986  28.696  1.00  0.00    -0.237 OA
ATOM     93  O   UNL A   1      46.781  37.255  27.625  1.00  0.00    -0.237 OA
ATOM     94  O   UNL A   1      44.620  36.372  26.833  1.00  0.00    -0.744 OA
ENDBRANCH  87  91
ENDBRANCH  61  84
ENDBRANCH  35  36
ENDBRANCH  28  30
ENDBRANCH  27  28
ENDBRANCH  26  27
ENDBRANCH  25  26
ENDBRANCH   1  25
TORSDOF 20
ENDMDL
MODEL 3
REMARK VINA RESULT:     -11.2      2.179      7.951
REMARK SMILES C[C@H](C(=O)OCCOCCOC(=O)c1ccc(-c2c3nc(c(-c4cc(S(=O)(=O)[O-])ccc4F)c4ccc([nH]4)c(-c4cc(S(=O)(=O)[O-])ccc4F)c4nc(c(-c5cc(S(=O)(=O)[O-])ccc5F)c5ccc2[nH]5)C=C4)C=C3)cc1)[C@H](C)[NH+]1CCN(c2ccccc2Cl)CC1
REMARK SMILES IDX 8 1 7 2 6 3 5 4 3 5 4 6 2 7 1 8 77 9 78 10 79 11 80 12 91 13
REMARK SMILES IDX 81 15 90 16 82 17 83 18 84 19 88 20 85 21 87 22 89 23 86 24
REMARK SMILES IDX 9 25 10 26 11 27 12 28 13 29 14 30 15 31 76 32 16 33 75 34
REMARK SMILES IDX 17 35 18 36 19 37 69 38 20 39 74 40 68 41 70 42 21 43 73 44
REMARK SMILES IDX 67 45 66 46 22 48 54 49 34 50 53 51 35 52 38 53 52 54 71 55
REMARK SMILES IDX 36 56 37 57 51 59 72 60 39 61 23 62 24 63 32 64 25 65 31 66
REMARK SMILES IDX 33 67 30 68 26 69 27 70 28 71 29 72 55 73 56 74 64 75 57 76
REMARK SMILES IDX 63 77 65 78 62 79 58 80 59 81 60 82 61 83 40 84 41 85 49 86
REMARK SMILES IDX 42 87 48 88 50 89 47 90 43 91 44 92 45 93 46 94
REMARK H PARENT 79 14 70 47 38 58
REMARK Flexibility Score: inf
ROOT
ATOM      1  O   UNL A   1      35.426  21.210  25.972  1.00  0.00    -0.374 OA
ENDROOT
BRANCH   1   2
ATOM      2  C   UNL A   1      34.024  21.144  26.255  1.00  0.00     0.202 C 
BRANCH   2   3
ATOM      3  C   UNL A   1      33.164  22.375  25.933  1.00  0.00     0.261 C 
BRANCH   3   4
ATOM      4  O   UNL A   1      33.573  23.539  26.690  1.00  0.00    -0.463 OA
BRANCH   4   5
ATOM      5  C   UNL A   1      33.292  24.758  26.143  1.00  0.00     0.314 C 
ATOM      6  O   UNL A   1      32.317  25.437  26.432  1.00  0.00    -0.252 OA
BRANCH   5   7
ATOM      7  C   UNL A   1      34.328  25.134  25.080  1.00  0.00     0.154 C 
ATOM      8  C   UNL A   1      35.626  24.442  25.476  1.00  0.00     0.026 C 
BRANCH   7   9
ATOM      9  C   UNL A   1      33.846  25.055  23.565  1.00  0.00     0.195 C 
ATOM     10  C   UNL A   1      34.414  23.786  22.922  1.00  0.00     0.076 C 
BRANCH   9  11
ATOM     11  N   UNL A   1      33.695  26.214  22.645  1.00  0.00    -0.329 N 
ATOM     12  C   UNL A   1      32.653  26.165  21.616  1.00  0.00     0.284 C 
ATOM     13  C   UNL A   1      33.600  27.563  23.280  1.00  0.00     0.284 C 
ATOM     14  H   UNL A   1      34.598  26.092  22.187  1.00  0.00     0.348 HD
ATOM     15  C   UNL A   1      31.240  26.328  22.179  1.00  0.00     0.178 C 
ATOM     16  C   UNL A   1      32.186  27.982  23.802  1.00  0.00     0.178 C 
ATOM     17  N   UNL A   1      31.144  27.634  22.829  1.00  0.00    -0.359 N 
BRANCH  17  18
ATOM     18  C   UNL A   1      30.022  28.396  22.587  1.00  0.00     0.056 A 
ATOM     19  C   UNL A   1      30.167  29.650  21.960  1.00  0.00     0.027 A 
ATOM     20  C   UNL A   1      28.739  28.049  23.051  1.00  0.00     0.064 A 
ATOM     21  C   UNL A   1      29.096  30.534  21.830  1.00  0.00     0.002 A 
ATOM     22  C   UNL A   1      27.663  28.935  22.915  1.00  0.00     0.023 A 
ATOM     23  Cl  UNL A   1      28.439  26.587  23.933  1.00  0.00    -0.082 Cl
ATOM     24  C   UNL A   1      27.844  30.179  22.316  1.00  0.00     0.002 A 
ENDBRANCH  17  18
ENDBRANCH   9  11
ENDBRANCH   7   9
ENDBRANCH   5   7
ENDBRANCH   4   5
ENDBRANCH   3   4
ENDBRANCH   2   3
ENDBRANCH   1   2
BRANCH   1  25
ATOM     25  C   UNL A   1      35.927  20.291  25.013  1.00  0.00     0.202 C 
BRANCH  25  26
ATOM     26  C   UNL A   1      37.445  20.233  24.776  1.00  0.00     0.261 C 
BRANCH  26  27
ATOM     27  O   UNL A   1      38.129  21.392  25.248  1.00  0.00    -0.460 OA
BRANCH  27  28
ATOM     28  C   UNL A   1      39.195  21.086  26.022  1.00  0.00     0.338 C 
ATOM     29  O   UNL A   1      39.775  20.011  26.096  1.00  0.00    -0.246 OA
BRANCH  28  30
ATOM     30  C   UNL A   1      39.702  22.314  26.637  1.00  0.00     0.060 A 
ATOM     31  C   UNL A   1      39.079  23.510  26.262  1.00  0.00     0.016 A 
ATOM     32  C   UNL A   1      40.773  22.298  27.533  1.00  0.00     0.016 A 
ATOM     33  C   UNL A   1      39.571  24.715  26.736  1.00  0.00     0.010 A 
ATOM     34  C   UNL A   1      41.274  23.512  28.001  1.00  0.00     0.010 A 
ATOM     35  C   UNL A   1      40.699  24.719  27.565  1.00  0.00    -0.014 A 
BRANCH  35  36
ATOM     36  C   UNL A   1      41.394  26.000  27.796  1.00  0.00     0.031 A 
ATOM     37  C   UNL A   1      40.667  27.069  28.560  1.00  0.00     0.074 A 
ATOM     38  C   UNL A   1      42.663  26.161  27.389  1.00  0.00     0.049 A 
ATOM     39  N   UNL A   1      41.061  28.270  28.884  1.00  0.00    -0.248 NA
ATOM     40  C   UNL A   1      39.306  26.736  29.016  1.00  0.00     0.031 C 
ATOM     41  C   UNL A   1      43.460  25.148  26.697  1.00  0.00     0.029 A 
ATOM     42  N   UNL A   1      43.507  27.232  27.509  1.00  0.00    -0.354 N 
ATOM     43  C   UNL A   1      39.998  28.841  29.576  1.00  0.00     0.074 A 
ATOM     44  C   UNL A   1      38.927  27.868  29.588  1.00  0.00     0.031 C 
ATOM     45  C   UNL A   1      44.683  25.649  26.454  1.00  0.00     0.029 A 
ATOM     46  C   UNL A   1      44.737  27.028  26.933  1.00  0.00     0.049 A 
ATOM     47  H   UNL A   1      43.256  28.068  27.964  1.00  0.00     0.167 HD
ATOM     48  C   UNL A   1      39.931  30.063  30.152  1.00  0.00     0.034 A 
ATOM     49  C   UNL A   1      45.775  27.875  26.791  1.00  0.00     0.034 A 
ATOM     50  C   UNL A   1      41.018  31.010  30.112  1.00  0.00     0.049 A 
ATOM     51  C   UNL A   1      45.642  29.266  27.365  1.00  0.00     0.074 A 
ATOM     52  C   UNL A   1      41.080  32.276  30.665  1.00  0.00     0.029 A 
ATOM     53  N   UNL A   1      42.231  30.797  29.466  1.00  0.00    -0.354 N 
ATOM     54  N   UNL A   1      44.635  29.797  28.021  1.00  0.00    -0.248 NA
ATOM     55  C   UNL A   1      46.786  30.166  27.185  1.00  0.00     0.031 C 
ATOM     56  C   UNL A   1      42.293  32.858  30.281  1.00  0.00     0.029 A 
ATOM     57  C   UNL A   1      43.031  31.922  29.572  1.00  0.00     0.049 A 
ATOM     58  H   UNL A   1      42.485  29.966  29.002  1.00  0.00     0.167 HD
ATOM     59  C   UNL A   1      45.042  31.084  28.364  1.00  0.00     0.074 A 
ATOM     60  C   UNL A   1      46.389  31.239  27.852  1.00  0.00     0.031 C 
ATOM     61  C   UNL A   1      44.369  32.051  29.042  1.00  0.00     0.034 A 
BRANCH  48  62
ATOM     62  C   UNL A   1      38.629  30.458  30.806  1.00  0.00     0.023 A 
ATOM     63  C   UNL A   1      37.593  31.086  30.091  1.00  0.00     0.031 A 
ATOM     64  C   UNL A   1      38.435  30.233  32.181  1.00  0.00     0.131 A 
ATOM     65  C   UNL A   1      36.443  31.526  30.765  1.00  0.00     0.055 A 
ATOM     66  C   UNL A   1      37.254  30.599  32.830  1.00  0.00     0.041 A 
ATOM     67  F   UNL A   1      39.400  29.667  32.924  1.00  0.00    -0.206 F 
ATOM     68  C   UNL A   1      36.255  31.262  32.125  1.00  0.00     0.022 A 
BRANCH  65  69
ATOM     69  S   UNL A   1      35.263  32.579  29.877  1.00  0.00     0.124 S 
ATOM     70  O   UNL A   1      34.805  31.682  28.819  1.00  0.00    -0.237 OA
ATOM     71  O   UNL A   1      34.287  32.900  30.912  1.00  0.00    -0.237 OA
ATOM     72  O   UNL A   1      36.080  33.702  29.420  1.00  0.00    -0.744 OA
ENDBRANCH  65  69
ENDBRANCH  48  62
BRANCH  49  73
ATOM     73  C   UNL A   1      47.004  27.454  26.060  1.00  0.00     0.023 A 
ATOM     74  C   UNL A   1      48.124  26.965  26.747  1.00  0.00     0.031 A 
ATOM     75  C   UNL A   1      47.093  27.584  24.662  1.00  0.00     0.131 A 
ATOM     76  C   UNL A   1      49.302  26.671  26.043  1.00  0.00     0.055 A 
ATOM     77  C   UNL A   1      48.247  27.233  23.959  1.00  0.00     0.041 A 
ATOM     78  F   UNL A   1      46.051  28.049  23.954  1.00  0.00    -0.206 F 
ATOM     79  C   UNL A   1      49.367  26.786  24.652  1.00  0.00     0.022 A 
BRANCH  76  80
ATOM     80  S   UNL A   1      50.787  26.230  26.987  1.00  0.00     0.124 S 
ATOM     81  O   UNL A   1      51.847  26.745  26.128  1.00  0.00    -0.237 OA
ATOM     82  O   UNL A   1      50.572  26.946  28.240  1.00  0.00    -0.237 OA
ATOM     83  O   UNL A   1      50.710  24.774  27.081  1.00  0.00    -0.744 OA
ENDBRANCH  76  80
ENDBRANCH  49  73
BRANCH  61  84
ATOM     84  C   UNL A   1      45.110  33.339  29.309  1.00  0.00     0.023 A 
ATOM     85  C   UNL A   1      45.055  34.424  28.418  1.00  0.00     0.031 A 
ATOM     86  C   UNL A   1      45.889  33.476  30.471  1.00  0.00     0.131 A 
ATOM     87  C   UNL A   1      45.815  35.574  28.672  1.00  0.00     0.055 A 
ATOM     88  C   UNL A   1      46.585  34.651  30.756  1.00  0.00     0.041 A 
ATOM     89  F   UNL A   1      45.980  32.471  31.356  1.00  0.00    -0.206 F 
ATOM     90  C   UNL A   1      46.563  35.704  29.845  1.00  0.00     0.022 A 
BRANCH  87  91
ATOM     91  S   UNL A   1      45.903  36.857  27.393  1.00  0.00     0.124 S 
ATOM     92  O   UNL A   1      46.399  36.105  26.245  1.00  0.00    -0.237 OA
ATOM     93  O   UNL A   1      44.518  37.309  27.309  1.00  0.00    -0.237 OA
ATOM     94  O   UNL A   1      46.840  37.831  27.949  1.00  0.00    -0.744 OA
ENDBRANCH  87  91
ENDBRANCH  61  84
ENDBRANCH  35  36
ENDBRANCH  28  30
ENDBRANCH  27  28
ENDBRANCH  26  27
ENDBRANCH  25  26
ENDBRANCH   1  25
TORSDOF 20
ENDMDL
