MODEL 1
REMARK VINA RESULT:      -9.7      0.000      0.000
REMARK SMILES Cc1ccccc1C(=O)Nc1ccc(N2CCC(n3c(C)nc4cccnc43)CC2)c(C(=O)OCCOCCOC(=O)c2ccc(-c3c4nc(c(-c5cc(S(=O)(=O)[O-])ccc5F)c5ccc([nH]5)c(-c5cc(S(=O)(=O)[O-])ccc5F)c5nc(c(-c6cc(S(=O)(=O)[O-])ccc6F)c6ccc3[nH]6)C=C5)C=C4)cc2)c1
REMARK SMILES IDX 38 1 37 2 36 3 35 4 34 5 32 6 33 7 31 8 11 9 12 10 106 11
REMARK SMILES IDX 13 12 14 13 10 14 8 15 9 16 7 18 1 19 2 20 3 21 4 22 6 23
REMARK SMILES IDX 5 24 15 25 16 26 30 27 17 28 29 29 18 30 19 31 20 32 28 33
REMARK SMILES IDX 21 34 22 35 23 36 27 37 24 38 26 39 25 40 39 41 40 42 41 43
REMARK SMILES IDX 42 44 43 45 44 46 105 47 45 48 104 49 46 50 47 51 48 52
REMARK SMILES IDX 98 53 49 54 103 55 97 56 99 57 50 58 102 59 96 60 95 61
REMARK SMILES IDX 51 63 83 64 63 65 82 66 64 67 67 68 81 69 100 70 65 71 66 72
REMARK SMILES IDX 80 74 101 75 68 76 52 77 53 78 61 79 54 80 60 81 62 82 59 83
REMARK SMILES IDX 55 84 56 85 57 86 58 87 84 88 85 89 93 90 86 91 92 92 94 93
REMARK SMILES IDX 91 94 87 95 88 96 89 97 90 98 69 99 70 100 78 101 71 102
REMARK SMILES IDX 77 103 79 104 76 105 72 106 73 107 74 108 75 109
REMARK H PARENT 10 17 99 62 67 73
REMARK Flexibility Score: inf
ROOT
ATOM      1  C   UNL A   1      42.641  31.322  35.235  1.00  0.00     0.202 C 
ENDROOT
BRANCH   1   2
ATOM      2  O   UNL A   1      41.842  30.952  34.140  1.00  0.00    -0.374 OA
BRANCH   2   3
ATOM      3  C   UNL A   1      41.150  29.713  34.258  1.00  0.00     0.202 C 
BRANCH   3   4
ATOM      4  C   UNL A   1      40.072  29.793  33.230  1.00  0.00     0.261 C 
BRANCH   4   5
ATOM      5  O   UNL A   1      39.904  28.496  32.657  1.00  0.00    -0.460 OA
BRANCH   5   6
ATOM      6  C   UNL A   1      38.729  28.036  32.202  1.00  0.00     0.340 C 
ATOM      7  O   UNL A   1      37.766  27.688  32.847  1.00  0.00    -0.246 OA
BRANCH   6   8
ATOM      8  C   UNL A   1      38.788  28.092  30.719  1.00  0.00     0.085 A 
ATOM      9  C   UNL A   1      39.977  27.178  28.842  1.00  0.00     0.042 A 
ATOM     10  C   UNL A   1      39.275  28.011  27.982  1.00  0.00     0.028 A 
ATOM     11  C   UNL A   1      39.600  27.082  30.172  1.00  0.00     0.044 A 
ATOM     12  C   UNL A   1      38.346  28.916  28.503  1.00  0.00     0.029 A 
ATOM     13  C   UNL A   1      38.205  29.095  29.891  1.00  0.00     0.051 A 
BRANCH   9  14
ATOM     14  N   UNL A   1      41.160  26.535  28.478  1.00  0.00    -0.322 N 
ATOM     15  C   UNL A   1      42.376  27.093  28.122  1.00  0.00     0.255 C 
ATOM     16  O   UNL A   1      43.258  26.320  27.736  1.00  0.00    -0.269 OA
ATOM     17  H   UNL A   1      41.125  25.552  28.473  1.00  0.00     0.170 HD
BRANCH  15  18
ATOM     18  C   UNL A   1      42.702  28.561  28.198  1.00  0.00     0.043 A 
ATOM     19  C   UNL A   1      42.713  28.892  30.761  1.00  0.00     0.045 C 
ATOM     20  C   UNL A   1      42.769  29.374  29.346  1.00  0.00    -0.038 A 
ATOM     21  C   UNL A   1      43.001  30.760  29.211  1.00  0.00     0.004 A 
ATOM     22  C   UNL A   1      43.364  31.310  27.990  1.00  0.00     0.000 A 
ATOM     23  C   UNL A   1      43.126  29.132  26.981  1.00  0.00     0.014 A 
ATOM     24  C   UNL A   1      43.479  30.482  26.883  1.00  0.00     0.001 A 
ENDBRANCH  15  18
ENDBRANCH   9  14
BRANCH  13  25
ATOM     25  N   UNL A   1      37.719  30.351  30.284  1.00  0.00    -0.371 N 
ATOM     26  C   UNL A   1      38.547  31.547  30.076  1.00  0.00     0.118 C 
ATOM     27  C   UNL A   1      36.282  30.587  30.239  1.00  0.00     0.118 C 
ATOM     28  C   UNL A   1      38.102  32.698  31.023  1.00  0.00     0.047 C 
ATOM     29  C   UNL A   1      35.879  31.611  31.267  1.00  0.00     0.047 C 
ATOM     30  C   UNL A   1      36.568  32.948  30.974  1.00  0.00     0.094 C 
BRANCH  30  31
ATOM     31  N   UNL A   1      36.020  34.096  31.715  1.00  0.00    -0.310 N 
ATOM     32  C   UNL A   1      36.219  34.481  33.049  1.00  0.00     0.108 A 
ATOM     33  C   UNL A   1      34.878  34.782  31.325  1.00  0.00     0.160 A 
ATOM     34  C   UNL A   1      36.947  33.744  34.117  1.00  0.00     0.088 C 
ATOM     35  N   UNL A   1      35.515  35.557  33.352  1.00  0.00    -0.232 NA
ATOM     36  C   UNL A   1      34.598  35.664  32.359  1.00  0.00     0.108 A 
ATOM     37  N   UNL A   1      34.127  34.586  30.228  1.00  0.00    -0.237 NA
ATOM     38  C   UNL A   1      33.436  36.440  32.295  1.00  0.00     0.034 A 
ATOM     39  C   UNL A   1      32.959  35.274  30.254  1.00  0.00     0.113 A 
ATOM     40  C   UNL A   1      32.582  36.203  31.221  1.00  0.00     0.022 A 
ENDBRANCH  30  31
ENDBRANCH  13  25
ENDBRANCH   6   8
ENDBRANCH   5   6
ENDBRANCH   4   5
ENDBRANCH   3   4
ENDBRANCH   2   3
ENDBRANCH   1   2
BRANCH   1  41
ATOM     41  C   UNL A   1      42.357  32.759  35.674  1.00  0.00     0.261 C 
BRANCH  41  42
ATOM     42  O   UNL A   1      41.072  33.200  35.173  1.00  0.00    -0.460 OA
BRANCH  42  43
ATOM     43  C   UNL A   1      40.926  34.545  34.980  1.00  0.00     0.338 C 
ATOM     44  O   UNL A   1      40.480  35.318  35.809  1.00  0.00    -0.246 OA
BRANCH  43  45
ATOM     45  C   UNL A   1      41.303  34.916  33.584  1.00  0.00     0.060 A 
ATOM     46  C   UNL A   1      40.789  34.209  32.481  1.00  0.00     0.016 A 
ATOM     47  C   UNL A   1      42.378  35.784  33.413  1.00  0.00     0.016 A 
ATOM     48  C   UNL A   1      41.448  34.271  31.247  1.00  0.00     0.010 A 
ATOM     49  C   UNL A   1      43.116  35.699  32.258  1.00  0.00     0.010 A 
ATOM     50  C   UNL A   1      42.664  34.939  31.175  1.00  0.00    -0.014 A 
BRANCH  50  51
ATOM     51  C   UNL A   1      43.591  34.900  30.050  1.00  0.00     0.031 A 
ATOM     52  C   UNL A   1      44.727  33.971  30.146  1.00  0.00     0.074 A 
ATOM     53  C   UNL A   1      43.279  35.518  28.889  1.00  0.00     0.049 A 
ATOM     54  N   UNL A   1      45.803  34.073  29.452  1.00  0.00    -0.248 NA
ATOM     55  C   UNL A   1      44.792  32.882  31.124  1.00  0.00     0.031 C 
ATOM     56  C   UNL A   1      43.771  35.275  27.536  1.00  0.00     0.029 A 
ATOM     57  N   UNL A   1      42.414  36.599  28.712  1.00  0.00    -0.354 N 
ATOM     58  C   UNL A   1      46.449  32.863  29.571  1.00  0.00     0.074 A 
ATOM     59  C   UNL A   1      45.937  32.290  30.782  1.00  0.00     0.031 C 
ATOM     60  C   UNL A   1      43.462  36.333  26.759  1.00  0.00     0.029 A 
ATOM     61  C   UNL A   1      42.885  37.349  27.637  1.00  0.00     0.049 A 
ATOM     62  H   UNL A   1      41.615  36.796  29.251  1.00  0.00     0.167 HD
ATOM     63  C   UNL A   1      47.139  32.387  28.498  1.00  0.00     0.034 A 
ATOM     64  C   UNL A   1      43.288  38.639  27.811  1.00  0.00     0.034 A 
ATOM     65  C   UNL A   1      47.094  33.358  27.391  1.00  0.00     0.049 A 
ATOM     66  C   UNL A   1      44.728  38.675  27.371  1.00  0.00     0.074 A 
ATOM     67  C   UNL A   1      46.497  33.349  26.140  1.00  0.00     0.029 A 
ATOM     68  N   UNL A   1      47.496  34.672  27.617  1.00  0.00    -0.354 N 
ATOM     69  N   UNL A   1      45.568  37.699  27.608  1.00  0.00    -0.248 NA
ATOM     70  C   UNL A   1      45.239  39.664  26.426  1.00  0.00     0.031 C 
ATOM     71  C   UNL A   1      46.532  34.678  25.628  1.00  0.00     0.029 A 
ATOM     72  C   UNL A   1      47.144  35.492  26.569  1.00  0.00     0.049 A 
ATOM     73  H   UNL A   1      47.972  34.976  28.424  1.00  0.00     0.167 HD
ATOM     74  C   UNL A   1      46.639  37.841  26.768  1.00  0.00     0.074 A 
ATOM     75  C   UNL A   1      46.416  39.110  26.088  1.00  0.00     0.031 C 
ATOM     76  C   UNL A   1      47.578  36.875  26.549  1.00  0.00     0.034 A 
BRANCH  63  77
ATOM     77  C   UNL A   1      47.611  30.955  28.302  1.00  0.00     0.023 A 
ATOM     78  C   UNL A   1      47.215  30.293  27.121  1.00  0.00     0.031 A 
ATOM     79  C   UNL A   1      48.389  30.169  29.178  1.00  0.00     0.131 A 
ATOM     80  C   UNL A   1      47.523  28.942  26.881  1.00  0.00     0.055 A 
ATOM     81  C   UNL A   1      48.698  28.822  28.942  1.00  0.00     0.041 A 
ATOM     82  F   UNL A   1      48.929  30.643  30.302  1.00  0.00    -0.206 F 
ATOM     83  C   UNL A   1      48.260  28.197  27.790  1.00  0.00     0.022 A 
BRANCH  80  84
ATOM     84  S   UNL A   1      46.943  28.182  25.346  1.00  0.00     0.124 S 
ATOM     85  O   UNL A   1      46.394  29.329  24.629  1.00  0.00    -0.237 OA
ATOM     86  O   UNL A   1      48.168  27.605  24.802  1.00  0.00    -0.237 OA
ATOM     87  O   UNL A   1      45.955  27.208  25.806  1.00  0.00    -0.744 OA
ENDBRANCH  80  84
ENDBRANCH  63  77
BRANCH  64  88
ATOM     88  C   UNL A   1      42.649  39.328  28.991  1.00  0.00     0.023 A 
ATOM     89  C   UNL A   1      43.320  39.350  30.243  1.00  0.00     0.031 A 
ATOM     90  C   UNL A   1      41.612  40.252  28.838  1.00  0.00     0.131 A 
ATOM     91  C   UNL A   1      43.036  40.315  31.235  1.00  0.00     0.055 A 
ATOM     92  C   UNL A   1      41.326  41.215  29.822  1.00  0.00     0.041 A 
ATOM     93  F   UNL A   1      40.926  40.319  27.689  1.00  0.00    -0.206 F 
ATOM     94  C   UNL A   1      42.065  41.280  31.003  1.00  0.00     0.022 A 
BRANCH  91  95
ATOM     95  S   UNL A   1      44.059  40.485  32.749  1.00  0.00     0.124 S 
ATOM     96  O   UNL A   1      43.206  39.905  33.777  1.00  0.00    -0.237 OA
ATOM     97  O   UNL A   1      45.269  39.741  32.422  1.00  0.00    -0.237 OA
ATOM     98  O   UNL A   1      44.270  41.928  32.845  1.00  0.00    -0.744 OA
ENDBRANCH  91  95
ENDBRANCH  64  88
BRANCH  76  99
ATOM     99  C   UNL A   1      49.023  37.188  26.261  1.00  0.00     0.023 A 
ATOM    100  C   UNL A   1      49.843  37.826  27.193  1.00  0.00     0.031 A 
ATOM    101  C   UNL A   1      49.670  36.711  25.095  1.00  0.00     0.131 A 
ATOM    102  C   UNL A   1      51.201  38.046  26.937  1.00  0.00     0.055 A 
ATOM    103  C   UNL A   1      51.042  36.851  24.880  1.00  0.00     0.041 A 
ATOM    104  F   UNL A   1      49.018  36.048  24.130  1.00  0.00    -0.206 F 
ATOM    105  C   UNL A   1      51.818  37.539  25.799  1.00  0.00     0.022 A 
BRANCH 102 106
ATOM    106  S   UNL A   1      52.101  39.073  28.117  1.00  0.00     0.124 S 
ATOM    107  O   UNL A   1      53.429  39.127  27.507  1.00  0.00    -0.237 OA
ATOM    108  O   UNL A   1      51.345  40.320  28.090  1.00  0.00    -0.237 OA
ATOM    109  O   UNL A   1      52.018  38.316  29.362  1.00  0.00    -0.744 OA
ENDBRANCH 102 106
ENDBRANCH  76  99
ENDBRANCH  50  51
ENDBRANCH  43  45
ENDBRANCH  42  43
ENDBRANCH  41  42
ENDBRANCH   1  41
TORSDOF 21
ENDMDL
MODEL 2
REMARK VINA RESULT:      -9.2      5.732     11.005
REMARK SMILES Cc1ccccc1C(=O)Nc1ccc(N2CCC(n3c(C)nc4cccnc43)CC2)c(C(=O)OCCOCCOC(=O)c2ccc(-c3c4nc(c(-c5cc(S(=O)(=O)[O-])ccc5F)c5ccc([nH]5)c(-c5cc(S(=O)(=O)[O-])ccc5F)c5nc(c(-c6cc(S(=O)(=O)[O-])ccc6F)c6ccc3[nH]6)C=C5)C=C4)cc2)c1
REMARK SMILES IDX 38 1 37 2 36 3 35 4 34 5 32 6 33 7 31 8 11 9 12 10 106 11
REMARK SMILES IDX 13 12 14 13 10 14 8 15 9 16 7 18 1 19 2 20 3 21 4 22 6 23
REMARK SMILES IDX 5 24 15 25 16 26 30 27 17 28 29 29 18 30 19 31 20 32 28 33
REMARK SMILES IDX 21 34 22 35 23 36 27 37 24 38 26 39 25 40 39 41 40 42 41 43
REMARK SMILES IDX 42 44 43 45 44 46 105 47 45 48 104 49 46 50 47 51 48 52
REMARK SMILES IDX 98 53 49 54 103 55 97 56 99 57 50 58 102 59 96 60 95 61
REMARK SMILES IDX 51 63 83 64 63 65 82 66 64 67 67 68 81 69 100 70 65 71 66 72
REMARK SMILES IDX 80 74 101 75 68 76 52 77 53 78 61 79 54 80 60 81 62 82 59 83
REMARK SMILES IDX 55 84 56 85 57 86 58 87 84 88 85 89 93 90 86 91 92 92 94 93
REMARK SMILES IDX 91 94 87 95 88 96 89 97 90 98 69 99 70 100 78 101 71 102
REMARK SMILES IDX 77 103 79 104 76 105 72 106 73 107 74 108 75 109
REMARK H PARENT 10 17 99 62 67 73
REMARK Flexibility Score: inf
ROOT
ATOM      1  C   UNL A   1      48.706  27.481  30.478  1.00  0.00     0.202 C 
ENDROOT
BRANCH   1   2
ATOM      2  O   UNL A   1      49.687  26.870  31.276  1.00  0.00    -0.374 OA
BRANCH   2   3
ATOM      3  C   UNL A   1      49.260  25.761  32.060  1.00  0.00     0.202 C 
BRANCH   3   4
ATOM      4  C   UNL A   1      48.737  26.375  33.314  1.00  0.00     0.261 C 
BRANCH   4   5
ATOM      5  O   UNL A   1      47.801  25.468  33.898  1.00  0.00    -0.460 OA
BRANCH   5   6
ATOM      6  C   UNL A   1      46.920  25.825  34.845  1.00  0.00     0.340 C 
ATOM      7  O   UNL A   1      46.861  26.871  35.450  1.00  0.00    -0.246 OA
BRANCH   6   8
ATOM      8  C   UNL A   1      45.955  24.704  34.981  1.00  0.00     0.085 A 
ATOM      9  C   UNL A   1      45.761  22.331  34.662  1.00  0.00     0.042 A 
ATOM     10  C   UNL A   1      44.415  22.389  34.993  1.00  0.00     0.028 A 
ATOM     11  C   UNL A   1      46.565  23.444  34.842  1.00  0.00     0.044 A 
ATOM     12  C   UNL A   1      43.828  23.623  35.287  1.00  0.00     0.029 A 
ATOM     13  C   UNL A   1      44.542  24.824  35.122  1.00  0.00     0.051 A 
BRANCH   9  14
ATOM     14  N   UNL A   1      46.334  21.245  34.000  1.00  0.00    -0.322 N 
ATOM     15  C   UNL A   1      47.015  20.165  34.534  1.00  0.00     0.255 C 
ATOM     16  O   UNL A   1      47.526  19.372  33.737  1.00  0.00    -0.269 OA
ATOM     17  H   UNL A   1      46.240  21.247  33.020  1.00  0.00     0.170 HD
BRANCH  15  18
ATOM     18  C   UNL A   1      47.154  19.880  36.006  1.00  0.00     0.043 A 
ATOM     19  C   UNL A   1      49.205  21.351  36.561  1.00  0.00     0.045 C 
ATOM     20  C   UNL A   1      48.160  20.331  36.883  1.00  0.00    -0.038 A 
ATOM     21  C   UNL A   1      48.176  19.881  38.221  1.00  0.00     0.004 A 
ATOM     22  C   UNL A   1      47.111  19.166  38.749  1.00  0.00     0.000 A 
ATOM     23  C   UNL A   1      46.060  19.201  36.578  1.00  0.00     0.014 A 
ATOM     24  C   UNL A   1      46.025  18.873  37.937  1.00  0.00     0.001 A 
ENDBRANCH  15  18
ENDBRANCH   9  14
BRANCH  13  25
ATOM     25  N   UNL A   1      43.752  25.958  34.883  1.00  0.00    -0.371 N 
ATOM     26  C   UNL A   1      44.007  26.781  33.693  1.00  0.00     0.118 C 
ATOM     27  C   UNL A   1      42.367  25.952  35.336  1.00  0.00     0.118 C 
ATOM     28  C   UNL A   1      43.434  28.215  33.881  1.00  0.00     0.047 C 
ATOM     29  C   UNL A   1      41.899  27.351  35.636  1.00  0.00     0.047 C 
ATOM     30  C   UNL A   1      41.956  28.206  34.365  1.00  0.00     0.094 C 
BRANCH  30  31
ATOM     31  N   UNL A   1      41.239  29.489  34.456  1.00  0.00    -0.310 N 
ATOM     32  C   UNL A   1      41.385  30.535  35.379  1.00  0.00     0.108 A 
ATOM     33  C   UNL A   1      40.000  29.714  33.872  1.00  0.00     0.160 A 
ATOM     34  C   UNL A   1      42.229  30.566  36.604  1.00  0.00     0.088 C 
ATOM     35  N   UNL A   1      40.523  31.508  35.147  1.00  0.00    -0.232 NA
ATOM     36  C   UNL A   1      39.593  30.961  34.326  1.00  0.00     0.108 A 
ATOM     37  N   UNL A   1      39.281  28.878  33.104  1.00  0.00    -0.237 NA
ATOM     38  C   UNL A   1      38.322  31.429  33.975  1.00  0.00     0.034 A 
ATOM     39  C   UNL A   1      38.020  29.319  32.876  1.00  0.00     0.113 A 
ATOM     40  C   UNL A   1      37.508  30.558  33.257  1.00  0.00     0.022 A 
ENDBRANCH  30  31
ENDBRANCH  13  25
ENDBRANCH   6   8
ENDBRANCH   5   6
ENDBRANCH   4   5
ENDBRANCH   3   4
ENDBRANCH   2   3
ENDBRANCH   1   2
BRANCH   1  41
ATOM     41  C   UNL A   1      49.329  28.214  29.288  1.00  0.00     0.261 C 
BRANCH  41  42
ATOM     42  O   UNL A   1      49.622  27.288  28.216  1.00  0.00    -0.460 OA
BRANCH  42  43
ATOM     43  C   UNL A   1      49.302  27.702  26.953  1.00  0.00     0.338 C 
ATOM     44  O   UNL A   1      50.094  28.175  26.159  1.00  0.00    -0.246 OA
BRANCH  43  45
ATOM     45  C   UNL A   1      47.832  27.576  26.721  1.00  0.00     0.060 A 
ATOM     46  C   UNL A   1      47.068  28.678  26.292  1.00  0.00     0.016 A 
ATOM     47  C   UNL A   1      47.196  26.434  27.199  1.00  0.00     0.016 A 
ATOM     48  C   UNL A   1      45.680  28.678  26.482  1.00  0.00     0.010 A 
ATOM     49  C   UNL A   1      45.870  26.515  27.544  1.00  0.00     0.010 A 
ATOM     50  C   UNL A   1      45.107  27.634  27.198  1.00  0.00    -0.014 A 
BRANCH  50  51
ATOM     51  C   UNL A   1      43.736  27.594  27.692  1.00  0.00     0.031 A 
ATOM     52  C   UNL A   1      42.750  26.863  26.883  1.00  0.00     0.074 A 
ATOM     53  C   UNL A   1      43.452  28.012  28.946  1.00  0.00     0.049 A 
ATOM     54  N   UNL A   1      41.480  27.036  26.962  1.00  0.00    -0.248 NA
ATOM     55  C   UNL A   1      43.122  25.924  25.822  1.00  0.00     0.031 C 
ATOM     56  C   UNL A   1      42.323  27.681  29.811  1.00  0.00     0.029 A 
ATOM     57  N   UNL A   1      44.173  28.923  29.718  1.00  0.00    -0.354 N 
ATOM     58  C   UNL A   1      40.908  25.959  26.323  1.00  0.00     0.074 A 
ATOM     59  C   UNL A   1      41.928  25.470  25.441  1.00  0.00     0.031 C 
ATOM     60  C   UNL A   1      42.261  28.578  30.816  1.00  0.00     0.029 A 
ATOM     61  C   UNL A   1      43.270  29.598  30.537  1.00  0.00     0.049 A 
ATOM     62  H   UNL A   1      45.146  29.065  29.689  1.00  0.00     0.167 HD
ATOM     63  C   UNL A   1      39.738  25.462  26.810  1.00  0.00     0.034 A 
ATOM     64  C   UNL A   1      43.097  30.944  30.423  1.00  0.00     0.034 A 
ATOM     65  C   UNL A   1      39.274  26.273  27.950  1.00  0.00     0.049 A 
ATOM     66  C   UNL A   1      41.640  31.138  30.094  1.00  0.00     0.074 A 
ATOM     67  C   UNL A   1      39.147  26.022  29.308  1.00  0.00     0.029 A 
ATOM     68  N   UNL A   1      39.131  27.649  27.798  1.00  0.00    -0.354 N 
ATOM     69  N   UNL A   1      40.977  30.334  29.302  1.00  0.00    -0.248 NA
ATOM     70  C   UNL A   1      40.785  32.069  30.825  1.00  0.00     0.031 C 
ATOM     71  C   UNL A   1      38.943  27.268  29.966  1.00  0.00     0.029 A 
ATOM     72  C   UNL A   1      38.952  28.273  29.011  1.00  0.00     0.049 A 
ATOM     73  H   UNL A   1      39.155  28.117  26.931  1.00  0.00     0.167 HD
ATOM     74  C   UNL A   1      39.639  30.528  29.515  1.00  0.00     0.074 A 
ATOM     75  C   UNL A   1      39.567  31.657  30.433  1.00  0.00     0.031 C 
ATOM     76  C   UNL A   1      38.659  29.693  29.064  1.00  0.00     0.034 A 
BRANCH  63  77
ATOM     77  C   UNL A   1      39.139  24.103  26.486  1.00  0.00     0.023 A 
ATOM     78  C   UNL A   1      39.973  22.974  26.618  1.00  0.00     0.031 A 
ATOM     79  C   UNL A   1      37.834  23.814  26.032  1.00  0.00     0.131 A 
ATOM     80  C   UNL A   1      39.547  21.682  26.261  1.00  0.00     0.055 A 
ATOM     81  C   UNL A   1      37.406  22.528  25.674  1.00  0.00     0.041 A 
ATOM     82  F   UNL A   1      36.876  24.736  25.926  1.00  0.00    -0.206 F 
ATOM     83  C   UNL A   1      38.265  21.451  25.783  1.00  0.00     0.022 A 
BRANCH  80  84
ATOM     84  S   UNL A   1      40.706  20.306  26.444  1.00  0.00     0.124 S 
ATOM     85  O   UNL A   1      40.009  19.229  25.751  1.00  0.00    -0.237 OA
ATOM     86  O   UNL A   1      41.907  20.823  25.796  1.00  0.00    -0.237 OA
ATOM     87  O   UNL A   1      40.810  20.146  27.894  1.00  0.00    -0.744 OA
ENDBRANCH  80  84
ENDBRANCH  63  77
BRANCH  64  88
ATOM     88  C   UNL A   1      44.292  31.671  29.857  1.00  0.00     0.023 A 
ATOM     89  C   UNL A   1      44.389  31.887  28.457  1.00  0.00     0.031 A 
ATOM     90  C   UNL A   1      45.128  32.457  30.656  1.00  0.00     0.131 A 
ATOM     91  C   UNL A   1      45.195  32.907  27.904  1.00  0.00     0.055 A 
ATOM     92  C   UNL A   1      45.932  33.474  30.110  1.00  0.00     0.041 A 
ATOM     93  F   UNL A   1      45.102  32.338  31.990  1.00  0.00    -0.206 F 
ATOM     94  C   UNL A   1      45.934  33.733  28.740  1.00  0.00     0.022 A 
BRANCH  91  95
ATOM     95  S   UNL A   1      45.138  33.334  26.120  1.00  0.00     0.124 S 
ATOM     96  O   UNL A   1      43.907  34.105  26.016  1.00  0.00    -0.237 OA
ATOM     97  O   UNL A   1      46.379  34.070  25.911  1.00  0.00    -0.237 OA
ATOM     98  O   UNL A   1      45.120  32.025  25.468  1.00  0.00    -0.744 OA
ENDBRANCH  91  95
ENDBRANCH  64  88
BRANCH  76  99
ATOM     99  C   UNL A   1      37.294  30.177  28.654  1.00  0.00     0.023 A 
ATOM    100  C   UNL A   1      36.890  31.501  28.840  1.00  0.00     0.031 A 
ATOM    101  C   UNL A   1      36.404  29.361  27.914  1.00  0.00     0.131 A 
ATOM    102  C   UNL A   1      35.644  31.952  28.390  1.00  0.00     0.055 A 
ATOM    103  C   UNL A   1      35.202  29.835  27.387  1.00  0.00     0.041 A 
ATOM    104  F   UNL A   1      36.674  28.080  27.626  1.00  0.00    -0.206 F 
ATOM    105  C   UNL A   1      34.805  31.138  27.638  1.00  0.00     0.022 A 
BRANCH 102 106
ATOM    106  S   UNL A   1      35.148  33.615  28.884  1.00  0.00     0.124 S 
ATOM    107  O   UNL A   1      34.676  34.170  27.617  1.00  0.00    -0.237 OA
ATOM    108  O   UNL A   1      34.115  33.353  29.881  1.00  0.00    -0.237 OA
ATOM    109  O   UNL A   1      36.382  34.201  29.401  1.00  0.00    -0.744 OA
ENDBRANCH 102 106
ENDBRANCH  76  99
ENDBRANCH  50  51
ENDBRANCH  43  45
ENDBRANCH  42  43
ENDBRANCH  41  42
ENDBRANCH   1  41
TORSDOF 21
ENDMDL
MODEL 3
REMARK VINA RESULT:      -9.1      2.395      3.406
REMARK SMILES Cc1ccccc1C(=O)Nc1ccc(N2CCC(n3c(C)nc4cccnc43)CC2)c(C(=O)OCCOCCOC(=O)c2ccc(-c3c4nc(c(-c5cc(S(=O)(=O)[O-])ccc5F)c5ccc([nH]5)c(-c5cc(S(=O)(=O)[O-])ccc5F)c5nc(c(-c6cc(S(=O)(=O)[O-])ccc6F)c6ccc3[nH]6)C=C5)C=C4)cc2)c1
REMARK SMILES IDX 38 1 37 2 36 3 35 4 34 5 32 6 33 7 31 8 11 9 12 10 106 11
REMARK SMILES IDX 13 12 14 13 10 14 8 15 9 16 7 18 1 19 2 20 3 21 4 22 6 23
REMARK SMILES IDX 5 24 15 25 16 26 30 27 17 28 29 29 18 30 19 31 20 32 28 33
REMARK SMILES IDX 21 34 22 35 23 36 27 37 24 38 26 39 25 40 39 41 40 42 41 43
REMARK SMILES IDX 42 44 43 45 44 46 105 47 45 48 104 49 46 50 47 51 48 52
REMARK SMILES IDX 98 53 49 54 103 55 97 56 99 57 50 58 102 59 96 60 95 61
REMARK SMILES IDX 51 63 83 64 63 65 82 66 64 67 67 68 81 69 100 70 65 71 66 72
REMARK SMILES IDX 80 74 101 75 68 76 52 77 53 78 61 79 54 80 60 81 62 82 59 83
REMARK SMILES IDX 55 84 56 85 57 86 58 87 84 88 85 89 93 90 86 91 92 92 94 93
REMARK SMILES IDX 91 94 87 95 88 96 89 97 90 98 69 99 70 100 78 101 71 102
REMARK SMILES IDX 77 103 79 104 76 105 72 106 73 107 74 108 75 109
REMARK H PARENT 10 17 99 62 67 73
REMARK Flexibility Score: inf
ROOT
ATOM      1  C   UNL A   1      41.021  32.016  35.595  1.00  0.00     0.202 C 
ENDROOT
BRANCH   1   2
ATOM      2  O   UNL A   1      41.060  30.978  34.649  1.00  0.00    -0.374 OA
BRANCH   2   3
ATOM      3  C   UNL A   1      40.592  29.707  35.090  1.00  0.00     0.202 C 
BRANCH   3   4
ATOM      4  C   UNL A   1      40.839  28.801  33.932  1.00  0.00     0.261 C 
BRANCH   4   5
ATOM      5  O   UNL A   1      39.936  29.159  32.886  1.00  0.00    -0.460 OA
BRANCH   5   6
ATOM      6  C   UNL A   1      38.968  28.346  32.435  1.00  0.00     0.340 C 
ATOM      7  O   UNL A   1      38.081  27.822  33.071  1.00  0.00    -0.246 OA
BRANCH   6   8
ATOM      8  C   UNL A   1      39.136  28.249  30.963  1.00  0.00     0.085 A 
ATOM      9  C   UNL A   1      40.679  27.490  29.286  1.00  0.00     0.042 A 
ATOM     10  C   UNL A   1      39.857  27.997  28.289  1.00  0.00     0.028 A 
ATOM     11  C   UNL A   1      40.230  27.445  30.595  1.00  0.00     0.044 A 
ATOM     12  C   UNL A   1      38.679  28.664  28.638  1.00  0.00     0.029 A 
ATOM     13  C   UNL A   1      38.380  28.953  29.981  1.00  0.00     0.051 A 
BRANCH   9  14
ATOM     14  N   UNL A   1      42.018  27.160  29.070  1.00  0.00    -0.322 N 
ATOM     15  C   UNL A   1      42.555  25.959  28.641  1.00  0.00     0.255 C 
ATOM     16  O   UNL A   1      43.787  25.869  28.623  1.00  0.00    -0.269 OA
ATOM     17  H   UNL A   1      42.666  27.877  29.247  1.00  0.00     0.170 HD
BRANCH  15  18
ATOM     18  C   UNL A   1      41.750  24.774  28.176  1.00  0.00     0.043 A 
ATOM     19  C   UNL A   1      42.806  22.912  29.624  1.00  0.00     0.045 C 
ATOM     20  C   UNL A   1      41.910  23.423  28.541  1.00  0.00    -0.038 A 
ATOM     21  C   UNL A   1      41.114  22.433  27.927  1.00  0.00     0.004 A 
ATOM     22  C   UNL A   1      40.039  22.776  27.120  1.00  0.00     0.000 A 
ATOM     23  C   UNL A   1      40.621  25.101  27.399  1.00  0.00     0.014 A 
ATOM     24  C   UNL A   1      39.760  24.117  26.901  1.00  0.00     0.001 A 
ENDBRANCH  15  18
ENDBRANCH   9  14
BRANCH  13  25
ATOM     25  N   UNL A   1      37.546  30.064  30.181  1.00  0.00    -0.371 N 
ATOM     26  C   UNL A   1      37.115  30.864  29.026  1.00  0.00     0.118 C 
ATOM     27  C   UNL A   1      36.603  30.037  31.291  1.00  0.00     0.118 C 
ATOM     28  C   UNL A   1      36.679  32.288  29.474  1.00  0.00     0.047 C 
ATOM     29  C   UNL A   1      36.316  31.432  31.779  1.00  0.00     0.047 C 
ATOM     30  C   UNL A   1      35.674  32.257  30.659  1.00  0.00     0.094 C 
BRANCH  30  31
ATOM     31  N   UNL A   1      35.070  33.526  31.101  1.00  0.00    -0.310 N 
ATOM     32  C   UNL A   1      34.661  33.927  32.380  1.00  0.00     0.108 A 
ATOM     33  C   UNL A   1      34.425  34.404  30.240  1.00  0.00     0.160 A 
ATOM     34  C   UNL A   1      34.612  33.114  33.625  1.00  0.00     0.088 C 
ATOM     35  N   UNL A   1      34.125  35.135  32.360  1.00  0.00    -0.232 NA
ATOM     36  C   UNL A   1      33.853  35.373  31.053  1.00  0.00     0.108 A 
ATOM     37  N   UNL A   1      34.286  34.307  28.907  1.00  0.00    -0.237 NA
ATOM     38  C   UNL A   1      33.049  36.359  30.471  1.00  0.00     0.034 A 
ATOM     39  C   UNL A   1      33.415  35.213  28.397  1.00  0.00     0.113 A 
ATOM     40  C   UNL A   1      32.803  36.244  29.106  1.00  0.00     0.022 A 
ENDBRANCH  30  31
ENDBRANCH  13  25
ENDBRANCH   6   8
ENDBRANCH   5   6
ENDBRANCH   4   5
ENDBRANCH   3   4
ENDBRANCH   2   3
ENDBRANCH   1   2
BRANCH   1  41
ATOM     41  C   UNL A   1      39.602  32.558  35.773  1.00  0.00     0.261 C 
BRANCH  41  42
ATOM     42  O   UNL A   1      38.940  32.682  34.492  1.00  0.00    -0.460 OA
BRANCH  42  43
ATOM     43  C   UNL A   1      38.555  33.942  34.128  1.00  0.00     0.338 C 
ATOM     44  O   UNL A   1      37.637  34.559  34.638  1.00  0.00    -0.246 OA
BRANCH  43  45
ATOM     45  C   UNL A   1      39.357  34.415  32.961  1.00  0.00     0.060 A 
ATOM     46  C   UNL A   1      38.861  34.309  31.648  1.00  0.00     0.016 A 
ATOM     47  C   UNL A   1      40.702  34.704  33.174  1.00  0.00     0.016 A 
ATOM     48  C   UNL A   1      39.747  34.350  30.564  1.00  0.00     0.010 A 
ATOM     49  C   UNL A   1      41.579  34.564  32.127  1.00  0.00     0.010 A 
ATOM     50  C   UNL A   1      41.113  34.378  30.822  1.00  0.00    -0.014 A 
BRANCH  50  51
ATOM     51  C   UNL A   1      42.169  34.182  29.836  1.00  0.00     0.031 A 
ATOM     52  C   UNL A   1      42.628  32.805  29.605  1.00  0.00     0.074 A 
ATOM     53  C   UNL A   1      42.531  35.196  29.018  1.00  0.00     0.049 A 
ATOM     54  N   UNL A   1      43.759  32.500  29.077  1.00  0.00    -0.248 NA
ATOM     55  C   UNL A   1      41.881  31.626  30.049  1.00  0.00     0.031 C 
ATOM     56  C   UNL A   1      43.190  35.159  27.715  1.00  0.00     0.029 A 
ATOM     57  N   UNL A   1      42.393  36.564  29.253  1.00  0.00    -0.354 N 
ATOM     58  C   UNL A   1      43.668  31.173  28.723  1.00  0.00     0.074 A 
ATOM     59  C   UNL A   1      42.632  30.639  29.559  1.00  0.00     0.031 C 
ATOM     60  C   UNL A   1      43.665  36.388  27.427  1.00  0.00     0.029 A 
ATOM     61  C   UNL A   1      43.445  37.215  28.612  1.00  0.00     0.049 A 
ATOM     62  H   UNL A   1      41.680  36.993  29.779  1.00  0.00     0.167 HD
ATOM     63  C   UNL A   1      44.300  30.758  27.591  1.00  0.00     0.034 A 
ATOM     64  C   UNL A   1      44.362  37.926  29.325  1.00  0.00     0.034 A 
ATOM     65  C   UNL A   1      45.042  31.876  26.982  1.00  0.00     0.049 A 
ATOM     66  C   UNL A   1      45.692  37.288  29.022  1.00  0.00     0.074 A 
ATOM     67  C   UNL A   1      44.886  32.595  25.807  1.00  0.00     0.029 A 
ATOM     68  N   UNL A   1      45.956  32.591  27.752  1.00  0.00    -0.354 N 
ATOM     69  N   UNL A   1      45.845  35.995  28.884  1.00  0.00    -0.248 NA
ATOM     70  C   UNL A   1      46.858  38.059  28.600  1.00  0.00     0.031 C 
ATOM     71  C   UNL A   1      45.706  33.757  25.892  1.00  0.00     0.029 A 
ATOM     72  C   UNL A   1      46.353  33.746  27.118  1.00  0.00     0.049 A 
ATOM     73  H   UNL A   1      46.277  32.306  28.638  1.00  0.00     0.167 HD
ATOM     74  C   UNL A   1      47.031  35.770  28.239  1.00  0.00     0.074 A 
ATOM     75  C   UNL A   1      47.654  37.082  28.132  1.00  0.00     0.031 C 
ATOM     76  C   UNL A   1      47.395  34.572  27.695  1.00  0.00     0.034 A 
BRANCH  63  77
ATOM     77  C   UNL A   1      44.044  29.457  26.849  1.00  0.00     0.023 A 
ATOM     78  C   UNL A   1      45.132  28.576  26.680  1.00  0.00     0.031 A 
ATOM     79  C   UNL A   1      42.838  29.012  26.265  1.00  0.00     0.131 A 
ATOM     80  C   UNL A   1      45.026  27.388  25.935  1.00  0.00     0.055 A 
ATOM     81  C   UNL A   1      42.728  27.829  25.521  1.00  0.00     0.041 A 
ATOM     82  F   UNL A   1      41.681  29.664  26.391  1.00  0.00    -0.206 F 
ATOM     83  C   UNL A   1      43.827  27.010  25.346  1.00  0.00     0.022 A 
BRANCH  80  84
ATOM     84  S   UNL A   1      46.491  26.343  25.757  1.00  0.00     0.124 S 
ATOM     85  O   UNL A   1      47.545  27.211  26.273  1.00  0.00    -0.237 OA
ATOM     86  O   UNL A   1      46.148  25.185  26.575  1.00  0.00    -0.237 OA
ATOM     87  O   UNL A   1      46.548  26.087  24.319  1.00  0.00    -0.744 OA
ENDBRANCH  80  84
ENDBRANCH  63  77
BRANCH  64  88
ATOM     88  C   UNL A   1      43.847  38.442  30.646  1.00  0.00     0.023 A 
ATOM     89  C   UNL A   1      44.135  37.732  31.842  1.00  0.00     0.031 A 
ATOM     90  C   UNL A   1      43.414  39.761  30.809  1.00  0.00     0.131 A 
ATOM     91  C   UNL A   1      44.095  38.345  33.114  1.00  0.00     0.055 A 
ATOM     92  C   UNL A   1      43.373  40.377  32.073  1.00  0.00     0.041 A 
ATOM     93  F   UNL A   1      43.129  40.520  29.742  1.00  0.00    -0.206 F 
ATOM     94  C   UNL A   1      43.757  39.687  33.223  1.00  0.00     0.022 A 
BRANCH  91  95
ATOM     95  S   UNL A   1      44.691  37.492  34.626  1.00  0.00     0.124 S 
ATOM     96  O   UNL A   1      45.159  36.214  34.107  1.00  0.00    -0.237 OA
ATOM     97  O   UNL A   1      45.716  38.394  35.138  1.00  0.00    -0.237 OA
ATOM     98  O   UNL A   1      43.495  37.432  35.464  1.00  0.00    -0.744 OA
ENDBRANCH  91  95
ENDBRANCH  64  88
BRANCH  76  99
ATOM     99  C   UNL A   1      48.823  34.096  27.644  1.00  0.00     0.023 A 
ATOM    100  C   UNL A   1      49.731  34.574  26.696  1.00  0.00     0.031 A 
ATOM    101  C   UNL A   1      49.366  33.260  28.650  1.00  0.00     0.131 A 
ATOM    102  C   UNL A   1      51.071  34.174  26.706  1.00  0.00     0.055 A 
ATOM    103  C   UNL A   1      50.722  32.933  28.712  1.00  0.00     0.041 A 
ATOM    104  F   UNL A   1      48.624  32.756  29.644  1.00  0.00    -0.206 F 
ATOM    105  C   UNL A   1      51.585  33.378  27.724  1.00  0.00     0.022 A 
BRANCH 102 106
ATOM    106  S   UNL A   1      52.088  34.683  25.305  1.00  0.00     0.124 S 
ATOM    107  O   UNL A   1      51.076  35.157  24.363  1.00  0.00    -0.237 OA
ATOM    108  O   UNL A   1      52.936  35.717  25.890  1.00  0.00    -0.237 OA
ATOM    109  O   UNL A   1      52.776  33.455  24.917  1.00  0.00    -0.744 OA
ENDBRANCH 102 106
ENDBRANCH  76  99
ENDBRANCH  50  51
ENDBRANCH  43  45
ENDBRANCH  42  43
ENDBRANCH  41  42
ENDBRANCH   1  41
TORSDOF 21
ENDMDL
