MODEL 1
REMARK VINA RESULT:     -11.1      0.000      0.000
REMARK SMILES Cc1cc(C(=O)N2C[C@@H](C(=O)OCCOCCOC(=O)c3ccc(-c4c5nc(c(-c6cc(S(=O)(=O)[O-])ccc6F)c6ccc([nH]6)c(-c6cc(S(=O)(=O)[O-])ccc6F)c6nc(c(-c7cc(S(=O)(=O)[O-])ccc7F)c7ccc4[nH]7)C=C6)C=C5)cc3)[C@H](C3CC3)C2)sc1C
REMARK SMILES IDX 16 1 15 2 14 3 13 4 12 5 10 6 11 7 9 8 7 9 8 10 88 11 84 12
REMARK SMILES IDX 5 13 6 14 4 15 1 16 2 17 3 18 90 19 89 20 91 21 85 22 86 23
REMARK SMILES IDX 87 24 17 25 18 26 19 27 20 28 21 29 22 30 83 31 23 32 82 33
REMARK SMILES IDX 24 34 25 35 26 36 76 37 27 38 81 39 75 40 77 41 28 42 80 43
REMARK SMILES IDX 74 44 73 45 29 47 61 48 41 49 60 50 42 51 45 52 59 53 78 54
REMARK SMILES IDX 43 55 44 56 58 58 79 59 46 60 30 61 31 62 39 63 32 64 38 65
REMARK SMILES IDX 40 66 37 67 33 68 34 69 35 70 36 71 62 72 63 73 71 74 64 75
REMARK SMILES IDX 70 76 72 77 69 78 65 79 66 80 67 81 68 82 47 83 48 84 56 85
REMARK SMILES IDX 49 86 55 87 57 88 54 89 50 90 51 91 52 92 53 93
REMARK H PARENT 77 46 45 57
REMARK Flexibility Score: inf
ROOT
ATOM      1  C   UNL A   1      30.733  31.957  25.379  1.00  0.00     0.202 C 
ENDROOT
BRANCH   1   2
ATOM      2  O   UNL A   1      30.304  30.736  24.782  1.00  0.00    -0.374 OA
BRANCH   2   3
ATOM      3  C   UNL A   1      29.403  30.823  23.676  1.00  0.00     0.202 C 
BRANCH   3   4
ATOM      4  C   UNL A   1      29.763  29.972  22.455  1.00  0.00     0.261 C 
BRANCH   4   5
ATOM      5  O   UNL A   1      28.898  28.829  22.368  1.00  0.00    -0.463 OA
BRANCH   5   6
ATOM      6  C   UNL A   1      29.144  27.807  23.232  1.00  0.00     0.311 C 
ATOM      7  O   UNL A   1      28.299  27.111  23.775  1.00  0.00    -0.252 OA
BRANCH   6   8
ATOM      8  C   UNL A   1      30.630  27.616  23.385  1.00  0.00     0.124 C 
ATOM      9  N   UNL A   1      32.295  26.025  23.081  1.00  0.00    -0.337 N 
ATOM     10  C   UNL A   1      31.153  26.586  22.394  1.00  0.00     0.135 C 
ATOM     11  C   UNL A   1      32.014  25.946  24.496  1.00  0.00     0.124 C 
ATOM     12  C   UNL A   1      30.974  27.049  24.775  1.00  0.00     0.028 C 
BRANCH   9  13
ATOM     13  C   UNL A   1      33.295  25.256  22.515  1.00  0.00     0.263 C 
ATOM     14  O   UNL A   1      33.815  25.619  21.457  1.00  0.00    -0.268 OA
BRANCH  13  15
ATOM     15  C   UNL A   1      33.602  23.953  23.104  1.00  0.00     0.093 A 
ATOM     16  C   UNL A   1      32.455  20.479  24.016  1.00  0.00     0.045 C 
ATOM     17  C   UNL A   1      33.218  21.755  23.876  1.00  0.00    -0.037 A 
ATOM     18  C   UNL A   1      32.823  22.814  22.991  1.00  0.00     0.029 A 
ATOM     19  C   UNL A   1      34.349  22.111  24.591  1.00  0.00     0.005 A 
ATOM     20  S   UNL A   1      34.872  23.695  24.217  1.00  0.00    -0.135 S 
ATOM     21  C   UNL A   1      35.081  21.321  25.628  1.00  0.00     0.056 C 
ENDBRANCH  13  15
ENDBRANCH   9  13
BRANCH  12  22
ATOM     22  C   UNL A   1      31.476  28.046  25.797  1.00  0.00    -0.005 C 
ATOM     23  C   UNL A   1      31.580  27.814  27.288  1.00  0.00     0.004 C 
ATOM     24  C   UNL A   1      32.824  27.850  26.445  1.00  0.00     0.004 C 
ENDBRANCH  12  22
ENDBRANCH   6   8
ENDBRANCH   5   6
ENDBRANCH   4   5
ENDBRANCH   3   4
ENDBRANCH   2   3
ENDBRANCH   1   2
BRANCH   1  25
ATOM     25  C   UNL A   1      31.290  31.883  26.805  1.00  0.00     0.261 C 
BRANCH  25  26
ATOM     26  O   UNL A   1      32.698  31.597  26.830  1.00  0.00    -0.460 OA
BRANCH  26  27
ATOM     27  C   UNL A   1      33.444  32.519  27.486  1.00  0.00     0.338 C 
ATOM     28  O   UNL A   1      33.081  33.631  27.848  1.00  0.00    -0.246 OA
BRANCH  27  29
ATOM     29  C   UNL A   1      34.741  31.942  27.878  1.00  0.00     0.060 A 
ATOM     30  C   UNL A   1      34.784  30.566  28.141  1.00  0.00     0.016 A 
ATOM     31  C   UNL A   1      35.872  32.738  28.071  1.00  0.00     0.016 A 
ATOM     32  C   UNL A   1      35.945  29.989  28.652  1.00  0.00     0.010 A 
ATOM     33  C   UNL A   1      37.034  32.158  28.592  1.00  0.00     0.010 A 
ATOM     34  C   UNL A   1      37.062  30.790  28.920  1.00  0.00    -0.014 A 
BRANCH  34  35
ATOM     35  C   UNL A   1      38.194  30.230  29.698  1.00  0.00     0.031 A 
ATOM     36  C   UNL A   1      38.406  30.707  31.109  1.00  0.00     0.074 A 
ATOM     37  C   UNL A   1      39.002  29.295  29.167  1.00  0.00     0.049 A 
ATOM     38  N   UNL A   1      39.359  30.409  31.954  1.00  0.00    -0.248 NA
ATOM     39  C   UNL A   1      37.408  31.652  31.631  1.00  0.00     0.031 C 
ATOM     40  C   UNL A   1      38.857  28.718  27.832  1.00  0.00     0.029 A 
ATOM     41  N   UNL A   1      40.108  28.673  29.687  1.00  0.00    -0.354 N 
ATOM     42  C   UNL A   1      39.079  31.133  33.109  1.00  0.00     0.074 A 
ATOM     43  C   UNL A   1      37.890  31.914  32.836  1.00  0.00     0.031 C 
ATOM     44  C   UNL A   1      39.847  27.831  27.633  1.00  0.00     0.029 A 
ATOM     45  C   UNL A   1      40.718  27.811  28.807  1.00  0.00     0.049 A 
ATOM     46  H   UNL A   1      40.434  28.830  30.602  1.00  0.00     0.167 HD
ATOM     47  C   UNL A   1      39.748  31.139  34.289  1.00  0.00     0.034 A 
ATOM     48  C   UNL A   1      41.863  27.108  28.927  1.00  0.00     0.034 A 
ATOM     49  C   UNL A   1      40.941  30.365  34.535  1.00  0.00     0.049 A 
ATOM     50  C   UNL A   1      42.650  27.208  30.212  1.00  0.00     0.074 A 
ATOM     51  C   UNL A   1      41.698  30.289  35.691  1.00  0.00     0.029 A 
ATOM     52  N   UNL A   1      41.561  29.542  33.602  1.00  0.00    -0.354 N 
ATOM     53  N   UNL A   1      42.381  27.899  31.296  1.00  0.00    -0.248 NA
ATOM     54  C   UNL A   1      43.893  26.429  30.290  1.00  0.00     0.031 C 
ATOM     55  C   UNL A   1      42.812  29.481  35.435  1.00  0.00     0.029 A 
ATOM     56  C   UNL A   1      42.708  28.984  34.145  1.00  0.00     0.049 A 
ATOM     57  H   UNL A   1      41.232  29.378  32.689  1.00  0.00     0.167 HD
ATOM     58  C   UNL A   1      43.404  27.610  32.196  1.00  0.00     0.074 A 
ATOM     59  C   UNL A   1      44.291  26.678  31.530  1.00  0.00     0.031 C 
ATOM     60  C   UNL A   1      43.588  28.064  33.463  1.00  0.00     0.034 A 
BRANCH  47  61
ATOM     61  C   UNL A   1      39.230  32.055  35.371  1.00  0.00     0.023 A 
ATOM     62  C   UNL A   1      39.663  33.389  35.484  1.00  0.00     0.031 A 
ATOM     63  C   UNL A   1      38.326  31.575  36.336  1.00  0.00     0.131 A 
ATOM     64  C   UNL A   1      39.257  34.168  36.578  1.00  0.00     0.055 A 
ATOM     65  C   UNL A   1      37.861  32.382  37.376  1.00  0.00     0.041 A 
ATOM     66  F   UNL A   1      37.896  30.304  36.297  1.00  0.00    -0.206 F 
ATOM     67  C   UNL A   1      38.338  33.681  37.511  1.00  0.00     0.022 A 
BRANCH  64  68
ATOM     68  S   UNL A   1      40.069  35.766  36.853  1.00  0.00     0.124 S 
ATOM     69  O   UNL A   1      39.669  36.509  35.660  1.00  0.00    -0.237 OA
ATOM     70  O   UNL A   1      39.477  36.209  38.109  1.00  0.00    -0.237 OA
ATOM     71  O   UNL A   1      41.488  35.423  36.918  1.00  0.00    -0.744 OA
ENDBRANCH  64  68
ENDBRANCH  47  61
BRANCH  48  72
ATOM     72  C   UNL A   1      42.363  26.284  27.791  1.00  0.00     0.023 A 
ATOM     73  C   UNL A   1      41.940  24.958  27.614  1.00  0.00     0.031 A 
ATOM     74  C   UNL A   1      43.309  26.803  26.887  1.00  0.00     0.131 A 
ATOM     75  C   UNL A   1      42.489  24.182  26.581  1.00  0.00     0.055 A 
ATOM     76  C   UNL A   1      43.815  26.042  25.832  1.00  0.00     0.041 A 
ATOM     77  F   UNL A   1      43.747  28.066  27.013  1.00  0.00    -0.206 F 
ATOM     78  C   UNL A   1      43.414  24.719  25.681  1.00  0.00     0.022 A 
BRANCH  75  79
ATOM     79  S   UNL A   1      42.032  22.430  26.474  1.00  0.00     0.124 S 
ATOM     80  O   UNL A   1      42.836  21.982  25.343  1.00  0.00    -0.237 OA
ATOM     81  O   UNL A   1      42.435  21.932  27.785  1.00  0.00    -0.237 OA
ATOM     82  O   UNL A   1      40.590  22.469  26.240  1.00  0.00    -0.744 OA
ENDBRANCH  75  79
ENDBRANCH  48  72
BRANCH  60  83
ATOM     83  C   UNL A   1      44.768  27.514  34.227  1.00  0.00     0.023 A 
ATOM     84  C   UNL A   1      44.661  26.376  35.047  1.00  0.00     0.031 A 
ATOM     85  C   UNL A   1      46.024  28.141  34.129  1.00  0.00     0.131 A 
ATOM     86  C   UNL A   1      45.777  25.930  35.771  1.00  0.00     0.055 A 
ATOM     87  C   UNL A   1      47.143  27.659  34.807  1.00  0.00     0.041 A 
ATOM     88  F   UNL A   1      46.183  29.232  33.362  1.00  0.00    -0.206 F 
ATOM     89  C   UNL A   1      47.021  26.553  35.643  1.00  0.00     0.022 A 
BRANCH  86  90
ATOM     90  S   UNL A   1      45.564  24.565  36.949  1.00  0.00     0.124 S 
ATOM     91  O   UNL A   1      46.788  24.652  37.738  1.00  0.00    -0.237 OA
ATOM     92  O   UNL A   1      44.333  24.936  37.638  1.00  0.00    -0.237 OA
ATOM     93  O   UNL A   1      45.462  23.385  36.091  1.00  0.00    -0.744 OA
ENDBRANCH  86  90
ENDBRANCH  60  83
ENDBRANCH  34  35
ENDBRANCH  27  29
ENDBRANCH  26  27
ENDBRANCH  25  26
ENDBRANCH   1  25
TORSDOF 20
ENDMDL
MODEL 2
REMARK VINA RESULT:     -11.0      4.735     10.446
REMARK SMILES Cc1cc(C(=O)N2C[C@@H](C(=O)OCCOCCOC(=O)c3ccc(-c4c5nc(c(-c6cc(S(=O)(=O)[O-])ccc6F)c6ccc([nH]6)c(-c6cc(S(=O)(=O)[O-])ccc6F)c6nc(c(-c7cc(S(=O)(=O)[O-])ccc7F)c7ccc4[nH]7)C=C6)C=C5)cc3)[C@H](C3CC3)C2)sc1C
REMARK SMILES IDX 16 1 15 2 14 3 13 4 12 5 10 6 11 7 9 8 7 9 8 10 88 11 84 12
REMARK SMILES IDX 5 13 6 14 4 15 1 16 2 17 3 18 90 19 89 20 91 21 85 22 86 23
REMARK SMILES IDX 87 24 17 25 18 26 19 27 20 28 21 29 22 30 83 31 23 32 82 33
REMARK SMILES IDX 24 34 25 35 26 36 76 37 27 38 81 39 75 40 77 41 28 42 80 43
REMARK SMILES IDX 74 44 73 45 29 47 61 48 41 49 60 50 42 51 45 52 59 53 78 54
REMARK SMILES IDX 43 55 44 56 58 58 79 59 46 60 30 61 31 62 39 63 32 64 38 65
REMARK SMILES IDX 40 66 37 67 33 68 34 69 35 70 36 71 62 72 63 73 71 74 64 75
REMARK SMILES IDX 70 76 72 77 69 78 65 79 66 80 67 81 68 82 47 83 48 84 56 85
REMARK SMILES IDX 49 86 55 87 57 88 54 89 50 90 51 91 52 92 53 93
REMARK H PARENT 77 46 45 57
REMARK Flexibility Score: inf
ROOT
ATOM      1  C   UNL A   1      37.385  19.816  24.964  1.00  0.00     0.202 C 
ENDROOT
BRANCH   1   2
ATOM      2  O   UNL A   1      37.365  21.166  24.506  1.00  0.00    -0.374 OA
BRANCH   2   3
ATOM      3  C   UNL A   1      36.667  22.124  25.304  1.00  0.00     0.202 C 
BRANCH   3   4
ATOM      4  C   UNL A   1      36.524  23.521  24.695  1.00  0.00     0.261 C 
BRANCH   4   5
ATOM      5  O   UNL A   1      35.161  23.967  24.778  1.00  0.00    -0.463 OA
BRANCH   5   6
ATOM      6  C   UNL A   1      34.447  23.975  23.619  1.00  0.00     0.311 C 
ATOM      7  O   UNL A   1      34.672  23.283  22.637  1.00  0.00    -0.252 OA
BRANCH   6   8
ATOM      8  C   UNL A   1      33.290  24.930  23.741  1.00  0.00     0.124 C 
ATOM      9  N   UNL A   1      32.769  27.183  23.535  1.00  0.00    -0.337 N 
ATOM     10  C   UNL A   1      33.481  26.138  22.835  1.00  0.00     0.135 C 
ATOM     11  C   UNL A   1      32.936  27.010  24.960  1.00  0.00     0.124 C 
ATOM     12  C   UNL A   1      33.196  25.505  25.166  1.00  0.00     0.028 C 
BRANCH   9  13
ATOM     13  C   UNL A   1      32.385  28.405  23.012  1.00  0.00     0.263 C 
ATOM     14  O   UNL A   1      33.214  29.314  22.922  1.00  0.00    -0.268 OA
BRANCH  13  15
ATOM     15  C   UNL A   1      30.970  28.636  22.723  1.00  0.00     0.093 A 
ATOM     16  C   UNL A   1      28.298  30.883  21.298  1.00  0.00     0.045 C 
ATOM     17  C   UNL A   1      29.045  29.797  21.999  1.00  0.00    -0.037 A 
ATOM     18  C   UNL A   1      30.468  29.630  21.900  1.00  0.00     0.029 A 
ATOM     19  C   UNL A   1      28.501  28.856  22.858  1.00  0.00     0.005 A 
ATOM     20  S   UNL A   1      29.697  27.844  23.541  1.00  0.00    -0.135 S 
ATOM     21  C   UNL A   1      27.072  28.682  23.261  1.00  0.00     0.056 C 
ENDBRANCH  13  15
ENDBRANCH   9  13
BRANCH  12  22
ATOM     22  C   UNL A   1      32.159  24.877  26.073  1.00  0.00    -0.005 C 
ATOM     23  C   UNL A   1      30.663  25.091  25.994  1.00  0.00     0.004 C 
ATOM     24  C   UNL A   1      31.259  23.785  25.549  1.00  0.00     0.004 C 
ENDBRANCH  12  22
ENDBRANCH   6   8
ENDBRANCH   5   6
ENDBRANCH   4   5
ENDBRANCH   3   4
ENDBRANCH   2   3
ENDBRANCH   1   2
BRANCH   1  25
ATOM     25  C   UNL A   1      38.757  19.168  25.181  1.00  0.00     0.261 C 
BRANCH  25  26
ATOM     26  O   UNL A   1      39.333  19.515  26.450  1.00  0.00    -0.460 OA
BRANCH  26  27
ATOM     27  C   UNL A   1      40.633  19.893  26.389  1.00  0.00     0.338 C 
ATOM     28  O   UNL A   1      41.551  19.276  25.861  1.00  0.00    -0.246 OA
BRANCH  27  29
ATOM     29  C   UNL A   1      40.792  21.264  26.901  1.00  0.00     0.060 A 
ATOM     30  C   UNL A   1      40.171  22.297  26.187  1.00  0.00     0.016 A 
ATOM     31  C   UNL A   1      41.601  21.549  28.004  1.00  0.00     0.016 A 
ATOM     32  C   UNL A   1      40.401  23.626  26.539  1.00  0.00     0.010 A 
ATOM     33  C   UNL A   1      41.837  22.884  28.350  1.00  0.00     0.010 A 
ATOM     34  C   UNL A   1      41.269  23.927  27.597  1.00  0.00    -0.014 A 
BRANCH  34  35
ATOM     35  C   UNL A   1      41.713  25.327  27.802  1.00  0.00     0.031 A 
ATOM     36  C   UNL A   1      43.089  25.724  27.339  1.00  0.00     0.074 A 
ATOM     37  C   UNL A   1      40.897  26.235  28.367  1.00  0.00     0.049 A 
ATOM     38  N   UNL A   1      43.714  26.865  27.467  1.00  0.00    -0.248 NA
ATOM     39  C   UNL A   1      43.862  24.686  26.641  1.00  0.00     0.031 C 
ATOM     40  C   UNL A   1      39.526  25.978  28.802  1.00  0.00     0.029 A 
ATOM     41  N   UNL A   1      41.110  27.554  28.676  1.00  0.00    -0.354 N 
ATOM     42  C   UNL A   1      44.957  26.684  26.870  1.00  0.00     0.074 A 
ATOM     43  C   UNL A   1      45.008  25.310  26.417  1.00  0.00     0.031 C 
ATOM     44  C   UNL A   1      39.021  27.105  29.333  1.00  0.00     0.029 A 
ATOM     45  C   UNL A   1      40.047  28.146  29.315  1.00  0.00     0.049 A 
ATOM     46  H   UNL A   1      41.944  28.030  28.462  1.00  0.00     0.167 HD
ATOM     47  C   UNL A   1      45.959  27.585  26.708  1.00  0.00     0.034 A 
ATOM     48  C   UNL A   1      39.928  29.379  29.850  1.00  0.00     0.034 A 
ATOM     49  C   UNL A   1      45.894  28.946  27.181  1.00  0.00     0.049 A 
ATOM     50  C   UNL A   1      41.093  30.335  29.750  1.00  0.00     0.074 A 
ATOM     51  C   UNL A   1      46.845  29.946  27.069  1.00  0.00     0.029 A 
ATOM     52  N   UNL A   1      44.821  29.497  27.872  1.00  0.00    -0.354 N 
ATOM     53  N   UNL A   1      42.267  30.153  29.189  1.00  0.00    -0.248 NA
ATOM     54  C   UNL A   1      40.915  31.662  30.353  1.00  0.00     0.031 C 
ATOM     55  C   UNL A   1      46.378  31.074  27.753  1.00  0.00     0.029 A 
ATOM     56  C   UNL A   1      45.101  30.809  28.222  1.00  0.00     0.049 A 
ATOM     57  H   UNL A   1      43.983  29.024  28.082  1.00  0.00     0.167 HD
ATOM     58  C   UNL A   1      42.953  31.355  29.342  1.00  0.00     0.074 A 
ATOM     59  C   UNL A   1      42.059  32.255  30.044  1.00  0.00     0.031 C 
ATOM     60  C   UNL A   1      44.203  31.690  28.931  1.00  0.00     0.034 A 
BRANCH  47  61
ATOM     61  C   UNL A   1      47.223  27.097  26.043  1.00  0.00     0.023 A 
ATOM     62  C   UNL A   1      48.186  26.345  26.740  1.00  0.00     0.031 A 
ATOM     63  C   UNL A   1      47.495  27.430  24.703  1.00  0.00     0.131 A 
ATOM     64  C   UNL A   1      49.405  26.023  26.125  1.00  0.00     0.055 A 
ATOM     65  C   UNL A   1      48.675  27.034  24.070  1.00  0.00     0.041 A 
ATOM     66  F   UNL A   1      46.627  28.166  23.992  1.00  0.00    -0.206 F 
ATOM     67  C   UNL A   1      49.645  26.339  24.785  1.00  0.00     0.022 A 
BRANCH  64  68
ATOM     68  S   UNL A   1      50.733  25.325  27.144  1.00  0.00     0.124 S 
ATOM     69  O   UNL A   1      50.030  24.265  27.861  1.00  0.00    -0.237 OA
ATOM     70  O   UNL A   1      51.701  24.887  26.145  1.00  0.00    -0.237 OA
ATOM     71  O   UNL A   1      51.157  26.452  27.972  1.00  0.00    -0.744 OA
ENDBRANCH  64  68
ENDBRANCH  47  61
BRANCH  48  72
ATOM     72  C   UNL A   1      38.681  29.772  30.565  1.00  0.00     0.023 A 
ATOM     73  C   UNL A   1      37.704  30.562  29.941  1.00  0.00     0.031 A 
ATOM     74  C   UNL A   1      38.470  29.395  31.904  1.00  0.00     0.131 A 
ATOM     75  C   UNL A   1      36.578  30.983  30.667  1.00  0.00     0.055 A 
ATOM     76  C   UNL A   1      37.325  29.774  32.606  1.00  0.00     0.041 A 
ATOM     77  F   UNL A   1      39.375  28.639  32.548  1.00  0.00    -0.206 F 
ATOM     78  C   UNL A   1      36.375  30.583  31.990  1.00  0.00     0.022 A 
BRANCH  75  79
ATOM     79  S   UNL A   1      35.413  32.126  29.876  1.00  0.00     0.124 S 
ATOM     80  O   UNL A   1      34.514  32.444  30.979  1.00  0.00    -0.237 OA
ATOM     81  O   UNL A   1      36.295  33.202  29.436  1.00  0.00    -0.237 OA
ATOM     82  O   UNL A   1      34.827  31.326  28.803  1.00  0.00    -0.744 OA
ENDBRANCH  75  79
ENDBRANCH  48  72
BRANCH  60  83
ATOM     83  C   UNL A   1      44.655  33.108  29.184  1.00  0.00     0.023 A 
ATOM     84  C   UNL A   1      44.385  34.150  28.278  1.00  0.00     0.031 A 
ATOM     85  C   UNL A   1      45.367  33.421  30.357  1.00  0.00     0.131 A 
ATOM     86  C   UNL A   1      44.864  35.443  28.538  1.00  0.00     0.055 A 
ATOM     87  C   UNL A   1      45.791  34.720  30.637  1.00  0.00     0.041 A 
ATOM     88  F   UNL A   1      45.654  32.465  31.256  1.00  0.00    -0.206 F 
ATOM     89  C   UNL A   1      45.550  35.738  29.719  1.00  0.00     0.022 A 
BRANCH  86  90
ATOM     90  S   UNL A   1      44.646  36.725  27.272  1.00  0.00     0.124 S 
ATOM     91  O   UNL A   1      44.597  37.941  28.077  1.00  0.00    -0.237 OA
ATOM     92  O   UNL A   1      45.837  36.554  26.446  1.00  0.00    -0.237 OA
ATOM     93  O   UNL A   1      43.387  36.358  26.625  1.00  0.00    -0.744 OA
ENDBRANCH  86  90
ENDBRANCH  60  83
ENDBRANCH  34  35
ENDBRANCH  27  29
ENDBRANCH  26  27
ENDBRANCH  25  26
ENDBRANCH   1  25
TORSDOF 20
ENDMDL
MODEL 3
REMARK VINA RESULT:     -11.0      1.833      2.428
REMARK SMILES Cc1cc(C(=O)N2C[C@@H](C(=O)OCCOCCOC(=O)c3ccc(-c4c5nc(c(-c6cc(S(=O)(=O)[O-])ccc6F)c6ccc([nH]6)c(-c6cc(S(=O)(=O)[O-])ccc6F)c6nc(c(-c7cc(S(=O)(=O)[O-])ccc7F)c7ccc4[nH]7)C=C6)C=C5)cc3)[C@H](C3CC3)C2)sc1C
REMARK SMILES IDX 16 1 15 2 14 3 13 4 12 5 10 6 11 7 9 8 7 9 8 10 88 11 84 12
REMARK SMILES IDX 5 13 6 14 4 15 1 16 2 17 3 18 90 19 89 20 91 21 85 22 86 23
REMARK SMILES IDX 87 24 17 25 18 26 19 27 20 28 21 29 22 30 83 31 23 32 82 33
REMARK SMILES IDX 24 34 25 35 26 36 76 37 27 38 81 39 75 40 77 41 28 42 80 43
REMARK SMILES IDX 74 44 73 45 29 47 61 48 41 49 60 50 42 51 45 52 59 53 78 54
REMARK SMILES IDX 43 55 44 56 58 58 79 59 46 60 30 61 31 62 39 63 32 64 38 65
REMARK SMILES IDX 40 66 37 67 33 68 34 69 35 70 36 71 62 72 63 73 71 74 64 75
REMARK SMILES IDX 70 76 72 77 69 78 65 79 66 80 67 81 68 82 47 83 48 84 56 85
REMARK SMILES IDX 49 86 55 87 57 88 54 89 50 90 51 91 52 92 53 93
REMARK H PARENT 77 46 45 57
REMARK Flexibility Score: inf
ROOT
ATOM      1  C   UNL A   1      31.016  31.937  26.057  1.00  0.00     0.202 C 
ENDROOT
BRANCH   1   2
ATOM      2  O   UNL A   1      31.279  30.613  25.598  1.00  0.00    -0.374 OA
BRANCH   2   3
ATOM      3  C   UNL A   1      32.224  29.835  26.335  1.00  0.00     0.202 C 
BRANCH   3   4
ATOM      4  C   UNL A   1      33.236  29.049  25.498  1.00  0.00     0.261 C 
BRANCH   4   5
ATOM      5  O   UNL A   1      33.080  29.354  24.104  1.00  0.00    -0.463 OA
BRANCH   5   6
ATOM      6  C   UNL A   1      33.628  28.478  23.219  1.00  0.00     0.311 C 
ATOM      7  O   UNL A   1      34.472  28.747  22.377  1.00  0.00    -0.252 OA
BRANCH   6   8
ATOM      8  C   UNL A   1      33.080  27.097  23.464  1.00  0.00     0.124 C 
ATOM      9  N   UNL A   1      32.995  24.983  22.506  1.00  0.00    -0.337 N 
ATOM     10  C   UNL A   1      33.941  26.039  22.787  1.00  0.00     0.135 C 
ATOM     11  C   UNL A   1      31.720  25.561  22.151  1.00  0.00     0.124 C 
ATOM     12  C   UNL A   1      31.681  26.939  22.840  1.00  0.00     0.028 C 
BRANCH   9  13
ATOM     13  C   UNL A   1      33.302  23.680  22.160  1.00  0.00     0.263 C 
ATOM     14  O   UNL A   1      33.276  23.345  20.973  1.00  0.00    -0.268 OA
BRANCH  13  15
ATOM     15  C   UNL A   1      33.499  22.695  23.223  1.00  0.00     0.093 A 
ATOM     16  C   UNL A   1      35.874  20.707  25.373  1.00  0.00     0.045 C 
ATOM     17  C   UNL A   1      34.669  21.251  24.680  1.00  0.00    -0.037 A 
ATOM     18  C   UNL A   1      34.696  22.436  23.870  1.00  0.00     0.029 A 
ATOM     19  C   UNL A   1      33.406  20.683  24.674  1.00  0.00     0.005 A 
ATOM     20  S   UNL A   1      32.318  21.549  23.681  1.00  0.00    -0.135 S 
ATOM     21  C   UNL A   1      32.943  19.439  25.362  1.00  0.00     0.056 C 
ENDBRANCH  13  15
ENDBRANCH   9  13
BRANCH  12  22
ATOM     22  C   UNL A   1      30.509  27.058  23.791  1.00  0.00    -0.005 C 
ATOM     23  C   UNL A   1      29.198  27.753  23.501  1.00  0.00     0.004 C 
ATOM     24  C   UNL A   1      29.256  26.252  23.549  1.00  0.00     0.004 C 
ENDBRANCH  12  22
ENDBRANCH   6   8
ENDBRANCH   5   6
ENDBRANCH   4   5
ENDBRANCH   3   4
ENDBRANCH   2   3
ENDBRANCH   1   2
BRANCH   1  25
ATOM     25  C   UNL A   1      31.782  32.417  27.294  1.00  0.00     0.261 C 
BRANCH  25  26
ATOM     26  O   UNL A   1      32.947  33.185  26.955  1.00  0.00    -0.460 OA
BRANCH  26  27
ATOM     27  C   UNL A   1      33.590  33.725  28.019  1.00  0.00     0.338 C 
ATOM     28  O   UNL A   1      33.185  34.631  28.737  1.00  0.00    -0.246 OA
BRANCH  27  29
ATOM     29  C   UNL A   1      34.805  32.951  28.328  1.00  0.00     0.060 A 
ATOM     30  C   UNL A   1      34.642  31.605  28.680  1.00  0.00     0.016 A 
ATOM     31  C   UNL A   1      36.068  33.547  28.360  1.00  0.00     0.016 A 
ATOM     32  C   UNL A   1      35.735  30.862  29.120  1.00  0.00     0.010 A 
ATOM     33  C   UNL A   1      37.162  32.801  28.810  1.00  0.00     0.010 A 
ATOM     34  C   UNL A   1      36.994  31.468  29.228  1.00  0.00    -0.014 A 
BRANCH  34  35
ATOM     35  C   UNL A   1      38.089  30.760  29.934  1.00  0.00     0.031 A 
ATOM     36  C   UNL A   1      38.340  31.082  31.382  1.00  0.00     0.074 A 
ATOM     37  C   UNL A   1      38.828  29.829  29.306  1.00  0.00     0.049 A 
ATOM     38  N   UNL A   1      39.275  30.640  32.183  1.00  0.00    -0.248 NA
ATOM     39  C   UNL A   1      37.412  32.037  32.006  1.00  0.00     0.031 C 
ATOM     40  C   UNL A   1      38.637  29.396  27.923  1.00  0.00     0.029 A 
ATOM     41  N   UNL A   1      39.892  29.087  29.750  1.00  0.00    -0.354 N 
ATOM     42  C   UNL A   1      39.052  31.266  33.406  1.00  0.00     0.074 A 
ATOM     43  C   UNL A   1      37.917  32.147  33.224  1.00  0.00     0.031 C 
ATOM     44  C   UNL A   1      39.564  28.468  27.627  1.00  0.00     0.029 A 
ATOM     45  C   UNL A   1      40.437  28.275  28.784  1.00  0.00     0.049 A 
ATOM     46  H   UNL A   1      40.234  29.132  30.672  1.00  0.00     0.167 HD
ATOM     47  C   UNL A   1      39.725  31.111  34.573  1.00  0.00     0.034 A 
ATOM     48  C   UNL A   1      41.533  27.489  28.822  1.00  0.00     0.034 A 
ATOM     49  C   UNL A   1      40.865  30.239  34.729  1.00  0.00     0.049 A 
ATOM     50  C   UNL A   1      42.332  27.410  30.101  1.00  0.00     0.074 A 
ATOM     51  C   UNL A   1      41.621  30.000  35.863  1.00  0.00     0.029 A 
ATOM     52  N   UNL A   1      41.422  29.471  33.713  1.00  0.00    -0.354 N 
ATOM     53  N   UNL A   1      42.116  28.009  31.249  1.00  0.00    -0.248 NA
ATOM     54  C   UNL A   1      43.519  26.545  30.088  1.00  0.00     0.031 C 
ATOM     55  C   UNL A   1      42.676  29.148  35.516  1.00  0.00     0.029 A 
ATOM     56  C   UNL A   1      42.531  28.787  34.186  1.00  0.00     0.049 A 
ATOM     57  H   UNL A   1      41.078  29.420  32.792  1.00  0.00     0.167 HD
ATOM     58  C   UNL A   1      43.122  27.566  32.105  1.00  0.00     0.074 A 
ATOM     59  C   UNL A   1      43.940  26.646  31.341  1.00  0.00     0.031 C 
ATOM     60  C   UNL A   1      43.343  27.881  33.407  1.00  0.00     0.034 A 
BRANCH  47  61
ATOM     61  C   UNL A   1      39.277  31.951  35.745  1.00  0.00     0.023 A 
ATOM     62  C   UNL A   1      38.552  31.400  36.817  1.00  0.00     0.031 A 
ATOM     63  C   UNL A   1      39.535  33.334  35.768  1.00  0.00     0.131 A 
ATOM     64  C   UNL A   1      38.043  32.237  37.822  1.00  0.00     0.055 A 
ATOM     65  C   UNL A   1      39.097  34.147  36.814  1.00  0.00     0.041 A 
ATOM     66  F   UNL A   1      40.200  33.921  34.762  1.00  0.00    -0.206 F 
ATOM     67  C   UNL A   1      38.332  33.603  37.842  1.00  0.00     0.022 A 
BRANCH  64  68
ATOM     68  S   UNL A   1      36.865  31.542  39.014  1.00  0.00     0.124 S 
ATOM     69  O   UNL A   1      36.695  30.184  38.504  1.00  0.00    -0.237 OA
ATOM     70  O   UNL A   1      37.584  31.665  40.277  1.00  0.00    -0.237 OA
ATOM     71  O   UNL A   1      35.691  32.402  38.878  1.00  0.00    -0.744 OA
ENDBRANCH  64  68
ENDBRANCH  47  61
BRANCH  48  72
ATOM     72  C   UNL A   1      41.970  26.748  27.605  1.00  0.00     0.023 A 
ATOM     73  C   UNL A   1      41.758  25.367  27.481  1.00  0.00     0.031 A 
ATOM     74  C   UNL A   1      42.647  27.409  26.564  1.00  0.00     0.131 A 
ATOM     75  C   UNL A   1      42.251  24.682  26.359  1.00  0.00     0.055 A 
ATOM     76  C   UNL A   1      43.092  26.732  25.427  1.00  0.00     0.041 A 
ATOM     77  F   UNL A   1      42.876  28.730  26.633  1.00  0.00    -0.206 F 
ATOM     78  C   UNL A   1      42.905  25.357  25.325  1.00  0.00     0.022 A 
BRANCH  75  79
ATOM     79  S   UNL A   1      42.092  22.877  26.303  1.00  0.00     0.124 S 
ATOM     80  O   UNL A   1      42.886  22.472  27.457  1.00  0.00    -0.237 OA
ATOM     81  O   UNL A   1      40.648  22.697  26.422  1.00  0.00    -0.237 OA
ATOM     82  O   UNL A   1      42.656  22.525  25.002  1.00  0.00    -0.744 OA
ENDBRANCH  75  79
ENDBRANCH  48  72
BRANCH  60  83
ATOM     83  C   UNL A   1      44.487  27.181  34.101  1.00  0.00     0.023 A 
ATOM     84  C   UNL A   1      44.360  25.881  34.624  1.00  0.00     0.031 A 
ATOM     85  C   UNL A   1      45.729  27.829  34.237  1.00  0.00     0.131 A 
ATOM     86  C   UNL A   1      45.439  25.291  35.298  1.00  0.00     0.055 A 
ATOM     87  C   UNL A   1      46.816  27.214  34.858  1.00  0.00     0.041 A 
ATOM     88  F   UNL A   1      45.906  29.071  33.758  1.00  0.00    -0.206 F 
ATOM     89  C   UNL A   1      46.671  25.941  35.403  1.00  0.00     0.022 A 
BRANCH  86  90
ATOM     90  S   UNL A   1      45.190  23.686  36.107  1.00  0.00     0.124 S 
ATOM     91  O   UNL A   1      43.939  23.235  35.508  1.00  0.00    -0.237 OA
ATOM     92  O   UNL A   1      46.387  22.949  35.717  1.00  0.00    -0.237 OA
ATOM     93  O   UNL A   1      45.109  24.027  37.527  1.00  0.00    -0.744 OA
ENDBRANCH  86  90
ENDBRANCH  60  83
ENDBRANCH  34  35
ENDBRANCH  27  29
ENDBRANCH  26  27
ENDBRANCH  25  26
ENDBRANCH   1  25
TORSDOF 20
ENDMDL
