MODEL 1
REMARK VINA RESULT:     -10.9      0.000      0.000
REMARK SMILES CSc1nc(N)cc(Nc2cccc(C(=O)OCCOCCOC(=O)c3ccc(-c4c5nc(c(-c6cc(S(=O)(=O)[O-])ccc6F)c6ccc([nH]6)c(-c6cc(S(=O)(=O)[O-])ccc6F)c6nc(c(-c7cc(S(=O)(=O)[O-])ccc7F)c7ccc4[nH]7)C=C6)C=C5)cc3)c2)n1
REMARK SMILES IDX 20 1 19 2 18 3 17 4 15 5 16 6 14 7 10 8 11 9 89 10 12 11
REMARK SMILES IDX 13 12 9 13 8 15 3 16 4 17 90 18 5 19 7 20 2 21 1 22 6 23
REMARK SMILES IDX 21 26 22 27 23 28 24 29 25 30 26 31 27 32 88 33 28 34 87 35
REMARK SMILES IDX 29 36 30 37 31 38 81 39 32 40 86 41 80 42 82 43 33 44 85 45
REMARK SMILES IDX 79 46 78 47 34 49 66 50 46 51 65 52 47 53 50 54 64 55 83 56
REMARK SMILES IDX 48 57 49 58 63 60 84 61 51 62 35 63 36 64 44 65 37 66 43 67
REMARK SMILES IDX 45 68 42 69 38 70 39 71 40 72 41 73 67 74 68 75 76 76 69 77
REMARK SMILES IDX 75 78 77 79 74 80 70 81 71 82 72 83 73 84 52 85 53 86 61 87
REMARK SMILES IDX 54 88 60 89 62 90 59 91 55 92 56 93 57 94 58 95
REMARK H PARENT 9 14 6 24 6 25 82 48 50 59
REMARK Flexibility Score: inf
ROOT
ATOM      1  O   UNL A   1      33.132  29.385  24.500  1.00  0.00    -0.374 OA
ENDROOT
BRANCH   1   2
ATOM      2  C   UNL A   1      32.885  29.023  23.139  1.00  0.00     0.202 C 
BRANCH   2   3
ATOM      3  C   UNL A   1      34.019  28.320  22.383  1.00  0.00     0.261 C 
BRANCH   3   4
ATOM      4  O   UNL A   1      34.010  26.904  22.622  1.00  0.00    -0.460 OA
BRANCH   4   5
ATOM      5  C   UNL A   1      33.216  26.177  21.801  1.00  0.00     0.338 C 
ATOM      6  O   UNL A   1      33.269  26.121  20.582  1.00  0.00    -0.246 OA
BRANCH   5   7
ATOM      7  C   UNL A   1      32.365  25.274  22.611  1.00  0.00     0.062 A 
ATOM      8  C   UNL A   1      31.603  23.055  23.245  1.00  0.00     0.040 A 
ATOM      9  C   UNL A   1      30.727  23.645  24.168  1.00  0.00     0.026 A 
ATOM     10  C   UNL A   1      32.388  23.888  22.438  1.00  0.00     0.041 A 
ATOM     11  C   UNL A   1      30.673  25.034  24.317  1.00  0.00     0.003 A 
ATOM     12  C   UNL A   1      31.507  25.847  23.554  1.00  0.00     0.016 A 
BRANCH   8  13
ATOM     13  N   UNL A   1      31.777  21.657  23.249  1.00  0.00    -0.340 N 
ATOM     14  H   UNL A   1      31.203  21.133  22.643  1.00  0.00     0.168 HD
BRANCH  13  15
ATOM     15  C   UNL A   1      32.696  20.937  24.042  1.00  0.00     0.137 A 
ATOM     16  C   UNL A   1      34.783  20.723  24.975  1.00  0.00     0.191 A 
ATOM     17  N   UNL A   1      34.467  19.596  25.622  1.00  0.00    -0.206 NA
ATOM     18  N   UNL A   1      33.939  21.412  24.202  1.00  0.00    -0.205 NA
ATOM     19  C   UNL A   1      33.235  19.119  25.425  1.00  0.00     0.130 A 
ATOM     20  C   UNL A   1      32.304  19.756  24.634  1.00  0.00     0.093 A 
BRANCH  16  21
ATOM     21  S   UNL A   1      36.429  21.355  25.203  1.00  0.00    -0.090 SA
ATOM     22  C   UNL A   1      37.394  19.835  24.997  1.00  0.00     0.094 C 
ENDBRANCH  16  21
BRANCH  19  23
ATOM     23  N   UNL A   1      32.901  17.974  26.128  1.00  0.00    -0.383 N 
ATOM     24  H   UNL A   1      31.968  17.659  26.138  1.00  0.00     0.158 HD
ATOM     25  H   UNL A   1      33.595  17.477  26.617  1.00  0.00     0.158 HD
ENDBRANCH  19  23
ENDBRANCH  13  15
ENDBRANCH   8  13
ENDBRANCH   5   7
ENDBRANCH   4   5
ENDBRANCH   3   4
ENDBRANCH   2   3
ENDBRANCH   1   2
BRANCH   1  26
ATOM     26  C   UNL A   1      32.006  29.516  25.364  1.00  0.00     0.202 C 
BRANCH  26  27
ATOM     27  C   UNL A   1      31.745  30.876  26.025  1.00  0.00     0.261 C 
BRANCH  27  28
ATOM     28  O   UNL A   1      32.338  31.002  27.325  1.00  0.00    -0.460 OA
BRANCH  28  29
ATOM     29  C   UNL A   1      33.138  32.089  27.457  1.00  0.00     0.338 C 
ATOM     30  O   UNL A   1      32.793  33.259  27.416  1.00  0.00    -0.246 OA
BRANCH  29  31
ATOM     31  C   UNL A   1      34.501  31.683  27.845  1.00  0.00     0.060 A 
ATOM     32  C   UNL A   1      34.703  30.326  28.122  1.00  0.00     0.016 A 
ATOM     33  C   UNL A   1      35.535  32.606  28.022  1.00  0.00     0.016 A 
ATOM     34  C   UNL A   1      35.921  29.896  28.638  1.00  0.00     0.010 A 
ATOM     35  C   UNL A   1      36.762  32.169  28.539  1.00  0.00     0.010 A 
ATOM     36  C   UNL A   1      36.947  30.819  28.888  1.00  0.00    -0.014 A 
BRANCH  36  37
ATOM     37  C   UNL A   1      38.157  30.357  29.615  1.00  0.00     0.031 A 
ATOM     38  C   UNL A   1      38.387  30.801  31.035  1.00  0.00     0.074 A 
ATOM     39  C   UNL A   1      38.995  29.477  29.036  1.00  0.00     0.049 A 
ATOM     40  N   UNL A   1      39.336  30.460  31.868  1.00  0.00    -0.248 NA
ATOM     41  C   UNL A   1      37.419  31.761  31.588  1.00  0.00     0.031 C 
ATOM     42  C   UNL A   1      38.854  28.953  27.677  1.00  0.00     0.029 A 
ATOM     43  N   UNL A   1      40.116  28.853  29.521  1.00  0.00    -0.354 N 
ATOM     44  C   UNL A   1      39.081  31.157  33.045  1.00  0.00     0.074 A 
ATOM     45  C   UNL A   1      37.915  31.980  32.796  1.00  0.00     0.031 C 
ATOM     46  C   UNL A   1      39.842  28.073  27.444  1.00  0.00     0.029 A 
ATOM     47  C   UNL A   1      40.706  27.999  28.620  1.00  0.00     0.049 A 
ATOM     48  H   UNL A   1      40.466  29.004  30.430  1.00  0.00     0.167 HD
ATOM     49  C   UNL A   1      39.748  31.105  34.225  1.00  0.00     0.034 A 
ATOM     50  C   UNL A   1      41.821  27.251  28.726  1.00  0.00     0.034 A 
ATOM     51  C   UNL A   1      40.917  30.287  34.452  1.00  0.00     0.049 A 
ATOM     52  C   UNL A   1      42.584  27.262  30.028  1.00  0.00     0.074 A 
ATOM     53  C   UNL A   1      41.661  30.146  35.611  1.00  0.00     0.029 A 
ATOM     54  N   UNL A   1      41.524  29.479  33.496  1.00  0.00    -0.354 N 
ATOM     55  N   UNL A   1      42.318  27.911  31.139  1.00  0.00    -0.248 NA
ATOM     56  C   UNL A   1      43.787  26.425  30.091  1.00  0.00     0.031 C 
ATOM     57  C   UNL A   1      42.760  29.326  35.334  1.00  0.00     0.029 A 
ATOM     58  C   UNL A   1      42.653  28.871  34.030  1.00  0.00     0.049 A 
ATOM     59  H   UNL A   1      41.200  29.356  32.575  1.00  0.00     0.167 HD
ATOM     60  C   UNL A   1      43.310  27.534  32.044  1.00  0.00     0.074 A 
ATOM     61  C   UNL A   1      44.152  26.578  31.355  1.00  0.00     0.031 C 
ATOM     62  C   UNL A   1      43.506  27.940  33.326  1.00  0.00     0.034 A 
BRANCH  49  63
ATOM     63  C   UNL A   1      39.258  31.998  35.344  1.00  0.00     0.023 A 
ATOM     64  C   UNL A   1      39.653  33.344  35.451  1.00  0.00     0.031 A 
ATOM     65  C   UNL A   1      38.395  31.489  36.331  1.00  0.00     0.131 A 
ATOM     66  C   UNL A   1      39.241  34.110  36.554  1.00  0.00     0.055 A 
ATOM     67  C   UNL A   1      37.923  32.280  37.380  1.00  0.00     0.041 A 
ATOM     68  F   UNL A   1      38.003  30.205  36.300  1.00  0.00    -0.206 F 
ATOM     69  C   UNL A   1      38.357  33.596  37.504  1.00  0.00     0.022 A 
BRANCH  66  70
ATOM     70  S   UNL A   1      39.997  35.740  36.811  1.00  0.00     0.124 S 
ATOM     71  O   UNL A   1      39.268  36.224  37.980  1.00  0.00    -0.237 OA
ATOM     72  O   UNL A   1      41.401  35.405  37.025  1.00  0.00    -0.237 OA
ATOM     73  O   UNL A   1      39.709  36.451  35.567  1.00  0.00    -0.744 OA
ENDBRANCH  66  70
ENDBRANCH  49  63
BRANCH  50  74
ATOM     74  C   UNL A   1      42.307  26.447  27.565  1.00  0.00     0.023 A 
ATOM     75  C   UNL A   1      41.924  25.108  27.392  1.00  0.00     0.031 A 
ATOM     76  C   UNL A   1      43.213  26.996  26.640  1.00  0.00     0.131 A 
ATOM     77  C   UNL A   1      42.485  24.348  26.353  1.00  0.00     0.055 A 
ATOM     78  C   UNL A   1      43.719  26.256  25.571  1.00  0.00     0.041 A 
ATOM     79  F   UNL A   1      43.617  28.272  26.760  1.00  0.00    -0.206 F 
ATOM     80  C   UNL A   1      43.367  24.917  25.433  1.00  0.00     0.022 A 
BRANCH  77  81
ATOM     81  S   UNL A   1      42.123  22.572  26.282  1.00  0.00     0.124 S 
ATOM     82  O   UNL A   1      42.714  22.199  25.002  1.00  0.00    -0.237 OA
ATOM     83  O   UNL A   1      42.807  22.077  27.473  1.00  0.00    -0.237 OA
ATOM     84  O   UNL A   1      40.664  22.520  26.336  1.00  0.00    -0.744 OA
ENDBRANCH  77  81
ENDBRANCH  50  74
BRANCH  62  85
ATOM     85  C   UNL A   1      44.670  27.316  34.066  1.00  0.00     0.023 A 
ATOM     86  C   UNL A   1      44.588  26.022  34.615  1.00  0.00     0.031 A 
ATOM     87  C   UNL A   1      45.852  28.046  34.281  1.00  0.00     0.131 A 
ATOM     88  C   UNL A   1      45.621  25.542  35.433  1.00  0.00     0.055 A 
ATOM     89  C   UNL A   1      46.914  27.527  35.024  1.00  0.00     0.041 A 
ATOM     90  F   UNL A   1      45.992  29.286  33.786  1.00  0.00    -0.206 F 
ATOM     91  C   UNL A   1      46.792  26.278  35.626  1.00  0.00     0.022 A 
BRANCH  88  92
ATOM     92  S   UNL A   1      45.342  24.016  36.374  1.00  0.00     0.124 S 
ATOM     93  O   UNL A   1      44.028  23.602  35.895  1.00  0.00    -0.237 OA
ATOM     94  O   UNL A   1      46.465  23.183  35.954  1.00  0.00    -0.237 OA
ATOM     95  O   UNL A   1      45.385  24.459  37.766  1.00  0.00    -0.744 OA
ENDBRANCH  88  92
ENDBRANCH  62  85
ENDBRANCH  36  37
ENDBRANCH  29  31
ENDBRANCH  28  29
ENDBRANCH  27  28
ENDBRANCH  26  27
ENDBRANCH   1  26
TORSDOF 21
ENDMDL
MODEL 2
REMARK VINA RESULT:     -10.6      2.436      3.325
REMARK SMILES CSc1nc(N)cc(Nc2cccc(C(=O)OCCOCCOC(=O)c3ccc(-c4c5nc(c(-c6cc(S(=O)(=O)[O-])ccc6F)c6ccc([nH]6)c(-c6cc(S(=O)(=O)[O-])ccc6F)c6nc(c(-c7cc(S(=O)(=O)[O-])ccc7F)c7ccc4[nH]7)C=C6)C=C5)cc3)c2)n1
REMARK SMILES IDX 20 1 19 2 18 3 17 4 15 5 16 6 14 7 10 8 11 9 89 10 12 11
REMARK SMILES IDX 13 12 9 13 8 15 3 16 4 17 90 18 5 19 7 20 2 21 1 22 6 23
REMARK SMILES IDX 21 26 22 27 23 28 24 29 25 30 26 31 27 32 88 33 28 34 87 35
REMARK SMILES IDX 29 36 30 37 31 38 81 39 32 40 86 41 80 42 82 43 33 44 85 45
REMARK SMILES IDX 79 46 78 47 34 49 66 50 46 51 65 52 47 53 50 54 64 55 83 56
REMARK SMILES IDX 48 57 49 58 63 60 84 61 51 62 35 63 36 64 44 65 37 66 43 67
REMARK SMILES IDX 45 68 42 69 38 70 39 71 40 72 41 73 67 74 68 75 76 76 69 77
REMARK SMILES IDX 75 78 77 79 74 80 70 81 71 82 72 83 73 84 52 85 53 86 61 87
REMARK SMILES IDX 54 88 60 89 62 90 59 91 55 92 56 93 57 94 58 95
REMARK H PARENT 9 14 6 24 6 25 82 48 50 59
REMARK Flexibility Score: inf
ROOT
ATOM      1  O   UNL A   1      33.739  28.160  23.717  1.00  0.00    -0.374 OA
ENDROOT
BRANCH   1   2
ATOM      2  C   UNL A   1      32.851  27.140  23.255  1.00  0.00     0.202 C 
BRANCH   2   3
ATOM      3  C   UNL A   1      33.326  26.276  22.080  1.00  0.00     0.261 C 
BRANCH   3   4
ATOM      4  O   UNL A   1      34.005  25.096  22.537  1.00  0.00    -0.460 OA
BRANCH   4   5
ATOM      5  C   UNL A   1      33.208  24.105  23.004  1.00  0.00     0.338 C 
ATOM      6  O   UNL A   1      32.025  23.931  22.754  1.00  0.00    -0.246 OA
BRANCH   5   7
ATOM      7  C   UNL A   1      34.032  23.111  23.730  1.00  0.00     0.062 A 
ATOM      8  C   UNL A   1      36.176  22.113  24.288  1.00  0.00     0.040 A 
ATOM      9  C   UNL A   1      35.510  21.206  25.126  1.00  0.00     0.026 A 
ATOM     10  C   UNL A   1      35.416  23.036  23.559  1.00  0.00     0.041 A 
ATOM     11  C   UNL A   1      34.120  21.253  25.270  1.00  0.00     0.003 A 
ATOM     12  C   UNL A   1      33.384  22.219  24.588  1.00  0.00     0.016 A 
BRANCH   8  13
ATOM     13  N   UNL A   1      37.584  22.169  24.308  1.00  0.00    -0.340 N 
ATOM     14  H   UNL A   1      38.051  21.993  23.459  1.00  0.00     0.168 HD
BRANCH  13  15
ATOM     15  C   UNL A   1      38.388  22.454  25.433  1.00  0.00     0.137 A 
ATOM     16  C   UNL A   1      40.016  21.833  26.928  1.00  0.00     0.191 A 
ATOM     17  N   UNL A   1      39.994  23.010  27.564  1.00  0.00    -0.206 NA
ATOM     18  N   UNL A   1      39.252  21.530  25.876  1.00  0.00    -0.205 NA
ATOM     19  C   UNL A   1      39.105  23.907  27.131  1.00  0.00     0.130 A 
ATOM     20  C   UNL A   1      38.269  23.675  26.062  1.00  0.00     0.093 A 
BRANCH  16  21
ATOM     21  S   UNL A   1      41.173  20.616  27.511  1.00  0.00    -0.090 SA
ATOM     22  C   UNL A   1      41.320  19.572  26.036  1.00  0.00     0.094 C 
ENDBRANCH  16  21
BRANCH  19  23
ATOM     23  N   UNL A   1      39.115  25.136  27.767  1.00  0.00    -0.383 N 
ATOM     24  H   UNL A   1      39.087  25.182  28.750  1.00  0.00     0.158 HD
ATOM     25  H   UNL A   1      39.151  25.964  27.236  1.00  0.00     0.158 HD
ENDBRANCH  19  23
ENDBRANCH  13  15
ENDBRANCH   8  13
ENDBRANCH   5   7
ENDBRANCH   4   5
ENDBRANCH   3   4
ENDBRANCH   2   3
ENDBRANCH   1   2
BRANCH   1  26
ATOM     26  C   UNL A   1      33.711  28.483  25.106  1.00  0.00     0.202 C 
BRANCH  26  27
ATOM     27  C   UNL A   1      32.855  29.672  25.563  1.00  0.00     0.261 C 
BRANCH  27  28
ATOM     28  O   UNL A   1      32.893  29.890  26.981  1.00  0.00    -0.460 OA
BRANCH  28  29
ATOM     29  C   UNL A   1      33.418  31.089  27.334  1.00  0.00     0.338 C 
ATOM     30  O   UNL A   1      32.811  32.139  27.475  1.00  0.00    -0.246 OA
BRANCH  29  31
ATOM     31  C   UNL A   1      34.835  30.941  27.713  1.00  0.00     0.060 A 
ATOM     32  C   UNL A   1      35.279  29.648  28.010  1.00  0.00     0.016 A 
ATOM     33  C   UNL A   1      35.688  32.037  27.862  1.00  0.00     0.016 A 
ATOM     34  C   UNL A   1      36.557  29.452  28.520  1.00  0.00     0.010 A 
ATOM     35  C   UNL A   1      36.978  31.836  28.373  1.00  0.00     0.010 A 
ATOM     36  C   UNL A   1      37.404  30.547  28.742  1.00  0.00    -0.014 A 
BRANCH  36  37
ATOM     37  C   UNL A   1      38.683  30.323  29.463  1.00  0.00     0.031 A 
ATOM     38  C   UNL A   1      38.843  30.831  30.872  1.00  0.00     0.074 A 
ATOM     39  C   UNL A   1      39.659  29.593  28.891  1.00  0.00     0.049 A 
ATOM     40  N   UNL A   1      39.845  30.681  31.699  1.00  0.00    -0.248 NA
ATOM     41  C   UNL A   1      37.725  31.615  31.417  1.00  0.00     0.031 C 
ATOM     42  C   UNL A   1      39.602  29.025  27.544  1.00  0.00     0.029 A 
ATOM     43  N   UNL A   1      40.877  29.189  29.374  1.00  0.00    -0.354 N 
ATOM     44  C   UNL A   1      39.480  31.346  32.865  1.00  0.00     0.074 A 
ATOM     45  C   UNL A   1      38.185  31.943  32.615  1.00  0.00     0.031 C 
ATOM     46  C   UNL A   1      40.728  28.330  27.316  1.00  0.00     0.029 A 
ATOM     47  C   UNL A   1      41.602  28.435  28.482  1.00  0.00     0.049 A 
ATOM     48  H   UNL A   1      41.203  29.419  30.275  1.00  0.00     0.167 HD
ATOM     49  C   UNL A   1      40.156  31.438  34.038  1.00  0.00     0.034 A 
ATOM     50  C   UNL A   1      42.833  27.899  28.588  1.00  0.00     0.034 A 
ATOM     51  C   UNL A   1      41.454  30.846  34.266  1.00  0.00     0.049 A 
ATOM     52  C   UNL A   1      43.594  28.072  29.881  1.00  0.00     0.074 A 
ATOM     53  C   UNL A   1      42.221  30.863  35.418  1.00  0.00     0.029 A 
ATOM     54  N   UNL A   1      42.186  30.139  33.318  1.00  0.00    -0.354 N 
ATOM     55  N   UNL A   1      43.226  28.687  30.982  1.00  0.00    -0.248 NA
ATOM     56  C   UNL A   1      44.926  27.463  29.945  1.00  0.00     0.031 C 
ATOM     57  C   UNL A   1      43.446  30.245  35.144  1.00  0.00     0.029 A 
ATOM     58  C   UNL A   1      43.410  29.752  33.850  1.00  0.00     0.049 A 
ATOM     59  H   UNL A   1      41.881  29.941  32.404  1.00  0.00     0.167 HD
ATOM     60  C   UNL A   1      44.276  28.511  31.881  1.00  0.00     0.074 A 
ATOM     61  C   UNL A   1      45.269  27.705  31.200  1.00  0.00     0.031 C 
ATOM     62  C   UNL A   1      44.409  28.972  33.154  1.00  0.00     0.034 A 
BRANCH  49  63
ATOM     63  C   UNL A   1      39.525  32.253  35.146  1.00  0.00     0.023 A 
ATOM     64  C   UNL A   1      39.897  33.587  35.395  1.00  0.00     0.031 A 
ATOM     65  C   UNL A   1      38.547  31.680  35.979  1.00  0.00     0.131 A 
ATOM     66  C   UNL A   1      39.346  34.277  36.487  1.00  0.00     0.055 A 
ATOM     67  C   UNL A   1      37.944  32.399  37.012  1.00  0.00     0.041 A 
ATOM     68  F   UNL A   1      38.169  30.403  35.811  1.00  0.00    -0.206 F 
ATOM     69  C   UNL A   1      38.352  33.701  37.281  1.00  0.00     0.022 A 
BRANCH  66  70
ATOM     70  S   UNL A   1      40.056  35.881  36.949  1.00  0.00     0.124 S 
ATOM     71  O   UNL A   1      41.462  35.538  37.146  1.00  0.00    -0.237 OA
ATOM     72  O   UNL A   1      39.756  36.705  35.783  1.00  0.00    -0.237 OA
ATOM     73  O   UNL A   1      39.333  36.238  38.167  1.00  0.00    -0.744 OA
ENDBRANCH  66  70
ENDBRANCH  49  63
BRANCH  50  74
ATOM     74  C   UNL A   1      43.444  27.170  27.437  1.00  0.00     0.023 A 
ATOM     75  C   UNL A   1      43.362  25.772  27.330  1.00  0.00     0.031 A 
ATOM     76  C   UNL A   1      44.172  27.863  26.453  1.00  0.00     0.131 A 
ATOM     77  C   UNL A   1      44.041  25.108  26.296  1.00  0.00     0.055 A 
ATOM     78  C   UNL A   1      44.792  27.204  25.390  1.00  0.00     0.041 A 
ATOM     79  F   UNL A   1      44.287  29.200  26.508  1.00  0.00    -0.206 F 
ATOM     80  C   UNL A   1      44.741  25.816  25.317  1.00  0.00     0.022 A 
BRANCH  77  81
ATOM     81  S   UNL A   1      44.080  23.295  26.306  1.00  0.00     0.124 S 
ATOM     82  O   UNL A   1      45.462  23.026  25.925  1.00  0.00    -0.237 OA
ATOM     83  O   UNL A   1      43.725  22.993  27.689  1.00  0.00    -0.237 OA
ATOM     84  O   UNL A   1      43.075  22.928  25.312  1.00  0.00    -0.744 OA
ENDBRANCH  77  81
ENDBRANCH  50  74
BRANCH  62  85
ATOM     85  C   UNL A   1      45.671  28.580  33.891  1.00  0.00     0.023 A 
ATOM     86  C   UNL A   1      46.838  29.364  33.827  1.00  0.00     0.031 A 
ATOM     87  C   UNL A   1      45.729  27.375  34.614  1.00  0.00     0.131 A 
ATOM     88  C   UNL A   1      48.034  28.887  34.385  1.00  0.00     0.055 A 
ATOM     89  C   UNL A   1      46.901  26.948  35.242  1.00  0.00     0.041 A 
ATOM     90  F   UNL A   1      44.651  26.581  34.710  1.00  0.00    -0.206 F 
ATOM     91  C   UNL A   1      48.068  27.693  35.108  1.00  0.00     0.022 A 
BRANCH  88  92
ATOM     92  S   UNL A   1      49.575  29.767  34.010  1.00  0.00     0.124 S 
ATOM     93  O   UNL A   1      49.133  31.157  33.994  1.00  0.00    -0.237 OA
ATOM     94  O   UNL A   1      50.432  29.384  35.128  1.00  0.00    -0.237 OA
ATOM     95  O   UNL A   1      49.972  29.227  32.711  1.00  0.00    -0.744 OA
ENDBRANCH  88  92
ENDBRANCH  62  85
ENDBRANCH  36  37
ENDBRANCH  29  31
ENDBRANCH  28  29
ENDBRANCH  27  28
ENDBRANCH  26  27
ENDBRANCH   1  26
TORSDOF 21
ENDMDL
MODEL 3
REMARK VINA RESULT:     -10.5      2.633      3.302
REMARK SMILES CSc1nc(N)cc(Nc2cccc(C(=O)OCCOCCOC(=O)c3ccc(-c4c5nc(c(-c6cc(S(=O)(=O)[O-])ccc6F)c6ccc([nH]6)c(-c6cc(S(=O)(=O)[O-])ccc6F)c6nc(c(-c7cc(S(=O)(=O)[O-])ccc7F)c7ccc4[nH]7)C=C6)C=C5)cc3)c2)n1
REMARK SMILES IDX 20 1 19 2 18 3 17 4 15 5 16 6 14 7 10 8 11 9 89 10 12 11
REMARK SMILES IDX 13 12 9 13 8 15 3 16 4 17 90 18 5 19 7 20 2 21 1 22 6 23
REMARK SMILES IDX 21 26 22 27 23 28 24 29 25 30 26 31 27 32 88 33 28 34 87 35
REMARK SMILES IDX 29 36 30 37 31 38 81 39 32 40 86 41 80 42 82 43 33 44 85 45
REMARK SMILES IDX 79 46 78 47 34 49 66 50 46 51 65 52 47 53 50 54 64 55 83 56
REMARK SMILES IDX 48 57 49 58 63 60 84 61 51 62 35 63 36 64 44 65 37 66 43 67
REMARK SMILES IDX 45 68 42 69 38 70 39 71 40 72 41 73 67 74 68 75 76 76 69 77
REMARK SMILES IDX 75 78 77 79 74 80 70 81 71 82 72 83 73 84 52 85 53 86 61 87
REMARK SMILES IDX 54 88 60 89 62 90 59 91 55 92 56 93 57 94 58 95
REMARK H PARENT 9 14 6 24 6 25 82 48 50 59
REMARK Flexibility Score: inf
ROOT
ATOM      1  O   UNL A   1      31.920  30.326  25.891  1.00  0.00    -0.374 OA
ENDROOT
BRANCH   1   2
ATOM      2  C   UNL A   1      31.178  29.671  24.860  1.00  0.00     0.202 C 
BRANCH   2   3
ATOM      3  C   UNL A   1      31.700  28.312  24.375  1.00  0.00     0.261 C 
BRANCH   3   4
ATOM      4  O   UNL A   1      30.995  27.227  24.998  1.00  0.00    -0.460 OA
BRANCH   4   5
ATOM      5  C   UNL A   1      31.436  26.873  26.229  1.00  0.00     0.338 C 
ATOM      6  O   UNL A   1      31.066  27.320  27.303  1.00  0.00    -0.246 OA
BRANCH   5   7
ATOM      7  C   UNL A   1      32.321  25.691  26.112  1.00  0.00     0.062 A 
ATOM      8  C   UNL A   1      32.704  23.292  26.197  1.00  0.00     0.040 A 
ATOM      9  C   UNL A   1      34.052  23.519  25.882  1.00  0.00     0.026 A 
ATOM     10  C   UNL A   1      31.856  24.395  26.353  1.00  0.00     0.041 A 
ATOM     11  C   UNL A   1      34.531  24.817  25.678  1.00  0.00     0.003 A 
ATOM     12  C   UNL A   1      33.661  25.900  25.773  1.00  0.00     0.016 A 
BRANCH   8  13
ATOM     13  N   UNL A   1      32.207  21.973  26.208  1.00  0.00    -0.340 N 
ATOM     14  H   UNL A   1      31.789  21.660  27.042  1.00  0.00     0.168 HD
BRANCH  13  15
ATOM     15  C   UNL A   1      32.255  21.060  25.133  1.00  0.00     0.137 A 
ATOM     16  C   UNL A   1      32.532  18.920  24.347  1.00  0.00     0.191 A 
ATOM     17  N   UNL A   1      32.286  19.268  23.079  1.00  0.00    -0.206 NA
ATOM     18  N   UNL A   1      32.515  19.767  25.378  1.00  0.00    -0.205 NA
ATOM     19  C   UNL A   1      32.062  20.564  22.847  1.00  0.00     0.130 A 
ATOM     20  C   UNL A   1      32.038  21.509  23.848  1.00  0.00     0.093 A 
BRANCH  16  21
ATOM     21  S   UNL A   1      32.862  17.203  24.668  1.00  0.00    -0.090 SA
ATOM     22  C   UNL A   1      33.981  16.823  23.293  1.00  0.00     0.094 C 
ENDBRANCH  16  21
BRANCH  19  23
ATOM     23  N   UNL A   1      31.768  20.911  21.539  1.00  0.00    -0.383 N 
ATOM     24  H   UNL A   1      30.999  20.501  21.083  1.00  0.00     0.158 HD
ATOM     25  H   UNL A   1      32.329  21.568  21.067  1.00  0.00     0.158 HD
ENDBRANCH  19  23
ENDBRANCH  13  15
ENDBRANCH   8  13
ENDBRANCH   5   7
ENDBRANCH   4   5
ENDBRANCH   3   4
ENDBRANCH   2   3
ENDBRANCH   1   2
BRANCH   1  26
ATOM     26  C   UNL A   1      33.273  29.922  26.091  1.00  0.00     0.202 C 
BRANCH  26  27
ATOM     27  C   UNL A   1      34.016  30.442  27.329  1.00  0.00     0.261 C 
BRANCH  27  28
ATOM     28  O   UNL A   1      33.566  31.734  27.764  1.00  0.00    -0.460 OA
BRANCH  28  29
ATOM     29  C   UNL A   1      34.282  32.241  28.798  1.00  0.00     0.338 C 
ATOM     30  O   UNL A   1      33.892  33.040  29.634  1.00  0.00    -0.246 OA
BRANCH  29  31
ATOM     31  C   UNL A   1      35.584  31.558  28.907  1.00  0.00     0.060 A 
ATOM     32  C   UNL A   1      35.606  30.343  29.600  1.00  0.00     0.016 A 
ATOM     33  C   UNL A   1      36.768  32.125  28.427  1.00  0.00     0.016 A 
ATOM     34  C   UNL A   1      36.819  29.721  29.872  1.00  0.00     0.010 A 
ATOM     35  C   UNL A   1      37.989  31.493  28.701  1.00  0.00     0.010 A 
ATOM     36  C   UNL A   1      38.023  30.309  29.460  1.00  0.00    -0.014 A 
BRANCH  36  37
ATOM     37  C   UNL A   1      39.301  29.720  29.933  1.00  0.00     0.031 A 
ATOM     38  C   UNL A   1      39.940  30.239  31.193  1.00  0.00     0.074 A 
ATOM     39  C   UNL A   1      39.838  28.668  29.286  1.00  0.00     0.049 A 
ATOM     40  N   UNL A   1      41.012  29.820  31.815  1.00  0.00    -0.248 NA
ATOM     41  C   UNL A   1      39.283  31.388  31.836  1.00  0.00     0.031 C 
ATOM     42  C   UNL A   1      39.290  28.061  28.072  1.00  0.00     0.029 A 
ATOM     43  N   UNL A   1      40.948  27.914  29.566  1.00  0.00    -0.354 N 
ATOM     44  C   UNL A   1      41.159  30.647  32.924  1.00  0.00     0.074 A 
ATOM     45  C   UNL A   1      40.092  31.625  32.858  1.00  0.00     0.031 C 
ATOM     46  C   UNL A   1      40.056  27.015  27.723  1.00  0.00     0.029 A 
ATOM     47  C   UNL A   1      41.170  26.901  28.662  1.00  0.00     0.049 A 
ATOM     48  H   UNL A   1      41.533  28.082  30.341  1.00  0.00     0.167 HD
ATOM     49  C   UNL A   1      42.087  30.588  33.911  1.00  0.00     0.034 A 
ATOM     50  C   UNL A   1      42.162  25.993  28.594  1.00  0.00     0.034 A 
ATOM     51  C   UNL A   1      43.152  29.612  33.955  1.00  0.00     0.049 A 
ATOM     52  C   UNL A   1      43.222  25.990  29.669  1.00  0.00     0.074 A 
ATOM     53  C   UNL A   1      44.136  29.450  34.915  1.00  0.00     0.029 A 
ATOM     54  N   UNL A   1      43.382  28.638  32.990  1.00  0.00    -0.354 N 
ATOM     55  N   UNL A   1      43.335  26.765  30.723  1.00  0.00    -0.248 NA
ATOM     56  C   UNL A   1      44.276  24.976  29.549  1.00  0.00     0.031 C 
ATOM     57  C   UNL A   1      45.007  28.441  34.490  1.00  0.00     0.029 A 
ATOM     58  C   UNL A   1      44.515  27.901  33.313  1.00  0.00     0.049 A 
ATOM     59  H   UNL A   1      42.824  28.491  32.193  1.00  0.00     0.167 HD
ATOM     60  C   UNL A   1      44.461  26.310  31.408  1.00  0.00     0.074 A 
ATOM     61  C   UNL A   1      44.964  25.174  30.662  1.00  0.00     0.031 C 
ATOM     62  C   UNL A   1      45.028  26.787  32.548  1.00  0.00     0.034 A 
BRANCH  49  63
ATOM     63  C   UNL A   1      42.022  31.641  34.997  1.00  0.00     0.023 A 
ATOM     64  C   UNL A   1      41.023  31.630  35.987  1.00  0.00     0.031 A 
ATOM     65  C   UNL A   1      42.966  32.683  35.030  1.00  0.00     0.131 A 
ATOM     66  C   UNL A   1      40.951  32.675  36.922  1.00  0.00     0.055 A 
ATOM     67  C   UNL A   1      42.937  33.673  36.013  1.00  0.00     0.041 A 
ATOM     68  F   UNL A   1      43.928  32.765  34.097  1.00  0.00    -0.206 F 
ATOM     69  C   UNL A   1      41.917  33.681  36.960  1.00  0.00     0.022 A 
BRANCH  66  70
ATOM     70  S   UNL A   1      39.491  32.783  37.994  1.00  0.00     0.124 S 
ATOM     71  O   UNL A   1      40.087  32.651  39.321  1.00  0.00    -0.237 OA
ATOM     72  O   UNL A   1      38.953  34.097  37.662  1.00  0.00    -0.237 OA
ATOM     73  O   UNL A   1      38.671  31.648  37.573  1.00  0.00    -0.744 OA
ENDBRANCH  66  70
ENDBRANCH  49  63
BRANCH  50  74
ATOM     74  C   UNL A   1      42.226  25.025  27.459  1.00  0.00     0.023 A 
ATOM     75  C   UNL A   1      41.477  23.837  27.469  1.00  0.00     0.031 A 
ATOM     76  C   UNL A   1      43.087  25.250  26.370  1.00  0.00     0.131 A 
ATOM     77  C   UNL A   1      41.643  22.896  26.439  1.00  0.00     0.055 A 
ATOM     78  C   UNL A   1      43.201  24.342  25.316  1.00  0.00     0.041 A 
ATOM     79  F   UNL A   1      43.829  26.368  26.311  1.00  0.00    -0.206 F 
ATOM     80  C   UNL A   1      42.487  23.149  25.356  1.00  0.00     0.022 A 
BRANCH  77  81
ATOM     81  S   UNL A   1      40.815  21.290  26.588  1.00  0.00     0.124 S 
ATOM     82  O   UNL A   1      39.529  21.558  25.954  1.00  0.00    -0.237 OA
ATOM     83  O   UNL A   1      41.722  20.413  25.854  1.00  0.00    -0.237 OA
ATOM     84  O   UNL A   1      40.766  21.065  28.031  1.00  0.00    -0.744 OA
ENDBRANCH  77  81
ENDBRANCH  50  74
BRANCH  62  85
ATOM     85  C   UNL A   1      46.243  26.046  33.064  1.00  0.00     0.023 A 
ATOM     86  C   UNL A   1      47.541  26.353  32.617  1.00  0.00     0.031 A 
ATOM     87  C   UNL A   1      46.095  24.977  33.967  1.00  0.00     0.131 A 
ATOM     88  C   UNL A   1      48.621  25.540  32.989  1.00  0.00     0.055 A 
ATOM     89  C   UNL A   1      47.189  24.226  34.403  1.00  0.00     0.041 A 
ATOM     90  F   UNL A   1      44.884  24.632  34.430  1.00  0.00    -0.206 F 
ATOM     91  C   UNL A   1      48.457  24.490  33.895  1.00  0.00     0.022 A 
BRANCH  88  92
ATOM     92  S   UNL A   1      50.211  25.772  32.146  1.00  0.00     0.124 S 
ATOM     93  O   UNL A   1      50.168  27.190  31.806  1.00  0.00    -0.237 OA
ATOM     94  O   UNL A   1      51.169  25.394  33.180  1.00  0.00    -0.237 OA
ATOM     95  O   UNL A   1      50.133  24.858  31.009  1.00  0.00    -0.744 OA
ENDBRANCH  88  92
ENDBRANCH  62  85
ENDBRANCH  36  37
ENDBRANCH  29  31
ENDBRANCH  28  29
ENDBRANCH  27  28
ENDBRANCH  26  27
ENDBRANCH   1  26
TORSDOF 21
ENDMDL
