MODEL 1
REMARK VINA RESULT:      -9.9      0.000      0.000
REMARK SMILES CC[C@@H](C(=O)OCCOCCOC(=O)c1ccc(-c2c3nc(c(-c4cc(S(=O)(=O)[O-])ccc4F)c4ccc([nH]4)c(-c4cc(S(=O)(=O)[O-])ccc4F)c4nc(c(-c5cc(S(=O)(=O)[O-])ccc5F)c5ccc2[nH]5)C=C4)C=C3)cc1)N(C)C(=O)N(C)C[C@@H]1CCC[N@H+]1C
REMARK SMILES IDX 8 1 7 2 6 3 4 4 5 5 3 6 2 7 1 8 78 9 79 10 80 11 81 12 82 13
REMARK SMILES IDX 83 14 84 15 85 16 86 17 89 18 87 19 88 20 90 21 9 23 10 24
REMARK SMILES IDX 11 25 12 26 13 27 14 28 15 29 16 30 77 31 17 32 76 33 18 34
REMARK SMILES IDX 19 35 20 36 70 37 21 38 75 39 69 40 71 41 22 42 74 43 68 44
REMARK SMILES IDX 67 45 23 47 55 48 35 49 54 50 36 51 39 52 53 53 72 54 37 55
REMARK SMILES IDX 38 56 52 58 73 59 40 60 24 61 25 62 33 63 26 64 32 65 34 66
REMARK SMILES IDX 31 67 27 68 28 69 29 70 30 71 56 72 57 73 65 74 58 75 64 76
REMARK SMILES IDX 66 77 63 78 59 79 60 80 61 81 62 82 41 83 42 84 50 85 43 86
REMARK SMILES IDX 49 87 51 88 48 89 44 90 45 91 46 92 47 93
REMARK H PARENT 89 22 71 46 39 57
REMARK Flexibility Score: inf
ROOT
ATOM      1  C   UNL A   1      33.264  20.995  25.400  1.00  0.00     0.202 C 
ENDROOT
BRANCH   1   2
ATOM      2  C   UNL A   1      32.978  22.439  25.832  1.00  0.00     0.261 C 
BRANCH   2   3
ATOM      3  O   UNL A   1      31.658  22.545  26.401  1.00  0.00    -0.462 OA
BRANCH   3   4
ATOM      4  C   UNL A   1      31.085  23.776  26.369  1.00  0.00     0.328 C 
ATOM      5  O   UNL A   1      30.016  24.035  26.920  1.00  0.00    -0.250 OA
BRANCH   4   6
ATOM      6  C   UNL A   1      31.848  24.794  25.471  1.00  0.00     0.196 C 
BRANCH   6   7
ATOM      7  C   UNL A   1      32.457  26.073  26.101  1.00  0.00     0.034 C 
ATOM      8  C   UNL A   1      33.737  26.596  25.456  1.00  0.00     0.007 C 
ENDBRANCH   6   7
BRANCH   6   9
ATOM      9  N   UNL A   1      30.989  25.057  24.257  1.00  0.00    -0.314 N 
ATOM     10  C   UNL A   1      30.704  23.861  23.474  1.00  0.00     0.149 C 
BRANCH   9  11
ATOM     11  C   UNL A   1      30.252  26.233  24.189  1.00  0.00     0.320 C 
ATOM     12  O   UNL A   1      29.169  26.323  24.773  1.00  0.00    -0.248 OA
BRANCH  11  13
ATOM     13  N   UNL A   1      30.698  27.339  23.484  1.00  0.00    -0.322 N 
ATOM     14  C   UNL A   1      31.543  27.354  22.303  1.00  0.00     0.149 C 
BRANCH  13  15
ATOM     15  C   UNL A   1      30.561  28.652  24.158  1.00  0.00     0.185 C 
BRANCH  15  16
ATOM     16  C   UNL A   1      29.728  29.748  23.411  1.00  0.00     0.203 C 
ATOM     17  C   UNL A   1      29.920  31.140  24.033  1.00  0.00     0.073 C 
ATOM     18  N   UNL A   1      28.271  29.582  23.369  1.00  0.00    -0.333 N 
ATOM     19  C   UNL A   1      28.620  31.893  23.788  1.00  0.00     0.068 C 
ATOM     20  C   UNL A   1      27.687  30.900  23.120  1.00  0.00     0.262 C 
ATOM     21  C   UNL A   1      27.813  28.591  22.405  1.00  0.00     0.333 C 
ATOM     22  H   UNL A   1      27.959  29.211  24.265  1.00  0.00     0.348 HD
ENDBRANCH  15  16
ENDBRANCH  13  15
ENDBRANCH  11  13
ENDBRANCH   9  11
ENDBRANCH   6   9
ENDBRANCH   4   6
ENDBRANCH   3   4
ENDBRANCH   2   3
ENDBRANCH   1   2
BRANCH   1  23
ATOM     23  O   UNL A   1      34.525  20.767  24.769  1.00  0.00    -0.374 OA
BRANCH  23  24
ATOM     24  C   UNL A   1      35.652  20.723  25.640  1.00  0.00     0.202 C 
BRANCH  24  25
ATOM     25  C   UNL A   1      37.030  20.630  24.990  1.00  0.00     0.261 C 
BRANCH  25  26
ATOM     26  O   UNL A   1      37.835  21.764  25.345  1.00  0.00    -0.460 OA
BRANCH  26  27
ATOM     27  C   UNL A   1      39.011  21.445  25.936  1.00  0.00     0.338 C 
ATOM     28  O   UNL A   1      39.632  20.405  25.829  1.00  0.00    -0.246 OA
BRANCH  27  29
ATOM     29  C   UNL A   1      39.555  22.648  26.598  1.00  0.00     0.060 A 
ATOM     30  C   UNL A   1      39.053  23.888  26.182  1.00  0.00     0.016 A 
ATOM     31  C   UNL A   1      40.541  22.572  27.583  1.00  0.00     0.016 A 
ATOM     32  C   UNL A   1      39.576  25.064  26.710  1.00  0.00     0.010 A 
ATOM     33  C   UNL A   1      41.071  23.753  28.106  1.00  0.00     0.010 A 
ATOM     34  C   UNL A   1      40.617  25.002  27.642  1.00  0.00    -0.014 A 
BRANCH  34  35
ATOM     35  C   UNL A   1      41.350  26.237  28.007  1.00  0.00     0.031 A 
ATOM     36  C   UNL A   1      40.611  27.313  28.753  1.00  0.00     0.074 A 
ATOM     37  C   UNL A   1      42.649  26.387  27.694  1.00  0.00     0.049 A 
ATOM     38  N   UNL A   1      41.006  28.511  29.091  1.00  0.00    -0.248 NA
ATOM     39  C   UNL A   1      39.235  26.990  29.165  1.00  0.00     0.031 C 
ATOM     40  C   UNL A   1      43.478  25.383  27.028  1.00  0.00     0.029 A 
ATOM     41  N   UNL A   1      43.495  27.450  27.885  1.00  0.00    -0.354 N 
ATOM     42  C   UNL A   1      39.924  29.093  29.744  1.00  0.00     0.074 A 
ATOM     43  C   UNL A   1      38.847  28.127  29.720  1.00  0.00     0.031 C 
ATOM     44  C   UNL A   1      44.712  25.885  26.852  1.00  0.00     0.029 A 
ATOM     45  C   UNL A   1      44.746  27.261  27.346  1.00  0.00     0.049 A 
ATOM     46  H   UNL A   1      43.231  28.269  28.362  1.00  0.00     0.167 HD
ATOM     47  C   UNL A   1      39.844  30.320  30.314  1.00  0.00     0.034 A 
ATOM     48  C   UNL A   1      45.783  28.116  27.230  1.00  0.00     0.034 A 
ATOM     49  C   UNL A   1      40.929  31.269  30.314  1.00  0.00     0.049 A 
ATOM     50  C   UNL A   1      45.636  29.516  27.780  1.00  0.00     0.074 A 
ATOM     51  C   UNL A   1      40.967  32.536  30.871  1.00  0.00     0.029 A 
ATOM     52  N   UNL A   1      42.167  31.063  29.717  1.00  0.00    -0.354 N 
ATOM     53  N   UNL A   1      44.608  30.061  28.392  1.00  0.00    -0.248 NA
ATOM     54  C   UNL A   1      46.787  30.415  27.627  1.00  0.00     0.031 C 
ATOM     55  C   UNL A   1      42.191  33.124  30.538  1.00  0.00     0.029 A 
ATOM     56  C   UNL A   1      42.958  32.192  29.858  1.00  0.00     0.049 A 
ATOM     57  H   UNL A   1      42.442  30.234  29.262  1.00  0.00     0.167 HD
ATOM     58  C   UNL A   1      45.006  31.352  28.730  1.00  0.00     0.074 A 
ATOM     59  C   UNL A   1      46.369  31.501  28.259  1.00  0.00     0.031 C 
ATOM     60  C   UNL A   1      44.315  32.325  29.378  1.00  0.00     0.034 A 
BRANCH  47  61
ATOM     61  C   UNL A   1      38.522  30.720  30.923  1.00  0.00     0.023 A 
ATOM     62  C   UNL A   1      37.494  31.299  30.159  1.00  0.00     0.031 A 
ATOM     63  C   UNL A   1      38.296  30.544  32.301  1.00  0.00     0.131 A 
ATOM     64  C   UNL A   1      36.320  31.743  30.785  1.00  0.00     0.055 A 
ATOM     65  C   UNL A   1      37.091  30.911  32.903  1.00  0.00     0.041 A 
ATOM     66  F   UNL A   1      39.248  30.021  33.088  1.00  0.00    -0.206 F 
ATOM     67  C   UNL A   1      36.100  31.528  32.148  1.00  0.00     0.022 A 
BRANCH  64  68
ATOM     68  S   UNL A   1      35.147  32.739  29.824  1.00  0.00     0.124 S 
ATOM     69  O   UNL A   1      34.679  31.770  28.834  1.00  0.00    -0.237 OA
ATOM     70  O   UNL A   1      34.174  33.142  30.834  1.00  0.00    -0.237 OA
ATOM     71  O   UNL A   1      35.973  33.817  29.287  1.00  0.00    -0.744 OA
ENDBRANCH  64  68
ENDBRANCH  47  61
BRANCH  48  72
ATOM     72  C   UNL A   1      47.030  27.701  26.528  1.00  0.00     0.023 A 
ATOM     73  C   UNL A   1      47.192  27.912  25.150  1.00  0.00     0.031 A 
ATOM     74  C   UNL A   1      48.060  27.033  27.216  1.00  0.00     0.131 A 
ATOM     75  C   UNL A   1      48.332  27.417  24.495  1.00  0.00     0.055 A 
ATOM     76  C   UNL A   1      49.219  26.598  26.572  1.00  0.00     0.041 A 
ATOM     77  F   UNL A   1      47.957  26.800  28.534  1.00  0.00    -0.206 F 
ATOM     78  C   UNL A   1      49.354  26.776  25.200  1.00  0.00     0.022 A 
BRANCH  75  79
ATOM     79  S   UNL A   1      48.413  27.536  22.687  1.00  0.00     0.124 S 
ATOM     80  O   UNL A   1      48.387  26.131  22.297  1.00  0.00    -0.237 OA
ATOM     81  O   UNL A   1      47.216  28.312  22.381  1.00  0.00    -0.237 OA
ATOM     82  O   UNL A   1      49.679  28.228  22.449  1.00  0.00    -0.744 OA
ENDBRANCH  75  79
ENDBRANCH  48  72
BRANCH  60  83
ATOM     83  C   UNL A   1      45.041  33.616  29.673  1.00  0.00     0.023 A 
ATOM     84  C   UNL A   1      45.022  34.704  28.782  1.00  0.00     0.031 A 
ATOM     85  C   UNL A   1      45.754  33.761  30.877  1.00  0.00     0.131 A 
ATOM     86  C   UNL A   1      45.737  35.870  29.089  1.00  0.00     0.055 A 
ATOM     87  C   UNL A   1      46.411  34.947  31.206  1.00  0.00     0.041 A 
ATOM     88  F   UNL A   1      45.810  32.753  31.763  1.00  0.00    -0.206 F 
ATOM     89  C   UNL A   1      46.414  36.007  30.306  1.00  0.00     0.022 A 
BRANCH  86  90
ATOM     90  S   UNL A   1      45.844  37.184  27.843  1.00  0.00     0.124 S 
ATOM     91  O   UNL A   1      46.619  38.203  28.542  1.00  0.00    -0.237 OA
ATOM     92  O   UNL A   1      46.523  36.513  26.739  1.00  0.00    -0.237 OA
ATOM     93  O   UNL A   1      44.446  37.532  27.590  1.00  0.00    -0.744 OA
ENDBRANCH  86  90
ENDBRANCH  60  83
ENDBRANCH  34  35
ENDBRANCH  27  29
ENDBRANCH  26  27
ENDBRANCH  25  26
ENDBRANCH  24  25
ENDBRANCH  23  24
ENDBRANCH   1  23
TORSDOF 23
ENDMDL
MODEL 2
REMARK VINA RESULT:      -9.9      4.972      8.357
REMARK SMILES CC[C@@H](C(=O)OCCOCCOC(=O)c1ccc(-c2c3nc(c(-c4cc(S(=O)(=O)[O-])ccc4F)c4ccc([nH]4)c(-c4cc(S(=O)(=O)[O-])ccc4F)c4nc(c(-c5cc(S(=O)(=O)[O-])ccc5F)c5ccc2[nH]5)C=C4)C=C3)cc1)N(C)C(=O)N(C)C[C@@H]1CCC[N@H+]1C
REMARK SMILES IDX 8 1 7 2 6 3 4 4 5 5 3 6 2 7 1 8 78 9 79 10 80 11 81 12 82 13
REMARK SMILES IDX 83 14 84 15 85 16 86 17 89 18 87 19 88 20 90 21 9 23 10 24
REMARK SMILES IDX 11 25 12 26 13 27 14 28 15 29 16 30 77 31 17 32 76 33 18 34
REMARK SMILES IDX 19 35 20 36 70 37 21 38 75 39 69 40 71 41 22 42 74 43 68 44
REMARK SMILES IDX 67 45 23 47 55 48 35 49 54 50 36 51 39 52 53 53 72 54 37 55
REMARK SMILES IDX 38 56 52 58 73 59 40 60 24 61 25 62 33 63 26 64 32 65 34 66
REMARK SMILES IDX 31 67 27 68 28 69 29 70 30 71 56 72 57 73 65 74 58 75 64 76
REMARK SMILES IDX 66 77 63 78 59 79 60 80 61 81 62 82 41 83 42 84 50 85 43 86
REMARK SMILES IDX 49 87 51 88 48 89 44 90 45 91 46 92 47 93
REMARK H PARENT 89 22 71 46 39 57
REMARK Flexibility Score: inf
ROOT
ATOM      1  C   UNL A   1      33.281  30.204  26.339  1.00  0.00     0.202 C 
ENDROOT
BRANCH   1   2
ATOM      2  C   UNL A   1      32.935  28.761  25.949  1.00  0.00     0.261 C 
BRANCH   2   3
ATOM      3  O   UNL A   1      32.045  28.743  24.815  1.00  0.00    -0.462 OA
BRANCH   3   4
ATOM      4  C   UNL A   1      32.620  28.542  23.601  1.00  0.00     0.328 C 
ATOM      5  O   UNL A   1      33.657  29.101  23.247  1.00  0.00    -0.250 OA
BRANCH   4   6
ATOM      6  C   UNL A   1      31.782  27.629  22.658  1.00  0.00     0.196 C 
BRANCH   6   7
ATOM      7  C   UNL A   1      30.292  27.961  22.386  1.00  0.00     0.034 C 
ATOM      8  C   UNL A   1      29.970  29.427  22.113  1.00  0.00     0.007 C 
ENDBRANCH   6   7
BRANCH   6   9
ATOM      9  N   UNL A   1      32.025  26.200  23.082  1.00  0.00    -0.314 N 
ATOM     10  C   UNL A   1      30.803  25.422  23.239  1.00  0.00     0.149 C 
BRANCH   9  11
ATOM     11  C   UNL A   1      33.291  25.650  22.917  1.00  0.00     0.320 C 
ATOM     12  O   UNL A   1      33.844  25.685  21.815  1.00  0.00    -0.248 OA
BRANCH  11  13
ATOM     13  N   UNL A   1      33.976  25.057  23.965  1.00  0.00    -0.322 N 
ATOM     14  C   UNL A   1      34.256  25.624  25.272  1.00  0.00     0.149 C 
BRANCH  13  15
ATOM     15  C   UNL A   1      34.767  23.848  23.636  1.00  0.00     0.185 C 
BRANCH  15  16
ATOM     16  C   UNL A   1      34.596  22.611  24.581  1.00  0.00     0.203 C 
ATOM     17  C   UNL A   1      35.843  21.713  24.585  1.00  0.00     0.073 C 
ATOM     18  N   UNL A   1      33.498  21.683  24.294  1.00  0.00    -0.333 N 
ATOM     19  C   UNL A   1      35.343  20.301  24.859  1.00  0.00     0.068 C 
ATOM     20  C   UNL A   1      33.830  20.402  24.917  1.00  0.00     0.262 C 
ATOM     21  C   UNL A   1      32.187  22.167  24.706  1.00  0.00     0.333 C 
ATOM     22  H   UNL A   1      33.411  21.583  23.283  1.00  0.00     0.348 HD
ENDBRANCH  15  16
ENDBRANCH  13  15
ENDBRANCH  11  13
ENDBRANCH   9  11
ENDBRANCH   6   9
ENDBRANCH   4   6
ENDBRANCH   3   4
ENDBRANCH   2   3
ENDBRANCH   1   2
BRANCH   1  23
ATOM     23  O   UNL A   1      32.353  30.860  27.205  1.00  0.00    -0.374 OA
BRANCH  23  24
ATOM     24  C   UNL A   1      31.786  32.067  26.701  1.00  0.00     0.202 C 
BRANCH  24  25
ATOM     25  C   UNL A   1      32.242  33.372  27.348  1.00  0.00     0.261 C 
BRANCH  25  26
ATOM     26  O   UNL A   1      33.326  33.133  28.259  1.00  0.00    -0.460 OA
BRANCH  26  27
ATOM     27  C   UNL A   1      34.460  33.812  27.959  1.00  0.00     0.338 C 
ATOM     28  O   UNL A   1      34.552  34.968  27.594  1.00  0.00    -0.246 OA
BRANCH  27  29
ATOM     29  C   UNL A   1      35.625  32.987  28.338  1.00  0.00     0.060 A 
ATOM     30  C   UNL A   1      35.384  31.639  28.635  1.00  0.00     0.016 A 
ATOM     31  C   UNL A   1      36.914  33.516  28.420  1.00  0.00     0.016 A 
ATOM     32  C   UNL A   1      36.425  30.826  29.071  1.00  0.00     0.010 A 
ATOM     33  C   UNL A   1      37.955  32.701  28.867  1.00  0.00     0.010 A 
ATOM     34  C   UNL A   1      37.706  31.364  29.230  1.00  0.00    -0.014 A 
BRANCH  34  35
ATOM     35  C   UNL A   1      38.748  30.584  29.937  1.00  0.00     0.031 A 
ATOM     36  C   UNL A   1      39.050  30.929  31.369  1.00  0.00     0.074 A 
ATOM     37  C   UNL A   1      39.397  29.581  29.321  1.00  0.00     0.049 A 
ATOM     38  N   UNL A   1      39.978  30.459  32.159  1.00  0.00    -0.248 NA
ATOM     39  C   UNL A   1      38.187  31.949  31.988  1.00  0.00     0.031 C 
ATOM     40  C   UNL A   1      39.140  29.123  27.956  1.00  0.00     0.029 A 
ATOM     41  N   UNL A   1      40.417  28.775  29.761  1.00  0.00    -0.354 N 
ATOM     42  C   UNL A   1      39.823  31.136  33.365  1.00  0.00     0.074 A 
ATOM     43  C   UNL A   1      38.735  32.072  33.187  1.00  0.00     0.031 C 
ATOM     44  C   UNL A   1      39.992  28.124  27.666  1.00  0.00     0.029 A 
ATOM     45  C   UNL A   1      40.886  27.909  28.802  1.00  0.00     0.049 A 
ATOM     46  H   UNL A   1      40.777  28.814  30.676  1.00  0.00     0.167 HD
ATOM     47  C   UNL A   1      40.525  30.981  34.514  1.00  0.00     0.034 A 
ATOM     48  C   UNL A   1      41.941  27.069  28.829  1.00  0.00     0.034 A 
ATOM     49  C   UNL A   1      41.614  30.048  34.662  1.00  0.00     0.049 A 
ATOM     50  C   UNL A   1      42.775  26.989  30.086  1.00  0.00     0.074 A 
ATOM     51  C   UNL A   1      42.387  29.797  35.782  1.00  0.00     0.029 A 
ATOM     52  N   UNL A   1      42.094  29.219  33.655  1.00  0.00    -0.354 N 
ATOM     53  N   UNL A   1      42.625  27.634  31.221  1.00  0.00    -0.248 NA
ATOM     54  C   UNL A   1      43.918  26.066  30.069  1.00  0.00     0.031 C 
ATOM     55  C   UNL A   1      43.385  28.883  35.429  1.00  0.00     0.029 A 
ATOM     56  C   UNL A   1      43.176  28.487  34.116  1.00  0.00     0.049 A 
ATOM     57  H   UNL A   1      41.718  29.160  32.747  1.00  0.00     0.167 HD
ATOM     58  C   UNL A   1      43.631  27.165  32.063  1.00  0.00     0.074 A 
ATOM     59  C   UNL A   1      44.376  26.178  31.307  1.00  0.00     0.031 C 
ATOM     60  C   UNL A   1      43.911  27.509  33.347  1.00  0.00     0.034 A 
BRANCH  47  61
ATOM     61  C   UNL A   1      40.173  31.885  35.671  1.00  0.00     0.023 A 
ATOM     62  C   UNL A   1      39.157  31.562  36.588  1.00  0.00     0.031 A 
ATOM     63  C   UNL A   1      40.849  33.107  35.845  1.00  0.00     0.131 A 
ATOM     64  C   UNL A   1      38.800  32.477  37.589  1.00  0.00     0.055 A 
ATOM     65  C   UNL A   1      40.545  33.975  36.895  1.00  0.00     0.041 A 
ATOM     66  F   UNL A   1      41.810  33.484  34.987  1.00  0.00    -0.206 F 
ATOM     67  C   UNL A   1      39.505  33.669  37.766  1.00  0.00     0.022 A 
BRANCH  64  68
ATOM     68  S   UNL A   1      37.305  32.155  38.565  1.00  0.00     0.124 S 
ATOM     69  O   UNL A   1      37.745  32.520  39.910  1.00  0.00    -0.237 OA
ATOM     70  O   UNL A   1      36.328  33.045  37.948  1.00  0.00    -0.237 OA
ATOM     71  O   UNL A   1      37.064  30.728  38.363  1.00  0.00    -0.744 OA
ENDBRANCH  64  68
ENDBRANCH  47  61
BRANCH  48  72
ATOM     72  C   UNL A   1      42.305  26.274  27.622  1.00  0.00     0.023 A 
ATOM     73  C   UNL A   1      42.039  24.898  27.551  1.00  0.00     0.031 A 
ATOM     74  C   UNL A   1      42.976  26.870  26.538  1.00  0.00     0.131 A 
ATOM     75  C   UNL A   1      42.484  24.154  26.446  1.00  0.00     0.055 A 
ATOM     76  C   UNL A   1      43.363  26.138  25.414  1.00  0.00     0.041 A 
ATOM     77  F   UNL A   1      43.261  28.182  26.553  1.00  0.00    -0.206 F 
ATOM     78  C   UNL A   1      43.130  24.768  25.370  1.00  0.00     0.022 A 
BRANCH  75  79
ATOM     79  S   UNL A   1      42.296  22.351  26.481  1.00  0.00     0.124 S 
ATOM     80  O   UNL A   1      42.427  22.067  27.906  1.00  0.00    -0.237 OA
ATOM     81  O   UNL A   1      40.965  22.175  25.909  1.00  0.00    -0.237 OA
ATOM     82  O   UNL A   1      43.399  21.878  25.646  1.00  0.00    -0.744 OA
ENDBRANCH  75  79
ENDBRANCH  48  72
BRANCH  60  83
ATOM     83  C   UNL A   1      45.032  26.769  34.037  1.00  0.00     0.023 A 
ATOM     84  C   UNL A   1      44.810  25.584  34.761  1.00  0.00     0.031 A 
ATOM     85  C   UNL A   1      46.350  27.255  33.953  1.00  0.00     0.131 A 
ATOM     86  C   UNL A   1      45.881  24.951  35.409  1.00  0.00     0.055 A 
ATOM     87  C   UNL A   1      47.421  26.585  34.546  1.00  0.00     0.041 A 
ATOM     88  F   UNL A   1      46.619  28.384  33.278  1.00  0.00    -0.206 F 
ATOM     89  C   UNL A   1      47.188  25.433  35.288  1.00  0.00     0.022 A 
BRANCH  86  90
ATOM     90  S   UNL A   1      45.536  23.531  36.484  1.00  0.00     0.124 S 
ATOM     91  O   UNL A   1      44.581  22.771  35.686  1.00  0.00    -0.237 OA
ATOM     92  O   UNL A   1      46.856  22.930  36.642  1.00  0.00    -0.237 OA
ATOM     93  O   UNL A   1      44.985  24.142  37.694  1.00  0.00    -0.744 OA
ENDBRANCH  86  90
ENDBRANCH  60  83
ENDBRANCH  34  35
ENDBRANCH  27  29
ENDBRANCH  26  27
ENDBRANCH  25  26
ENDBRANCH  24  25
ENDBRANCH  23  24
ENDBRANCH   1  23
TORSDOF 23
ENDMDL
MODEL 3
REMARK VINA RESULT:      -9.4      2.665      7.839
REMARK SMILES CC[C@@H](C(=O)OCCOCCOC(=O)c1ccc(-c2c3nc(c(-c4cc(S(=O)(=O)[O-])ccc4F)c4ccc([nH]4)c(-c4cc(S(=O)(=O)[O-])ccc4F)c4nc(c(-c5cc(S(=O)(=O)[O-])ccc5F)c5ccc2[nH]5)C=C4)C=C3)cc1)N(C)C(=O)N(C)C[C@@H]1CCC[N@H+]1C
REMARK SMILES IDX 8 1 7 2 6 3 4 4 5 5 3 6 2 7 1 8 78 9 79 10 80 11 81 12 82 13
REMARK SMILES IDX 83 14 84 15 85 16 86 17 89 18 87 19 88 20 90 21 9 23 10 24
REMARK SMILES IDX 11 25 12 26 13 27 14 28 15 29 16 30 77 31 17 32 76 33 18 34
REMARK SMILES IDX 19 35 20 36 70 37 21 38 75 39 69 40 71 41 22 42 74 43 68 44
REMARK SMILES IDX 67 45 23 47 55 48 35 49 54 50 36 51 39 52 53 53 72 54 37 55
REMARK SMILES IDX 38 56 52 58 73 59 40 60 24 61 25 62 33 63 26 64 32 65 34 66
REMARK SMILES IDX 31 67 27 68 28 69 29 70 30 71 56 72 57 73 65 74 58 75 64 76
REMARK SMILES IDX 66 77 63 78 59 79 60 80 61 81 62 82 41 83 42 84 50 85 43 86
REMARK SMILES IDX 49 87 51 88 48 89 44 90 45 91 46 92 47 93
REMARK H PARENT 89 22 71 46 39 57
REMARK Flexibility Score: inf
ROOT
ATOM      1  C   UNL A   1      33.582  21.281  26.076  1.00  0.00     0.202 C 
ENDROOT
BRANCH   1   2
ATOM      2  C   UNL A   1      33.207  22.656  26.643  1.00  0.00     0.261 C 
BRANCH   2   3
ATOM      3  O   UNL A   1      31.820  22.681  27.035  1.00  0.00    -0.462 OA
BRANCH   3   4
ATOM      4  C   UNL A   1      31.137  23.822  26.761  1.00  0.00     0.328 C 
ATOM      5  O   UNL A   1      30.005  24.047  27.186  1.00  0.00    -0.250 OA
BRANCH   4   6
ATOM      6  C   UNL A   1      31.873  24.765  25.764  1.00  0.00     0.196 C 
BRANCH   6   7
ATOM      7  C   UNL A   1      32.319  26.177  26.223  1.00  0.00     0.034 C 
ATOM      8  C   UNL A   1      33.672  26.656  25.704  1.00  0.00     0.007 C 
ENDBRANCH   6   7
BRANCH   6   9
ATOM      9  N   UNL A   1      31.088  24.757  24.474  1.00  0.00    -0.314 N 
ATOM     10  C   UNL A   1      30.932  23.429  23.894  1.00  0.00     0.149 C 
BRANCH   9  11
ATOM     11  C   UNL A   1      30.290  25.850  24.160  1.00  0.00     0.320 C 
ATOM     12  O   UNL A   1      29.193  25.996  24.706  1.00  0.00    -0.248 OA
BRANCH  11  13
ATOM     13  N   UNL A   1      30.687  26.810  23.244  1.00  0.00    -0.322 N 
ATOM     14  C   UNL A   1      31.675  26.672  22.188  1.00  0.00     0.149 C 
BRANCH  13  15
ATOM     15  C   UNL A   1      30.299  28.210  23.543  1.00  0.00     0.185 C 
BRANCH  15  16
ATOM     16  C   UNL A   1      29.336  28.910  22.527  1.00  0.00     0.203 C 
ATOM     17  C   UNL A   1      30.019  30.078  21.799  1.00  0.00     0.073 C 
ATOM     18  N   UNL A   1      28.103  29.501  23.057  1.00  0.00    -0.333 N 
ATOM     19  C   UNL A   1      28.915  31.076  21.475  1.00  0.00     0.068 C 
ATOM     20  C   UNL A   1      27.651  30.509  22.097  1.00  0.00     0.262 C 
ATOM     21  C   UNL A   1      27.060  28.531  23.361  1.00  0.00     0.333 C 
ATOM     22  H   UNL A   1      28.307  29.928  23.960  1.00  0.00     0.348 HD
ENDBRANCH  15  16
ENDBRANCH  13  15
ENDBRANCH  11  13
ENDBRANCH   9  11
ENDBRANCH   6   9
ENDBRANCH   4   6
ENDBRANCH   3   4
ENDBRANCH   2   3
ENDBRANCH   1   2
BRANCH   1  23
ATOM     23  O   UNL A   1      34.715  21.248  25.207  1.00  0.00    -0.374 OA
BRANCH  23  24
ATOM     24  C   UNL A   1      35.962  21.586  25.806  1.00  0.00     0.202 C 
BRANCH  24  25
ATOM     25  C   UNL A   1      36.993  22.283  24.920  1.00  0.00     0.261 C 
BRANCH  25  26
ATOM     26  O   UNL A   1      37.659  23.327  25.645  1.00  0.00    -0.460 OA
BRANCH  26  27
ATOM     27  C   UNL A   1      38.838  22.952  26.196  1.00  0.00     0.338 C 
ATOM     28  O   UNL A   1      39.359  21.854  26.148  1.00  0.00    -0.246 OA
BRANCH  27  29
ATOM     29  C   UNL A   1      39.527  24.152  26.715  1.00  0.00     0.060 A 
ATOM     30  C   UNL A   1      39.573  24.309  28.107  1.00  0.00     0.016 A 
ATOM     31  C   UNL A   1      40.095  25.106  25.871  1.00  0.00     0.016 A 
ATOM     32  C   UNL A   1      40.139  25.453  28.659  1.00  0.00     0.010 A 
ATOM     33  C   UNL A   1      40.656  26.257  26.426  1.00  0.00     0.010 A 
ATOM     34  C   UNL A   1      40.645  26.451  27.820  1.00  0.00    -0.014 A 
BRANCH  34  35
ATOM     35  C   UNL A   1      41.005  27.773  28.385  1.00  0.00     0.031 A 
ATOM     36  C   UNL A   1      42.460  28.086  28.596  1.00  0.00     0.074 A 
ATOM     37  C   UNL A   1      40.057  28.677  28.686  1.00  0.00     0.049 A 
ATOM     38  N   UNL A   1      43.012  29.126  29.163  1.00  0.00    -0.248 NA
ATOM     39  C   UNL A   1      43.419  27.083  28.106  1.00  0.00     0.031 C 
ATOM     40  C   UNL A   1      38.623  28.501  28.464  1.00  0.00     0.029 A 
ATOM     41  N   UNL A   1      40.160  29.920  29.258  1.00  0.00    -0.354 N 
ATOM     42  C   UNL A   1      44.384  28.897  29.112  1.00  0.00     0.074 A 
ATOM     43  C   UNL A   1      44.574  27.604  28.491  1.00  0.00     0.031 C 
ATOM     44  C   UNL A   1      37.977  29.593  28.908  1.00  0.00     0.029 A 
ATOM     45  C   UNL A   1      38.945  30.520  29.492  1.00  0.00     0.049 A 
ATOM     46  H   UNL A   1      41.021  30.342  29.478  1.00  0.00     0.167 HD
ATOM     47  C   UNL A   1      45.389  29.700  29.541  1.00  0.00     0.034 A 
ATOM     48  C   UNL A   1      38.650  31.666  30.139  1.00  0.00     0.034 A 
ATOM     49  C   UNL A   1      45.172  30.980  30.167  1.00  0.00     0.049 A 
ATOM     50  C   UNL A   1      39.781  32.495  30.702  1.00  0.00     0.074 A 
ATOM     51  C   UNL A   1      46.113  31.883  30.629  1.00  0.00     0.029 A 
ATOM     52  N   UNL A   1      43.926  31.536  30.432  1.00  0.00    -0.354 N 
ATOM     53  N   UNL A   1      41.075  32.271  30.653  1.00  0.00    -0.248 NA
ATOM     54  C   UNL A   1      39.413  33.732  31.404  1.00  0.00     0.031 C 
ATOM     55  C   UNL A   1      45.438  32.941  31.247  1.00  0.00     0.029 A 
ATOM     56  C   UNL A   1      44.074  32.748  31.086  1.00  0.00     0.049 A 
ATOM     57  H   UNL A   1      43.064  31.127  30.188  1.00  0.00     0.167 HD
ATOM     58  C   UNL A   1      41.675  33.359  31.284  1.00  0.00     0.074 A 
ATOM     59  C   UNL A   1      40.601  34.240  31.698  1.00  0.00     0.031 C 
ATOM     60  C   UNL A   1      42.991  33.614  31.495  1.00  0.00     0.034 A 
BRANCH  47  61
ATOM     61  C   UNL A   1      46.800  29.182  29.401  1.00  0.00     0.023 A 
ATOM     62  C   UNL A   1      47.617  29.530  28.311  1.00  0.00     0.031 A 
ATOM     63  C   UNL A   1      47.329  28.302  30.364  1.00  0.00     0.131 A 
ATOM     64  C   UNL A   1      48.886  28.949  28.174  1.00  0.00     0.055 A 
ATOM     65  C   UNL A   1      48.625  27.794  30.264  1.00  0.00     0.041 A 
ATOM     66  F   UNL A   1      46.589  27.913  31.413  1.00  0.00    -0.206 F 
ATOM     67  C   UNL A   1      49.407  28.104  29.157  1.00  0.00     0.022 A 
BRANCH  64  68
ATOM     68  S   UNL A   1      49.789  29.193  26.619  1.00  0.00     0.124 S 
ATOM     69  O   UNL A   1      49.725  30.646  26.466  1.00  0.00    -0.237 OA
ATOM     70  O   UNL A   1      51.103  28.639  26.926  1.00  0.00    -0.237 OA
ATOM     71  O   UNL A   1      49.005  28.438  25.645  1.00  0.00    -0.744 OA
ENDBRANCH  64  68
ENDBRANCH  47  61
BRANCH  48  72
ATOM     72  C   UNL A   1      37.231  32.078  30.337  1.00  0.00     0.023 A 
ATOM     73  C   UNL A   1      36.515  32.727  29.320  1.00  0.00     0.031 A 
ATOM     74  C   UNL A   1      36.585  31.877  31.571  1.00  0.00     0.131 A 
ATOM     75  C   UNL A   1      35.215  33.197  29.569  1.00  0.00     0.055 A 
ATOM     76  C   UNL A   1      35.271  32.291  31.793  1.00  0.00     0.041 A 
ATOM     77  F   UNL A   1      37.223  31.265  32.581  1.00  0.00    -0.206 F 
ATOM     78  C   UNL A   1      34.582  32.968  30.793  1.00  0.00     0.022 A 
BRANCH  75  79
ATOM     79  S   UNL A   1      34.397  34.201  28.299  1.00  0.00     0.124 S 
ATOM     80  O   UNL A   1      33.195  33.419  28.032  1.00  0.00    -0.237 OA
ATOM     81  O   UNL A   1      34.200  35.468  28.997  1.00  0.00    -0.237 OA
ATOM     82  O   UNL A   1      35.374  34.236  27.212  1.00  0.00    -0.744 OA
ENDBRANCH  75  79
ENDBRANCH  48  72
BRANCH  60  83
ATOM     83  C   UNL A   1      43.350  34.926  32.150  1.00  0.00     0.023 A 
ATOM     84  C   UNL A   1      43.529  35.043  33.540  1.00  0.00     0.031 A 
ATOM     85  C   UNL A   1      43.529  36.078  31.361  1.00  0.00     0.131 A 
ATOM     86  C   UNL A   1      43.832  36.293  34.101  1.00  0.00     0.055 A 
ATOM     87  C   UNL A   1      43.894  37.303  31.919  1.00  0.00     0.041 A 
ATOM     88  F   UNL A   1      43.366  36.025  30.029  1.00  0.00    -0.206 F 
ATOM     89  C   UNL A   1      44.037  37.419  33.298  1.00  0.00     0.022 A 
BRANCH  86  90
ATOM     90  S   UNL A   1      43.877  36.451  35.908  1.00  0.00     0.124 S 
ATOM     91  O   UNL A   1      45.265  36.116  36.208  1.00  0.00    -0.237 OA
ATOM     92  O   UNL A   1      43.499  37.846  36.109  1.00  0.00    -0.237 OA
ATOM     93  O   UNL A   1      42.891  35.471  36.363  1.00  0.00    -0.744 OA
ENDBRANCH  86  90
ENDBRANCH  60  83
ENDBRANCH  34  35
ENDBRANCH  27  29
ENDBRANCH  26  27
ENDBRANCH  25  26
ENDBRANCH  24  25
ENDBRANCH  23  24
ENDBRANCH   1  23
TORSDOF 23
ENDMDL
