MODEL 1
REMARK VINA RESULT:     -10.9      0.000      0.000
REMARK SMILES C[C@@H](C(=O)OCCOCCOC(=O)c1ccc(-c2c3nc(c(-c4cc(S(=O)(=O)[O-])ccc4F)c4ccc([nH]4)c(-c4cc(S(=O)(=O)[O-])ccc4F)c4nc(c(-c5cc(S(=O)(=O)[O-])ccc5F)c5ccc2[nH]5)C=C4)C=C3)cc1)c1ccc(Cc2cccs2)cc1F
REMARK SMILES IDX 8 1 7 2 6 3 5 4 3 5 4 6 2 7 1 8 77 9 78 10 88 11 79 12 87 13
REMARK SMILES IDX 89 14 80 15 81 16 82 17 83 18 86 19 84 20 85 21 9 22 10 23
REMARK SMILES IDX 11 24 12 25 13 26 14 27 15 28 76 29 16 30 75 31 17 32 18 33
REMARK SMILES IDX 19 34 69 35 20 36 74 37 68 38 70 39 21 40 73 41 67 42 66 43
REMARK SMILES IDX 22 45 54 46 34 47 53 48 35 49 38 50 52 51 71 52 36 53 37 54
REMARK SMILES IDX 51 56 72 57 39 58 23 59 24 60 32 61 25 62 31 63 33 64 30 65
REMARK SMILES IDX 26 66 27 67 28 68 29 69 55 70 56 71 64 72 57 73 63 74 65 75
REMARK SMILES IDX 62 76 58 77 59 78 60 79 61 80 40 81 41 82 49 83 42 84 48 85
REMARK SMILES IDX 50 86 47 87 43 88 44 89 45 90 46 91
REMARK H PARENT 70 44 38 55
REMARK Flexibility Score: inf
ROOT
ATOM      1  O   UNL A   1      35.531  21.202  25.820  1.00  0.00    -0.374 OA
ENDROOT
BRANCH   1   2
ATOM      2  C   UNL A   1      34.175  21.608  25.620  1.00  0.00     0.202 C 
BRANCH   2   3
ATOM      3  C   UNL A   1      33.738  21.823  24.168  1.00  0.00     0.261 C 
BRANCH   3   4
ATOM      4  O   UNL A   1      34.460  22.912  23.577  1.00  0.00    -0.463 OA
BRANCH   4   5
ATOM      5  C   UNL A   1      34.107  24.160  23.992  1.00  0.00     0.313 C 
ATOM      6  O   UNL A   1      34.779  24.847  24.755  1.00  0.00    -0.252 OA
BRANCH   5   7
ATOM      7  C   UNL A   1      32.828  24.663  23.309  1.00  0.00     0.129 C 
ATOM      8  C   UNL A   1      32.903  24.445  21.789  1.00  0.00     0.025 C 
BRANCH   7   9
ATOM      9  C   UNL A   1      32.401  26.071  23.750  1.00  0.00     0.002 A 
ATOM     10  C   UNL A   1      31.277  26.272  24.572  1.00  0.00     0.008 A 
ATOM     11  C   UNL A   1      33.029  27.229  23.267  1.00  0.00     0.127 A 
ATOM     12  C   UNL A   1      30.811  27.557  24.884  1.00  0.00     0.004 A 
ATOM     13  C   UNL A   1      32.559  28.516  23.559  1.00  0.00     0.043 A 
ATOM     14  F   UNL A   1      34.105  27.142  22.472  1.00  0.00    -0.207 F 
ATOM     15  C   UNL A   1      31.427  28.697  24.357  1.00  0.00    -0.040 A 
BRANCH  15  16
ATOM     16  C   UNL A   1      30.867  30.078  24.626  1.00  0.00     0.082 C 
BRANCH  16  17
ATOM     17  C   UNL A   1      29.694  30.437  23.748  1.00  0.00     0.009 A 
ATOM     18  C   UNL A   1      28.808  31.492  23.875  1.00  0.00     0.016 A 
ATOM     19  S   UNL A   1      29.339  29.504  22.351  1.00  0.00    -0.149 S 
ATOM     20  C   UNL A   1      27.829  31.518  22.842  1.00  0.00     0.012 A 
ATOM     21  C   UNL A   1      28.009  30.497  21.939  1.00  0.00     0.065 A 
ENDBRANCH  16  17
ENDBRANCH  15  16
ENDBRANCH   7   9
ENDBRANCH   5   7
ENDBRANCH   4   5
ENDBRANCH   3   4
ENDBRANCH   2   3
ENDBRANCH   1   2
BRANCH   1  22
ATOM     22  C   UNL A   1      36.035  20.144  25.001  1.00  0.00     0.202 C 
BRANCH  22  23
ATOM     23  C   UNL A   1      37.556  19.930  24.971  1.00  0.00     0.261 C 
BRANCH  23  24
ATOM     24  O   UNL A   1      38.304  21.124  25.270  1.00  0.00    -0.460 OA
BRANCH  24  25
ATOM     25  C   UNL A   1      39.384  20.929  26.069  1.00  0.00     0.338 C 
ATOM     26  O   UNL A   1      40.041  19.900  26.172  1.00  0.00    -0.246 OA
BRANCH  25  27
ATOM     27  C   UNL A   1      39.808  22.195  26.693  1.00  0.00     0.060 A 
ATOM     28  C   UNL A   1      39.157  23.367  26.285  1.00  0.00     0.016 A 
ATOM     29  C   UNL A   1      40.886  22.256  27.578  1.00  0.00     0.016 A 
ATOM     30  C   UNL A   1      39.611  24.610  26.727  1.00  0.00     0.010 A 
ATOM     31  C   UNL A   1      41.345  23.506  28.013  1.00  0.00     0.010 A 
ATOM     32  C   UNL A   1      40.732  24.690  27.564  1.00  0.00    -0.014 A 
BRANCH  32  33
ATOM     33  C   UNL A   1      41.343  26.016  27.838  1.00  0.00     0.031 A 
ATOM     34  C   UNL A   1      42.743  26.288  27.354  1.00  0.00     0.074 A 
ATOM     35  C   UNL A   1      40.647  26.981  28.466  1.00  0.00     0.049 A 
ATOM     36  N   UNL A   1      43.481  27.358  27.502  1.00  0.00    -0.248 NA
ATOM     37  C   UNL A   1      43.395  25.204  26.603  1.00  0.00     0.031 C 
ATOM     38  C   UNL A   1      39.269  26.854  28.936  1.00  0.00     0.029 A 
ATOM     39  N   UNL A   1      41.006  28.258  28.820  1.00  0.00    -0.354 N 
ATOM     40  C   UNL A   1      44.685  27.079  26.862  1.00  0.00     0.074 A 
ATOM     41  C   UNL A   1      44.589  25.724  26.363  1.00  0.00     0.031 C 
ATOM     42  C   UNL A   1      38.903  28.004  29.528  1.00  0.00     0.029 A 
ATOM     43  C   UNL A   1      40.030  28.934  29.513  1.00  0.00     0.049 A 
ATOM     44  H   UNL A   1      41.880  28.652  28.599  1.00  0.00     0.167 HD
ATOM     45  C   UNL A   1      45.765  27.884  26.697  1.00  0.00     0.034 A 
ATOM     46  C   UNL A   1      40.053  30.152  30.092  1.00  0.00     0.034 A 
ATOM     47  C   UNL A   1      45.854  29.228  27.214  1.00  0.00     0.049 A 
ATOM     48  C   UNL A   1      41.300  30.995  29.977  1.00  0.00     0.074 A 
ATOM     49  C   UNL A   1      46.899  30.129  27.105  1.00  0.00     0.029 A 
ATOM     50  N   UNL A   1      44.863  29.862  27.953  1.00  0.00    -0.354 N 
ATOM     51  N   UNL A   1      42.432  30.721  29.368  1.00  0.00    -0.248 NA
ATOM     52  C   UNL A   1      41.270  32.318  30.618  1.00  0.00     0.031 C 
ATOM     53  C   UNL A   1      46.569  31.276  27.834  1.00  0.00     0.029 A 
ATOM     54  C   UNL A   1      45.285  31.128  28.333  1.00  0.00     0.049 A 
ATOM     55  H   UNL A   1      43.987  29.470  28.176  1.00  0.00     0.167 HD
ATOM     56  C   UNL A   1      43.235  31.848  29.530  1.00  0.00     0.074 A 
ATOM     57  C   UNL A   1      42.452  32.810  30.280  1.00  0.00     0.031 C 
ATOM     58  C   UNL A   1      44.500  32.072  29.093  1.00  0.00     0.034 A 
BRANCH  45  59
ATOM     59  C   UNL A   1      46.954  27.303  25.968  1.00  0.00     0.023 A 
ATOM     60  C   UNL A   1      47.980  26.624  26.648  1.00  0.00     0.031 A 
ATOM     61  C   UNL A   1      47.079  27.459  24.576  1.00  0.00     0.131 A 
ATOM     62  C   UNL A   1      49.116  26.189  25.948  1.00  0.00     0.055 A 
ATOM     63  C   UNL A   1      48.175  26.955  23.874  1.00  0.00     0.041 A 
ATOM     64  F   UNL A   1      46.143  28.118  23.876  1.00  0.00    -0.206 F 
ATOM     65  C   UNL A   1      49.209  26.328  24.562  1.00  0.00     0.022 A 
BRANCH  62  66
ATOM     66  S   UNL A   1      50.533  25.567  26.895  1.00  0.00     0.124 S 
ATOM     67  O   UNL A   1      49.933  24.452  27.626  1.00  0.00    -0.237 OA
ATOM     68  O   UNL A   1      51.480  25.207  25.846  1.00  0.00    -0.237 OA
ATOM     69  O   UNL A   1      50.921  26.708  27.722  1.00  0.00    -0.744 OA
ENDBRANCH  62  66
ENDBRANCH  45  59
BRANCH  46  70
ATOM     70  C   UNL A   1      38.881  30.636  30.878  1.00  0.00     0.023 A 
ATOM     71  C   UNL A   1      37.829  31.335  30.268  1.00  0.00     0.031 A 
ATOM     72  C   UNL A   1      38.829  30.452  32.272  1.00  0.00     0.131 A 
ATOM     73  C   UNL A   1      36.791  31.864  31.053  1.00  0.00     0.055 A 
ATOM     74  C   UNL A   1      37.770  30.934  33.042  1.00  0.00     0.041 A 
ATOM     75  F   UNL A   1      39.811  29.793  32.908  1.00  0.00    -0.206 F 
ATOM     76  C   UNL A   1      36.749  31.656  32.434  1.00  0.00     0.022 A 
BRANCH  73  77
ATOM     77  S   UNL A   1      35.539  32.905  30.255  1.00  0.00     0.124 S 
ATOM     78  O   UNL A   1      36.144  34.228  30.355  1.00  0.00    -0.237 OA
ATOM     79  O   UNL A   1      35.475  32.327  28.916  1.00  0.00    -0.237 OA
ATOM     80  O   UNL A   1      34.349  32.698  31.078  1.00  0.00    -0.744 OA
ENDBRANCH  73  77
ENDBRANCH  46  70
BRANCH  58  81
ATOM     81  C   UNL A   1      45.098  33.430  29.379  1.00  0.00     0.023 A 
ATOM     82  C   UNL A   1      44.983  34.498  28.473  1.00  0.00     0.031 A 
ATOM     83  C   UNL A   1      45.802  33.652  30.576  1.00  0.00     0.131 A 
ATOM     84  C   UNL A   1      45.609  35.723  28.754  1.00  0.00     0.055 A 
ATOM     85  C   UNL A   1      46.371  34.890  30.877  1.00  0.00     0.041 A 
ATOM     86  F   UNL A   1      45.944  32.667  31.479  1.00  0.00    -0.206 F 
ATOM     87  C   UNL A   1      46.287  35.931  29.957  1.00  0.00     0.022 A 
BRANCH  84  88
ATOM     88  S   UNL A   1      45.600  37.019  27.483  1.00  0.00     0.124 S 
ATOM     89  O   UNL A   1      46.462  38.034  28.077  1.00  0.00    -0.237 OA
ATOM     90  O   UNL A   1      46.143  36.321  26.321  1.00  0.00    -0.237 OA
ATOM     91  O   UNL A   1      44.189  37.386  27.378  1.00  0.00    -0.744 OA
ENDBRANCH  84  88
ENDBRANCH  58  81
ENDBRANCH  32  33
ENDBRANCH  25  27
ENDBRANCH  24  25
ENDBRANCH  23  24
ENDBRANCH  22  23
ENDBRANCH   1  22
TORSDOF 20
ENDMDL
MODEL 2
REMARK VINA RESULT:     -10.8      1.654      7.691
REMARK SMILES C[C@@H](C(=O)OCCOCCOC(=O)c1ccc(-c2c3nc(c(-c4cc(S(=O)(=O)[O-])ccc4F)c4ccc([nH]4)c(-c4cc(S(=O)(=O)[O-])ccc4F)c4nc(c(-c5cc(S(=O)(=O)[O-])ccc5F)c5ccc2[nH]5)C=C4)C=C3)cc1)c1ccc(Cc2cccs2)cc1F
REMARK SMILES IDX 8 1 7 2 6 3 5 4 3 5 4 6 2 7 1 8 77 9 78 10 88 11 79 12 87 13
REMARK SMILES IDX 89 14 80 15 81 16 82 17 83 18 86 19 84 20 85 21 9 22 10 23
REMARK SMILES IDX 11 24 12 25 13 26 14 27 15 28 76 29 16 30 75 31 17 32 18 33
REMARK SMILES IDX 19 34 69 35 20 36 74 37 68 38 70 39 21 40 73 41 67 42 66 43
REMARK SMILES IDX 22 45 54 46 34 47 53 48 35 49 38 50 52 51 71 52 36 53 37 54
REMARK SMILES IDX 51 56 72 57 39 58 23 59 24 60 32 61 25 62 31 63 33 64 30 65
REMARK SMILES IDX 26 66 27 67 28 68 29 69 55 70 56 71 64 72 57 73 63 74 65 75
REMARK SMILES IDX 62 76 58 77 59 78 60 79 61 80 40 81 41 82 49 83 42 84 48 85
REMARK SMILES IDX 50 86 47 87 43 88 44 89 45 90 46 91
REMARK H PARENT 70 44 38 55
REMARK Flexibility Score: inf
ROOT
ATOM      1  O   UNL A   1      34.483  21.788  25.854  1.00  0.00    -0.374 OA
ENDROOT
BRANCH   1   2
ATOM      2  C   UNL A   1      33.439  22.517  25.205  1.00  0.00     0.202 C 
BRANCH   2   3
ATOM      3  C   UNL A   1      33.845  23.327  23.970  1.00  0.00     0.261 C 
BRANCH   3   4
ATOM      4  O   UNL A   1      34.458  24.566  24.354  1.00  0.00    -0.463 OA
BRANCH   4   5
ATOM      5  C   UNL A   1      33.638  25.651  24.399  1.00  0.00     0.313 C 
ATOM      6  O   UNL A   1      33.566  26.422  25.351  1.00  0.00    -0.252 OA
BRANCH   5   7
ATOM      7  C   UNL A   1      32.893  25.875  23.076  1.00  0.00     0.129 C 
ATOM      8  C   UNL A   1      33.851  26.405  21.996  1.00  0.00     0.025 C 
BRANCH   7   9
ATOM      9  C   UNL A   1      31.578  26.656  23.227  1.00  0.00     0.002 A 
ATOM     10  C   UNL A   1      30.387  26.017  23.616  1.00  0.00     0.008 A 
ATOM     11  C   UNL A   1      31.468  28.009  22.875  1.00  0.00     0.127 A 
ATOM     12  C   UNL A   1      29.161  26.696  23.644  1.00  0.00     0.004 A 
ATOM     13  C   UNL A   1      30.243  28.690  22.883  1.00  0.00     0.043 A 
ATOM     14  F   UNL A   1      32.545  28.705  22.486  1.00  0.00    -0.207 F 
ATOM     15  C   UNL A   1      29.066  28.034  23.249  1.00  0.00    -0.040 A 
BRANCH  15  16
ATOM     16  C   UNL A   1      27.725  28.737  23.197  1.00  0.00     0.082 C 
BRANCH  16  17
ATOM     17  C   UNL A   1      27.820  30.194  22.818  1.00  0.00     0.009 A 
ATOM     18  C   UNL A   1      27.681  31.309  23.625  1.00  0.00     0.016 A 
ATOM     19  S   UNL A   1      28.188  30.648  21.203  1.00  0.00    -0.149 S 
ATOM     20  C   UNL A   1      27.852  32.530  22.914  1.00  0.00     0.012 A 
ATOM     21  C   UNL A   1      28.144  32.314  21.587  1.00  0.00     0.065 A 
ENDBRANCH  16  17
ENDBRANCH  15  16
ENDBRANCH   7   9
ENDBRANCH   5   7
ENDBRANCH   4   5
ENDBRANCH   3   4
ENDBRANCH   2   3
ENDBRANCH   1   2
BRANCH   1  22
ATOM     22  C   UNL A   1      35.050  20.677  25.156  1.00  0.00     0.202 C 
BRANCH  22  23
ATOM     23  C   UNL A   1      36.571  20.674  24.940  1.00  0.00     0.261 C 
BRANCH  23  24
ATOM     24  O   UNL A   1      37.247  21.733  25.643  1.00  0.00    -0.460 OA
BRANCH  24  25
ATOM     25  C   UNL A   1      38.548  21.478  25.934  1.00  0.00     0.338 C 
ATOM     26  O   UNL A   1      39.190  20.486  25.609  1.00  0.00    -0.246 OA
BRANCH  25  27
ATOM     27  C   UNL A   1      39.184  22.652  26.559  1.00  0.00     0.060 A 
ATOM     28  C   UNL A   1      38.661  23.914  26.246  1.00  0.00     0.016 A 
ATOM     29  C   UNL A   1      40.330  22.537  27.347  1.00  0.00     0.016 A 
ATOM     30  C   UNL A   1      39.308  25.068  26.686  1.00  0.00     0.010 A 
ATOM     31  C   UNL A   1      40.983  23.699  27.780  1.00  0.00     0.010 A 
ATOM     32  C   UNL A   1      40.495  24.969  27.424  1.00  0.00    -0.014 A 
BRANCH  32  33
ATOM     33  C   UNL A   1      41.294  26.194  27.685  1.00  0.00     0.031 A 
ATOM     34  C   UNL A   1      40.676  27.313  28.481  1.00  0.00     0.074 A 
ATOM     35  C   UNL A   1      42.568  26.291  27.261  1.00  0.00     0.049 A 
ATOM     36  N   UNL A   1      41.174  28.477  28.806  1.00  0.00    -0.248 NA
ATOM     37  C   UNL A   1      39.309  27.083  28.974  1.00  0.00     0.031 C 
ATOM     38  C   UNL A   1      43.291  25.256  26.526  1.00  0.00     0.029 A 
ATOM     39  N   UNL A   1      43.477  27.313  27.386  1.00  0.00    -0.354 N 
ATOM     40  C   UNL A   1      40.186  29.121  29.544  1.00  0.00     0.074 A 
ATOM     41  C   UNL A   1      39.045  28.231  29.580  1.00  0.00     0.031 C 
ATOM     42  C   UNL A   1      44.530  25.700  26.254  1.00  0.00     0.029 A 
ATOM     43  C   UNL A   1      44.676  27.063  26.762  1.00  0.00     0.049 A 
ATOM     44  H   UNL A   1      43.287  28.145  27.875  1.00  0.00     0.167 HD
ATOM     45  C   UNL A   1      40.230  30.337  30.144  1.00  0.00     0.034 A 
ATOM     46  C   UNL A   1      45.756  27.853  26.595  1.00  0.00     0.034 A 
ATOM     47  C   UNL A   1      41.369  31.222  30.085  1.00  0.00     0.049 A 
ATOM     48  C   UNL A   1      45.749  29.240  27.192  1.00  0.00     0.074 A 
ATOM     49  C   UNL A   1      41.520  32.474  30.656  1.00  0.00     0.029 A 
ATOM     50  N   UNL A   1      42.549  30.955  29.403  1.00  0.00    -0.354 N 
ATOM     51  N   UNL A   1      44.809  29.837  27.888  1.00  0.00    -0.248 NA
ATOM     52  C   UNL A   1      46.954  30.057  26.989  1.00  0.00     0.031 C 
ATOM     53  C   UNL A   1      42.759  32.990  30.263  1.00  0.00     0.029 A 
ATOM     54  C   UNL A   1      43.418  32.031  29.511  1.00  0.00     0.049 A 
ATOM     55  H   UNL A   1      42.741  30.123  28.912  1.00  0.00     0.167 HD
ATOM     56  C   UNL A   1      45.322  31.087  28.230  1.00  0.00     0.074 A 
ATOM     57  C   UNL A   1      46.658  31.151  27.675  1.00  0.00     0.031 C 
ATOM     58  C   UNL A   1      44.745  32.087  28.942  1.00  0.00     0.034 A 
BRANCH  45  59
ATOM     59  C   UNL A   1      38.987  30.795  30.870  1.00  0.00     0.023 A 
ATOM     60  C   UNL A   1      37.997  31.562  30.232  1.00  0.00     0.031 A 
ATOM     61  C   UNL A   1      38.805  30.486  32.230  1.00  0.00     0.131 A 
ATOM     62  C   UNL A   1      36.908  32.054  30.968  1.00  0.00     0.055 A 
ATOM     63  C   UNL A   1      37.680  30.912  32.937  1.00  0.00     0.041 A 
ATOM     64  F   UNL A   1      39.727  29.777  32.898  1.00  0.00    -0.206 F 
ATOM     65  C   UNL A   1      36.730  31.713  32.311  1.00  0.00     0.022 A 
BRANCH  62  66
ATOM     66  S   UNL A   1      35.803  33.260  30.184  1.00  0.00     0.124 S 
ATOM     67  O   UNL A   1      35.508  34.158  31.299  1.00  0.00    -0.237 OA
ATOM     68  O   UNL A   1      36.638  33.810  29.123  1.00  0.00    -0.237 OA
ATOM     69  O   UNL A   1      34.674  32.447  29.733  1.00  0.00    -0.744 OA
ENDBRANCH  62  66
ENDBRANCH  45  59
BRANCH  46  70
ATOM     70  C   UNL A   1      46.920  27.381  25.789  1.00  0.00     0.023 A 
ATOM     71  C   UNL A   1      47.111  27.802  24.464  1.00  0.00     0.031 A 
ATOM     72  C   UNL A   1      47.830  26.452  26.323  1.00  0.00     0.131 A 
ATOM     73  C   UNL A   1      48.160  27.260  23.703  1.00  0.00     0.055 A 
ATOM     74  C   UNL A   1      48.902  25.955  25.580  1.00  0.00     0.041 A 
ATOM     75  F   UNL A   1      47.693  26.014  27.585  1.00  0.00    -0.206 F 
ATOM     76  C   UNL A   1      49.064  26.350  24.256  1.00  0.00     0.022 A 
BRANCH  73  77
ATOM     77  S   UNL A   1      48.275  27.697  21.946  1.00  0.00     0.124 S 
ATOM     78  O   UNL A   1      48.460  26.389  21.326  1.00  0.00    -0.237 OA
ATOM     79  O   UNL A   1      46.988  28.343  21.711  1.00  0.00    -0.237 OA
ATOM     80  O   UNL A   1      49.435  28.584  21.892  1.00  0.00    -0.744 OA
ENDBRANCH  73  77
ENDBRANCH  46  70
BRANCH  58  81
ATOM     81  C   UNL A   1      45.579  33.320  29.199  1.00  0.00     0.023 A 
ATOM     82  C   UNL A   1      45.615  34.395  28.294  1.00  0.00     0.031 A 
ATOM     83  C   UNL A   1      46.358  33.413  30.367  1.00  0.00     0.131 A 
ATOM     84  C   UNL A   1      46.453  35.493  28.546  1.00  0.00     0.055 A 
ATOM     85  C   UNL A   1      47.145  34.533  30.639  1.00  0.00     0.041 A 
ATOM     86  F   UNL A   1      46.365  32.416  31.266  1.00  0.00    -0.206 F 
ATOM     87  C   UNL A   1      47.205  35.577  29.720  1.00  0.00     0.022 A 
BRANCH  84  88
ATOM     88  S   UNL A   1      46.617  36.775  27.271  1.00  0.00     0.124 S 
ATOM     89  O   UNL A   1      45.540  37.694  27.624  1.00  0.00    -0.237 OA
ATOM     90  O   UNL A   1      47.974  37.265  27.494  1.00  0.00    -0.237 OA
ATOM     91  O   UNL A   1      46.422  36.042  26.022  1.00  0.00    -0.744 OA
ENDBRANCH  84  88
ENDBRANCH  58  81
ENDBRANCH  32  33
ENDBRANCH  25  27
ENDBRANCH  24  25
ENDBRANCH  23  24
ENDBRANCH  22  23
ENDBRANCH   1  22
TORSDOF 20
ENDMDL
MODEL 3
REMARK VINA RESULT:     -10.2      4.794     10.078
REMARK SMILES C[C@@H](C(=O)OCCOCCOC(=O)c1ccc(-c2c3nc(c(-c4cc(S(=O)(=O)[O-])ccc4F)c4ccc([nH]4)c(-c4cc(S(=O)(=O)[O-])ccc4F)c4nc(c(-c5cc(S(=O)(=O)[O-])ccc5F)c5ccc2[nH]5)C=C4)C=C3)cc1)c1ccc(Cc2cccs2)cc1F
REMARK SMILES IDX 8 1 7 2 6 3 5 4 3 5 4 6 2 7 1 8 77 9 78 10 88 11 79 12 87 13
REMARK SMILES IDX 89 14 80 15 81 16 82 17 83 18 86 19 84 20 85 21 9 22 10 23
REMARK SMILES IDX 11 24 12 25 13 26 14 27 15 28 76 29 16 30 75 31 17 32 18 33
REMARK SMILES IDX 19 34 69 35 20 36 74 37 68 38 70 39 21 40 73 41 67 42 66 43
REMARK SMILES IDX 22 45 54 46 34 47 53 48 35 49 38 50 52 51 71 52 36 53 37 54
REMARK SMILES IDX 51 56 72 57 39 58 23 59 24 60 32 61 25 62 31 63 33 64 30 65
REMARK SMILES IDX 26 66 27 67 28 68 29 69 55 70 56 71 64 72 57 73 63 74 65 75
REMARK SMILES IDX 62 76 58 77 59 78 60 79 61 80 40 81 41 82 49 83 42 84 48 85
REMARK SMILES IDX 50 86 47 87 43 88 44 89 45 90 46 91
REMARK H PARENT 70 44 38 55
REMARK Flexibility Score: inf
ROOT
ATOM      1  O   UNL A   1      33.826  29.716  27.484  1.00  0.00    -0.374 OA
ENDROOT
BRANCH   1   2
ATOM      2  C   UNL A   1      34.240  28.604  26.687  1.00  0.00     0.202 C 
BRANCH   2   3
ATOM      3  C   UNL A   1      33.138  27.636  26.250  1.00  0.00     0.261 C 
BRANCH   3   4
ATOM      4  O   UNL A   1      32.902  27.739  24.839  1.00  0.00    -0.463 OA
BRANCH   4   5
ATOM      5  C   UNL A   1      31.688  28.231  24.468  1.00  0.00     0.313 C 
ATOM      6  O   UNL A   1      31.045  29.044  25.124  1.00  0.00    -0.252 OA
BRANCH   5   7
ATOM      7  C   UNL A   1      31.261  27.742  23.077  1.00  0.00     0.129 C 
ATOM      8  C   UNL A   1      29.841  28.228  22.744  1.00  0.00     0.025 C 
BRANCH   7   9
ATOM      9  C   UNL A   1      31.516  26.246  22.838  1.00  0.00     0.002 A 
ATOM     10  C   UNL A   1      30.742  25.259  23.475  1.00  0.00     0.008 A 
ATOM     11  C   UNL A   1      32.598  25.786  22.072  1.00  0.00     0.127 A 
ATOM     12  C   UNL A   1      31.041  23.895  23.355  1.00  0.00     0.004 A 
ATOM     13  C   UNL A   1      32.914  24.425  21.961  1.00  0.00     0.043 A 
ATOM     14  F   UNL A   1      33.397  26.648  21.430  1.00  0.00    -0.207 F 
ATOM     15  C   UNL A   1      32.150  23.460  22.621  1.00  0.00    -0.040 A 
BRANCH  15  16
ATOM     16  C   UNL A   1      32.519  21.992  22.566  1.00  0.00     0.082 C 
BRANCH  16  17
ATOM     17  C   UNL A   1      32.976  21.434  23.891  1.00  0.00     0.009 A 
ATOM     18  C   UNL A   1      32.604  20.252  24.508  1.00  0.00     0.016 A 
ATOM     19  S   UNL A   1      34.146  22.272  24.828  1.00  0.00    -0.149 S 
ATOM     20  C   UNL A   1      33.260  20.050  25.755  1.00  0.00     0.012 A 
ATOM     21  C   UNL A   1      34.135  21.071  26.045  1.00  0.00     0.065 A 
ENDBRANCH  16  17
ENDBRANCH  15  16
ENDBRANCH   7   9
ENDBRANCH   5   7
ENDBRANCH   4   5
ENDBRANCH   3   4
ENDBRANCH   2   3
ENDBRANCH   1   2
BRANCH   1  22
ATOM     22  C   UNL A   1      33.299  30.859  26.807  1.00  0.00     0.202 C 
BRANCH  22  23
ATOM     23  C   UNL A   1      33.119  32.149  27.623  1.00  0.00     0.261 C 
BRANCH  23  24
ATOM     24  O   UNL A   1      34.365  32.790  27.954  1.00  0.00    -0.460 OA
BRANCH  24  25
ATOM     25  C   UNL A   1      34.763  32.622  29.240  1.00  0.00     0.338 C 
ATOM     26  O   UNL A   1      34.156  32.973  30.246  1.00  0.00    -0.246 OA
BRANCH  25  27
ATOM     27  C   UNL A   1      35.970  31.778  29.309  1.00  0.00     0.060 A 
ATOM     28  C   UNL A   1      35.894  30.603  30.068  1.00  0.00     0.016 A 
ATOM     29  C   UNL A   1      37.179  32.173  28.734  1.00  0.00     0.016 A 
ATOM     30  C   UNL A   1      37.040  29.841  30.292  1.00  0.00     0.010 A 
ATOM     31  C   UNL A   1      38.330  31.410  28.969  1.00  0.00     0.010 A 
ATOM     32  C   UNL A   1      38.273  30.259  29.776  1.00  0.00    -0.014 A 
BRANCH  32  33
ATOM     33  C   UNL A   1      39.517  29.572  30.213  1.00  0.00     0.031 A 
ATOM     34  C   UNL A   1      40.239  30.077  31.434  1.00  0.00     0.074 A 
ATOM     35  C   UNL A   1      39.971  28.486  29.561  1.00  0.00     0.049 A 
ATOM     36  N   UNL A   1      41.349  29.653  31.979  1.00  0.00    -0.248 NA
ATOM     37  C   UNL A   1      39.623  31.217  32.131  1.00  0.00     0.031 C 
ATOM     38  C   UNL A   1      39.332  27.874  28.398  1.00  0.00     0.029 A 
ATOM     39  N   UNL A   1      41.080  27.708  29.784  1.00  0.00    -0.354 N 
ATOM     40  C   UNL A   1      41.566  30.469  33.084  1.00  0.00     0.074 A 
ATOM     41  C   UNL A   1      40.493  31.440  33.104  1.00  0.00     0.031 C 
ATOM     42  C   UNL A   1      40.066  26.821  28.001  1.00  0.00     0.029 A 
ATOM     43  C   UNL A   1      41.246  26.707  28.857  1.00  0.00     0.049 A 
ATOM     44  H   UNL A   1      41.698  27.854  30.535  1.00  0.00     0.167 HD
ATOM     45  C   UNL A   1      42.563  30.408  34.004  1.00  0.00     0.034 A 
ATOM     46  C   UNL A   1      42.248  25.818  28.700  1.00  0.00     0.034 A 
ATOM     47  C   UNL A   1      43.637  29.445  33.962  1.00  0.00     0.049 A 
ATOM     48  C   UNL A   1      43.397  25.827  29.680  1.00  0.00     0.074 A 
ATOM     49  C   UNL A   1      44.695  29.294  34.841  1.00  0.00     0.029 A 
ATOM     50  N   UNL A   1      43.797  28.476  32.980  1.00  0.00    -0.354 N 
ATOM     51  N   UNL A   1      43.590  26.604  30.722  1.00  0.00    -0.248 NA
ATOM     52  C   UNL A   1      44.458  24.832  29.470  1.00  0.00     0.031 C 
ATOM     53  C   UNL A   1      45.531  28.283  34.354  1.00  0.00     0.029 A 
ATOM     54  C   UNL A   1      44.955  27.746  33.214  1.00  0.00     0.049 A 
ATOM     55  H   UNL A   1      43.182  28.327  32.227  1.00  0.00     0.167 HD
ATOM     56  C   UNL A   1      44.779  26.170  31.305  1.00  0.00     0.074 A 
ATOM     57  C   UNL A   1      45.249  25.056  30.508  1.00  0.00     0.031 C 
ATOM     58  C   UNL A   1      45.420  26.645  32.403  1.00  0.00     0.034 A 
BRANCH  45  59
ATOM     59  C   UNL A   1      42.557  31.448  35.099  1.00  0.00     0.023 A 
ATOM     60  C   UNL A   1      41.525  31.515  36.051  1.00  0.00     0.031 A 
ATOM     61  C   UNL A   1      43.583  32.408  35.172  1.00  0.00     0.131 A 
ATOM     62  C   UNL A   1      41.504  32.559  36.989  1.00  0.00     0.055 A 
ATOM     63  C   UNL A   1      43.598  33.397  36.157  1.00  0.00     0.041 A 
ATOM     64  F   UNL A   1      44.582  32.408  34.276  1.00  0.00    -0.206 F 
ATOM     65  C   UNL A   1      42.546  33.486  37.064  1.00  0.00     0.022 A 
BRANCH  62  66
ATOM     66  S   UNL A   1      40.025  32.773  38.018  1.00  0.00     0.124 S 
ATOM     67  O   UNL A   1      40.518  32.365  39.331  1.00  0.00    -0.237 OA
ATOM     68  O   UNL A   1      39.731  34.192  37.858  1.00  0.00    -0.237 OA
ATOM     69  O   UNL A   1      39.054  31.862  37.414  1.00  0.00    -0.744 OA
ENDBRANCH  62  66
ENDBRANCH  45  59
BRANCH  46  70
ATOM     70  C   UNL A   1      42.246  24.873  27.545  1.00  0.00     0.023 A 
ATOM     71  C   UNL A   1      41.507  23.681  27.575  1.00  0.00     0.031 A 
ATOM     72  C   UNL A   1      43.035  25.130  26.409  1.00  0.00     0.131 A 
ATOM     73  C   UNL A   1      41.607  22.768  26.513  1.00  0.00     0.055 A 
ATOM     74  C   UNL A   1      43.092  24.244  25.332  1.00  0.00     0.041 A 
ATOM     75  F   UNL A   1      43.765  26.254  26.328  1.00  0.00    -0.206 F 
ATOM     76  C   UNL A   1      42.384  23.048  25.386  1.00  0.00     0.022 A 
BRANCH  73  77
ATOM     77  S   UNL A   1      40.774  21.164  26.662  1.00  0.00     0.124 S 
ATOM     78  O   UNL A   1      40.780  20.959  28.106  1.00  0.00    -0.237 OA
ATOM     79  O   UNL A   1      39.475  21.441  26.058  1.00  0.00    -0.237 OA
ATOM     80  O   UNL A   1      41.634  20.261  25.899  1.00  0.00    -0.744 OA
ENDBRANCH  73  77
ENDBRANCH  46  70
BRANCH  58  81
ATOM     81  C   UNL A   1      46.679  25.927  32.830  1.00  0.00     0.023 A 
ATOM     82  C   UNL A   1      46.649  24.840  33.721  1.00  0.00     0.031 A 
ATOM     83  C   UNL A   1      47.930  26.347  32.342  1.00  0.00     0.131 A 
ATOM     84  C   UNL A   1      47.849  24.244  34.137  1.00  0.00     0.055 A 
ATOM     85  C   UNL A   1      49.115  25.712  32.715  1.00  0.00     0.041 A 
ATOM     86  F   UNL A   1      48.019  27.381  31.490  1.00  0.00    -0.206 F 
ATOM     87  C   UNL A   1      49.081  24.662  33.627  1.00  0.00     0.022 A 
BRANCH  84  88
ATOM     88  S   UNL A   1      47.788  22.968  35.427  1.00  0.00     0.124 S 
ATOM     89  O   UNL A   1      46.441  22.434  35.263  1.00  0.00    -0.237 OA
ATOM     90  O   UNL A   1      48.880  22.079  35.039  1.00  0.00    -0.237 OA
ATOM     91  O   UNL A   1      48.012  23.719  36.661  1.00  0.00    -0.744 OA
ENDBRANCH  84  88
ENDBRANCH  58  81
ENDBRANCH  32  33
ENDBRANCH  25  27
ENDBRANCH  24  25
ENDBRANCH  23  24
ENDBRANCH  22  23
ENDBRANCH   1  22
TORSDOF 20
ENDMDL
