MODEL 1
REMARK VINA RESULT:     -11.2      0.000      0.000
REMARK SMILES Cc1cc(F)cc(N[C@@](C)(C(=O)OCCOCCOC(=O)c2ccc(-c3c4nc(c(-c5cc(S(=O)(=O)[O-])ccc5F)c5ccc([nH]5)c(-c5cc(S(=O)(=O)[O-])ccc5F)c5nc(c(-c6cc(S(=O)(=O)[O-])ccc6F)c6ccc3[nH]6)C=C5)C=C4)cc2)c2ccc(O)cc2)c1
REMARK SMILES IDX 17 1 16 2 15 3 14 4 13 5 11 6 12 7 9 8 10 9 8 10 7 12 1 13
REMARK SMILES IDX 2 14 3 15 92 16 4 17 5 18 6 19 85 20 86 21 91 22 87 23 90 24
REMARK SMILES IDX 88 25 89 26 18 28 19 29 20 30 21 31 22 32 23 33 84 34 24 35
REMARK SMILES IDX 83 36 25 37 26 38 27 39 77 40 28 41 82 42 76 43 78 44 29 45
REMARK SMILES IDX 81 46 75 47 74 48 30 50 62 51 42 52 61 53 43 54 46 55 60 56
REMARK SMILES IDX 79 57 44 58 45 59 59 61 80 62 47 63 31 64 32 65 40 66 33 67
REMARK SMILES IDX 39 68 41 69 38 70 34 71 35 72 36 73 37 74 63 75 64 76 72 77
REMARK SMILES IDX 65 78 71 79 73 80 70 81 66 82 67 83 68 84 69 85 48 86 49 87
REMARK SMILES IDX 57 88 50 89 56 90 58 91 55 92 51 93 52 94 53 95 54 96
REMARK H PARENT 8 11 89 27 78 49 46 60
REMARK Flexibility Score: inf
ROOT
ATOM      1  C   UNL A   1      31.675  29.644  25.882  1.00  0.00     0.202 C 
ENDROOT
BRANCH   1   2
ATOM      2  O   UNL A   1      31.175  29.455  24.555  1.00  0.00    -0.374 OA
BRANCH   2   3
ATOM      3  C   UNL A   1      31.880  28.556  23.705  1.00  0.00     0.202 C 
BRANCH   3   4
ATOM      4  C   UNL A   1      32.835  27.546  24.362  1.00  0.00     0.261 C 
BRANCH   4   5
ATOM      5  O   UNL A   1      32.990  26.337  23.604  1.00  0.00    -0.461 OA
BRANCH   5   6
ATOM      6  C   UNL A   1      32.355  25.234  24.110  1.00  0.00     0.336 C 
ATOM      7  O   UNL A   1      31.435  25.294  24.923  1.00  0.00    -0.249 OA
BRANCH   6   8
ATOM      8  C   UNL A   1      32.959  23.886  23.569  1.00  0.00     0.158 C 
ATOM      9  C   UNL A   1      32.947  24.090  22.034  1.00  0.00     0.053 C 
BRANCH   8  10
ATOM     10  N   UNL A   1      32.031  22.741  23.841  1.00  0.00    -0.366 N 
ATOM     11  H   UNL A   1      31.082  23.001  23.828  1.00  0.00     0.162 HD
BRANCH  10  12
ATOM     12  C   UNL A   1      32.224  21.402  24.105  1.00  0.00     0.038 A 
ATOM     13  C   UNL A   1      32.407  18.193  22.007  1.00  0.00     0.044 C 
ATOM     14  C   UNL A   1      32.445  19.125  23.181  1.00  0.00    -0.046 A 
ATOM     15  C   UNL A   1      32.802  18.645  24.440  1.00  0.00     0.042 A 
ATOM     16  C   UNL A   1      32.174  20.498  23.028  1.00  0.00     0.029 A 
ATOM     17  C   UNL A   1      32.824  19.517  25.517  1.00  0.00     0.125 A 
ATOM     18  F   UNL A   1      33.148  19.052  26.731  1.00  0.00    -0.207 F 
ATOM     19  C   UNL A   1      32.522  20.868  25.358  1.00  0.00     0.065 A 
ENDBRANCH  10  12
ENDBRANCH   8  10
BRANCH   8  20
ATOM     20  C   UNL A   1      34.412  23.644  24.039  1.00  0.00    -0.011 A 
ATOM     21  C   UNL A   1      35.372  23.117  23.148  1.00  0.00     0.010 A 
ATOM     22  C   UNL A   1      34.826  23.868  25.368  1.00  0.00     0.010 A 
ATOM     23  C   UNL A   1      36.651  22.755  23.583  1.00  0.00     0.046 A 
ATOM     24  C   UNL A   1      36.118  23.542  25.796  1.00  0.00     0.046 A 
ATOM     25  C   UNL A   1      37.009  22.960  24.905  1.00  0.00     0.115 A 
BRANCH  25  26
ATOM     26  O   UNL A   1      38.248  22.555  25.306  1.00  0.00    -0.508 OA
ATOM     27  H   UNL A   1      38.361  21.718  25.709  1.00  0.00     0.293 HD
ENDBRANCH  25  26
ENDBRANCH   8  20
ENDBRANCH   6   8
ENDBRANCH   5   6
ENDBRANCH   4   5
ENDBRANCH   3   4
ENDBRANCH   2   3
ENDBRANCH   1   2
BRANCH   1  28
ATOM     28  C   UNL A   1      32.326  30.987  26.239  1.00  0.00     0.261 C 
BRANCH  28  29
ATOM     29  O   UNL A   1      32.903  31.010  27.558  1.00  0.00    -0.460 OA
BRANCH  29  30
ATOM     30  C   UNL A   1      33.788  32.017  27.763  1.00  0.00     0.338 C 
ATOM     31  O   UNL A   1      33.534  33.209  27.864  1.00  0.00    -0.246 OA
BRANCH  30  32
ATOM     32  C   UNL A   1      35.131  31.480  28.048  1.00  0.00     0.060 A 
ATOM     33  C   UNL A   1      35.239  30.101  28.271  1.00  0.00     0.016 A 
ATOM     34  C   UNL A   1      36.238  32.314  28.208  1.00  0.00     0.016 A 
ATOM     35  C   UNL A   1      36.445  29.556  28.706  1.00  0.00     0.010 A 
ATOM     36  C   UNL A   1      37.447  31.766  28.653  1.00  0.00     0.010 A 
ATOM     37  C   UNL A   1      37.545  30.391  28.940  1.00  0.00    -0.014 A 
BRANCH  37  38
ATOM     38  C   UNL A   1      38.735  29.843  29.637  1.00  0.00     0.031 A 
ATOM     39  C   UNL A   1      39.067  30.341  31.018  1.00  0.00     0.074 A 
ATOM     40  C   UNL A   1      39.490  28.890  29.063  1.00  0.00     0.049 A 
ATOM     41  N   UNL A   1      40.057  30.013  31.806  1.00  0.00    -0.248 NA
ATOM     42  C   UNL A   1      38.159  31.352  31.577  1.00  0.00     0.031 C 
ATOM     43  C   UNL A   1      39.251  28.309  27.742  1.00  0.00     0.029 A 
ATOM     44  N   UNL A   1      40.617  28.251  29.513  1.00  0.00    -0.354 N 
ATOM     45  C   UNL A   1      39.898  30.782  32.955  1.00  0.00     0.074 A 
ATOM     46  C   UNL A   1      38.737  31.620  32.739  1.00  0.00     0.031 C 
ATOM     47  C   UNL A   1      40.216  27.412  27.481  1.00  0.00     0.029 A 
ATOM     48  C   UNL A   1      41.156  27.376  28.601  1.00  0.00     0.049 A 
ATOM     49  H   UNL A   1      41.003  28.405  30.406  1.00  0.00     0.167 HD
ATOM     50  C   UNL A   1      40.646  30.781  34.088  1.00  0.00     0.034 A 
ATOM     51  C   UNL A   1      42.291  26.651  28.651  1.00  0.00     0.034 A 
ATOM     52  C   UNL A   1      41.807  29.946  34.281  1.00  0.00     0.049 A 
ATOM     53  C   UNL A   1      43.145  26.708  29.892  1.00  0.00     0.074 A 
ATOM     54  C   UNL A   1      42.613  29.833  35.400  1.00  0.00     0.029 A 
ATOM     55  N   UNL A   1      42.342  29.094  33.322  1.00  0.00    -0.354 N 
ATOM     56  N   UNL A   1      42.966  27.412  30.986  1.00  0.00    -0.248 NA
ATOM     57  C   UNL A   1      44.347  25.864  29.908  1.00  0.00     0.031 C 
ATOM     58  C   UNL A   1      43.676  28.974  35.092  1.00  0.00     0.029 A 
ATOM     59  C   UNL A   1      43.491  28.487  33.807  1.00  0.00     0.049 A 
ATOM     60  H   UNL A   1      41.961  28.944  32.427  1.00  0.00     0.167 HD
ATOM     61  C   UNL A   1      44.024  27.080  31.829  1.00  0.00     0.074 A 
ATOM     62  C   UNL A   1      44.826  26.103  31.121  1.00  0.00     0.031 C 
ATOM     63  C   UNL A   1      44.300  27.535  33.079  1.00  0.00     0.034 A 
BRANCH  50  64
ATOM     64  C   UNL A   1      40.256  31.762  35.170  1.00  0.00     0.023 A 
ATOM     65  C   UNL A   1      39.376  31.412  36.209  1.00  0.00     0.031 A 
ATOM     66  C   UNL A   1      40.727  33.087  35.126  1.00  0.00     0.131 A 
ATOM     67  C   UNL A   1      38.924  32.394  37.105  1.00  0.00     0.055 A 
ATOM     68  C   UNL A   1      40.339  34.038  36.073  1.00  0.00     0.041 A 
ATOM     69  F   UNL A   1      41.551  33.487  34.146  1.00  0.00    -0.206 F 
ATOM     70  C   UNL A   1      39.417  33.699  37.058  1.00  0.00     0.022 A 
BRANCH  67  71
ATOM     71  S   UNL A   1      37.553  31.983  38.222  1.00  0.00     0.124 S 
ATOM     72  O   UNL A   1      36.549  32.971  37.832  1.00  0.00    -0.237 OA
ATOM     73  O   UNL A   1      37.261  30.600  37.867  1.00  0.00    -0.237 OA
ATOM     74  O   UNL A   1      38.124  32.181  39.553  1.00  0.00    -0.744 OA
ENDBRANCH  67  71
ENDBRANCH  50  64
BRANCH  51  75
ATOM     75  C   UNL A   1      42.707  25.846  27.468  1.00  0.00     0.023 A 
ATOM     76  C   UNL A   1      42.313  24.509  27.312  1.00  0.00     0.031 A 
ATOM     77  C   UNL A   1      43.524  26.417  26.474  1.00  0.00     0.131 A 
ATOM     78  C   UNL A   1      42.757  23.777  26.199  1.00  0.00     0.055 A 
ATOM     79  C   UNL A   1      43.928  25.698  25.349  1.00  0.00     0.041 A 
ATOM     80  F   UNL A   1      43.924  27.695  26.576  1.00  0.00    -0.206 F 
ATOM     81  C   UNL A   1      43.551  24.367  25.211  1.00  0.00     0.022 A 
BRANCH  78  82
ATOM     82  S   UNL A   1      42.315  22.022  26.075  1.00  0.00     0.124 S 
ATOM     83  O   UNL A   1      43.080  21.605  24.906  1.00  0.00    -0.237 OA
ATOM     84  O   UNL A   1      42.772  21.503  27.360  1.00  0.00    -0.237 OA
ATOM     85  O   UNL A   1      40.864  22.049  25.898  1.00  0.00    -0.744 OA
ENDBRANCH  78  82
ENDBRANCH  51  75
BRANCH  63  86
ATOM     86  C   UNL A   1      45.511  26.953  33.769  1.00  0.00     0.023 A 
ATOM     87  C   UNL A   1      45.423  25.804  34.574  1.00  0.00     0.031 A 
ATOM     88  C   UNL A   1      46.770  27.563  33.623  1.00  0.00     0.131 A 
ATOM     89  C   UNL A   1      46.563  25.330  35.243  1.00  0.00     0.055 A 
ATOM     90  C   UNL A   1      47.912  27.054  34.243  1.00  0.00     0.041 A 
ATOM     91  F   UNL A   1      46.911  28.665  32.868  1.00  0.00    -0.206 F 
ATOM     92  C   UNL A   1      47.810  25.939  35.069  1.00  0.00     0.022 A 
BRANCH  89  93
ATOM     93  S   UNL A   1      46.381  23.957  36.415  1.00  0.00     0.124 S 
ATOM     94  O   UNL A   1      47.448  23.056  35.994  1.00  0.00    -0.237 OA
ATOM     95  O   UNL A   1      46.572  24.617  37.702  1.00  0.00    -0.237 OA
ATOM     96  O   UNL A   1      45.025  23.470  36.164  1.00  0.00    -0.744 OA
ENDBRANCH  89  93
ENDBRANCH  63  86
ENDBRANCH  37  38
ENDBRANCH  30  32
ENDBRANCH  29  30
ENDBRANCH  28  29
ENDBRANCH   1  28
TORSDOF 21
ENDMDL
MODEL 2
REMARK VINA RESULT:     -11.1      4.842     10.241
REMARK SMILES Cc1cc(F)cc(N[C@@](C)(C(=O)OCCOCCOC(=O)c2ccc(-c3c4nc(c(-c5cc(S(=O)(=O)[O-])ccc5F)c5ccc([nH]5)c(-c5cc(S(=O)(=O)[O-])ccc5F)c5nc(c(-c6cc(S(=O)(=O)[O-])ccc6F)c6ccc3[nH]6)C=C5)C=C4)cc2)c2ccc(O)cc2)c1
REMARK SMILES IDX 17 1 16 2 15 3 14 4 13 5 11 6 12 7 9 8 10 9 8 10 7 12 1 13
REMARK SMILES IDX 2 14 3 15 92 16 4 17 5 18 6 19 85 20 86 21 91 22 87 23 90 24
REMARK SMILES IDX 88 25 89 26 18 28 19 29 20 30 21 31 22 32 23 33 84 34 24 35
REMARK SMILES IDX 83 36 25 37 26 38 27 39 77 40 28 41 82 42 76 43 78 44 29 45
REMARK SMILES IDX 81 46 75 47 74 48 30 50 62 51 42 52 61 53 43 54 46 55 60 56
REMARK SMILES IDX 79 57 44 58 45 59 59 61 80 62 47 63 31 64 32 65 40 66 33 67
REMARK SMILES IDX 39 68 41 69 38 70 34 71 35 72 36 73 37 74 63 75 64 76 72 77
REMARK SMILES IDX 65 78 71 79 73 80 70 81 66 82 67 83 68 84 69 85 48 86 49 87
REMARK SMILES IDX 57 88 50 89 56 90 58 91 55 92 51 93 52 94 53 95 54 96
REMARK H PARENT 8 11 89 27 78 49 46 60
REMARK Flexibility Score: inf
ROOT
ATOM      1  C   UNL A   1      37.440  20.046  24.639  1.00  0.00     0.202 C 
ENDROOT
BRANCH   1   2
ATOM      2  O   UNL A   1      36.500  21.004  25.132  1.00  0.00    -0.374 OA
BRANCH   2   3
ATOM      3  C   UNL A   1      36.602  22.339  24.649  1.00  0.00     0.202 C 
BRANCH   3   4
ATOM      4  C   UNL A   1      36.221  22.604  23.183  1.00  0.00     0.261 C 
BRANCH   4   5
ATOM      5  O   UNL A   1      35.407  23.773  23.012  1.00  0.00    -0.461 OA
BRANCH   5   6
ATOM      6  C   UNL A   1      34.099  23.542  22.677  1.00  0.00     0.336 C 
ATOM      7  O   UNL A   1      33.716  23.365  21.522  1.00  0.00    -0.249 OA
BRANCH   6   8
ATOM      8  C   UNL A   1      33.140  23.570  23.923  1.00  0.00     0.158 C 
ATOM      9  C   UNL A   1      31.789  24.019  23.313  1.00  0.00     0.053 C 
BRANCH   8  10
ATOM     10  N   UNL A   1      33.541  24.652  24.879  1.00  0.00    -0.366 N 
ATOM     11  H   UNL A   1      33.862  24.305  25.743  1.00  0.00     0.162 HD
BRANCH  10  12
ATOM     12  C   UNL A   1      33.557  26.028  24.806  1.00  0.00     0.038 A 
ATOM     13  C   UNL A   1      33.867  28.903  27.331  1.00  0.00     0.044 C 
ATOM     14  C   UNL A   1      33.754  28.159  26.033  1.00  0.00    -0.046 A 
ATOM     15  C   UNL A   1      33.809  28.853  24.826  1.00  0.00     0.042 A 
ATOM     16  C   UNL A   1      33.642  26.756  26.008  1.00  0.00     0.029 A 
ATOM     17  C   UNL A   1      33.695  28.153  23.636  1.00  0.00     0.125 A 
ATOM     18  F   UNL A   1      33.729  28.822  22.475  1.00  0.00    -0.207 F 
ATOM     19  C   UNL A   1      33.552  26.767  23.624  1.00  0.00     0.065 A 
ENDBRANCH  10  12
ENDBRANCH   8  10
BRANCH   8  20
ATOM     20  C   UNL A   1      32.966  22.182  24.581  1.00  0.00    -0.011 A 
ATOM     21  C   UNL A   1      33.241  22.004  25.955  1.00  0.00     0.010 A 
ATOM     22  C   UNL A   1      32.596  21.036  23.848  1.00  0.00     0.010 A 
ATOM     23  C   UNL A   1      33.229  20.736  26.544  1.00  0.00     0.046 A 
ATOM     24  C   UNL A   1      32.547  19.771  24.445  1.00  0.00     0.046 A 
ATOM     25  C   UNL A   1      32.893  19.629  25.781  1.00  0.00     0.115 A 
BRANCH  25  26
ATOM     26  O   UNL A   1      32.935  18.402  26.375  1.00  0.00    -0.508 OA
ATOM     27  H   UNL A   1      32.925  18.333  27.309  1.00  0.00     0.293 HD
ENDBRANCH  25  26
ENDBRANCH   8  20
ENDBRANCH   6   8
ENDBRANCH   5   6
ENDBRANCH   4   5
ENDBRANCH   3   4
ENDBRANCH   2   3
ENDBRANCH   1   2
BRANCH   1  28
ATOM     28  C   UNL A   1      38.759  19.848  25.399  1.00  0.00     0.261 C 
BRANCH  28  29
ATOM     29  O   UNL A   1      39.433  21.084  25.704  1.00  0.00    -0.460 OA
BRANCH  29  30
ATOM     30  C   UNL A   1      40.292  21.007  26.751  1.00  0.00     0.338 C 
ATOM     31  O   UNL A   1      40.935  20.027  27.103  1.00  0.00    -0.246 OA
BRANCH  30  32
ATOM     32  C   UNL A   1      40.520  22.341  27.335  1.00  0.00     0.060 A 
ATOM     33  C   UNL A   1      39.788  23.411  26.805  1.00  0.00     0.016 A 
ATOM     34  C   UNL A   1      41.506  22.563  28.298  1.00  0.00     0.016 A 
ATOM     35  C   UNL A   1      40.074  24.716  27.197  1.00  0.00     0.010 A 
ATOM     36  C   UNL A   1      41.799  23.876  28.685  1.00  0.00     0.010 A 
ATOM     37  C   UNL A   1      41.111  24.961  28.108  1.00  0.00    -0.014 A 
BRANCH  37  38
ATOM     38  C   UNL A   1      41.571  26.355  28.324  1.00  0.00     0.031 A 
ATOM     39  C   UNL A   1      42.944  26.752  27.855  1.00  0.00     0.074 A 
ATOM     40  C   UNL A   1      40.764  27.264  28.899  1.00  0.00     0.049 A 
ATOM     41  N   UNL A   1      43.555  27.904  27.947  1.00  0.00    -0.248 NA
ATOM     42  C   UNL A   1      43.735  25.699  27.201  1.00  0.00     0.031 C 
ATOM     43  C   UNL A   1      39.403  27.004  29.369  1.00  0.00     0.029 A 
ATOM     44  N   UNL A   1      40.977  28.586  29.196  1.00  0.00    -0.354 N 
ATOM     45  C   UNL A   1      44.806  27.717  27.368  1.00  0.00     0.074 A 
ATOM     46  C   UNL A   1      44.877  26.327  26.966  1.00  0.00     0.031 C 
ATOM     47  C   UNL A   1      38.910  28.129  29.913  1.00  0.00     0.029 A 
ATOM     48  C   UNL A   1      39.928  29.178  29.857  1.00  0.00     0.049 A 
ATOM     49  H   UNL A   1      41.803  29.066  28.957  1.00  0.00     0.167 HD
ATOM     50  C   UNL A   1      45.800  28.623  27.181  1.00  0.00     0.034 A 
ATOM     51  C   UNL A   1      39.811  30.413  30.383  1.00  0.00     0.034 A 
ATOM     52  C   UNL A   1      45.716  30.002  27.599  1.00  0.00     0.049 A 
ATOM     53  C   UNL A   1      40.949  31.390  30.223  1.00  0.00     0.074 A 
ATOM     54  C   UNL A   1      46.642  31.015  27.424  1.00  0.00     0.029 A 
ATOM     55  N   UNL A   1      44.649  30.558  28.295  1.00  0.00    -0.354 N 
ATOM     56  N   UNL A   1      42.114  31.212  29.643  1.00  0.00    -0.248 NA
ATOM     57  C   UNL A   1      40.750  32.735  30.776  1.00  0.00     0.031 C 
ATOM     58  C   UNL A   1      46.171  32.160  28.079  1.00  0.00     0.029 A 
ATOM     59  C   UNL A   1      44.914  31.886  28.596  1.00  0.00     0.049 A 
ATOM     60  H   UNL A   1      43.826  30.078  28.540  1.00  0.00     0.167 HD
ATOM     61  C   UNL A   1      42.780  32.431  29.746  1.00  0.00     0.074 A 
ATOM     62  C   UNL A   1      41.879  33.337  30.431  1.00  0.00     0.031 C 
ATOM     63  C   UNL A   1      44.019  32.772  29.305  1.00  0.00     0.034 A 
BRANCH  50  64
ATOM     64  C   UNL A   1      47.080  28.120  26.553  1.00  0.00     0.023 A 
ATOM     65  C   UNL A   1      47.309  28.198  25.167  1.00  0.00     0.031 A 
ATOM     66  C   UNL A   1      48.061  27.499  27.346  1.00  0.00     0.131 A 
ATOM     67  C   UNL A   1      48.442  27.586  24.609  1.00  0.00     0.055 A 
ATOM     68  C   UNL A   1      49.228  26.966  26.794  1.00  0.00     0.041 A 
ATOM     69  F   UNL A   1      47.890  27.373  28.671  1.00  0.00    -0.206 F 
ATOM     70  C   UNL A   1      49.415  26.990  25.415  1.00  0.00     0.022 A 
BRANCH  67  71
ATOM     71  S   UNL A   1      48.540  27.426  22.804  1.00  0.00     0.124 S 
ATOM     72  O   UNL A   1      48.441  25.979  22.629  1.00  0.00    -0.237 OA
ATOM     73  O   UNL A   1      47.392  28.204  22.356  1.00  0.00    -0.237 OA
ATOM     74  O   UNL A   1      49.847  27.995  22.480  1.00  0.00    -0.744 OA
ENDBRANCH  67  71
ENDBRANCH  50  64
BRANCH  51  75
ATOM     75  C   UNL A   1      38.589  30.778  31.152  1.00  0.00     0.023 A 
ATOM     76  C   UNL A   1      37.504  31.428  30.544  1.00  0.00     0.031 A 
ATOM     77  C   UNL A   1      38.501  30.484  32.525  1.00  0.00     0.131 A 
ATOM     78  C   UNL A   1      36.385  31.784  31.315  1.00  0.00     0.055 A 
ATOM     79  C   UNL A   1      37.370  30.803  33.277  1.00  0.00     0.041 A 
ATOM     80  F   UNL A   1      39.511  29.859  33.151  1.00  0.00    -0.206 F 
ATOM     81  C   UNL A   1      36.306  31.464  32.673  1.00  0.00     0.022 A 
BRANCH  78  82
ATOM     82  S   UNL A   1      35.041  32.711  30.524  1.00  0.00     0.124 S 
ATOM     83  O   UNL A   1      34.693  31.838  29.409  1.00  0.00    -0.237 OA
ATOM     84  O   UNL A   1      34.060  32.799  31.601  1.00  0.00    -0.237 OA
ATOM     85  O   UNL A   1      35.672  33.977  30.155  1.00  0.00    -0.744 OA
ENDBRANCH  78  82
ENDBRANCH  51  75
BRANCH  63  86
ATOM     86  C   UNL A   1      44.458  34.200  29.529  1.00  0.00     0.023 A 
ATOM     87  C   UNL A   1      44.302  35.187  28.540  1.00  0.00     0.031 A 
ATOM     88  C   UNL A   1      45.047  34.576  30.750  1.00  0.00     0.131 A 
ATOM     89  C   UNL A   1      44.776  36.488  28.769  1.00  0.00     0.055 A 
ATOM     90  C   UNL A   1      45.464  35.885  30.995  1.00  0.00     0.041 A 
ATOM     91  F   UNL A   1      45.224  33.674  31.729  1.00  0.00    -0.206 F 
ATOM     92  C   UNL A   1      45.341  36.847  29.997  1.00  0.00     0.022 A 
BRANCH  89  93
ATOM     93  S   UNL A   1      44.725  37.689  27.410  1.00  0.00     0.124 S 
ATOM     94  O   UNL A   1      45.779  37.195  26.530  1.00  0.00    -0.237 OA
ATOM     95  O   UNL A   1      43.360  37.542  26.916  1.00  0.00    -0.237 OA
ATOM     96  O   UNL A   1      45.013  38.962  28.067  1.00  0.00    -0.744 OA
ENDBRANCH  89  93
ENDBRANCH  63  86
ENDBRANCH  37  38
ENDBRANCH  30  32
ENDBRANCH  29  30
ENDBRANCH  28  29
ENDBRANCH   1  28
TORSDOF 21
ENDMDL
MODEL 3
REMARK VINA RESULT:     -11.0      1.107      7.470
REMARK SMILES Cc1cc(F)cc(N[C@@](C)(C(=O)OCCOCCOC(=O)c2ccc(-c3c4nc(c(-c5cc(S(=O)(=O)[O-])ccc5F)c5ccc([nH]5)c(-c5cc(S(=O)(=O)[O-])ccc5F)c5nc(c(-c6cc(S(=O)(=O)[O-])ccc6F)c6ccc3[nH]6)C=C5)C=C4)cc2)c2ccc(O)cc2)c1
REMARK SMILES IDX 17 1 16 2 15 3 14 4 13 5 11 6 12 7 9 8 10 9 8 10 7 12 1 13
REMARK SMILES IDX 2 14 3 15 92 16 4 17 5 18 6 19 85 20 86 21 91 22 87 23 90 24
REMARK SMILES IDX 88 25 89 26 18 28 19 29 20 30 21 31 22 32 23 33 84 34 24 35
REMARK SMILES IDX 83 36 25 37 26 38 27 39 77 40 28 41 82 42 76 43 78 44 29 45
REMARK SMILES IDX 81 46 75 47 74 48 30 50 62 51 42 52 61 53 43 54 46 55 60 56
REMARK SMILES IDX 79 57 44 58 45 59 59 61 80 62 47 63 31 64 32 65 40 66 33 67
REMARK SMILES IDX 39 68 41 69 38 70 34 71 35 72 36 73 37 74 63 75 64 76 72 77
REMARK SMILES IDX 65 78 71 79 73 80 70 81 66 82 67 83 68 84 69 85 48 86 49 87
REMARK SMILES IDX 57 88 50 89 56 90 58 91 55 92 51 93 52 94 53 95 54 96
REMARK H PARENT 8 11 89 27 78 49 46 60
REMARK Flexibility Score: inf
ROOT
ATOM      1  C   UNL A   1      31.725  28.781  27.470  1.00  0.00     0.202 C 
ENDROOT
BRANCH   1   2
ATOM      2  O   UNL A   1      32.303  27.674  26.773  1.00  0.00    -0.374 OA
BRANCH   2   3
ATOM      3  C   UNL A   1      32.808  27.910  25.462  1.00  0.00     0.202 C 
BRANCH   3   4
ATOM      4  C   UNL A   1      32.211  27.093  24.305  1.00  0.00     0.261 C 
BRANCH   4   5
ATOM      5  O   UNL A   1      32.937  25.885  24.031  1.00  0.00    -0.461 OA
BRANCH   5   6
ATOM      6  C   UNL A   1      32.305  24.721  24.379  1.00  0.00     0.336 C 
ATOM      7  O   UNL A   1      31.341  24.674  25.141  1.00  0.00    -0.249 OA
BRANCH   6   8
ATOM      8  C   UNL A   1      32.973  23.452  23.732  1.00  0.00     0.158 C 
ATOM      9  C   UNL A   1      32.919  23.765  22.217  1.00  0.00     0.053 C 
BRANCH   8  10
ATOM     10  N   UNL A   1      32.116  22.240  23.934  1.00  0.00    -0.366 N 
ATOM     11  H   UNL A   1      31.235  22.449  24.321  1.00  0.00     0.162 HD
BRANCH  10  12
ATOM     12  C   UNL A   1      32.298  20.895  23.694  1.00  0.00     0.038 A 
ATOM     13  C   UNL A   1      32.756  17.760  25.861  1.00  0.00     0.044 C 
ATOM     14  C   UNL A   1      32.587  18.644  24.662  1.00  0.00    -0.046 A 
ATOM     15  C   UNL A   1      32.479  18.080  23.392  1.00  0.00     0.042 A 
ATOM     16  C   UNL A   1      32.482  20.041  24.798  1.00  0.00     0.029 A 
ATOM     17  C   UNL A   1      32.330  18.910  22.292  1.00  0.00     0.125 A 
ATOM     18  F   UNL A   1      32.246  18.370  21.069  1.00  0.00    -0.207 F 
ATOM     19  C   UNL A   1      32.260  20.295  22.436  1.00  0.00     0.065 A 
ENDBRANCH  10  12
ENDBRANCH   8  10
BRANCH   8  20
ATOM     20  C   UNL A   1      34.446  23.260  24.161  1.00  0.00    -0.011 A 
ATOM     21  C   UNL A   1      35.451  23.058  23.189  1.00  0.00     0.010 A 
ATOM     22  C   UNL A   1      34.842  23.212  25.513  1.00  0.00     0.010 A 
ATOM     23  C   UNL A   1      36.764  22.741  23.553  1.00  0.00     0.046 A 
ATOM     24  C   UNL A   1      36.164  22.932  25.878  1.00  0.00     0.046 A 
ATOM     25  C   UNL A   1      37.106  22.669  24.894  1.00  0.00     0.115 A 
BRANCH  25  26
ATOM     26  O   UNL A   1      38.383  22.314  25.213  1.00  0.00    -0.508 OA
ATOM     27  H   UNL A   1      38.551  21.494  25.633  1.00  0.00     0.293 HD
ENDBRANCH  25  26
ENDBRANCH   8  20
ENDBRANCH   6   8
ENDBRANCH   5   6
ENDBRANCH   4   5
ENDBRANCH   3   4
ENDBRANCH   2   3
ENDBRANCH   1   2
BRANCH   1  28
ATOM     28  C   UNL A   1      31.766  30.168  26.814  1.00  0.00     0.261 C 
BRANCH  28  29
ATOM     29  O   UNL A   1      33.098  30.604  26.484  1.00  0.00    -0.460 OA
BRANCH  29  30
ATOM     30  C   UNL A   1      33.587  31.571  27.301  1.00  0.00     0.338 C 
ATOM     31  O   UNL A   1      32.978  32.535  27.744  1.00  0.00    -0.246 OA
BRANCH  30  32
ATOM     32  C   UNL A   1      34.940  31.220  27.770  1.00  0.00     0.060 A 
ATOM     33  C   UNL A   1      35.194  29.873  28.056  1.00  0.00     0.016 A 
ATOM     34  C   UNL A   1      35.902  32.195  28.034  1.00  0.00     0.016 A 
ATOM     35  C   UNL A   1      36.393  29.499  28.656  1.00  0.00     0.010 A 
ATOM     36  C   UNL A   1      37.105  31.820  28.645  1.00  0.00     0.010 A 
ATOM     37  C   UNL A   1      37.339  30.477  28.994  1.00  0.00    -0.014 A 
BRANCH  37  38
ATOM     38  C   UNL A   1      38.491  30.103  29.852  1.00  0.00     0.031 A 
ATOM     39  C   UNL A   1      39.468  29.072  29.356  1.00  0.00     0.074 A 
ATOM     40  C   UNL A   1      38.683  30.698  31.043  1.00  0.00     0.049 A 
ATOM     41  N   UNL A   1      40.534  28.587  29.937  1.00  0.00    -0.248 NA
ATOM     42  C   UNL A   1      39.196  28.509  28.026  1.00  0.00     0.031 C 
ATOM     43  C   UNL A   1      37.819  31.730  31.616  1.00  0.00     0.029 A 
ATOM     44  N   UNL A   1      39.659  30.512  31.988  1.00  0.00    -0.354 N 
ATOM     45  C   UNL A   1      41.060  27.656  29.047  1.00  0.00     0.074 A 
ATOM     46  C   UNL A   1      40.169  27.619  27.906  1.00  0.00     0.031 C 
ATOM     47  C   UNL A   1      38.296  32.072  32.825  1.00  0.00     0.029 A 
ATOM     48  C   UNL A   1      39.478  31.264  33.123  1.00  0.00     0.049 A 
ATOM     49  H   UNL A   1      40.419  29.897  31.863  1.00  0.00     0.167 HD
ATOM     50  C   UNL A   1      42.187  26.909  29.167  1.00  0.00     0.034 A 
ATOM     51  C   UNL A   1      40.168  31.280  34.280  1.00  0.00     0.034 A 
ATOM     52  C   UNL A   1      43.057  26.950  30.318  1.00  0.00     0.049 A 
ATOM     53  C   UNL A   1      41.383  30.397  34.423  1.00  0.00     0.074 A 
ATOM     54  C   UNL A   1      44.244  26.270  30.528  1.00  0.00     0.029 A 
ATOM     55  N   UNL A   1      42.825  27.702  31.464  1.00  0.00    -0.354 N 
ATOM     56  N   UNL A   1      41.891  29.546  33.561  1.00  0.00    -0.248 NA
ATOM     57  C   UNL A   1      42.122  30.487  35.689  1.00  0.00     0.031 C 
ATOM     58  C   UNL A   1      44.687  26.550  31.827  1.00  0.00     0.029 A 
ATOM     59  C   UNL A   1      43.820  27.467  32.401  1.00  0.00     0.049 A 
ATOM     60  H   UNL A   1      42.063  28.312  31.592  1.00  0.00     0.167 HD
ATOM     61  C   UNL A   1      43.022  29.012  34.175  1.00  0.00     0.074 A 
ATOM     62  C   UNL A   1      43.126  29.650  35.473  1.00  0.00     0.031 C 
ATOM     63  C   UNL A   1      43.898  28.088  33.704  1.00  0.00     0.034 A 
BRANCH  50  64
ATOM     64  C   UNL A   1      42.493  25.941  28.047  1.00  0.00     0.023 A 
ATOM     65  C   UNL A   1      41.794  24.730  27.897  1.00  0.00     0.031 A 
ATOM     66  C   UNL A   1      43.544  26.207  27.150  1.00  0.00     0.131 A 
ATOM     67  C   UNL A   1      42.210  23.794  26.937  1.00  0.00     0.055 A 
ATOM     68  C   UNL A   1      43.898  25.308  26.141  1.00  0.00     0.041 A 
ATOM     69  F   UNL A   1      44.264  27.334  27.256  1.00  0.00    -0.206 F 
ATOM     70  C   UNL A   1      43.243  24.085  26.043  1.00  0.00     0.022 A 
BRANCH  67  71
ATOM     71  S   UNL A   1      41.498  22.126  26.987  1.00  0.00     0.124 S 
ATOM     72  O   UNL A   1      40.203  22.376  27.617  1.00  0.00    -0.237 OA
ATOM     73  O   UNL A   1      41.463  21.755  25.578  1.00  0.00    -0.237 OA
ATOM     74  O   UNL A   1      42.445  21.374  27.809  1.00  0.00    -0.744 OA
ENDBRANCH  67  71
ENDBRANCH  50  64
BRANCH  51  75
ATOM     75  C   UNL A   1      39.697  32.126  35.412  1.00  0.00     0.023 A 
ATOM     76  C   UNL A   1      38.878  31.609  36.426  1.00  0.00     0.031 A 
ATOM     77  C   UNL A   1      40.060  33.484  35.480  1.00  0.00     0.131 A 
ATOM     78  C   UNL A   1      38.428  32.452  37.455  1.00  0.00     0.055 A 
ATOM     79  C   UNL A   1      39.645  34.307  36.528  1.00  0.00     0.041 A 
ATOM     80  F   UNL A   1      40.847  34.025  34.536  1.00  0.00    -0.206 F 
ATOM     81  C   UNL A   1      38.816  33.793  37.519  1.00  0.00     0.022 A 
BRANCH  78  82
ATOM     82  S   UNL A   1      37.289  31.780  38.698  1.00  0.00     0.124 S 
ATOM     83  O   UNL A   1      36.156  32.691  38.585  1.00  0.00    -0.237 OA
ATOM     84  O   UNL A   1      37.072  30.423  38.208  1.00  0.00    -0.237 OA
ATOM     85  O   UNL A   1      38.048  31.877  39.942  1.00  0.00    -0.744 OA
ENDBRANCH  78  82
ENDBRANCH  51  75
BRANCH  63  86
ATOM     86  C   UNL A   1      45.066  27.734  34.594  1.00  0.00     0.023 A 
ATOM     87  C   UNL A   1      45.005  26.667  35.507  1.00  0.00     0.031 A 
ATOM     88  C   UNL A   1      46.256  28.482  34.530  1.00  0.00     0.131 A 
ATOM     89  C   UNL A   1      46.093  26.409  36.356  1.00  0.00     0.055 A 
ATOM     90  C   UNL A   1      47.357  28.184  35.335  1.00  0.00     0.041 A 
ATOM     91  F   UNL A   1      46.370  29.513  33.679  1.00  0.00    -0.206 F 
ATOM     92  C   UNL A   1      47.275  27.150  36.263  1.00  0.00     0.022 A 
BRANCH  89  93
ATOM     93  S   UNL A   1      45.916  25.144  37.645  1.00  0.00     0.124 S 
ATOM     94  O   UNL A   1      44.484  24.868  37.602  1.00  0.00    -0.237 OA
ATOM     95  O   UNL A   1      46.787  24.080  37.159  1.00  0.00    -0.237 OA
ATOM     96  O   UNL A   1      46.380  25.821  38.854  1.00  0.00    -0.744 OA
ENDBRANCH  89  93
ENDBRANCH  63  86
ENDBRANCH  37  38
ENDBRANCH  30  32
ENDBRANCH  29  30
ENDBRANCH  28  29
ENDBRANCH   1  28
TORSDOF 21
ENDMDL
