MODEL 1
REMARK VINA RESULT:     -11.4      0.000      0.000
REMARK SMILES Cc1[nH]c2ccccc2c1/C=C1/SC(=S)N(c2cccc(C(=O)OCCOCCOC(=O)c3ccc(-c4c5nc(c(-c6cc(S(=O)(=O)[O-])ccc6F)c6ccc([nH]6)c(-c6cc(S(=O)(=O)[O-])ccc6F)c6nc(c(-c7cc(S(=O)(=O)[O-])ccc7F)c7ccc4[nH]7)C=C6)C=C5)cc3)c2)C1=O
REMARK SMILES IDX 28 1 27 2 26 3 25 4 24 5 22 6 23 7 21 8 17 9 18 10 96 11
REMARK SMILES IDX 19 12 20 13 16 14 11 15 12 16 13 17 97 18 14 19 98 20 15 21
REMARK SMILES IDX 10 22 1 23 2 24 3 25 4 26 9 28 5 29 8 30 6 31 7 32 29 33
REMARK SMILES IDX 30 34 31 35 32 36 33 37 34 38 95 39 35 40 94 41 36 42 37 43
REMARK SMILES IDX 38 44 88 45 39 46 93 47 87 48 89 49 40 50 92 51 86 52 85 53
REMARK SMILES IDX 41 55 73 56 53 57 72 58 54 59 57 60 71 61 90 62 55 63 56 64
REMARK SMILES IDX 70 66 91 67 58 68 42 69 43 70 51 71 44 72 50 73 52 74 49 75
REMARK SMILES IDX 45 76 46 77 47 78 48 79 74 80 75 81 83 82 76 83 82 84 84 85
REMARK SMILES IDX 81 86 77 87 78 88 79 89 80 90 59 91 60 92 68 93 61 94 67 95
REMARK SMILES IDX 69 96 66 97 62 98 63 99 64 100 65 101
REMARK H PARENT 3 27 89 54 57 65
REMARK Flexibility Score: inf
ROOT
ATOM      1  C   UNL A   1      43.280  21.428  25.956  1.00  0.00     0.202 C 
ENDROOT
BRANCH   1   2
ATOM      2  O   UNL A   1      42.189  20.554  25.664  1.00  0.00    -0.374 OA
BRANCH   2   3
ATOM      3  C   UNL A   1      41.078  20.572  26.562  1.00  0.00     0.202 C 
BRANCH   3   4
ATOM      4  C   UNL A   1      40.409  21.929  26.805  1.00  0.00     0.261 C 
BRANCH   4   5
ATOM      5  O   UNL A   1      39.078  21.967  26.262  1.00  0.00    -0.460 OA
BRANCH   5   6
ATOM      6  C   UNL A   1      38.508  23.194  26.226  1.00  0.00     0.338 C 
ATOM      7  O   UNL A   1      38.980  24.241  26.643  1.00  0.00    -0.246 OA
BRANCH   6   8
ATOM      8  C   UNL A   1      37.275  23.150  25.407  1.00  0.00     0.062 A 
ATOM      9  C   UNL A   1      34.857  23.196  25.137  1.00  0.00     0.051 A 
ATOM     10  C   UNL A   1      35.049  22.975  23.760  1.00  0.00     0.027 A 
ATOM     11  C   UNL A   1      35.991  23.254  25.963  1.00  0.00     0.042 A 
ATOM     12  C   UNL A   1      36.325  22.849  23.209  1.00  0.00     0.003 A 
ATOM     13  C   UNL A   1      37.438  22.951  24.031  1.00  0.00     0.016 A 
BRANCH   9  14
ATOM     14  N   UNL A   1      33.526  23.335  25.661  1.00  0.00    -0.261 N 
ATOM     15  C   UNL A   1      30.551  25.435  26.116  1.00  0.00     0.032 C 
ATOM     16  C   UNL A   1      31.495  24.479  26.123  1.00  0.00     0.081 C 
ATOM     17  S   UNL A   1      31.248  22.933  26.830  1.00  0.00    -0.054 SA
ATOM     18  C   UNL A   1      32.862  24.558  25.529  1.00  0.00     0.270 C 
ATOM     19  C   UNL A   1      32.845  22.346  26.360  1.00  0.00     0.152 C 
ATOM     20  O   UNL A   1      33.309  25.570  25.002  1.00  0.00    -0.268 OA
ATOM     21  S   UNL A   1      33.364  20.845  26.887  1.00  0.00    -0.051 S 
BRANCH  15  22
ATOM     22  C   UNL A   1      30.645  26.706  25.476  1.00  0.00     0.004 A 
ATOM     23  C   UNL A   1      29.622  26.111  23.133  1.00  0.00     0.065 C 
ATOM     24  C   UNL A   1      30.234  26.968  24.183  1.00  0.00     0.020 A 
ATOM     25  N   UNL A   1      30.546  28.280  23.924  1.00  0.00    -0.358 N 
ATOM     26  C   UNL A   1      31.116  28.874  25.026  1.00  0.00     0.046 A 
ATOM     27  H   UNL A   1      30.384  28.735  23.065  1.00  0.00     0.166 HD
ATOM     28  C   UNL A   1      31.170  27.909  26.033  1.00  0.00     0.007 A 
ATOM     29  C   UNL A   1      31.594  30.179  25.198  1.00  0.00     0.027 A 
ATOM     30  C   UNL A   1      31.715  28.272  27.282  1.00  0.00     0.011 A 
ATOM     31  C   UNL A   1      32.136  30.511  26.443  1.00  0.00     0.002 A 
ATOM     32  C   UNL A   1      32.192  29.575  27.473  1.00  0.00     0.001 A 
ENDBRANCH  15  22
ENDBRANCH   9  14
ENDBRANCH   6   8
ENDBRANCH   5   6
ENDBRANCH   4   5
ENDBRANCH   3   4
ENDBRANCH   2   3
ENDBRANCH   1   2
BRANCH   1  33
ATOM     33  C   UNL A   1      43.753  22.367  24.839  1.00  0.00     0.261 C 
BRANCH  33  34
ATOM     34  O   UNL A   1      43.390  23.738  25.076  1.00  0.00    -0.460 OA
BRANCH  34  35
ATOM     35  C   UNL A   1      44.434  24.540  25.401  1.00  0.00     0.338 C 
ATOM     36  O   UNL A   1      45.408  24.790  24.707  1.00  0.00    -0.246 OA
BRANCH  35  37
ATOM     37  C   UNL A   1      44.159  25.248  26.666  1.00  0.00     0.060 A 
ATOM     38  C   UNL A   1      43.236  24.662  27.541  1.00  0.00     0.016 A 
ATOM     39  C   UNL A   1      44.724  26.491  26.957  1.00  0.00     0.016 A 
ATOM     40  C   UNL A   1      42.821  25.348  28.678  1.00  0.00     0.010 A 
ATOM     41  C   UNL A   1      44.304  27.180  28.101  1.00  0.00     0.010 A 
ATOM     42  C   UNL A   1      43.318  26.632  28.942  1.00  0.00    -0.014 A 
BRANCH  42  43
ATOM     43  C   UNL A   1      42.674  27.455  29.998  1.00  0.00     0.031 A 
ATOM     44  C   UNL A   1      43.333  27.550  31.348  1.00  0.00     0.074 A 
ATOM     45  C   UNL A   1      41.550  28.149  29.742  1.00  0.00     0.049 A 
ATOM     46  N   UNL A   1      42.952  28.200  32.417  1.00  0.00    -0.248 NA
ATOM     47  C   UNL A   1      44.590  26.803  31.514  1.00  0.00     0.031 C 
ATOM     48  C   UNL A   1      40.851  28.175  28.457  1.00  0.00     0.029 A 
ATOM     49  N   UNL A   1      40.803  28.970  30.549  1.00  0.00    -0.354 N 
ATOM     50  C   UNL A   1      43.915  27.933  33.387  1.00  0.00     0.074 A 
ATOM     51  C   UNL A   1      44.872  27.028  32.788  1.00  0.00     0.031 C 
ATOM     52  C   UNL A   1      39.778  28.979  28.563  1.00  0.00     0.029 A 
ATOM     53  C   UNL A   1      39.691  29.490  29.929  1.00  0.00     0.049 A 
ATOM     54  H   UNL A   1      41.041  29.167  31.484  1.00  0.00     0.167 HD
ATOM     55  C   UNL A   1      43.995  28.408  34.655  1.00  0.00     0.034 A 
ATOM     56  C   UNL A   1      38.708  30.273  30.416  1.00  0.00     0.034 A 
ATOM     57  C   UNL A   1      43.030  29.310  35.235  1.00  0.00     0.049 A 
ATOM     58  C   UNL A   1      38.776  30.721  31.858  1.00  0.00     0.074 A 
ATOM     59  C   UNL A   1      43.029  29.875  36.499  1.00  0.00     0.029 A 
ATOM     60  N   UNL A   1      41.884  29.769  34.598  1.00  0.00    -0.354 N 
ATOM     61  N   UNL A   1      39.697  30.475  32.761  1.00  0.00    -0.248 NA
ATOM     62  C   UNL A   1      37.672  31.562  32.341  1.00  0.00     0.031 C 
ATOM     63  C   UNL A   1      41.845  30.602  36.654  1.00  0.00     0.029 A 
ATOM     64  C   UNL A   1      41.149  30.573  35.456  1.00  0.00     0.049 A 
ATOM     65  H   UNL A   1      41.630  29.555  33.671  1.00  0.00     0.167 HD
ATOM     66  C   UNL A   1      39.304  31.165  33.905  1.00  0.00     0.074 A 
ATOM     67  C   UNL A   1      38.069  31.845  33.572  1.00  0.00     0.031 C 
ATOM     68  C   UNL A   1      39.911  31.239  35.118  1.00  0.00     0.034 A 
BRANCH  55  69
ATOM     69  C   UNL A   1      45.135  27.907  35.514  1.00  0.00     0.023 A 
ATOM     70  C   UNL A   1      44.936  26.986  36.558  1.00  0.00     0.031 A 
ATOM     71  C   UNL A   1      46.440  28.389  35.304  1.00  0.00     0.131 A 
ATOM     72  C   UNL A   1      46.006  26.637  37.398  1.00  0.00     0.055 A 
ATOM     73  C   UNL A   1      47.516  27.970  36.089  1.00  0.00     0.041 A 
ATOM     74  F   UNL A   1      46.690  29.289  34.340  1.00  0.00    -0.206 F 
ATOM     75  C   UNL A   1      47.300  27.102  37.153  1.00  0.00     0.022 A 
BRANCH  72  76
ATOM     76  S   UNL A   1      45.651  25.698  38.909  1.00  0.00     0.124 S 
ATOM     77  O   UNL A   1      45.492  24.343  38.383  1.00  0.00    -0.237 OA
ATOM     78  O   UNL A   1      46.843  25.934  39.714  1.00  0.00    -0.237 OA
ATOM     79  O   UNL A   1      44.423  26.310  39.413  1.00  0.00    -0.744 OA
ENDBRANCH  72  76
ENDBRANCH  55  69
BRANCH  56  80
ATOM     80  C   UNL A   1      37.559  30.673  29.554  1.00  0.00     0.023 A 
ATOM     81  C   UNL A   1      37.167  32.016  29.442  1.00  0.00     0.031 A 
ATOM     82  C   UNL A   1      36.795  29.706  28.872  1.00  0.00     0.131 A 
ATOM     83  C   UNL A   1      36.016  32.352  28.712  1.00  0.00     0.055 A 
ATOM     84  C   UNL A   1      35.686  30.052  28.099  1.00  0.00     0.041 A 
ATOM     85  F   UNL A   1      37.123  28.407  28.946  1.00  0.00    -0.206 F 
ATOM     86  C   UNL A   1      35.282  31.381  28.028  1.00  0.00     0.022 A 
BRANCH  83  87
ATOM     87  S   UNL A   1      35.437  34.071  28.750  1.00  0.00     0.124 S 
ATOM     88  O   UNL A   1      36.680  34.797  28.985  1.00  0.00    -0.237 OA
ATOM     89  O   UNL A   1      34.846  34.220  27.425  1.00  0.00    -0.237 OA
ATOM     90  O   UNL A   1      34.486  34.084  29.860  1.00  0.00    -0.744 OA
ENDBRANCH  83  87
ENDBRANCH  56  80
BRANCH  68  91
ATOM     91  C   UNL A   1      39.273  32.135  36.156  1.00  0.00     0.023 A 
ATOM     92  C   UNL A   1      38.429  31.628  37.160  1.00  0.00     0.031 A 
ATOM     93  C   UNL A   1      39.499  33.523  36.124  1.00  0.00     0.131 A 
ATOM     94  C   UNL A   1      37.790  32.509  38.047  1.00  0.00     0.055 A 
ATOM     95  C   UNL A   1      38.918  34.386  37.055  1.00  0.00     0.041 A 
ATOM     96  F   UNL A   1      40.293  34.065  35.187  1.00  0.00    -0.206 F 
ATOM     97  C   UNL A   1      38.044  33.882  38.014  1.00  0.00     0.022 A 
BRANCH  94  98
ATOM     98  S   UNL A   1      36.532  31.849  39.176  1.00  0.00     0.124 S 
ATOM     99  O   UNL A   1      35.377  32.686  38.865  1.00  0.00    -0.237 OA
ATOM    100  O   UNL A   1      36.439  30.454  38.758  1.00  0.00    -0.237 OA
ATOM    101  O   UNL A   1      37.114  32.061  40.500  1.00  0.00    -0.744 OA
ENDBRANCH  94  98
ENDBRANCH  68  91
ENDBRANCH  42  43
ENDBRANCH  35  37
ENDBRANCH  34  35
ENDBRANCH  33  34
ENDBRANCH   1  33
TORSDOF 19
ENDMDL
MODEL 2
REMARK VINA RESULT:     -11.4      5.057      8.622
REMARK SMILES Cc1[nH]c2ccccc2c1/C=C1/SC(=S)N(c2cccc(C(=O)OCCOCCOC(=O)c3ccc(-c4c5nc(c(-c6cc(S(=O)(=O)[O-])ccc6F)c6ccc([nH]6)c(-c6cc(S(=O)(=O)[O-])ccc6F)c6nc(c(-c7cc(S(=O)(=O)[O-])ccc7F)c7ccc4[nH]7)C=C6)C=C5)cc3)c2)C1=O
REMARK SMILES IDX 28 1 27 2 26 3 25 4 24 5 22 6 23 7 21 8 17 9 18 10 96 11
REMARK SMILES IDX 19 12 20 13 16 14 11 15 12 16 13 17 97 18 14 19 98 20 15 21
REMARK SMILES IDX 10 22 1 23 2 24 3 25 4 26 9 28 5 29 8 30 6 31 7 32 29 33
REMARK SMILES IDX 30 34 31 35 32 36 33 37 34 38 95 39 35 40 94 41 36 42 37 43
REMARK SMILES IDX 38 44 88 45 39 46 93 47 87 48 89 49 40 50 92 51 86 52 85 53
REMARK SMILES IDX 41 55 73 56 53 57 72 58 54 59 57 60 71 61 90 62 55 63 56 64
REMARK SMILES IDX 70 66 91 67 58 68 42 69 43 70 51 71 44 72 50 73 52 74 49 75
REMARK SMILES IDX 45 76 46 77 47 78 48 79 74 80 75 81 83 82 76 83 82 84 84 85
REMARK SMILES IDX 81 86 77 87 78 88 79 89 80 90 59 91 60 92 68 93 61 94 67 95
REMARK SMILES IDX 69 96 66 97 62 98 63 99 64 100 65 101
REMARK H PARENT 3 27 89 54 57 65
REMARK Flexibility Score: inf
ROOT
ATOM      1  C   UNL A   1      41.630  21.068  26.258  1.00  0.00     0.202 C 
ENDROOT
BRANCH   1   2
ATOM      2  O   UNL A   1      42.107  20.982  27.601  1.00  0.00    -0.374 OA
BRANCH   2   3
ATOM      3  C   UNL A   1      42.746  22.139  28.144  1.00  0.00     0.202 C 
BRANCH   3   4
ATOM      4  C   UNL A   1      43.480  23.050  27.153  1.00  0.00     0.261 C 
BRANCH   4   5
ATOM      5  O   UNL A   1      44.059  24.190  27.812  1.00  0.00    -0.460 OA
BRANCH   5   6
ATOM      6  C   UNL A   1      45.389  24.103  28.046  1.00  0.00     0.338 C 
ATOM      7  O   UNL A   1      46.247  23.685  27.282  1.00  0.00    -0.246 OA
BRANCH   6   8
ATOM      8  C   UNL A   1      45.720  24.786  29.317  1.00  0.00     0.062 A 
ATOM      9  C   UNL A   1      45.179  25.557  31.561  1.00  0.00     0.051 A 
ATOM     10  C   UNL A   1      46.450  26.161  31.614  1.00  0.00     0.027 A 
ATOM     11  C   UNL A   1      44.812  24.889  30.381  1.00  0.00     0.042 A 
ATOM     12  C   UNL A   1      47.345  26.077  30.547  1.00  0.00     0.003 A 
ATOM     13  C   UNL A   1      46.986  25.378  29.404  1.00  0.00     0.016 A 
BRANCH   9  14
ATOM     14  N   UNL A   1      44.293  25.654  32.688  1.00  0.00    -0.261 N 
ATOM     15  C   UNL A   1      41.901  27.658  34.618  1.00  0.00     0.032 C 
ATOM     16  C   UNL A   1      42.744  26.732  34.132  1.00  0.00     0.081 C 
ATOM     17  S   UNL A   1      42.933  25.180  34.842  1.00  0.00    -0.054 SA
ATOM     18  C   UNL A   1      43.620  26.855  32.929  1.00  0.00     0.270 C 
ATOM     19  C   UNL A   1      44.088  24.644  33.620  1.00  0.00     0.152 C 
ATOM     20  O   UNL A   1      43.710  27.880  32.264  1.00  0.00    -0.268 OA
ATOM     21  S   UNL A   1      44.844  23.160  33.789  1.00  0.00    -0.051 S 
BRANCH  15  22
ATOM     22  C   UNL A   1      41.622  28.930  34.038  1.00  0.00     0.004 A 
ATOM     23  C   UNL A   1      39.728  28.257  32.351  1.00  0.00     0.065 C 
ATOM     24  C   UNL A   1      40.675  29.158  33.058  1.00  0.00     0.020 A 
ATOM     25  N   UNL A   1      40.754  30.490  32.728  1.00  0.00    -0.358 N 
ATOM     26  C   UNL A   1      41.704  31.126  33.493  1.00  0.00     0.046 A 
ATOM     27  H   UNL A   1      40.206  30.929  32.039  1.00  0.00     0.166 HD
ATOM     28  C   UNL A   1      42.254  30.170  34.349  1.00  0.00     0.007 A 
ATOM     29  C   UNL A   1      42.121  32.463  33.480  1.00  0.00     0.027 A 
ATOM     30  C   UNL A   1      43.261  30.576  35.249  1.00  0.00     0.011 A 
ATOM     31  C   UNL A   1      43.124  32.838  34.378  1.00  0.00     0.002 A 
ATOM     32  C   UNL A   1      43.685  31.911  35.254  1.00  0.00     0.001 A 
ENDBRANCH  15  22
ENDBRANCH   9  14
ENDBRANCH   6   8
ENDBRANCH   5   6
ENDBRANCH   4   5
ENDBRANCH   3   4
ENDBRANCH   2   3
ENDBRANCH   1   2
BRANCH   1  33
ATOM     33  C   UNL A   1      40.111  21.035  26.042  1.00  0.00     0.261 C 
BRANCH  33  34
ATOM     34  O   UNL A   1      39.397  21.828  27.005  1.00  0.00    -0.460 OA
BRANCH  34  35
ATOM     35  C   UNL A   1      38.822  22.942  26.490  1.00  0.00     0.338 C 
ATOM     36  O   UNL A   1      37.749  23.010  25.908  1.00  0.00    -0.246 OA
BRANCH  35  37
ATOM     37  C   UNL A   1      39.584  24.141  26.889  1.00  0.00     0.060 A 
ATOM     38  C   UNL A   1      39.713  24.392  28.260  1.00  0.00     0.016 A 
ATOM     39  C   UNL A   1      40.092  25.042  25.950  1.00  0.00     0.016 A 
ATOM     40  C   UNL A   1      40.289  25.580  28.700  1.00  0.00     0.010 A 
ATOM     41  C   UNL A   1      40.670  26.237  26.395  1.00  0.00     0.010 A 
ATOM     42  C   UNL A   1      40.730  26.531  27.770  1.00  0.00    -0.014 A 
BRANCH  42  43
ATOM     43  C   UNL A   1      41.091  27.893  28.242  1.00  0.00     0.031 A 
ATOM     44  C   UNL A   1      42.538  28.308  28.224  1.00  0.00     0.074 A 
ATOM     45  C   UNL A   1      40.140  28.762  28.630  1.00  0.00     0.049 A 
ATOM     46  N   UNL A   1      43.084  29.438  28.592  1.00  0.00    -0.248 NA
ATOM     47  C   UNL A   1      43.496  27.309  27.727  1.00  0.00     0.031 C 
ATOM     48  C   UNL A   1      38.703  28.490  28.641  1.00  0.00     0.029 A 
ATOM     49  N   UNL A   1      40.242  30.053  29.083  1.00  0.00    -0.354 N 
ATOM     50  C   UNL A   1      44.452  29.283  28.383  1.00  0.00     0.074 A 
ATOM     51  C   UNL A   1      44.651  27.935  27.896  1.00  0.00     0.031 C 
ATOM     52  C   UNL A   1      38.056  29.586  29.075  1.00  0.00     0.029 A 
ATOM     53  C   UNL A   1      39.032  30.620  29.410  1.00  0.00     0.049 A 
ATOM     54  H   UNL A   1      41.100  30.529  29.167  1.00  0.00     0.167 HD
ATOM     55  C   UNL A   1      45.446  30.187  28.572  1.00  0.00     0.034 A 
ATOM     56  C   UNL A   1      38.750  31.829  29.936  1.00  0.00     0.034 A 
ATOM     57  C   UNL A   1      45.228  31.528  29.059  1.00  0.00     0.049 A 
ATOM     58  C   UNL A   1      39.883  32.787  30.217  1.00  0.00     0.074 A 
ATOM     59  C   UNL A   1      46.158  32.533  29.261  1.00  0.00     0.029 A 
ATOM     60  N   UNL A   1      43.996  32.048  29.437  1.00  0.00    -0.354 N 
ATOM     61  N   UNL A   1      41.170  32.637  30.003  1.00  0.00    -0.248 NA
ATOM     62  C   UNL A   1      39.521  34.085  30.803  1.00  0.00     0.031 C 
ATOM     63  C   UNL A   1      45.504  33.626  29.839  1.00  0.00     0.029 A 
ATOM     64  C   UNL A   1      44.150  33.343  29.910  1.00  0.00     0.049 A 
ATOM     65  H   UNL A   1      43.139  31.568  29.377  1.00  0.00     0.167 HD
ATOM     66  C   UNL A   1      41.765  33.836  30.389  1.00  0.00     0.074 A 
ATOM     67  C   UNL A   1      40.693  34.701  30.839  1.00  0.00     0.031 C 
ATOM     68  C   UNL A   1      43.075  34.195  30.367  1.00  0.00     0.034 A 
BRANCH  55  69
ATOM     69  C   UNL A   1      46.863  29.727  28.308  1.00  0.00     0.023 A 
ATOM     70  C   UNL A   1      47.718  29.306  29.342  1.00  0.00     0.031 A 
ATOM     71  C   UNL A   1      47.376  29.744  26.998  1.00  0.00     0.131 A 
ATOM     72  C   UNL A   1      49.058  28.997  29.061  1.00  0.00     0.055 A 
ATOM     73  C   UNL A   1      48.685  29.351  26.714  1.00  0.00     0.041 A 
ATOM     74  F   UNL A   1      46.618  30.160  25.972  1.00  0.00    -0.206 F 
ATOM     75  C   UNL A   1      49.540  28.989  27.750  1.00  0.00     0.022 A 
BRANCH  72  76
ATOM     76  S   UNL A   1      50.203  28.760  30.448  1.00  0.00     0.124 S 
ATOM     77  O   UNL A   1      50.521  27.339  30.329  1.00  0.00    -0.237 OA
ATOM     78  O   UNL A   1      51.283  29.686  30.128  1.00  0.00    -0.237 OA
ATOM     79  O   UNL A   1      49.402  29.114  31.618  1.00  0.00    -0.744 OA
ENDBRANCH  72  76
ENDBRANCH  55  69
BRANCH  56  80
ATOM     80  C   UNL A   1      37.343  32.206  30.259  1.00  0.00     0.023 A 
ATOM     81  C   UNL A   1      36.507  32.786  29.293  1.00  0.00     0.031 A 
ATOM     82  C   UNL A   1      36.832  32.045  31.561  1.00  0.00     0.131 A 
ATOM     83  C   UNL A   1      35.225  33.232  29.652  1.00  0.00     0.055 A 
ATOM     84  C   UNL A   1      35.535  32.436  31.898  1.00  0.00     0.041 A 
ATOM     85  F   UNL A   1      37.589  31.498  32.525  1.00  0.00    -0.206 F 
ATOM     86  C   UNL A   1      34.728  33.047  30.944  1.00  0.00     0.022 A 
BRANCH  83  87
ATOM     87  S   UNL A   1      34.250  34.146  28.425  1.00  0.00     0.124 S 
ATOM     88  O   UNL A   1      33.161  33.213  28.158  1.00  0.00    -0.237 OA
ATOM     89  O   UNL A   1      33.896  35.355  29.160  1.00  0.00    -0.237 OA
ATOM     90  O   UNL A   1      35.190  34.341  27.323  1.00  0.00    -0.744 OA
ENDBRANCH  83  87
ENDBRANCH  56  80
BRANCH  68  91
ATOM     91  C   UNL A   1      43.411  35.607  30.789  1.00  0.00     0.023 A 
ATOM     92  C   UNL A   1      43.556  35.966  32.141  1.00  0.00     0.031 A 
ATOM     93  C   UNL A   1      43.568  36.615  29.820  1.00  0.00     0.131 A 
ATOM     94  C   UNL A   1      43.781  37.308  32.489  1.00  0.00     0.055 A 
ATOM     95  C   UNL A   1      43.863  37.934  30.169  1.00  0.00     0.041 A 
ATOM     96  F   UNL A   1      43.438  36.333  28.514  1.00  0.00    -0.206 F 
ATOM     97  C   UNL A   1      43.956  38.290  31.511  1.00  0.00     0.022 A 
BRANCH  94  98
ATOM     98  S   UNL A   1      43.732  37.775  34.241  1.00  0.00     0.124 S 
ATOM     99  O   UNL A   1      43.352  36.517  34.879  1.00  0.00    -0.237 OA
ATOM    100  O   UNL A   1      45.099  38.223  34.483  1.00  0.00    -0.237 OA
ATOM    101  O   UNL A   1      42.717  38.825  34.288  1.00  0.00    -0.744 OA
ENDBRANCH  94  98
ENDBRANCH  68  91
ENDBRANCH  42  43
ENDBRANCH  35  37
ENDBRANCH  34  35
ENDBRANCH  33  34
ENDBRANCH   1  33
TORSDOF 19
ENDMDL
MODEL 3
REMARK VINA RESULT:     -11.2      5.127      9.064
REMARK SMILES Cc1[nH]c2ccccc2c1/C=C1/SC(=S)N(c2cccc(C(=O)OCCOCCOC(=O)c3ccc(-c4c5nc(c(-c6cc(S(=O)(=O)[O-])ccc6F)c6ccc([nH]6)c(-c6cc(S(=O)(=O)[O-])ccc6F)c6nc(c(-c7cc(S(=O)(=O)[O-])ccc7F)c7ccc4[nH]7)C=C6)C=C5)cc3)c2)C1=O
REMARK SMILES IDX 28 1 27 2 26 3 25 4 24 5 22 6 23 7 21 8 17 9 18 10 96 11
REMARK SMILES IDX 19 12 20 13 16 14 11 15 12 16 13 17 97 18 14 19 98 20 15 21
REMARK SMILES IDX 10 22 1 23 2 24 3 25 4 26 9 28 5 29 8 30 6 31 7 32 29 33
REMARK SMILES IDX 30 34 31 35 32 36 33 37 34 38 95 39 35 40 94 41 36 42 37 43
REMARK SMILES IDX 38 44 88 45 39 46 93 47 87 48 89 49 40 50 92 51 86 52 85 53
REMARK SMILES IDX 41 55 73 56 53 57 72 58 54 59 57 60 71 61 90 62 55 63 56 64
REMARK SMILES IDX 70 66 91 67 58 68 42 69 43 70 51 71 44 72 50 73 52 74 49 75
REMARK SMILES IDX 45 76 46 77 47 78 48 79 74 80 75 81 83 82 76 83 82 84 84 85
REMARK SMILES IDX 81 86 77 87 78 88 79 89 80 90 59 91 60 92 68 93 61 94 67 95
REMARK SMILES IDX 69 96 66 97 62 98 63 99 64 100 65 101
REMARK H PARENT 3 27 89 54 57 65
REMARK Flexibility Score: inf
ROOT
ATOM      1  C   UNL A   1      43.142  22.201  25.605  1.00  0.00     0.202 C 
ENDROOT
BRANCH   1   2
ATOM      2  O   UNL A   1      44.173  21.699  24.754  1.00  0.00    -0.374 OA
BRANCH   2   3
ATOM      3  C   UNL A   1      45.510  21.731  25.257  1.00  0.00     0.202 C 
BRANCH   3   4
ATOM      4  C   UNL A   1      46.143  23.114  25.444  1.00  0.00     0.261 C 
BRANCH   4   5
ATOM      5  O   UNL A   1      46.549  23.330  26.807  1.00  0.00    -0.460 OA
BRANCH   5   6
ATOM      6  C   UNL A   1      46.308  24.572  27.287  1.00  0.00     0.338 C 
ATOM      7  O   UNL A   1      46.501  25.635  26.716  1.00  0.00    -0.246 OA
BRANCH   6   8
ATOM      8  C   UNL A   1      45.568  24.480  28.566  1.00  0.00     0.062 A 
ATOM      9  C   UNL A   1      45.195  25.080  30.896  1.00  0.00     0.051 A 
ATOM     10  C   UNL A   1      44.135  24.152  30.920  1.00  0.00     0.027 A 
ATOM     11  C   UNL A   1      45.930  25.214  29.706  1.00  0.00     0.042 A 
ATOM     12  C   UNL A   1      43.789  23.406  29.793  1.00  0.00     0.003 A 
ATOM     13  C   UNL A   1      44.497  23.581  28.612  1.00  0.00     0.016 A 
BRANCH   9  14
ATOM     14  N   UNL A   1      45.508  25.839  32.074  1.00  0.00    -0.261 N 
ATOM     15  C   UNL A   1      44.379  28.139  34.701  1.00  0.00     0.032 C 
ATOM     16  C   UNL A   1      45.057  27.338  33.862  1.00  0.00     0.081 C 
ATOM     17  S   UNL A   1      46.711  26.936  34.091  1.00  0.00    -0.054 SA
ATOM     18  C   UNL A   1      44.528  26.657  32.643  1.00  0.00     0.270 C 
ATOM     19  C   UNL A   1      46.758  25.876  32.681  1.00  0.00     0.152 C 
ATOM     20  O   UNL A   1      43.386  26.812  32.228  1.00  0.00    -0.268 OA
ATOM     21  S   UNL A   1      48.214  25.206  32.197  1.00  0.00    -0.051 S 
BRANCH  15  22
ATOM     22  C   UNL A   1      42.989  28.449  34.630  1.00  0.00     0.004 A 
ATOM     23  C   UNL A   1      41.975  26.183  35.480  1.00  0.00     0.065 C 
ATOM     24  C   UNL A   1      41.971  27.580  34.975  1.00  0.00     0.020 A 
ATOM     25  N   UNL A   1      40.788  28.228  34.712  1.00  0.00    -0.358 N 
ATOM     26  C   UNL A   1      41.022  29.499  34.239  1.00  0.00     0.046 A 
ATOM     27  H   UNL A   1      39.894  27.837  34.844  1.00  0.00     0.166 HD
ATOM     28  C   UNL A   1      42.406  29.676  34.199  1.00  0.00     0.007 A 
ATOM     29  C   UNL A   1      40.117  30.489  33.835  1.00  0.00     0.027 A 
ATOM     30  C   UNL A   1      42.910  30.914  33.748  1.00  0.00     0.011 A 
ATOM     31  C   UNL A   1      40.643  31.703  33.387  1.00  0.00     0.002 A 
ATOM     32  C   UNL A   1      42.019  31.917  33.347  1.00  0.00     0.001 A 
ENDBRANCH  15  22
ENDBRANCH   9  14
ENDBRANCH   6   8
ENDBRANCH   5   6
ENDBRANCH   4   5
ENDBRANCH   3   4
ENDBRANCH   2   3
ENDBRANCH   1   2
BRANCH   1  33
ATOM     33  C   UNL A   1      42.151  21.187  26.190  1.00  0.00     0.261 C 
BRANCH  33  34
ATOM     34  O   UNL A   1      41.241  21.780  27.132  1.00  0.00    -0.460 OA
BRANCH  34  35
ATOM     35  C   UNL A   1      40.196  22.428  26.562  1.00  0.00     0.338 C 
ATOM     36  O   UNL A   1      39.317  21.934  25.872  1.00  0.00    -0.246 OA
BRANCH  35  37
ATOM     37  C   UNL A   1      40.140  23.823  27.037  1.00  0.00     0.060 A 
ATOM     38  C   UNL A   1      40.304  24.834  26.082  1.00  0.00     0.016 A 
ATOM     39  C   UNL A   1      40.012  24.140  28.391  1.00  0.00     0.016 A 
ATOM     40  C   UNL A   1      40.410  26.162  26.482  1.00  0.00     0.010 A 
ATOM     41  C   UNL A   1      40.121  25.478  28.792  1.00  0.00     0.010 A 
ATOM     42  C   UNL A   1      40.366  26.488  27.844  1.00  0.00    -0.014 A 
BRANCH  42  43
ATOM     43  C   UNL A   1      40.746  27.859  28.274  1.00  0.00     0.031 A 
ATOM     44  C   UNL A   1      42.193  28.269  28.199  1.00  0.00     0.074 A 
ATOM     45  C   UNL A   1      39.812  28.740  28.676  1.00  0.00     0.049 A 
ATOM     46  N   UNL A   1      42.755  29.404  28.524  1.00  0.00    -0.248 NA
ATOM     47  C   UNL A   1      43.132  27.256  27.691  1.00  0.00     0.031 C 
ATOM     48  C   UNL A   1      38.376  28.472  28.742  1.00  0.00     0.029 A 
ATOM     49  N   UNL A   1      39.933  30.039  29.098  1.00  0.00    -0.354 N 
ATOM     50  C   UNL A   1      44.115  29.240  28.272  1.00  0.00     0.074 A 
ATOM     51  C   UNL A   1      44.293  27.882  27.807  1.00  0.00     0.031 C 
ATOM     52  C   UNL A   1      37.747  29.580  29.174  1.00  0.00     0.029 A 
ATOM     53  C   UNL A   1      38.737  30.617  29.454  1.00  0.00     0.049 A 
ATOM     54  H   UNL A   1      40.795  30.514  29.143  1.00  0.00     0.167 HD
ATOM     55  C   UNL A   1      45.117  30.144  28.408  1.00  0.00     0.034 A 
ATOM     56  C   UNL A   1      38.475  31.838  29.964  1.00  0.00     0.034 A 
ATOM     57  C   UNL A   1      44.919  31.496  28.874  1.00  0.00     0.049 A 
ATOM     58  C   UNL A   1      39.621  32.798  30.186  1.00  0.00     0.074 A 
ATOM     59  C   UNL A   1      45.858  32.502  29.023  1.00  0.00     0.029 A 
ATOM     60  N   UNL A   1      43.703  32.028  29.283  1.00  0.00    -0.354 N 
ATOM     61  N   UNL A   1      40.899  32.639  29.931  1.00  0.00    -0.248 NA
ATOM     62  C   UNL A   1      39.282  34.109  30.757  1.00  0.00     0.031 C 
ATOM     63  C   UNL A   1      45.227  33.609  29.600  1.00  0.00     0.029 A 
ATOM     64  C   UNL A   1      43.875  33.332  29.723  1.00  0.00     0.049 A 
ATOM     65  H   UNL A   1      42.842  31.549  29.262  1.00  0.00     0.167 HD
ATOM     66  C   UNL A   1      41.510  33.844  30.272  1.00  0.00     0.074 A 
ATOM     67  C   UNL A   1      40.456  34.722  30.739  1.00  0.00     0.031 C 
ATOM     68  C   UNL A   1      42.819  34.197  30.198  1.00  0.00     0.034 A 
BRANCH  55  69
ATOM     69  C   UNL A   1      46.522  29.674  28.106  1.00  0.00     0.023 A 
ATOM     70  C   UNL A   1      47.361  29.137  29.099  1.00  0.00     0.031 A 
ATOM     71  C   UNL A   1      47.043  29.799  26.805  1.00  0.00     0.131 A 
ATOM     72  C   UNL A   1      48.695  28.820  28.793  1.00  0.00     0.055 A 
ATOM     73  C   UNL A   1      48.342  29.399  26.488  1.00  0.00     0.041 A 
ATOM     74  F   UNL A   1      46.300  30.328  25.819  1.00  0.00    -0.206 F 
ATOM     75  C   UNL A   1      49.182  28.921  27.488  1.00  0.00     0.022 A 
BRANCH  72  76
ATOM     76  S   UNL A   1      49.827  28.426  30.155  1.00  0.00     0.124 S 
ATOM     77  O   UNL A   1      50.871  29.431  29.970  1.00  0.00    -0.237 OA
ATOM     78  O   UNL A   1      48.979  28.593  31.329  1.00  0.00    -0.237 OA
ATOM     79  O   UNL A   1      50.239  27.052  29.871  1.00  0.00    -0.744 OA
ENDBRANCH  72  76
ENDBRANCH  55  69
BRANCH  56  80
ATOM     80  C   UNL A   1      37.082  32.226  30.327  1.00  0.00     0.023 A 
ATOM     81  C   UNL A   1      36.230  32.833  29.390  1.00  0.00     0.031 A 
ATOM     82  C   UNL A   1      36.599  32.050  31.637  1.00  0.00     0.131 A 
ATOM     83  C   UNL A   1      34.963  33.288  29.786  1.00  0.00     0.055 A 
ATOM     84  C   UNL A   1      35.316  32.451  32.011  1.00  0.00     0.041 A 
ATOM     85  F   UNL A   1      37.372  31.478  32.574  1.00  0.00    -0.206 F 
ATOM     86  C   UNL A   1      34.495  33.087  31.087  1.00  0.00     0.022 A 
BRANCH  83  87
ATOM     87  S   UNL A   1      33.971  34.234  28.599  1.00  0.00     0.124 S 
ATOM     88  O   UNL A   1      32.757  34.491  29.365  1.00  0.00    -0.237 OA
ATOM     89  O   UNL A   1      34.826  35.387  28.341  1.00  0.00    -0.237 OA
ATOM     90  O   UNL A   1      33.817  33.312  27.475  1.00  0.00    -0.744 OA
ENDBRANCH  83  87
ENDBRANCH  56  80
BRANCH  68  91
ATOM     91  C   UNL A   1      43.174  35.617  30.579  1.00  0.00     0.023 A 
ATOM     92  C   UNL A   1      43.268  36.643  29.622  1.00  0.00     0.031 A 
ATOM     93  C   UNL A   1      43.443  35.941  31.921  1.00  0.00     0.131 A 
ATOM     94  C   UNL A   1      43.686  37.926  30.011  1.00  0.00     0.055 A 
ATOM     95  C   UNL A   1      43.788  37.235  32.312  1.00  0.00     0.041 A 
ATOM     96  F   UNL A   1      43.372  35.002  32.878  1.00  0.00    -0.206 F 
ATOM     97  C   UNL A   1      43.927  38.234  31.352  1.00  0.00     0.022 A 
BRANCH  94  98
ATOM     98  S   UNL A   1      44.020  39.161  28.725  1.00  0.00     0.124 S 
ATOM     99  O   UNL A   1      45.478  39.241  28.754  1.00  0.00    -0.237 OA
ATOM    100  O   UNL A   1      43.440  38.541  27.539  1.00  0.00    -0.237 OA
ATOM    101  O   UNL A   1      43.324  40.354  29.204  1.00  0.00    -0.744 OA
ENDBRANCH  94  98
ENDBRANCH  68  91
ENDBRANCH  42  43
ENDBRANCH  35  37
ENDBRANCH  34  35
ENDBRANCH  33  34
ENDBRANCH   1  33
TORSDOF 19
ENDMDL
