MODEL 1
REMARK VINA RESULT:     -10.8      0.000      0.000
REMARK SMILES CSc1ncccc1C(=O)N1CSC[C@H]1C(=O)OCCOCCOC(=O)c1ccc(-c2c3nc(c(-c4cc(S(=O)(=O)[O-])ccc4F)c4ccc([nH]4)c(-c4cc(S(=O)(=O)[O-])ccc4F)c4nc(c(-c5cc(S(=O)(=O)[O-])ccc5F)c5ccc2[nH]5)C=C4)C=C3)cc1
REMARK SMILES IDX 21 1 20 2 19 3 18 4 16 5 17 6 15 7 11 8 12 9 13 10 14 11
REMARK SMILES IDX 9 12 10 13 8 14 3 15 4 16 5 17 7 18 6 19 2 20 1 21 22 22
REMARK SMILES IDX 23 23 24 24 25 25 26 26 27 27 28 28 89 29 29 30 88 31 30 32
REMARK SMILES IDX 31 33 32 34 82 35 33 36 87 37 81 38 83 39 34 40 86 41 80 42
REMARK SMILES IDX 79 43 35 45 67 46 47 47 66 48 48 49 51 50 65 51 84 52 49 53
REMARK SMILES IDX 50 54 64 56 85 57 52 58 36 59 37 60 45 61 38 62 44 63 46 64
REMARK SMILES IDX 43 65 39 66 40 67 41 68 42 69 68 70 69 71 77 72 70 73 76 74
REMARK SMILES IDX 78 75 75 76 71 77 72 78 73 79 74 80 53 81 54 82 62 83 55 84
REMARK SMILES IDX 61 85 63 86 60 87 56 88 57 89 58 90 59 91
REMARK H PARENT 83 44 51 55
REMARK Flexibility Score: inf
ROOT
ATOM      1  O   UNL A   1      32.693  29.337  24.854  1.00  0.00    -0.374 OA
ENDROOT
BRANCH   1   2
ATOM      2  C   UNL A   1      32.571  28.668  23.603  1.00  0.00     0.202 C 
BRANCH   2   3
ATOM      3  C   UNL A   1      31.177  28.563  22.979  1.00  0.00     0.261 C 
BRANCH   3   4
ATOM      4  O   UNL A   1      30.587  27.252  23.093  1.00  0.00    -0.462 OA
BRANCH   4   5
ATOM      5  C   UNL A   1      31.336  26.249  22.563  1.00  0.00     0.329 C 
ATOM      6  O   UNL A   1      31.692  26.190  21.387  1.00  0.00    -0.250 OA
BRANCH   5   7
ATOM      7  C   UNL A   1      31.615  25.089  23.521  1.00  0.00     0.206 C 
ATOM      8  N   UNL A   1      32.976  24.751  23.968  1.00  0.00    -0.315 N 
ATOM      9  C   UNL A   1      33.377  25.445  25.170  1.00  0.00     0.191 C 
ATOM     10  S   UNL A   1      31.887  25.523  26.181  1.00  0.00    -0.138 SA
ATOM     11  C   UNL A   1      30.754  25.326  24.769  1.00  0.00     0.108 C 
BRANCH   8  12
ATOM     12  C   UNL A   1      33.664  23.724  23.329  1.00  0.00     0.258 C 
ATOM     13  O   UNL A   1      34.147  23.876  22.210  1.00  0.00    -0.269 OA
BRANCH  12  14
ATOM     14  C   UNL A   1      33.630  22.353  23.906  1.00  0.00     0.072 A 
ATOM     15  C   UNL A   1      34.658  21.798  24.670  1.00  0.00     0.108 A 
ATOM     16  N   UNL A   1      34.640  20.496  25.075  1.00  0.00    -0.249 NA
ATOM     17  C   UNL A   1      33.613  19.716  24.680  1.00  0.00     0.112 A 
ATOM     18  C   UNL A   1      32.582  21.505  23.507  1.00  0.00     0.018 A 
ATOM     19  C   UNL A   1      32.569  20.172  23.903  1.00  0.00     0.021 A 
BRANCH  15  20
ATOM     20  S   UNL A   1      36.124  22.659  25.189  1.00  0.00    -0.109 SA
ATOM     21  C   UNL A   1      37.362  21.513  24.536  1.00  0.00     0.092 C 
ENDBRANCH  15  20
ENDBRANCH  12  14
ENDBRANCH   8  12
ENDBRANCH   5   7
ENDBRANCH   4   5
ENDBRANCH   3   4
ENDBRANCH   2   3
ENDBRANCH   1   2
BRANCH   1  22
ATOM     22  C   UNL A   1      31.551  30.024  25.357  1.00  0.00     0.202 C 
BRANCH  22  23
ATOM     23  C   UNL A   1      31.751  31.053  26.478  1.00  0.00     0.261 C 
BRANCH  23  24
ATOM     24  O   UNL A   1      32.814  30.772  27.401  1.00  0.00    -0.460 OA
BRANCH  24  25
ATOM     25  C   UNL A   1      33.641  31.823  27.631  1.00  0.00     0.338 C 
ATOM     26  O   UNL A   1      33.332  33.007  27.689  1.00  0.00    -0.246 OA
BRANCH  25  27
ATOM     27  C   UNL A   1      34.989  31.341  27.969  1.00  0.00     0.060 A 
ATOM     28  C   UNL A   1      35.159  29.967  28.173  1.00  0.00     0.016 A 
ATOM     29  C   UNL A   1      36.051  32.228  28.169  1.00  0.00     0.016 A 
ATOM     30  C   UNL A   1      36.385  29.476  28.616  1.00  0.00     0.010 A 
ATOM     31  C   UNL A   1      37.278  31.733  28.622  1.00  0.00     0.010 A 
ATOM     32  C   UNL A   1      37.441  30.359  28.878  1.00  0.00    -0.014 A 
BRANCH  32  33
ATOM     33  C   UNL A   1      38.659  29.852  29.555  1.00  0.00     0.031 A 
ATOM     34  C   UNL A   1      39.005  30.375  30.922  1.00  0.00     0.074 A 
ATOM     35  C   UNL A   1      39.422  28.909  28.974  1.00  0.00     0.049 A 
ATOM     36  N   UNL A   1      40.010  30.069  31.701  1.00  0.00    -0.248 NA
ATOM     37  C   UNL A   1      38.093  31.385  31.482  1.00  0.00     0.031 C 
ATOM     38  C   UNL A   1      39.165  28.309  27.665  1.00  0.00     0.029 A 
ATOM     39  N   UNL A   1      40.567  28.292  29.409  1.00  0.00    -0.354 N 
ATOM     40  C   UNL A   1      39.854  30.846  32.844  1.00  0.00     0.074 A 
ATOM     41  C   UNL A   1      38.682  31.669  32.633  1.00  0.00     0.031 C 
ATOM     42  C   UNL A   1      40.131  27.412  27.400  1.00  0.00     0.029 A 
ATOM     43  C   UNL A   1      41.087  27.396  28.505  1.00  0.00     0.049 A 
ATOM     44  H   UNL A   1      40.977  28.473  30.285  1.00  0.00     0.167 HD
ATOM     45  C   UNL A   1      40.612  30.860  33.969  1.00  0.00     0.034 A 
ATOM     46  C   UNL A   1      42.216  26.661  28.558  1.00  0.00     0.034 A 
ATOM     47  C   UNL A   1      41.785  30.042  34.153  1.00  0.00     0.049 A 
ATOM     48  C   UNL A   1      43.084  26.743  29.789  1.00  0.00     0.074 A 
ATOM     49  C   UNL A   1      42.615  29.957  35.258  1.00  0.00     0.029 A 
ATOM     50  N   UNL A   1      42.308  29.175  33.200  1.00  0.00    -0.354 N 
ATOM     51  N   UNL A   1      42.912  27.463  30.876  1.00  0.00    -0.248 NA
ATOM     52  C   UNL A   1      44.291  25.907  29.806  1.00  0.00     0.031 C 
ATOM     53  C   UNL A   1      43.676  29.099  34.946  1.00  0.00     0.029 A 
ATOM     54  C   UNL A   1      43.468  28.584  33.675  1.00  0.00     0.049 A 
ATOM     55  H   UNL A   1      41.911  29.006  32.316  1.00  0.00     0.167 HD
ATOM     56  C   UNL A   1      43.977  27.144  31.715  1.00  0.00     0.074 A 
ATOM     57  C   UNL A   1      44.775  26.157  31.015  1.00  0.00     0.031 C 
ATOM     58  C   UNL A   1      44.266  27.617  32.955  1.00  0.00     0.034 A 
BRANCH  45  59
ATOM     59  C   UNL A   1      40.216  31.834  35.055  1.00  0.00     0.023 A 
ATOM     60  C   UNL A   1      39.373  31.461  36.117  1.00  0.00     0.031 A 
ATOM     61  C   UNL A   1      40.651  33.171  35.002  1.00  0.00     0.131 A 
ATOM     62  C   UNL A   1      38.925  32.427  37.031  1.00  0.00     0.055 A 
ATOM     63  C   UNL A   1      40.269  34.109  35.963  1.00  0.00     0.041 A 
ATOM     64  F   UNL A   1      41.439  33.593  34.001  1.00  0.00    -0.206 F 
ATOM     65  C   UNL A   1      39.387  33.744  36.975  1.00  0.00     0.022 A 
BRANCH  62  66
ATOM     66  S   UNL A   1      37.609  31.977  38.194  1.00  0.00     0.124 S 
ATOM     67  O   UNL A   1      36.601  32.996  37.909  1.00  0.00    -0.237 OA
ATOM     68  O   UNL A   1      37.278  30.617  37.786  1.00  0.00    -0.237 OA
ATOM     69  O   UNL A   1      38.251  32.096  39.503  1.00  0.00    -0.744 OA
ENDBRANCH  62  66
ENDBRANCH  45  59
BRANCH  46  70
ATOM     70  C   UNL A   1      42.610  25.808  27.400  1.00  0.00     0.023 A 
ATOM     71  C   UNL A   1      42.191  24.473  27.299  1.00  0.00     0.031 A 
ATOM     72  C   UNL A   1      43.445  26.317  26.389  1.00  0.00     0.131 A 
ATOM     73  C   UNL A   1      42.637  23.680  26.229  1.00  0.00     0.055 A 
ATOM     74  C   UNL A   1      43.848  25.539  25.302  1.00  0.00     0.041 A 
ATOM     75  F   UNL A   1      43.872  27.589  26.438  1.00  0.00    -0.206 F 
ATOM     76  C   UNL A   1      43.453  24.208  25.224  1.00  0.00     0.022 A 
BRANCH  73  77
ATOM     77  S   UNL A   1      42.188  21.923  26.200  1.00  0.00     0.124 S 
ATOM     78  O   UNL A   1      43.022  21.422  25.113  1.00  0.00    -0.237 OA
ATOM     79  O   UNL A   1      42.558  21.494  27.544  1.00  0.00    -0.237 OA
ATOM     80  O   UNL A   1      40.752  21.943  25.928  1.00  0.00    -0.744 OA
ENDBRANCH  73  77
ENDBRANCH  46  70
BRANCH  58  81
ATOM     81  C   UNL A   1      45.482  27.041  33.642  1.00  0.00     0.023 A 
ATOM     82  C   UNL A   1      45.388  25.940  34.511  1.00  0.00     0.031 A 
ATOM     83  C   UNL A   1      46.750  27.610  33.431  1.00  0.00     0.131 A 
ATOM     84  C   UNL A   1      46.532  25.479  35.180  1.00  0.00     0.055 A 
ATOM     85  C   UNL A   1      47.894  27.108  34.053  1.00  0.00     0.041 A 
ATOM     86  F   UNL A   1      46.898  28.665  32.612  1.00  0.00    -0.206 F 
ATOM     87  C   UNL A   1      47.786  26.045  34.944  1.00  0.00     0.022 A 
BRANCH  84  88
ATOM     88  S   UNL A   1      46.342  24.186  36.439  1.00  0.00     0.124 S 
ATOM     89  O   UNL A   1      45.753  24.927  37.550  1.00  0.00    -0.237 OA
ATOM     90  O   UNL A   1      45.464  23.229  35.775  1.00  0.00    -0.237 OA
ATOM     91  O   UNL A   1      47.710  23.720  36.661  1.00  0.00    -0.744 OA
ENDBRANCH  84  88
ENDBRANCH  58  81
ENDBRANCH  32  33
ENDBRANCH  25  27
ENDBRANCH  24  25
ENDBRANCH  23  24
ENDBRANCH  22  23
ENDBRANCH   1  22
TORSDOF 20
ENDMDL
MODEL 2
REMARK VINA RESULT:     -10.3      0.946      7.624
REMARK SMILES CSc1ncccc1C(=O)N1CSC[C@H]1C(=O)OCCOCCOC(=O)c1ccc(-c2c3nc(c(-c4cc(S(=O)(=O)[O-])ccc4F)c4ccc([nH]4)c(-c4cc(S(=O)(=O)[O-])ccc4F)c4nc(c(-c5cc(S(=O)(=O)[O-])ccc5F)c5ccc2[nH]5)C=C4)C=C3)cc1
REMARK SMILES IDX 21 1 20 2 19 3 18 4 16 5 17 6 15 7 11 8 12 9 13 10 14 11
REMARK SMILES IDX 9 12 10 13 8 14 3 15 4 16 5 17 7 18 6 19 2 20 1 21 22 22
REMARK SMILES IDX 23 23 24 24 25 25 26 26 27 27 28 28 89 29 29 30 88 31 30 32
REMARK SMILES IDX 31 33 32 34 82 35 33 36 87 37 81 38 83 39 34 40 86 41 80 42
REMARK SMILES IDX 79 43 35 45 67 46 47 47 66 48 48 49 51 50 65 51 84 52 49 53
REMARK SMILES IDX 50 54 64 56 85 57 52 58 36 59 37 60 45 61 38 62 44 63 46 64
REMARK SMILES IDX 43 65 39 66 40 67 41 68 42 69 68 70 69 71 77 72 70 73 76 74
REMARK SMILES IDX 78 75 75 76 71 77 72 78 73 79 74 80 53 81 54 82 62 83 55 84
REMARK SMILES IDX 61 85 63 86 60 87 56 88 57 89 58 90 59 91
REMARK H PARENT 83 44 51 55
REMARK Flexibility Score: inf
ROOT
ATOM      1  O   UNL A   1      31.305  29.676  24.242  1.00  0.00    -0.374 OA
ENDROOT
BRANCH   1   2
ATOM      2  C   UNL A   1      30.832  28.384  23.876  1.00  0.00     0.202 C 
BRANCH   2   3
ATOM      3  C   UNL A   1      31.478  27.168  24.545  1.00  0.00     0.261 C 
BRANCH   3   4
ATOM      4  O   UNL A   1      31.860  26.130  23.620  1.00  0.00    -0.462 OA
BRANCH   4   5
ATOM      5  C   UNL A   1      31.076  25.020  23.662  1.00  0.00     0.329 C 
ATOM      6  O   UNL A   1      29.870  25.009  23.422  1.00  0.00    -0.250 OA
BRANCH   5   7
ATOM      7  C   UNL A   1      31.782  23.761  24.170  1.00  0.00     0.206 C 
ATOM      8  N   UNL A   1      33.209  23.753  24.527  1.00  0.00    -0.315 N 
ATOM      9  C   UNL A   1      33.459  24.086  25.911  1.00  0.00     0.191 C 
ATOM     10  S   UNL A   1      32.103  23.326  26.824  1.00  0.00    -0.138 SA
ATOM     11  C   UNL A   1      30.988  23.265  25.386  1.00  0.00     0.108 C 
BRANCH   8  12
ATOM     12  C   UNL A   1      34.137  23.288  23.601  1.00  0.00     0.258 C 
ATOM     13  O   UNL A   1      33.991  23.480  22.396  1.00  0.00    -0.269 OA
BRANCH  12  14
ATOM     14  C   UNL A   1      35.210  22.358  24.045  1.00  0.00     0.072 A 
ATOM     15  C   UNL A   1      34.979  21.076  24.547  1.00  0.00     0.108 A 
ATOM     16  N   UNL A   1      35.982  20.305  25.058  1.00  0.00    -0.249 NA
ATOM     17  C   UNL A   1      37.224  20.826  25.117  1.00  0.00     0.112 A 
ATOM     18  C   UNL A   1      36.517  22.868  24.134  1.00  0.00     0.018 A 
ATOM     19  C   UNL A   1      37.539  22.092  24.671  1.00  0.00     0.021 A 
BRANCH  15  20
ATOM     20  S   UNL A   1      33.390  20.283  24.631  1.00  0.00    -0.109 SA
ATOM     21  C   UNL A   1      33.936  18.562  24.524  1.00  0.00     0.092 C 
ENDBRANCH  15  20
ENDBRANCH  12  14
ENDBRANCH   8  12
ENDBRANCH   5   7
ENDBRANCH   4   5
ENDBRANCH   3   4
ENDBRANCH   2   3
ENDBRANCH   1   2
BRANCH   1  22
ATOM     22  C   UNL A   1      32.171  29.775  25.368  1.00  0.00     0.202 C 
BRANCH  22  23
ATOM     23  C   UNL A   1      31.882  30.854  26.421  1.00  0.00     0.261 C 
BRANCH  23  24
ATOM     24  O   UNL A   1      32.735  30.843  27.575  1.00  0.00    -0.460 OA
BRANCH  24  25
ATOM     25  C   UNL A   1      33.589  31.895  27.643  1.00  0.00     0.338 C 
ATOM     26  O   UNL A   1      33.315  33.081  27.504  1.00  0.00    -0.246 OA
BRANCH  25  27
ATOM     27  C   UNL A   1      34.921  31.439  28.072  1.00  0.00     0.060 A 
ATOM     28  C   UNL A   1      35.060  30.099  28.452  1.00  0.00     0.016 A 
ATOM     29  C   UNL A   1      35.994  32.326  28.185  1.00  0.00     0.016 A 
ATOM     30  C   UNL A   1      36.266  29.648  28.984  1.00  0.00     0.010 A 
ATOM     31  C   UNL A   1      37.202  31.873  28.727  1.00  0.00     0.010 A 
ATOM     32  C   UNL A   1      37.333  30.540  29.158  1.00  0.00    -0.014 A 
BRANCH  32  33
ATOM     33  C   UNL A   1      38.525  30.103  29.924  1.00  0.00     0.031 A 
ATOM     34  C   UNL A   1      39.438  29.069  29.324  1.00  0.00     0.074 A 
ATOM     35  C   UNL A   1      38.808  30.652  31.119  1.00  0.00     0.049 A 
ATOM     36  N   UNL A   1      40.536  28.548  29.808  1.00  0.00    -0.248 NA
ATOM     37  C   UNL A   1      39.055  28.551  28.002  1.00  0.00     0.031 C 
ATOM     38  C   UNL A   1      38.010  31.682  31.781  1.00  0.00     0.029 A 
ATOM     39  N   UNL A   1      39.844  30.418  31.986  1.00  0.00    -0.354 N 
ATOM     40  C   UNL A   1      40.979  27.641  28.851  1.00  0.00     0.074 A 
ATOM     41  C   UNL A   1      40.003  27.652  27.781  1.00  0.00     0.031 C 
ATOM     42  C   UNL A   1      38.584  31.989  32.957  1.00  0.00     0.029 A 
ATOM     43  C   UNL A   1      39.770  31.157  33.144  1.00  0.00     0.049 A 
ATOM     44  H   UNL A   1      40.571  29.782  31.799  1.00  0.00     0.167 HD
ATOM     45  C   UNL A   1      42.101  26.880  28.859  1.00  0.00     0.034 A 
ATOM     46  C   UNL A   1      40.562  31.148  34.235  1.00  0.00     0.034 A 
ATOM     47  C   UNL A   1      43.054  26.872  29.942  1.00  0.00     0.049 A 
ATOM     48  C   UNL A   1      41.768  30.242  34.255  1.00  0.00     0.074 A 
ATOM     49  C   UNL A   1      44.237  26.160  30.048  1.00  0.00     0.029 A 
ATOM     50  N   UNL A   1      42.927  27.603  31.118  1.00  0.00    -0.354 N 
ATOM     51  N   UNL A   1      42.190  29.407  33.332  1.00  0.00    -0.248 NA
ATOM     52  C   UNL A   1      42.610  30.286  35.458  1.00  0.00     0.031 C 
ATOM     53  C   UNL A   1      44.783  26.402  31.314  1.00  0.00     0.029 A 
ATOM     54  C   UNL A   1      43.986  27.328  31.970  1.00  0.00     0.049 A 
ATOM     55  H   UNL A   1      42.191  28.225  31.317  1.00  0.00     0.167 HD
ATOM     56  C   UNL A   1      43.362  28.846  33.835  1.00  0.00     0.074 A 
ATOM     57  C   UNL A   1      43.586  29.450  35.133  1.00  0.00     0.031 C 
ATOM     58  C   UNL A   1      44.183  27.922  33.272  1.00  0.00     0.034 A 
BRANCH  45  59
ATOM     59  C   UNL A   1      42.317  25.956  27.683  1.00  0.00     0.023 A 
ATOM     60  C   UNL A   1      41.812  24.643  27.666  1.00  0.00     0.031 A 
ATOM     61  C   UNL A   1      43.080  26.378  26.580  1.00  0.00     0.131 A 
ATOM     62  C   UNL A   1      42.144  23.776  26.614  1.00  0.00     0.055 A 
ATOM     63  C   UNL A   1      43.338  25.537  25.496  1.00  0.00     0.041 A 
ATOM     64  F   UNL A   1      43.609  27.612  26.547  1.00  0.00    -0.206 F 
ATOM     65  C   UNL A   1      42.885  24.222  25.517  1.00  0.00     0.022 A 
BRANCH  62  66
ATOM     66  S   UNL A   1      41.733  22.018  26.776  1.00  0.00     0.124 S 
ATOM     67  O   UNL A   1      42.109  21.504  25.461  1.00  0.00    -0.237 OA
ATOM     68  O   UNL A   1      42.574  21.599  27.891  1.00  0.00    -0.237 OA
ATOM     69  O   UNL A   1      40.296  22.024  27.046  1.00  0.00    -0.744 OA
ENDBRANCH  62  66
ENDBRANCH  45  59
BRANCH  46  70
ATOM     70  C   UNL A   1      40.225  31.999  35.412  1.00  0.00     0.023 A 
ATOM     71  C   UNL A   1      39.249  31.609  36.341  1.00  0.00     0.031 A 
ATOM     72  C   UNL A   1      40.860  33.240  35.602  1.00  0.00     0.131 A 
ATOM     73  C   UNL A   1      38.909  32.467  37.399  1.00  0.00     0.055 A 
ATOM     74  C   UNL A   1      40.553  34.069  36.683  1.00  0.00     0.041 A 
ATOM     75  F   UNL A   1      41.803  33.659  34.743  1.00  0.00    -0.206 F 
ATOM     76  C   UNL A   1      39.564  33.689  37.583  1.00  0.00     0.022 A 
BRANCH  73  77
ATOM     77  S   UNL A   1      37.550  31.994  38.504  1.00  0.00     0.124 S 
ATOM     78  O   UNL A   1      38.164  32.154  39.816  1.00  0.00    -0.237 OA
ATOM     79  O   UNL A   1      36.522  32.967  38.152  1.00  0.00    -0.237 OA
ATOM     80  O   UNL A   1      37.259  30.616  38.113  1.00  0.00    -0.744 OA
ENDBRANCH  73  77
ENDBRANCH  46  70
BRANCH  58  81
ATOM     81  C   UNL A   1      45.419  27.539  34.053  1.00  0.00     0.023 A 
ATOM     82  C   UNL A   1      45.421  26.456  34.948  1.00  0.00     0.031 A 
ATOM     83  C   UNL A   1      46.606  28.277  33.904  1.00  0.00     0.131 A 
ATOM     84  C   UNL A   1      46.571  26.176  35.704  1.00  0.00     0.055 A 
ATOM     85  C   UNL A   1      47.765  27.956  34.613  1.00  0.00     0.041 A 
ATOM     86  F   UNL A   1      46.660  29.324  33.064  1.00  0.00    -0.206 F 
ATOM     87  C   UNL A   1      47.747  26.909  35.530  1.00  0.00     0.022 A 
BRANCH  84  88
ATOM     88  S   UNL A   1      46.479  24.898  36.988  1.00  0.00     0.124 S 
ATOM     89  O   UNL A   1      45.587  23.917  36.378  1.00  0.00    -0.237 OA
ATOM     90  O   UNL A   1      47.873  24.493  37.127  1.00  0.00    -0.237 OA
ATOM     91  O   UNL A   1      45.923  25.608  38.139  1.00  0.00    -0.744 OA
ENDBRANCH  84  88
ENDBRANCH  58  81
ENDBRANCH  32  33
ENDBRANCH  25  27
ENDBRANCH  24  25
ENDBRANCH  23  24
ENDBRANCH  22  23
ENDBRANCH   1  22
TORSDOF 20
ENDMDL
MODEL 3
REMARK VINA RESULT:     -10.3      4.815     10.430
REMARK SMILES CSc1ncccc1C(=O)N1CSC[C@H]1C(=O)OCCOCCOC(=O)c1ccc(-c2c3nc(c(-c4cc(S(=O)(=O)[O-])ccc4F)c4ccc([nH]4)c(-c4cc(S(=O)(=O)[O-])ccc4F)c4nc(c(-c5cc(S(=O)(=O)[O-])ccc5F)c5ccc2[nH]5)C=C4)C=C3)cc1
REMARK SMILES IDX 21 1 20 2 19 3 18 4 16 5 17 6 15 7 11 8 12 9 13 10 14 11
REMARK SMILES IDX 9 12 10 13 8 14 3 15 4 16 5 17 7 18 6 19 2 20 1 21 22 22
REMARK SMILES IDX 23 23 24 24 25 25 26 26 27 27 28 28 89 29 29 30 88 31 30 32
REMARK SMILES IDX 31 33 32 34 82 35 33 36 87 37 81 38 83 39 34 40 86 41 80 42
REMARK SMILES IDX 79 43 35 45 67 46 47 47 66 48 48 49 51 50 65 51 84 52 49 53
REMARK SMILES IDX 50 54 64 56 85 57 52 58 36 59 37 60 45 61 38 62 44 63 46 64
REMARK SMILES IDX 43 65 39 66 40 67 41 68 42 69 68 70 69 71 77 72 70 73 76 74
REMARK SMILES IDX 78 75 75 76 71 77 72 78 73 79 74 80 53 81 54 82 62 83 55 84
REMARK SMILES IDX 61 85 63 86 60 87 56 88 57 89 58 90 59 91
REMARK H PARENT 83 44 51 55
REMARK Flexibility Score: inf
ROOT
ATOM      1  O   UNL A   1      36.455  20.674  25.525  1.00  0.00    -0.374 OA
ENDROOT
BRANCH   1   2
ATOM      2  C   UNL A   1      35.147  20.566  24.974  1.00  0.00     0.202 C 
BRANCH   2   3
ATOM      3  C   UNL A   1      34.315  21.846  24.846  1.00  0.00     0.261 C 
BRANCH   3   4
ATOM      4  O   UNL A   1      32.926  21.607  24.541  1.00  0.00    -0.462 OA
BRANCH   4   5
ATOM      5  C   UNL A   1      32.059  22.445  25.170  1.00  0.00     0.329 C 
ATOM      6  O   UNL A   1      31.539  22.219  26.262  1.00  0.00    -0.250 OA
BRANCH   5   7
ATOM      7  C   UNL A   1      31.652  23.672  24.352  1.00  0.00     0.206 C 
ATOM      8  N   UNL A   1      32.181  25.015  24.639  1.00  0.00    -0.315 N 
ATOM      9  C   UNL A   1      33.401  25.318  23.926  1.00  0.00     0.191 C 
ATOM     10  S   UNL A   1      33.198  24.550  22.308  1.00  0.00    -0.138 SA
ATOM     11  C   UNL A   1      31.956  23.349  22.883  1.00  0.00     0.108 C 
BRANCH   8  12
ATOM     12  C   UNL A   1      31.417  25.896  25.398  1.00  0.00     0.258 C 
ATOM     13  O   UNL A   1      30.807  25.519  26.395  1.00  0.00    -0.269 OA
BRANCH  12  14
ATOM     14  C   UNL A   1      31.154  27.266  24.882  1.00  0.00     0.072 A 
ATOM     15  C   UNL A   1      31.619  28.436  25.486  1.00  0.00     0.108 A 
ATOM     16  N   UNL A   1      31.251  29.674  25.049  1.00  0.00    -0.249 NA
ATOM     17  C   UNL A   1      30.373  29.759  24.029  1.00  0.00     0.112 A 
ATOM     18  C   UNL A   1      30.233  27.398  23.827  1.00  0.00     0.018 A 
ATOM     19  C   UNL A   1      29.841  28.659  23.391  1.00  0.00     0.021 A 
BRANCH  15  20
ATOM     20  S   UNL A   1      32.700  28.496  26.896  1.00  0.00    -0.109 SA
ATOM     21  C   UNL A   1      33.260  30.209  26.739  1.00  0.00     0.092 C 
ENDBRANCH  15  20
ENDBRANCH  12  14
ENDBRANCH   8  12
ENDBRANCH   5   7
ENDBRANCH   4   5
ENDBRANCH   3   4
ENDBRANCH   2   3
ENDBRANCH   1   2
BRANCH   1  22
ATOM     22  C   UNL A   1      37.558  20.309  24.700  1.00  0.00     0.202 C 
BRANCH  22  23
ATOM     23  C   UNL A   1      38.731  19.554  25.340  1.00  0.00     0.261 C 
BRANCH  23  24
ATOM     24  O   UNL A   1      39.250  20.119  26.553  1.00  0.00    -0.460 OA
BRANCH  24  25
ATOM     25  C   UNL A   1      40.564  20.450  26.494  1.00  0.00     0.338 C 
ATOM     26  O   UNL A   1      41.468  19.801  25.982  1.00  0.00    -0.246 OA
BRANCH  25  27
ATOM     27  C   UNL A   1      40.766  21.815  27.006  1.00  0.00     0.060 A 
ATOM     28  C   UNL A   1      40.213  22.874  26.277  1.00  0.00     0.016 A 
ATOM     29  C   UNL A   1      41.556  22.061  28.133  1.00  0.00     0.016 A 
ATOM     30  C   UNL A   1      40.480  24.189  26.650  1.00  0.00     0.010 A 
ATOM     31  C   UNL A   1      41.830  23.382  28.500  1.00  0.00     0.010 A 
ATOM     32  C   UNL A   1      41.319  24.452  27.742  1.00  0.00    -0.014 A 
BRANCH  32  33
ATOM     33  C   UNL A   1      41.770  25.843  27.990  1.00  0.00     0.031 A 
ATOM     34  C   UNL A   1      43.115  26.276  27.474  1.00  0.00     0.074 A 
ATOM     35  C   UNL A   1      40.974  26.716  28.633  1.00  0.00     0.049 A 
ATOM     36  N   UNL A   1      43.707  27.439  27.566  1.00  0.00    -0.248 NA
ATOM     37  C   UNL A   1      43.898  25.255  26.762  1.00  0.00     0.031 C 
ATOM     38  C   UNL A   1      39.640  26.413  29.150  1.00  0.00     0.029 A 
ATOM     39  N   UNL A   1      41.171  28.033  28.959  1.00  0.00    -0.354 N 
ATOM     40  C   UNL A   1      44.932  27.292  26.923  1.00  0.00     0.074 A 
ATOM     41  C   UNL A   1      45.013  25.914  26.488  1.00  0.00     0.031 C 
ATOM     42  C   UNL A   1      39.140  27.515  29.736  1.00  0.00     0.029 A 
ATOM     43  C   UNL A   1      40.128  28.588  29.661  1.00  0.00     0.049 A 
ATOM     44  H   UNL A   1      41.983  28.532  28.715  1.00  0.00     0.167 HD
ATOM     45  C   UNL A   1      45.892  28.226  26.707  1.00  0.00     0.034 A 
ATOM     46  C   UNL A   1      39.995  29.819  30.197  1.00  0.00     0.034 A 
ATOM     47  C   UNL A   1      45.797  29.591  27.162  1.00  0.00     0.049 A 
ATOM     48  C   UNL A   1      41.105  30.822  30.005  1.00  0.00     0.074 A 
ATOM     49  C   UNL A   1      46.697  30.628  26.980  1.00  0.00     0.029 A 
ATOM     50  N   UNL A   1      44.744  30.110  27.907  1.00  0.00    -0.354 N 
ATOM     51  N   UNL A   1      42.249  30.680  29.373  1.00  0.00    -0.248 NA
ATOM     52  C   UNL A   1      40.902  32.154  30.589  1.00  0.00     0.031 C 
ATOM     53  C   UNL A   1      46.224  31.747  27.675  1.00  0.00     0.029 A 
ATOM     54  C   UNL A   1      44.989  31.437  28.225  1.00  0.00     0.049 A 
ATOM     55  H   UNL A   1      43.939  29.608  28.169  1.00  0.00     0.167 HD
ATOM     56  C   UNL A   1      42.888  31.914  29.462  1.00  0.00     0.074 A 
ATOM     57  C   UNL A   1      41.996  32.790  30.195  1.00  0.00     0.031 C 
ATOM     58  C   UNL A   1      44.100  32.292  28.976  1.00  0.00     0.034 A 
BRANCH  45  59
ATOM     59  C   UNL A   1      47.145  27.773  25.993  1.00  0.00     0.023 A 
ATOM     60  C   UNL A   1      47.359  28.038  24.628  1.00  0.00     0.031 A 
ATOM     61  C   UNL A   1      48.120  27.025  26.677  1.00  0.00     0.131 A 
ATOM     62  C   UNL A   1      48.473  27.489  23.974  1.00  0.00     0.055 A 
ATOM     63  C   UNL A   1      49.268  26.552  26.039  1.00  0.00     0.041 A 
ATOM     64  F   UNL A   1      47.961  26.721  27.975  1.00  0.00    -0.206 F 
ATOM     65  C   UNL A   1      49.441  26.767  24.676  1.00  0.00     0.022 A 
BRANCH  62  66
ATOM     66  S   UNL A   1      48.555  27.594  22.165  1.00  0.00     0.124 S 
ATOM     67  O   UNL A   1      48.575  26.182  21.788  1.00  0.00    -0.237 OA
ATOM     68  O   UNL A   1      47.338  28.327  21.836  1.00  0.00    -0.237 OA
ATOM     69  O   UNL A   1      49.803  28.314  21.919  1.00  0.00    -0.744 OA
ENDBRANCH  62  66
ENDBRANCH  45  59
BRANCH  46  70
ATOM     70  C   UNL A   1      38.781  30.163  30.992  1.00  0.00     0.023 A 
ATOM     71  C   UNL A   1      37.774  30.987  30.469  1.00  0.00     0.031 A 
ATOM     72  C   UNL A   1      38.632  29.691  32.308  1.00  0.00     0.131 A 
ATOM     73  C   UNL A   1      36.678  31.345  31.270  1.00  0.00     0.055 A 
ATOM     74  C   UNL A   1      37.518  30.011  33.086  1.00  0.00     0.041 A 
ATOM     75  F   UNL A   1      39.567  28.897  32.855  1.00  0.00    -0.206 F 
ATOM     76  C   UNL A   1      36.537  30.852  32.571  1.00  0.00     0.022 A 
BRANCH  73  77
ATOM     77  S   UNL A   1      35.463  32.521  30.612  1.00  0.00     0.124 S 
ATOM     78  O   UNL A   1      34.320  32.287  31.487  1.00  0.00    -0.237 OA
ATOM     79  O   UNL A   1      36.152  33.795  30.782  1.00  0.00    -0.237 OA
ATOM     80  O   UNL A   1      35.289  32.089  29.226  1.00  0.00    -0.744 OA
ENDBRANCH  73  77
ENDBRANCH  46  70
BRANCH  58  81
ATOM     81  C   UNL A   1      44.507  33.730  29.197  1.00  0.00     0.023 A 
ATOM     82  C   UNL A   1      44.024  34.769  28.383  1.00  0.00     0.031 A 
ATOM     83  C   UNL A   1      45.401  34.060  30.231  1.00  0.00     0.131 A 
ATOM     84  C   UNL A   1      44.481  36.081  28.580  1.00  0.00     0.055 A 
ATOM     85  C   UNL A   1      45.805  35.376  30.461  1.00  0.00     0.041 A 
ATOM     86  F   UNL A   1      45.896  33.107  31.038  1.00  0.00    -0.206 F 
ATOM     87  C   UNL A   1      45.355  36.394  29.624  1.00  0.00     0.022 A 
BRANCH  84  88
ATOM     88  S   UNL A   1      43.990  37.362  27.393  1.00  0.00     0.124 S 
ATOM     89  O   UNL A   1      45.260  37.681  26.749  1.00  0.00    -0.237 OA
ATOM     90  O   UNL A   1      43.013  36.663  26.565  1.00  0.00    -0.237 OA
ATOM     91  O   UNL A   1      43.441  38.420  28.239  1.00  0.00    -0.744 OA
ENDBRANCH  84  88
ENDBRANCH  58  81
ENDBRANCH  32  33
ENDBRANCH  25  27
ENDBRANCH  24  25
ENDBRANCH  23  24
ENDBRANCH  22  23
ENDBRANCH   1  22
TORSDOF 20
ENDMDL
