MODEL 1
REMARK VINA RESULT:     -11.0      0.000      0.000
REMARK SMILES [NH3+][C@H](Cc1ccc(O)c(F)c1)C(=O)OCCOCCOC(=O)c1ccc(-c2c3nc(c(-c4cc(S(=O)(=O)[O-])ccc4F)c4ccc([nH]4)c(-c4cc(S(=O)(=O)[O-])ccc4F)c4nc(c(-c5cc(S(=O)(=O)[O-])ccc5F)c5ccc2[nH]5)C=C4)C=C3)cc1
REMARK SMILES IDX 17 1 16 2 15 3 14 4 12 5 13 6 2 7 1 8 3 12 4 13 5 14 11 15
REMARK SMILES IDX 6 16 9 17 7 18 10 19 8 20 18 22 19 23 20 24 21 25 22 26
REMARK SMILES IDX 23 27 24 28 85 29 25 30 84 31 26 32 27 33 28 34 78 35 29 36
REMARK SMILES IDX 83 37 77 38 79 39 30 40 82 41 76 42 75 43 31 45 63 46 43 47
REMARK SMILES IDX 62 48 44 49 47 50 61 51 80 52 45 53 46 54 60 56 81 57 48 58
REMARK SMILES IDX 32 59 33 60 41 61 34 62 40 63 42 64 39 65 35 66 36 67 37 68
REMARK SMILES IDX 38 69 64 70 65 71 73 72 66 73 72 74 74 75 71 76 67 77 68 78
REMARK SMILES IDX 69 79 70 80 49 81 50 82 58 83 51 84 57 85 59 86 56 87 52 88
REMARK SMILES IDX 53 89 54 90 55 91
REMARK H PARENT 1 9 1 10 1 11 8 21 79 44 47 55
REMARK Flexibility Score: inf
ROOT
ATOM      1  O   UNL A   1      32.506  30.149  25.569  1.00  0.00    -0.374 OA
ENDROOT
BRANCH   1   2
ATOM      2  C   UNL A   1      32.691  28.966  26.350  1.00  0.00     0.202 C 
BRANCH   2   3
ATOM      3  C   UNL A   1      33.083  27.711  25.568  1.00  0.00     0.261 C 
BRANCH   3   4
ATOM      4  O   UNL A   1      32.757  27.872  24.175  1.00  0.00    -0.459 OA
BRANCH   4   5
ATOM      5  C   UNL A   1      31.501  27.511  23.804  1.00  0.00     0.365 C 
ATOM      6  O   UNL A   1      30.931  26.495  24.189  1.00  0.00    -0.245 OA
BRANCH   5   7
ATOM      7  C   UNL A   1      30.828  28.567  22.896  1.00  0.00     0.296 C 
BRANCH   7   8
ATOM      8  N   UNL A   1      31.825  29.558  22.430  1.00  0.00    -0.346 N 
ATOM      9  H   UNL A   1      31.782  29.631  21.414  1.00  0.00     0.345 HD
ATOM     10  H   UNL A   1      32.759  29.259  22.710  1.00  0.00     0.345 HD
ATOM     11  H   UNL A   1      31.620  30.467  22.846  1.00  0.00     0.345 HD
ENDBRANCH   7   8
BRANCH   7  12
ATOM     12  C   UNL A   1      29.502  29.187  23.407  1.00  0.00     0.113 C 
BRANCH  12  13
ATOM     13  C   UNL A   1      28.956  30.383  22.660  1.00  0.00    -0.038 A 
ATOM     14  C   UNL A   1      28.385  30.206  21.387  1.00  0.00     0.008 A 
ATOM     15  C   UNL A   1      28.972  31.666  23.219  1.00  0.00     0.047 A 
ATOM     16  C   UNL A   1      27.879  31.294  20.669  1.00  0.00     0.049 A 
ATOM     17  C   UNL A   1      28.480  32.748  22.495  1.00  0.00     0.165 A 
ATOM     18  C   UNL A   1      27.940  32.566  21.224  1.00  0.00     0.151 A 
ATOM     19  F   UNL A   1      28.540  33.971  23.040  1.00  0.00    -0.203 F 
BRANCH  18  20
ATOM     20  O   UNL A   1      27.482  33.652  20.535  1.00  0.00    -0.505 OA
ATOM     21  H   UNL A   1      26.564  33.840  20.514  1.00  0.00     0.293 HD
ENDBRANCH  18  20
ENDBRANCH  12  13
ENDBRANCH   7  12
ENDBRANCH   5   7
ENDBRANCH   4   5
ENDBRANCH   3   4
ENDBRANCH   2   3
ENDBRANCH   1   2
BRANCH   1  22
ATOM     22  C   UNL A   1      31.439  31.021  25.936  1.00  0.00     0.202 C 
BRANCH  22  23
ATOM     23  C   UNL A   1      31.697  31.971  27.114  1.00  0.00     0.261 C 
BRANCH  23  24
ATOM     24  O   UNL A   1      32.547  33.080  26.765  1.00  0.00    -0.460 OA
BRANCH  24  25
ATOM     25  C   UNL A   1      33.155  33.674  27.822  1.00  0.00     0.338 C 
ATOM     26  O   UNL A   1      32.687  34.560  28.529  1.00  0.00    -0.246 OA
BRANCH  25  27
ATOM     27  C   UNL A   1      34.422  32.994  28.150  1.00  0.00     0.060 A 
ATOM     28  C   UNL A   1      34.348  31.645  28.523  1.00  0.00     0.016 A 
ATOM     29  C   UNL A   1      35.643  33.671  28.181  1.00  0.00     0.016 A 
ATOM     30  C   UNL A   1      35.487  30.982  28.978  1.00  0.00     0.010 A 
ATOM     31  C   UNL A   1      36.784  33.002  28.646  1.00  0.00     0.010 A 
ATOM     32  C   UNL A   1      36.705  31.666  29.080  1.00  0.00    -0.014 A 
BRANCH  32  33
ATOM     33  C   UNL A   1      37.845  31.021  29.782  1.00  0.00     0.031 A 
ATOM     34  C   UNL A   1      38.126  31.393  31.214  1.00  0.00     0.074 A 
ATOM     35  C   UNL A   1      38.590  30.082  29.171  1.00  0.00     0.049 A 
ATOM     36  N   UNL A   1      39.073  30.973  32.012  1.00  0.00    -0.248 NA
ATOM     37  C   UNL A   1      37.214  32.372  31.823  1.00  0.00     0.031 C 
ATOM     38  C   UNL A   1      38.385  29.601  27.806  1.00  0.00     0.029 A 
ATOM     39  N   UNL A   1      39.669  29.364  29.622  1.00  0.00    -0.354 N 
ATOM     40  C   UNL A   1      38.874  31.635  33.220  1.00  0.00     0.074 A 
ATOM     41  C   UNL A   1      37.739  32.513  33.032  1.00  0.00     0.031 C 
ATOM     42  C   UNL A   1      39.315  28.671  27.527  1.00  0.00     0.029 A 
ATOM     43  C   UNL A   1      40.203  28.517  28.679  1.00  0.00     0.049 A 
ATOM     44  H   UNL A   1      40.029  29.447  30.535  1.00  0.00     0.167 HD
ATOM     45  C   UNL A   1      39.567  31.514  34.380  1.00  0.00     0.034 A 
ATOM     46  C   UNL A   1      41.295  27.728  28.730  1.00  0.00     0.034 A 
ATOM     47  C   UNL A   1      40.706  30.643  34.550  1.00  0.00     0.049 A 
ATOM     48  C   UNL A   1      42.109  27.680  30.002  1.00  0.00     0.074 A 
ATOM     49  C   UNL A   1      41.472  30.437  35.684  1.00  0.00     0.029 A 
ATOM     50  N   UNL A   1      41.252  29.842  33.554  1.00  0.00    -0.354 N 
ATOM     51  N   UNL A   1      41.908  28.309  31.138  1.00  0.00    -0.248 NA
ATOM     52  C   UNL A   1      43.294  26.812  29.999  1.00  0.00     0.031 C 
ATOM     53  C   UNL A   1      42.520  29.570  35.356  1.00  0.00     0.029 A 
ATOM     54  C   UNL A   1      42.364  29.170  34.040  1.00  0.00     0.049 A 
ATOM     55  H   UNL A   1      40.900  29.764  32.639  1.00  0.00     0.167 HD
ATOM     56  C   UNL A   1      42.924  27.885  31.992  1.00  0.00     0.074 A 
ATOM     57  C   UNL A   1      43.727  26.940  31.244  1.00  0.00     0.031 C 
ATOM     58  C   UNL A   1      43.166  28.239  33.280  1.00  0.00     0.034 A 
BRANCH  45  59
ATOM     59  C   UNL A   1      39.141  32.390  35.534  1.00  0.00     0.023 A 
ATOM     60  C   UNL A   1      39.587  33.717  35.662  1.00  0.00     0.031 A 
ATOM     61  C   UNL A   1      38.298  31.879  36.536  1.00  0.00     0.131 A 
ATOM     62  C   UNL A   1      39.245  34.463  36.800  1.00  0.00     0.055 A 
ATOM     63  C   UNL A   1      37.898  32.653  37.628  1.00  0.00     0.041 A 
ATOM     64  F   UNL A   1      37.858  30.612  36.480  1.00  0.00    -0.206 F 
ATOM     65  C   UNL A   1      38.384  33.949  37.772  1.00  0.00     0.022 A 
BRANCH  62  66
ATOM     66  S   UNL A   1      40.055  36.065  37.064  1.00  0.00     0.124 S 
ATOM     67  O   UNL A   1      39.286  36.603  38.185  1.00  0.00    -0.237 OA
ATOM     68  O   UNL A   1      41.430  35.679  37.359  1.00  0.00    -0.237 OA
ATOM     69  O   UNL A   1      39.859  36.761  35.794  1.00  0.00    -0.744 OA
ENDBRANCH  62  66
ENDBRANCH  45  59
BRANCH  46  70
ATOM     70  C   UNL A   1      41.722  26.948  27.532  1.00  0.00     0.023 A 
ATOM     71  C   UNL A   1      41.520  25.562  27.454  1.00  0.00     0.031 A 
ATOM     72  C   UNL A   1      42.395  27.578  26.470  1.00  0.00     0.131 A 
ATOM     73  C   UNL A   1      42.026  24.843  26.359  1.00  0.00     0.055 A 
ATOM     74  C   UNL A   1      42.848  26.866  25.358  1.00  0.00     0.041 A 
ATOM     75  F   UNL A   1      42.620  28.901  26.498  1.00  0.00    -0.206 F 
ATOM     76  C   UNL A   1      42.676  25.488  25.305  1.00  0.00     0.022 A 
BRANCH  73  77
ATOM     77  S   UNL A   1      41.896  23.033  26.374  1.00  0.00     0.124 S 
ATOM     78  O   UNL A   1      42.698  22.687  27.542  1.00  0.00    -0.237 OA
ATOM     79  O   UNL A   1      40.457  22.833  26.502  1.00  0.00    -0.237 OA
ATOM     80  O   UNL A   1      42.466  22.640  25.086  1.00  0.00    -0.744 OA
ENDBRANCH  73  77
ENDBRANCH  46  70
BRANCH  58  81
ATOM     81  C   UNL A   1      44.323  27.561  33.975  1.00  0.00     0.023 A 
ATOM     82  C   UNL A   1      44.154  26.380  34.720  1.00  0.00     0.031 A 
ATOM     83  C   UNL A   1      45.615  28.113  33.896  1.00  0.00     0.131 A 
ATOM     84  C   UNL A   1      45.247  25.820  35.399  1.00  0.00     0.055 A 
ATOM     85  C   UNL A   1      46.709  27.520  34.527  1.00  0.00     0.041 A 
ATOM     86  F   UNL A   1      45.834  29.240  33.200  1.00  0.00    -0.206 F 
ATOM     87  C   UNL A   1      46.526  26.373  35.294  1.00  0.00     0.022 A 
BRANCH  84  88
ATOM     88  S   UNL A   1      44.961  24.402  36.495  1.00  0.00     0.124 S 
ATOM     89  O   UNL A   1      46.314  24.082  36.938  1.00  0.00    -0.237 OA
ATOM     90  O   UNL A   1      44.074  24.964  37.508  1.00  0.00    -0.237 OA
ATOM     91  O   UNL A   1      44.345  23.408  35.618  1.00  0.00    -0.744 OA
ENDBRANCH  84  88
ENDBRANCH  58  81
ENDBRANCH  32  33
ENDBRANCH  25  27
ENDBRANCH  24  25
ENDBRANCH  23  24
ENDBRANCH  22  23
ENDBRANCH   1  22
TORSDOF 21
ENDMDL
MODEL 2
REMARK VINA RESULT:     -10.5      5.689      8.417
REMARK SMILES [NH3+][C@H](Cc1ccc(O)c(F)c1)C(=O)OCCOCCOC(=O)c1ccc(-c2c3nc(c(-c4cc(S(=O)(=O)[O-])ccc4F)c4ccc([nH]4)c(-c4cc(S(=O)(=O)[O-])ccc4F)c4nc(c(-c5cc(S(=O)(=O)[O-])ccc5F)c5ccc2[nH]5)C=C4)C=C3)cc1
REMARK SMILES IDX 17 1 16 2 15 3 14 4 12 5 13 6 2 7 1 8 3 12 4 13 5 14 11 15
REMARK SMILES IDX 6 16 9 17 7 18 10 19 8 20 18 22 19 23 20 24 21 25 22 26
REMARK SMILES IDX 23 27 24 28 85 29 25 30 84 31 26 32 27 33 28 34 78 35 29 36
REMARK SMILES IDX 83 37 77 38 79 39 30 40 82 41 76 42 75 43 31 45 63 46 43 47
REMARK SMILES IDX 62 48 44 49 47 50 61 51 80 52 45 53 46 54 60 56 81 57 48 58
REMARK SMILES IDX 32 59 33 60 41 61 34 62 40 63 42 64 39 65 35 66 36 67 37 68
REMARK SMILES IDX 38 69 64 70 65 71 73 72 66 73 72 74 74 75 71 76 67 77 68 78
REMARK SMILES IDX 69 79 70 80 49 81 50 82 58 83 51 84 57 85 59 86 56 87 52 88
REMARK SMILES IDX 53 89 54 90 55 91
REMARK H PARENT 1 9 1 10 1 11 8 21 79 44 47 55
REMARK Flexibility Score: inf
ROOT
ATOM      1  O   UNL A   1      35.412  22.033  26.325  1.00  0.00    -0.374 OA
ENDROOT
BRANCH   1   2
ATOM      2  C   UNL A   1      34.194  22.745  26.565  1.00  0.00     0.202 C 
BRANCH   2   3
ATOM      3  C   UNL A   1      33.296  22.169  27.661  1.00  0.00     0.261 C 
BRANCH   3   4
ATOM      4  O   UNL A   1      32.150  23.018  27.861  1.00  0.00    -0.459 OA
BRANCH   4   5
ATOM      5  C   UNL A   1      31.836  23.856  26.838  1.00  0.00     0.365 C 
ATOM      6  O   UNL A   1      32.436  24.897  26.587  1.00  0.00    -0.245 OA
BRANCH   5   7
ATOM      7  C   UNL A   1      30.677  23.316  25.968  1.00  0.00     0.296 C 
BRANCH   7   8
ATOM      8  N   UNL A   1      29.747  22.509  26.791  1.00  0.00    -0.346 N 
ATOM      9  H   UNL A   1      28.799  22.604  26.425  1.00  0.00     0.345 HD
ATOM     10  H   UNL A   1      29.773  22.838  27.756  1.00  0.00     0.345 HD
ATOM     11  H   UNL A   1      30.027  21.529  26.758  1.00  0.00     0.345 HD
ENDBRANCH   7   8
BRANCH   7  12
ATOM     12  C   UNL A   1      31.062  22.665  24.615  1.00  0.00     0.113 C 
BRANCH  12  13
ATOM     13  C   UNL A   1      31.599  23.570  23.531  1.00  0.00    -0.038 A 
ATOM     14  C   UNL A   1      32.696  23.152  22.755  1.00  0.00     0.008 A 
ATOM     15  C   UNL A   1      31.011  24.809  23.252  1.00  0.00     0.047 A 
ATOM     16  C   UNL A   1      33.220  23.971  21.750  1.00  0.00     0.049 A 
ATOM     17  C   UNL A   1      31.545  25.627  22.260  1.00  0.00     0.165 A 
ATOM     18  C   UNL A   1      32.647  25.215  21.515  1.00  0.00     0.151 A 
ATOM     19  F   UNL A   1      30.984  26.824  22.038  1.00  0.00    -0.203 F 
BRANCH  18  20
ATOM     20  O   UNL A   1      33.155  26.049  20.562  1.00  0.00    -0.505 OA
ATOM     21  H   UNL A   1      32.838  26.928  20.491  1.00  0.00     0.293 HD
ENDBRANCH  18  20
ENDBRANCH  12  13
ENDBRANCH   7  12
ENDBRANCH   5   7
ENDBRANCH   4   5
ENDBRANCH   3   4
ENDBRANCH   2   3
ENDBRANCH   1   2
BRANCH   1  22
ATOM     22  C   UNL A   1      35.376  20.966  25.380  1.00  0.00     0.202 C 
BRANCH  22  23
ATOM     23  C   UNL A   1      36.724  20.342  24.991  1.00  0.00     0.261 C 
BRANCH  23  24
ATOM     24  O   UNL A   1      37.799  21.299  24.963  1.00  0.00    -0.460 OA
BRANCH  24  25
ATOM     25  C   UNL A   1      38.850  20.985  25.759  1.00  0.00     0.338 C 
ATOM     26  O   UNL A   1      39.383  19.885  25.863  1.00  0.00    -0.246 OA
BRANCH  25  27
ATOM     27  C   UNL A   1      39.417  22.195  26.383  1.00  0.00     0.060 A 
ATOM     28  C   UNL A   1      38.823  23.422  26.061  1.00  0.00     0.016 A 
ATOM     29  C   UNL A   1      40.556  22.151  27.192  1.00  0.00     0.016 A 
ATOM     30  C   UNL A   1      39.393  24.614  26.505  1.00  0.00     0.010 A 
ATOM     31  C   UNL A   1      41.131  23.352  27.630  1.00  0.00     0.010 A 
ATOM     32  C   UNL A   1      40.573  24.591  27.259  1.00  0.00    -0.014 A 
BRANCH  32  33
ATOM     33  C   UNL A   1      41.294  25.863  27.524  1.00  0.00     0.031 A 
ATOM     34  C   UNL A   1      40.614  26.931  28.341  1.00  0.00     0.074 A 
ATOM     35  C   UNL A   1      42.553  26.047  27.087  1.00  0.00     0.049 A 
ATOM     36  N   UNL A   1      41.045  28.119  28.679  1.00  0.00    -0.248 NA
ATOM     37  C   UNL A   1      39.269  26.612  28.840  1.00  0.00     0.031 C 
ATOM     38  C   UNL A   1      43.333  25.069  26.332  1.00  0.00     0.029 A 
ATOM     39  N   UNL A   1      43.396  27.122  27.218  1.00  0.00    -0.354 N 
ATOM     40  C   UNL A   1      40.024  28.693  29.431  1.00  0.00     0.074 A 
ATOM     41  C   UNL A   1      38.939  27.734  29.462  1.00  0.00     0.031 C 
ATOM     42  C   UNL A   1      44.542  25.593  26.059  1.00  0.00     0.029 A 
ATOM     43  C   UNL A   1      44.606  26.955  26.587  1.00  0.00     0.049 A 
ATOM     44  H   UNL A   1      43.157  27.937  27.716  1.00  0.00     0.167 HD
ATOM     45  C   UNL A   1      39.998  29.902  30.044  1.00  0.00     0.034 A 
ATOM     46  C   UNL A   1      45.638  27.810  26.433  1.00  0.00     0.034 A 
ATOM     47  C   UNL A   1      41.081  30.854  29.994  1.00  0.00     0.049 A 
ATOM     48  C   UNL A   1      45.549  29.188  27.045  1.00  0.00     0.074 A 
ATOM     49  C   UNL A   1      41.161  32.102  30.588  1.00  0.00     0.029 A 
ATOM     50  N   UNL A   1      42.270  30.672  29.297  1.00  0.00    -0.354 N 
ATOM     51  N   UNL A   1      44.579  29.717  27.756  1.00  0.00    -0.248 NA
ATOM     52  C   UNL A   1      46.696  30.082  26.837  1.00  0.00     0.031 C 
ATOM     53  C   UNL A   1      42.364  32.701  30.195  1.00  0.00     0.029 A 
ATOM     54  C   UNL A   1      43.071  31.798  29.419  1.00  0.00     0.049 A 
ATOM     55  H   UNL A   1      42.507  29.862  28.792  1.00  0.00     0.167 HD
ATOM     56  C   UNL A   1      45.016  30.992  28.106  1.00  0.00     0.074 A 
ATOM     57  C   UNL A   1      46.339  31.148  27.538  1.00  0.00     0.031 C 
ATOM     58  C   UNL A   1      44.385  31.946  28.837  1.00  0.00     0.034 A 
BRANCH  45  59
ATOM     59  C   UNL A   1      38.730  30.279  30.775  1.00  0.00     0.023 A 
ATOM     60  C   UNL A   1      37.691  30.983  30.142  1.00  0.00     0.031 A 
ATOM     61  C   UNL A   1      38.573  29.953  32.133  1.00  0.00     0.131 A 
ATOM     62  C   UNL A   1      36.574  31.399  30.883  1.00  0.00     0.055 A 
ATOM     63  C   UNL A   1      37.423  30.301  32.846  1.00  0.00     0.041 A 
ATOM     64  F   UNL A   1      39.540  29.301  32.797  1.00  0.00    -0.206 F 
ATOM     65  C   UNL A   1      36.422  31.041  32.225  1.00  0.00     0.022 A 
BRANCH  62  66
ATOM     66  S   UNL A   1      35.389  32.532  30.108  1.00  0.00     0.124 S 
ATOM     67  O   UNL A   1      34.377  32.662  31.155  1.00  0.00    -0.237 OA
ATOM     68  O   UNL A   1      36.203  33.715  29.856  1.00  0.00    -0.237 OA
ATOM     69  O   UNL A   1      34.952  31.808  28.916  1.00  0.00    -0.744 OA
ENDBRANCH  62  66
ENDBRANCH  45  59
BRANCH  46  70
ATOM     70  C   UNL A   1      46.831  27.418  25.628  1.00  0.00     0.023 A 
ATOM     71  C   UNL A   1      46.993  27.854  24.305  1.00  0.00     0.031 A 
ATOM     72  C   UNL A   1      47.799  26.546  26.159  1.00  0.00     0.131 A 
ATOM     73  C   UNL A   1      48.074  27.383  23.541  1.00  0.00     0.055 A 
ATOM     74  C   UNL A   1      48.901  26.124  25.413  1.00  0.00     0.041 A 
ATOM     75  F   UNL A   1      47.688  26.094  27.418  1.00  0.00    -0.206 F 
ATOM     76  C   UNL A   1      49.036  26.533  24.091  1.00  0.00     0.022 A 
BRANCH  73  77
ATOM     77  S   UNL A   1      48.159  27.833  21.785  1.00  0.00     0.124 S 
ATOM     78  O   UNL A   1      46.871  28.487  21.583  1.00  0.00    -0.237 OA
ATOM     79  O   UNL A   1      49.331  28.700  21.750  1.00  0.00    -0.237 OA
ATOM     80  O   UNL A   1      48.318  26.545  21.111  1.00  0.00    -0.744 OA
ENDBRANCH  73  77
ENDBRANCH  46  70
BRANCH  58  81
ATOM     81  C   UNL A   1      45.143  33.226  29.102  1.00  0.00     0.023 A 
ATOM     82  C   UNL A   1      45.028  34.346  28.260  1.00  0.00     0.031 A 
ATOM     83  C   UNL A   1      46.001  33.319  30.212  1.00  0.00     0.131 A 
ATOM     84  C   UNL A   1      45.799  35.492  28.512  1.00  0.00     0.055 A 
ATOM     85  C   UNL A   1      46.722  34.481  30.490  1.00  0.00     0.041 A 
ATOM     86  F   UNL A   1      46.151  32.280  31.050  1.00  0.00    -0.206 F 
ATOM     87  C   UNL A   1      46.632  35.573  29.631  1.00  0.00     0.022 A 
BRANCH  84  88
ATOM     88  S   UNL A   1      45.764  36.850  27.308  1.00  0.00     0.124 S 
ATOM     89  O   UNL A   1      46.563  36.307  26.215  1.00  0.00    -0.237 OA
ATOM     90  O   UNL A   1      44.337  36.997  27.044  1.00  0.00    -0.237 OA
ATOM     91  O   UNL A   1      46.377  37.964  28.029  1.00  0.00    -0.744 OA
ENDBRANCH  84  88
ENDBRANCH  58  81
ENDBRANCH  32  33
ENDBRANCH  25  27
ENDBRANCH  24  25
ENDBRANCH  23  24
ENDBRANCH  22  23
ENDBRANCH   1  22
TORSDOF 21
ENDMDL
MODEL 3
REMARK VINA RESULT:     -10.4      5.077      8.084
REMARK SMILES [NH3+][C@H](Cc1ccc(O)c(F)c1)C(=O)OCCOCCOC(=O)c1ccc(-c2c3nc(c(-c4cc(S(=O)(=O)[O-])ccc4F)c4ccc([nH]4)c(-c4cc(S(=O)(=O)[O-])ccc4F)c4nc(c(-c5cc(S(=O)(=O)[O-])ccc5F)c5ccc2[nH]5)C=C4)C=C3)cc1
REMARK SMILES IDX 17 1 16 2 15 3 14 4 12 5 13 6 2 7 1 8 3 12 4 13 5 14 11 15
REMARK SMILES IDX 6 16 9 17 7 18 10 19 8 20 18 22 19 23 20 24 21 25 22 26
REMARK SMILES IDX 23 27 24 28 85 29 25 30 84 31 26 32 27 33 28 34 78 35 29 36
REMARK SMILES IDX 83 37 77 38 79 39 30 40 82 41 76 42 75 43 31 45 63 46 43 47
REMARK SMILES IDX 62 48 44 49 47 50 61 51 80 52 45 53 46 54 60 56 81 57 48 58
REMARK SMILES IDX 32 59 33 60 41 61 34 62 40 63 42 64 39 65 35 66 36 67 37 68
REMARK SMILES IDX 38 69 64 70 65 71 73 72 66 73 72 74 74 75 71 76 67 77 68 78
REMARK SMILES IDX 69 79 70 80 49 81 50 82 58 83 51 84 57 85 59 86 56 87 52 88
REMARK SMILES IDX 53 89 54 90 55 91
REMARK H PARENT 1 9 1 10 1 11 8 21 79 44 47 55
REMARK Flexibility Score: inf
ROOT
ATOM      1  O   UNL A   1      34.499  21.762  26.977  1.00  0.00    -0.374 OA
ENDROOT
BRANCH   1   2
ATOM      2  C   UNL A   1      33.129  22.170  26.932  1.00  0.00     0.202 C 
BRANCH   2   3
ATOM      3  C   UNL A   1      32.325  21.658  25.735  1.00  0.00     0.261 C 
BRANCH   3   4
ATOM      4  O   UNL A   1      31.037  22.301  25.691  1.00  0.00    -0.459 OA
BRANCH   4   5
ATOM      5  C   UNL A   1      30.990  23.515  25.081  1.00  0.00     0.365 C 
ATOM      6  O   UNL A   1      31.219  23.700  23.890  1.00  0.00    -0.245 OA
BRANCH   5   7
ATOM      7  C   UNL A   1      30.540  24.640  26.042  1.00  0.00     0.296 C 
BRANCH   7   8
ATOM      8  N   UNL A   1      29.496  24.142  26.967  1.00  0.00    -0.346 N 
ATOM      9  H   UNL A   1      29.930  23.848  27.843  1.00  0.00     0.345 HD
ATOM     10  H   UNL A   1      29.016  23.348  26.544  1.00  0.00     0.345 HD
ATOM     11  H   UNL A   1      28.824  24.886  27.154  1.00  0.00     0.345 HD
ENDBRANCH   7   8
BRANCH   7  12
ATOM     12  C   UNL A   1      30.224  26.018  25.406  1.00  0.00     0.113 C 
BRANCH  12  13
ATOM     13  C   UNL A   1      31.217  27.136  25.632  1.00  0.00    -0.038 A 
ATOM     14  C   UNL A   1      31.546  27.519  26.945  1.00  0.00     0.008 A 
ATOM     15  C   UNL A   1      31.849  27.782  24.563  1.00  0.00     0.047 A 
ATOM     16  C   UNL A   1      32.454  28.554  27.185  1.00  0.00     0.049 A 
ATOM     17  C   UNL A   1      32.742  28.821  24.807  1.00  0.00     0.165 A 
ATOM     18  C   UNL A   1      33.041  29.211  26.110  1.00  0.00     0.151 A 
ATOM     19  F   UNL A   1      33.306  29.446  23.764  1.00  0.00    -0.203 F 
BRANCH  18  20
ATOM     20  O   UNL A   1      33.909  30.245  26.313  1.00  0.00    -0.505 OA
ATOM     21  H   UNL A   1      33.586  31.124  26.362  1.00  0.00     0.293 HD
ENDBRANCH  18  20
ENDBRANCH  12  13
ENDBRANCH   7  12
ENDBRANCH   5   7
ENDBRANCH   4   5
ENDBRANCH   3   4
ENDBRANCH   2   3
ENDBRANCH   1   2
BRANCH   1  22
ATOM     22  C   UNL A   1      35.312  22.061  25.845  1.00  0.00     0.202 C 
BRANCH  22  23
ATOM     23  C   UNL A   1      36.254  20.951  25.358  1.00  0.00     0.261 C 
BRANCH  23  24
ATOM     24  O   UNL A   1      37.525  21.451  24.903  1.00  0.00    -0.460 OA
BRANCH  24  25
ATOM     25  C   UNL A   1      38.580  21.079  25.669  1.00  0.00     0.338 C 
ATOM     26  O   UNL A   1      39.096  19.967  25.711  1.00  0.00    -0.246 OA
BRANCH  25  27
ATOM     27  C   UNL A   1      39.175  22.246  26.347  1.00  0.00     0.060 A 
ATOM     28  C   UNL A   1      38.663  23.509  26.019  1.00  0.00     0.016 A 
ATOM     29  C   UNL A   1      40.264  22.128  27.214  1.00  0.00     0.016 A 
ATOM     30  C   UNL A   1      39.270  24.661  26.516  1.00  0.00     0.010 A 
ATOM     31  C   UNL A   1      40.876  23.289  27.706  1.00  0.00     0.010 A 
ATOM     32  C   UNL A   1      40.405  24.562  27.332  1.00  0.00    -0.014 A 
BRANCH  32  33
ATOM     33  C   UNL A   1      41.176  25.789  27.660  1.00  0.00     0.031 A 
ATOM     34  C   UNL A   1      40.500  26.890  28.436  1.00  0.00     0.074 A 
ATOM     35  C   UNL A   1      42.471  25.903  27.318  1.00  0.00     0.049 A 
ATOM     36  N   UNL A   1      40.971  28.049  28.816  1.00  0.00    -0.248 NA
ATOM     37  C   UNL A   1      39.106  26.646  28.833  1.00  0.00     0.031 C 
ATOM     38  C   UNL A   1      43.248  24.887  26.611  1.00  0.00     0.029 A 
ATOM     39  N   UNL A   1      43.363  26.927  27.519  1.00  0.00    -0.354 N 
ATOM     40  C   UNL A   1      39.933  28.677  29.498  1.00  0.00     0.074 A 
ATOM     41  C   UNL A   1      38.797  27.781  29.442  1.00  0.00     0.031 C 
ATOM     42  C   UNL A   1      44.501  25.342  26.431  1.00  0.00     0.029 A 
ATOM     43  C   UNL A   1      44.604  26.694  26.976  1.00  0.00     0.049 A 
ATOM     44  H   UNL A   1      43.134  27.752  28.006  1.00  0.00     0.167 HD
ATOM     45  C   UNL A   1      39.931  29.882  30.120  1.00  0.00     0.034 A 
ATOM     46  C   UNL A   1      45.691  27.490  26.905  1.00  0.00     0.034 A 
ATOM     47  C   UNL A   1      41.067  30.770  30.157  1.00  0.00     0.049 A 
ATOM     48  C   UNL A   1      45.636  28.867  27.522  1.00  0.00     0.074 A 
ATOM     49  C   UNL A   1      41.175  32.008  30.768  1.00  0.00     0.029 A 
ATOM     50  N   UNL A   1      42.291  30.524  29.547  1.00  0.00    -0.354 N 
ATOM     51  N   UNL A   1      44.649  29.447  28.167  1.00  0.00    -0.248 NA
ATOM     52  C   UNL A   1      46.844  29.695  27.407  1.00  0.00     0.031 C 
ATOM     53  C   UNL A   1      42.435  32.539  30.468  1.00  0.00     0.029 A 
ATOM     54  C   UNL A   1      43.145  31.601  29.737  1.00  0.00     0.049 A 
ATOM     55  H   UNL A   1      42.519  29.705  29.051  1.00  0.00     0.167 HD
ATOM     56  C   UNL A   1      45.131  30.693  28.559  1.00  0.00     0.074 A 
ATOM     57  C   UNL A   1      46.498  30.776  28.090  1.00  0.00     0.031 C 
ATOM     58  C   UNL A   1      44.503  31.678  29.252  1.00  0.00     0.034 A 
BRANCH  45  59
ATOM     59  C   UNL A   1      38.637  30.327  30.761  1.00  0.00     0.023 A 
ATOM     60  C   UNL A   1      37.622  30.957  30.020  1.00  0.00     0.031 A 
ATOM     61  C   UNL A   1      38.430  30.141  32.139  1.00  0.00     0.131 A 
ATOM     62  C   UNL A   1      36.478  31.442  30.674  1.00  0.00     0.055 A 
ATOM     63  C   UNL A   1      37.254  30.556  32.769  1.00  0.00     0.041 A 
ATOM     64  F   UNL A   1      39.373  29.565  32.901  1.00  0.00    -0.206 F 
ATOM     65  C   UNL A   1      36.276  31.224  32.039  1.00  0.00     0.022 A 
BRANCH  62  66
ATOM     66  S   UNL A   1      35.322  32.485  29.743  1.00  0.00     0.124 S 
ATOM     67  O   UNL A   1      34.865  31.563  28.705  1.00  0.00    -0.237 OA
ATOM     68  O   UNL A   1      34.337  32.846  30.756  1.00  0.00    -0.237 OA
ATOM     69  O   UNL A   1      36.159  33.583  29.265  1.00  0.00    -0.744 OA
ENDBRANCH  62  66
ENDBRANCH  45  59
BRANCH  46  70
ATOM     70  C   UNL A   1      46.915  27.035  26.185  1.00  0.00     0.023 A 
ATOM     71  C   UNL A   1      47.959  26.385  26.860  1.00  0.00     0.031 A 
ATOM     72  C   UNL A   1      47.081  27.301  24.814  1.00  0.00     0.131 A 
ATOM     73  C   UNL A   1      49.141  26.062  26.174  1.00  0.00     0.055 A 
ATOM     74  C   UNL A   1      48.236  26.929  24.124  1.00  0.00     0.041 A 
ATOM     75  F   UNL A   1      46.115  27.926  24.122  1.00  0.00    -0.206 F 
ATOM     76  C   UNL A   1      49.281  26.317  24.808  1.00  0.00     0.022 A 
BRANCH  73  77
ATOM     77  S   UNL A   1      50.533  25.377  27.116  1.00  0.00     0.124 S 
ATOM     78  O   UNL A   1      51.456  25.001  26.051  1.00  0.00    -0.237 OA
ATOM     79  O   UNL A   1      50.932  26.514  27.937  1.00  0.00    -0.237 OA
ATOM     80  O   UNL A   1      49.934  24.261  27.846  1.00  0.00    -0.744 OA
ENDBRANCH  73  77
ENDBRANCH  46  70
BRANCH  58  81
ATOM     81  C   UNL A   1      45.312  32.910  29.584  1.00  0.00     0.023 A 
ATOM     82  C   UNL A   1      45.420  33.991  28.691  1.00  0.00     0.031 A 
ATOM     83  C   UNL A   1      45.991  32.998  30.813  1.00  0.00     0.131 A 
ATOM     84  C   UNL A   1      46.232  35.088  29.016  1.00  0.00     0.055 A 
ATOM     85  C   UNL A   1      46.751  34.117  31.155  1.00  0.00     0.041 A 
ATOM     86  F   UNL A   1      45.924  31.995  31.704  1.00  0.00    -0.206 F 
ATOM     87  C   UNL A   1      46.885  35.166  30.250  1.00  0.00     0.022 A 
BRANCH  84  88
ATOM     88  S   UNL A   1      46.495  36.381  27.770  1.00  0.00     0.124 S 
ATOM     89  O   UNL A   1      45.145  36.583  27.253  1.00  0.00    -0.237 OA
ATOM     90  O   UNL A   1      47.045  37.474  28.565  1.00  0.00    -0.237 OA
ATOM     91  O   UNL A   1      47.432  35.767  26.831  1.00  0.00    -0.744 OA
ENDBRANCH  84  88
ENDBRANCH  58  81
ENDBRANCH  32  33
ENDBRANCH  25  27
ENDBRANCH  24  25
ENDBRANCH  23  24
ENDBRANCH  22  23
ENDBRANCH   1  22
TORSDOF 21
ENDMDL
