MODEL 1
REMARK VINA RESULT:     -12.3      0.000      0.000
REMARK SMILES O=C(CC1(C(=O)OCCOCCOC(=O)c2ccc(-c3c4nc(c(-c5cc(S(=O)(=O)[O-])ccc5F)c5ccc([nH]5)c(-c5cc(S(=O)(=O)[O-])ccc5F)c5nc(c(-c6cc(S(=O)(=O)[O-])ccc6F)c6ccc3[nH]6)C=C5)C=C4)cc2)CCCCC1)Nc1ccc(N2CCOC2=O)cc1
REMARK SMILES IDX 9 1 8 2 7 3 5 4 6 5 4 6 79 7 83 8 80 9 82 10 81 11 3 12 2 13
REMARK SMILES IDX 1 14 84 15 85 17 86 18 96 19 87 20 95 21 88 22 89 23 90 24
REMARK SMILES IDX 93 25 91 26 92 27 94 28 10 29 11 30 12 31 13 32 14 33 15 34
REMARK SMILES IDX 16 35 17 36 78 37 18 38 77 39 19 40 20 41 21 42 71 43 22 44
REMARK SMILES IDX 76 45 70 46 72 47 23 48 75 49 69 50 68 51 24 53 56 54 36 55
REMARK SMILES IDX 55 56 37 57 40 58 54 59 73 60 38 61 39 62 53 64 74 65 41 66
REMARK SMILES IDX 25 67 26 68 34 69 27 70 33 71 35 72 32 73 28 74 29 75 30 76
REMARK SMILES IDX 31 77 57 78 58 79 66 80 59 81 65 82 67 83 64 84 60 85 61 86
REMARK SMILES IDX 62 87 63 88 42 89 43 90 51 91 44 92 50 93 52 94 49 95 45 96
REMARK SMILES IDX 46 97 47 98 48 99
REMARK H PARENT 84 16 72 52 40 63
REMARK Flexibility Score: inf
ROOT
ATOM      1  C   UNL A   1      32.336  27.699  26.028  1.00  0.00     0.202 C 
ENDROOT
BRANCH   1   2
ATOM      2  C   UNL A   1      33.333  26.608  25.631  1.00  0.00     0.261 C 
BRANCH   2   3
ATOM      3  O   UNL A   1      32.674  25.357  25.359  1.00  0.00    -0.463 OA
BRANCH   3   4
ATOM      4  C   UNL A   1      33.341  24.510  24.539  1.00  0.00     0.312 C 
ATOM      5  O   UNL A   1      34.454  24.734  24.074  1.00  0.00    -0.252 OA
BRANCH   4   6
ATOM      6  C   UNL A   1      32.566  23.213  24.227  1.00  0.00     0.077 C 
ATOM      7  C   UNL A   1      31.899  22.835  25.578  1.00  0.00     0.019 C 
ATOM      8  C   UNL A   1      33.417  22.011  23.742  1.00  0.00     0.019 C 
ATOM      9  C   UNL A   1      32.908  22.313  26.609  1.00  0.00     0.001 C 
ATOM     10  C   UNL A   1      34.333  21.352  24.774  1.00  0.00     0.001 C 
ATOM     11  C   UNL A   1      33.638  21.082  26.096  1.00  0.00     0.000 C 
BRANCH   6  12
ATOM     12  C   UNL A   1      31.474  23.650  23.175  1.00  0.00     0.119 C 
BRANCH  12  13
ATOM     13  C   UNL A   1      31.315  25.109  22.738  1.00  0.00     0.225 C 
ATOM     14  O   UNL A   1      31.970  25.557  21.801  1.00  0.00    -0.275 OA
ATOM     15  N   UNL A   1      30.373  25.827  23.449  1.00  0.00    -0.326 N 
ATOM     16  H   UNL A   1      29.943  25.373  24.210  1.00  0.00     0.169 HD
BRANCH  15  17
ATOM     17  C   UNL A   1      29.975  27.149  23.181  1.00  0.00     0.041 A 
ATOM     18  C   UNL A   1      28.664  27.518  23.494  1.00  0.00     0.028 A 
ATOM     19  C   UNL A   1      30.820  28.080  22.582  1.00  0.00     0.028 A 
ATOM     20  C   UNL A   1      28.228  28.830  23.294  1.00  0.00     0.028 A 
ATOM     21  C   UNL A   1      30.352  29.369  22.290  1.00  0.00     0.028 A 
ATOM     22  C   UNL A   1      29.070  29.763  22.686  1.00  0.00     0.047 A 
BRANCH  22  23
ATOM     23  N   UNL A   1      28.668  31.100  22.556  1.00  0.00    -0.274 N 
ATOM     24  C   UNL A   1      28.862  32.070  23.586  1.00  0.00     0.171 C 
ATOM     25  C   UNL A   1      28.112  31.690  21.443  1.00  0.00     0.414 C 
ATOM     26  C   UNL A   1      28.793  33.358  22.802  1.00  0.00     0.257 C 
ATOM     27  O   UNL A   1      28.002  33.042  21.652  1.00  0.00    -0.447 OA
ATOM     28  O   UNL A   1      27.725  31.148  20.416  1.00  0.00    -0.224 OA
ENDBRANCH  22  23
ENDBRANCH  15  17
ENDBRANCH  12  13
ENDBRANCH   6  12
ENDBRANCH   4   6
ENDBRANCH   3   4
ENDBRANCH   2   3
ENDBRANCH   1   2
BRANCH   1  29
ATOM     29  O   UNL A   1      32.584  29.023  25.561  1.00  0.00    -0.374 OA
BRANCH  29  30
ATOM     30  C   UNL A   1      31.509  29.953  25.562  1.00  0.00     0.202 C 
BRANCH  30  31
ATOM     31  C   UNL A   1      31.680  31.278  26.315  1.00  0.00     0.261 C 
BRANCH  31  32
ATOM     32  O   UNL A   1      32.565  31.208  27.438  1.00  0.00    -0.460 OA
BRANCH  32  33
ATOM     33  C   UNL A   1      33.373  32.294  27.543  1.00  0.00     0.338 C 
ATOM     34  O   UNL A   1      33.029  33.464  27.532  1.00  0.00    -0.246 OA
BRANCH  33  35
ATOM     35  C   UNL A   1      34.745  31.885  27.872  1.00  0.00     0.060 A 
ATOM     36  C   UNL A   1      34.959  30.514  28.052  1.00  0.00     0.016 A 
ATOM     37  C   UNL A   1      35.760  32.812  28.111  1.00  0.00     0.016 A 
ATOM     38  C   UNL A   1      36.178  30.067  28.540  1.00  0.00     0.010 A 
ATOM     39  C   UNL A   1      36.988  32.358  28.603  1.00  0.00     0.010 A 
ATOM     40  C   UNL A   1      37.183  30.989  28.861  1.00  0.00    -0.014 A 
BRANCH  40  41
ATOM     41  C   UNL A   1      38.372  30.494  29.594  1.00  0.00     0.031 A 
ATOM     42  C   UNL A   1      38.563  30.885  31.033  1.00  0.00     0.074 A 
ATOM     43  C   UNL A   1      39.202  29.620  29.000  1.00  0.00     0.049 A 
ATOM     44  N   UNL A   1      39.483  30.503  31.880  1.00  0.00    -0.248 NA
ATOM     45  C   UNL A   1      37.586  31.831  31.595  1.00  0.00     0.031 C 
ATOM     46  C   UNL A   1      39.070  29.139  27.623  1.00  0.00     0.029 A 
ATOM     47  N   UNL A   1      40.302  28.960  29.481  1.00  0.00    -0.354 N 
ATOM     48  C   UNL A   1      39.199  31.161  33.073  1.00  0.00     0.074 A 
ATOM     49  C   UNL A   1      38.046  32.000  32.825  1.00  0.00     0.031 C 
ATOM     50  C   UNL A   1      40.038  28.242  27.380  1.00  0.00     0.029 A 
ATOM     51  C   UNL A   1      40.885  28.119  28.563  1.00  0.00     0.049 A 
ATOM     52  H   UNL A   1      40.642  29.077  30.397  1.00  0.00     0.167 HD
ATOM     53  C   UNL A   1      39.840  31.065  34.264  1.00  0.00     0.034 A 
ATOM     54  C   UNL A   1      41.985  27.349  28.666  1.00  0.00     0.034 A 
ATOM     55  C   UNL A   1      40.992  30.222  34.481  1.00  0.00     0.049 A 
ATOM     56  C   UNL A   1      42.726  27.324  29.980  1.00  0.00     0.074 A 
ATOM     57  C   UNL A   1      41.708  30.028  35.650  1.00  0.00     0.029 A 
ATOM     58  N   UNL A   1      41.607  29.444  33.508  1.00  0.00    -0.354 N 
ATOM     59  N   UNL A   1      42.438  27.937  31.105  1.00  0.00    -0.248 NA
ATOM     60  C   UNL A   1      43.934  26.492  30.038  1.00  0.00     0.031 C 
ATOM     61  C   UNL A   1      42.804  29.209  35.360  1.00  0.00     0.029 A 
ATOM     62  C   UNL A   1      42.720  28.808  34.036  1.00  0.00     0.049 A 
ATOM     63  H   UNL A   1      41.297  29.358  32.577  1.00  0.00     0.167 HD
ATOM     64  C   UNL A   1      43.415  27.540  32.015  1.00  0.00     0.074 A 
ATOM     65  C   UNL A   1      44.279  26.614  31.310  1.00  0.00     0.031 C 
ATOM     66  C   UNL A   1      43.586  27.905  33.312  1.00  0.00     0.034 A 
BRANCH  53  67
ATOM     67  C   UNL A   1      39.349  31.934  35.398  1.00  0.00     0.023 A 
ATOM     68  C   UNL A   1      38.680  31.402  36.515  1.00  0.00     0.031 A 
ATOM     69  C   UNL A   1      39.539  33.327  35.350  1.00  0.00     0.131 A 
ATOM     70  C   UNL A   1      38.172  32.261  37.503  1.00  0.00     0.055 A 
ATOM     71  C   UNL A   1      39.105  34.168  36.377  1.00  0.00     0.041 A 
ATOM     72  F   UNL A   1      40.143  33.898  34.297  1.00  0.00    -0.206 F 
ATOM     73  C   UNL A   1      38.406  33.638  37.456  1.00  0.00     0.022 A 
BRANCH  70  74
ATOM     74  S   UNL A   1      37.077  31.573  38.775  1.00  0.00     0.124 S 
ATOM     75  O   UNL A   1      36.917  30.196  38.314  1.00  0.00    -0.237 OA
ATOM     76  O   UNL A   1      37.858  31.753  39.994  1.00  0.00    -0.237 OA
ATOM     77  O   UNL A   1      35.875  32.398  38.676  1.00  0.00    -0.744 OA
ENDBRANCH  70  74
ENDBRANCH  53  67
BRANCH  54  78
ATOM     78  C   UNL A   1      42.474  26.564  27.495  1.00  0.00     0.023 A 
ATOM     79  C   UNL A   1      42.090  25.228  27.304  1.00  0.00     0.031 A 
ATOM     80  C   UNL A   1      43.385  27.124  26.580  1.00  0.00     0.131 A 
ATOM     81  C   UNL A   1      42.657  24.480  26.259  1.00  0.00     0.055 A 
ATOM     82  C   UNL A   1      43.894  26.397  25.504  1.00  0.00     0.041 A 
ATOM     83  F   UNL A   1      43.790  28.398  26.715  1.00  0.00    -0.206 F 
ATOM     84  C   UNL A   1      43.543  25.060  25.349  1.00  0.00     0.022 A 
BRANCH  81  85
ATOM     85  S   UNL A   1      42.301  22.704  26.173  1.00  0.00     0.124 S 
ATOM     86  O   UNL A   1      42.778  22.372  24.836  1.00  0.00    -0.237 OA
ATOM     87  O   UNL A   1      43.089  22.184  27.285  1.00  0.00    -0.237 OA
ATOM     88  O   UNL A   1      40.852  22.640  26.354  1.00  0.00    -0.744 OA
ENDBRANCH  81  85
ENDBRANCH  54  78
BRANCH  66  89
ATOM     89  C   UNL A   1      44.738  27.265  34.053  1.00  0.00     0.023 A 
ATOM     90  C   UNL A   1      44.595  26.034  34.717  1.00  0.00     0.031 A 
ATOM     91  C   UNL A   1      45.984  27.914  34.130  1.00  0.00     0.131 A 
ATOM     92  C   UNL A   1      45.648  25.535  35.497  1.00  0.00     0.055 A 
ATOM     93  C   UNL A   1      47.055  27.370  34.840  1.00  0.00     0.041 A 
ATOM     94  F   UNL A   1      46.179  29.094  33.519  1.00  0.00    -0.206 F 
ATOM     95  C   UNL A   1      46.884  26.184  35.546  1.00  0.00     0.022 A 
BRANCH  92  96
ATOM     96  S   UNL A   1      45.332  24.099  36.560  1.00  0.00     0.124 S 
ATOM     97  O   UNL A   1      44.457  24.667  37.581  1.00  0.00    -0.237 OA
ATOM     98  O   UNL A   1      44.708  23.158  35.637  1.00  0.00    -0.237 OA
ATOM     99  O   UNL A   1      46.664  23.719  37.027  1.00  0.00    -0.744 OA
ENDBRANCH  92  96
ENDBRANCH  66  89
ENDBRANCH  40  41
ENDBRANCH  33  35
ENDBRANCH  32  33
ENDBRANCH  31  32
ENDBRANCH  30  31
ENDBRANCH  29  30
ENDBRANCH   1  29
TORSDOF 21
ENDMDL
MODEL 2
REMARK VINA RESULT:     -12.2      2.274      8.947
REMARK SMILES O=C(CC1(C(=O)OCCOCCOC(=O)c2ccc(-c3c4nc(c(-c5cc(S(=O)(=O)[O-])ccc5F)c5ccc([nH]5)c(-c5cc(S(=O)(=O)[O-])ccc5F)c5nc(c(-c6cc(S(=O)(=O)[O-])ccc6F)c6ccc3[nH]6)C=C5)C=C4)cc2)CCCCC1)Nc1ccc(N2CCOC2=O)cc1
REMARK SMILES IDX 9 1 8 2 7 3 5 4 6 5 4 6 79 7 83 8 80 9 82 10 81 11 3 12 2 13
REMARK SMILES IDX 1 14 84 15 85 17 86 18 96 19 87 20 95 21 88 22 89 23 90 24
REMARK SMILES IDX 93 25 91 26 92 27 94 28 10 29 11 30 12 31 13 32 14 33 15 34
REMARK SMILES IDX 16 35 17 36 78 37 18 38 77 39 19 40 20 41 21 42 71 43 22 44
REMARK SMILES IDX 76 45 70 46 72 47 23 48 75 49 69 50 68 51 24 53 56 54 36 55
REMARK SMILES IDX 55 56 37 57 40 58 54 59 73 60 38 61 39 62 53 64 74 65 41 66
REMARK SMILES IDX 25 67 26 68 34 69 27 70 33 71 35 72 32 73 28 74 29 75 30 76
REMARK SMILES IDX 31 77 57 78 58 79 66 80 59 81 65 82 67 83 64 84 60 85 61 86
REMARK SMILES IDX 62 87 63 88 42 89 43 90 51 91 44 92 50 93 52 94 49 95 45 96
REMARK SMILES IDX 46 97 47 98 48 99
REMARK H PARENT 84 16 72 52 40 63
REMARK Flexibility Score: inf
ROOT
ATOM      1  C   UNL A   1      32.935  30.335  26.833  1.00  0.00     0.202 C 
ENDROOT
BRANCH   1   2
ATOM      2  C   UNL A   1      32.807  28.952  27.474  1.00  0.00     0.261 C 
BRANCH   2   3
ATOM      3  O   UNL A   1      33.008  27.899  26.513  1.00  0.00    -0.463 OA
BRANCH   3   4
ATOM      4  C   UNL A   1      31.945  27.084  26.307  1.00  0.00     0.312 C 
ATOM      5  O   UNL A   1      31.063  26.879  27.135  1.00  0.00    -0.252 OA
BRANCH   4   6
ATOM      6  C   UNL A   1      31.940  26.414  24.918  1.00  0.00     0.077 C 
ATOM      7  C   UNL A   1      32.000  27.604  23.923  1.00  0.00     0.019 C 
ATOM      8  C   UNL A   1      30.696  25.551  24.583  1.00  0.00     0.019 C 
ATOM      9  C   UNL A   1      30.682  28.387  23.858  1.00  0.00     0.001 C 
ATOM     10  C   UNL A   1      29.379  26.296  24.358  1.00  0.00     0.001 C 
ATOM     11  C   UNL A   1      29.526  27.493  23.436  1.00  0.00     0.000 C 
BRANCH   6  12
ATOM     12  C   UNL A   1      33.284  25.588  24.873  1.00  0.00     0.119 C 
BRANCH  12  13
ATOM     13  C   UNL A   1      33.349  24.130  25.337  1.00  0.00     0.225 C 
ATOM     14  O   UNL A   1      33.172  23.841  26.518  1.00  0.00    -0.275 OA
ATOM     15  N   UNL A   1      33.577  23.211  24.332  1.00  0.00    -0.326 N 
ATOM     16  H   UNL A   1      33.749  23.567  23.429  1.00  0.00     0.169 HD
BRANCH  15  17
ATOM     17  C   UNL A   1      33.585  21.814  24.484  1.00  0.00     0.041 A 
ATOM     18  C   UNL A   1      32.356  21.156  24.586  1.00  0.00     0.028 A 
ATOM     19  C   UNL A   1      34.762  21.076  24.577  1.00  0.00     0.028 A 
ATOM     20  C   UNL A   1      32.302  19.764  24.690  1.00  0.00     0.028 A 
ATOM     21  C   UNL A   1      34.710  19.690  24.782  1.00  0.00     0.028 A 
ATOM     22  C   UNL A   1      33.480  19.022  24.794  1.00  0.00     0.047 A 
BRANCH  22  23
ATOM     23  N   UNL A   1      33.434  17.622  24.817  1.00  0.00    -0.274 N 
ATOM     24  C   UNL A   1      33.046  16.879  25.974  1.00  0.00     0.171 C 
ATOM     25  C   UNL A   1      33.673  16.770  23.762  1.00  0.00     0.414 C 
ATOM     26  C   UNL A   1      32.640  15.561  25.363  1.00  0.00     0.257 C 
ATOM     27  O   UNL A   1      33.378  15.484  24.139  1.00  0.00    -0.447 OA
ATOM     28  O   UNL A   1      34.111  17.048  22.652  1.00  0.00    -0.224 OA
ENDBRANCH  22  23
ENDBRANCH  15  17
ENDBRANCH  12  13
ENDBRANCH   6  12
ENDBRANCH   4   6
ENDBRANCH   3   4
ENDBRANCH   2   3
ENDBRANCH   1   2
BRANCH   1  29
ATOM     29  O   UNL A   1      31.779  30.882  26.203  1.00  0.00    -0.374 OA
BRANCH  29  30
ATOM     30  C   UNL A   1      31.324  32.163  26.618  1.00  0.00     0.202 C 
BRANCH  30  31
ATOM     31  C   UNL A   1      32.362  33.255  26.911  1.00  0.00     0.261 C 
BRANCH  31  32
ATOM     32  O   UNL A   1      32.248  33.844  28.210  1.00  0.00    -0.460 OA
BRANCH  32  33
ATOM     33  C   UNL A   1      33.319  34.612  28.538  1.00  0.00     0.338 C 
ATOM     34  O   UNL A   1      33.329  35.820  28.702  1.00  0.00    -0.246 OA
BRANCH  33  35
ATOM     35  C   UNL A   1      34.474  33.767  28.871  1.00  0.00     0.060 A 
ATOM     36  C   UNL A   1      34.206  32.608  29.606  1.00  0.00     0.016 A 
ATOM     37  C   UNL A   1      35.784  34.151  28.578  1.00  0.00     0.016 A 
ATOM     38  C   UNL A   1      35.256  31.858  30.113  1.00  0.00     0.010 A 
ATOM     39  C   UNL A   1      36.841  33.392  29.091  1.00  0.00     0.010 A 
ATOM     40  C   UNL A   1      36.578  32.269  29.897  1.00  0.00    -0.014 A 
BRANCH  40  41
ATOM     41  C   UNL A   1      37.653  31.578  30.647  1.00  0.00     0.031 A 
ATOM     42  C   UNL A   1      38.480  30.533  29.951  1.00  0.00     0.074 A 
ATOM     43  C   UNL A   1      37.947  31.969  31.899  1.00  0.00     0.049 A 
ATOM     44  N   UNL A   1      39.516  29.868  30.391  1.00  0.00    -0.248 NA
ATOM     45  C   UNL A   1      38.089  30.193  28.573  1.00  0.00     0.031 C 
ATOM     46  C   UNL A   1      37.236  33.012  32.641  1.00  0.00     0.029 A 
ATOM     47  N   UNL A   1      38.932  31.559  32.758  1.00  0.00    -0.354 N 
ATOM     48  C   UNL A   1      39.900  29.029  29.348  1.00  0.00     0.074 A 
ATOM     49  C   UNL A   1      38.958  29.241  28.270  1.00  0.00     0.031 C 
ATOM     50  C   UNL A   1      37.825  33.176  33.836  1.00  0.00     0.029 A 
ATOM     51  C   UNL A   1      38.922  32.221  33.963  1.00  0.00     0.049 A 
ATOM     52  H   UNL A   1      39.584  30.857  32.533  1.00  0.00     0.167 HD
ATOM     53  C   UNL A   1      40.948  28.171  29.298  1.00  0.00     0.034 A 
ATOM     54  C   UNL A   1      39.703  32.061  35.048  1.00  0.00     0.034 A 
ATOM     55  C   UNL A   1      41.871  27.977  30.392  1.00  0.00     0.049 A 
ATOM     56  C   UNL A   1      40.812  31.039  34.993  1.00  0.00     0.074 A 
ATOM     57  C   UNL A   1      42.981  27.151  30.446  1.00  0.00     0.029 A 
ATOM     58  N   UNL A   1      41.785  28.604  31.629  1.00  0.00    -0.354 N 
ATOM     59  N   UNL A   1      41.177  30.265  33.996  1.00  0.00    -0.248 NA
ATOM     60  C   UNL A   1      41.621  30.880  36.207  1.00  0.00     0.031 C 
ATOM     61  C   UNL A   1      43.508  27.210  31.740  1.00  0.00     0.029 A 
ATOM     62  C   UNL A   1      42.791  28.147  32.468  1.00  0.00     0.049 A 
ATOM     63  H   UNL A   1      41.107  29.274  31.875  1.00  0.00     0.167 HD
ATOM     64  C   UNL A   1      42.278  29.548  34.455  1.00  0.00     0.074 A 
ATOM     65  C   UNL A   1      42.531  30.006  35.807  1.00  0.00     0.031 C 
ATOM     66  C   UNL A   1      43.015  28.597  33.823  1.00  0.00     0.034 A 
BRANCH  53  67
ATOM     67  C   UNL A   1      41.113  27.336  28.049  1.00  0.00     0.023 A 
ATOM     68  C   UNL A   1      40.756  25.977  28.003  1.00  0.00     0.031 A 
ATOM     69  C   UNL A   1      41.656  27.910  26.886  1.00  0.00     0.131 A 
ATOM     70  C   UNL A   1      41.004  25.225  26.844  1.00  0.00     0.055 A 
ATOM     71  C   UNL A   1      41.823  27.178  25.709  1.00  0.00     0.041 A 
ATOM     72  F   UNL A   1      42.044  29.195  26.875  1.00  0.00    -0.206 F 
ATOM     73  C   UNL A   1      41.509  25.824  25.686  1.00  0.00     0.022 A 
BRANCH  70  74
ATOM     74  S   UNL A   1      40.797  23.424  26.912  1.00  0.00     0.124 S 
ATOM     75  O   UNL A   1      39.457  23.260  26.353  1.00  0.00    -0.237 OA
ATOM     76  O   UNL A   1      41.898  22.948  26.084  1.00  0.00    -0.237 OA
ATOM     77  O   UNL A   1      40.909  23.120  28.337  1.00  0.00    -0.744 OA
ENDBRANCH  70  74
ENDBRANCH  53  67
BRANCH  54  78
ATOM     78  C   UNL A   1      39.455  32.857  36.285  1.00  0.00     0.023 A 
ATOM     79  C   UNL A   1      38.661  32.353  37.328  1.00  0.00     0.031 A 
ATOM     80  C   UNL A   1      39.960  34.163  36.418  1.00  0.00     0.131 A 
ATOM     81  C   UNL A   1      38.350  33.168  38.427  1.00  0.00     0.055 A 
ATOM     82  C   UNL A   1      39.703  34.946  37.543  1.00  0.00     0.041 A 
ATOM     83  F   UNL A   1      40.724  34.698  35.450  1.00  0.00    -0.206 F 
ATOM     84  C   UNL A   1      38.879  34.455  38.550  1.00  0.00     0.022 A 
BRANCH  81  85
ATOM     85  S   UNL A   1      37.153  32.560  39.645  1.00  0.00     0.124 S 
ATOM     86  O   UNL A   1      37.251  33.574  40.688  1.00  0.00    -0.237 OA
ATOM     87  O   UNL A   1      35.915  32.549  38.873  1.00  0.00    -0.237 OA
ATOM     88  O   UNL A   1      37.673  31.242  40.003  1.00  0.00    -0.744 OA
ENDBRANCH  81  85
ENDBRANCH  54  78
BRANCH  66  89
ATOM     89  C   UNL A   1      44.185  28.022  34.588  1.00  0.00     0.023 A 
ATOM     90  C   UNL A   1      44.049  26.878  35.392  1.00  0.00     0.031 A 
ATOM     91  C   UNL A   1      45.443  28.650  34.543  1.00  0.00     0.131 A 
ATOM     92  C   UNL A   1      45.124  26.448  36.184  1.00  0.00     0.055 A 
ATOM     93  C   UNL A   1      46.532  28.168  35.270  1.00  0.00     0.041 A 
ATOM     94  F   UNL A   1      45.633  29.749  33.795  1.00  0.00    -0.206 F 
ATOM     95  C   UNL A   1      46.371  27.073  36.113  1.00  0.00     0.022 A 
BRANCH  92  96
ATOM     96  S   UNL A   1      44.827  25.149  37.415  1.00  0.00     0.124 S 
ATOM     97  O   UNL A   1      45.410  25.735  38.618  1.00  0.00    -0.237 OA
ATOM     98  O   UNL A   1      43.373  25.033  37.402  1.00  0.00    -0.237 OA
ATOM     99  O   UNL A   1      45.546  23.996  36.875  1.00  0.00    -0.744 OA
ENDBRANCH  92  96
ENDBRANCH  66  89
ENDBRANCH  40  41
ENDBRANCH  33  35
ENDBRANCH  32  33
ENDBRANCH  31  32
ENDBRANCH  30  31
ENDBRANCH  29  30
ENDBRANCH   1  29
TORSDOF 21
ENDMDL
MODEL 3
REMARK VINA RESULT:     -12.1      2.329      5.290
REMARK SMILES O=C(CC1(C(=O)OCCOCCOC(=O)c2ccc(-c3c4nc(c(-c5cc(S(=O)(=O)[O-])ccc5F)c5ccc([nH]5)c(-c5cc(S(=O)(=O)[O-])ccc5F)c5nc(c(-c6cc(S(=O)(=O)[O-])ccc6F)c6ccc3[nH]6)C=C5)C=C4)cc2)CCCCC1)Nc1ccc(N2CCOC2=O)cc1
REMARK SMILES IDX 9 1 8 2 7 3 5 4 6 5 4 6 79 7 83 8 80 9 82 10 81 11 3 12 2 13
REMARK SMILES IDX 1 14 84 15 85 17 86 18 96 19 87 20 95 21 88 22 89 23 90 24
REMARK SMILES IDX 93 25 91 26 92 27 94 28 10 29 11 30 12 31 13 32 14 33 15 34
REMARK SMILES IDX 16 35 17 36 78 37 18 38 77 39 19 40 20 41 21 42 71 43 22 44
REMARK SMILES IDX 76 45 70 46 72 47 23 48 75 49 69 50 68 51 24 53 56 54 36 55
REMARK SMILES IDX 55 56 37 57 40 58 54 59 73 60 38 61 39 62 53 64 74 65 41 66
REMARK SMILES IDX 25 67 26 68 34 69 27 70 33 71 35 72 32 73 28 74 29 75 30 76
REMARK SMILES IDX 31 77 57 78 58 79 66 80 59 81 65 82 67 83 64 84 60 85 61 86
REMARK SMILES IDX 62 87 63 88 42 89 43 90 51 91 44 92 50 93 52 94 49 95 45 96
REMARK SMILES IDX 46 97 47 98 48 99
REMARK H PARENT 84 16 72 52 40 63
REMARK Flexibility Score: inf
ROOT
ATOM      1  C   UNL A   1      33.161  28.980  27.143  1.00  0.00     0.202 C 
ENDROOT
BRANCH   1   2
ATOM      2  C   UNL A   1      33.161  27.494  26.775  1.00  0.00     0.261 C 
BRANCH   2   3
ATOM      3  O   UNL A   1      32.993  27.296  25.359  1.00  0.00    -0.463 OA
BRANCH   3   4
ATOM      4  C   UNL A   1      32.267  26.210  25.002  1.00  0.00     0.312 C 
ATOM      5  O   UNL A   1      31.945  25.311  25.774  1.00  0.00    -0.252 OA
BRANCH   4   6
ATOM      6  C   UNL A   1      31.874  26.191  23.511  1.00  0.00     0.077 C 
ATOM      7  C   UNL A   1      31.786  27.692  23.123  1.00  0.00     0.019 C 
ATOM      8  C   UNL A   1      30.522  25.513  23.171  1.00  0.00     0.019 C 
ATOM      9  C   UNL A   1      30.557  28.387  23.724  1.00  0.00     0.001 C 
ATOM     10  C   UNL A   1      29.253  26.241  23.616  1.00  0.00     0.001 C 
ATOM     11  C   UNL A   1      29.267  27.719  23.274  1.00  0.00     0.000 C 
BRANCH   6  12
ATOM     12  C   UNL A   1      33.098  25.505  22.789  1.00  0.00     0.119 C 
BRANCH  12  13
ATOM     13  C   UNL A   1      33.189  23.985  22.628  1.00  0.00     0.225 C 
ATOM     14  O   UNL A   1      33.528  23.488  21.557  1.00  0.00    -0.275 OA
ATOM     15  N   UNL A   1      32.901  23.263  23.769  1.00  0.00    -0.326 N 
ATOM     16  H   UNL A   1      32.596  23.770  24.557  1.00  0.00     0.169 HD
BRANCH  15  17
ATOM     17  C   UNL A   1      33.005  21.867  23.905  1.00  0.00     0.041 A 
ATOM     18  C   UNL A   1      34.050  21.358  24.682  1.00  0.00     0.028 A 
ATOM     19  C   UNL A   1      32.138  20.984  23.266  1.00  0.00     0.028 A 
ATOM     20  C   UNL A   1      34.174  19.982  24.891  1.00  0.00     0.028 A 
ATOM     21  C   UNL A   1      32.323  19.600  23.395  1.00  0.00     0.028 A 
ATOM     22  C   UNL A   1      33.313  19.094  24.245  1.00  0.00     0.047 A 
BRANCH  22  23
ATOM     23  N   UNL A   1      33.381  17.720  24.513  1.00  0.00    -0.274 N 
ATOM     24  C   UNL A   1      32.996  17.156  25.767  1.00  0.00     0.171 C 
ATOM     25  C   UNL A   1      33.744  16.724  23.634  1.00  0.00     0.414 C 
ATOM     26  C   UNL A   1      32.731  15.722  25.384  1.00  0.00     0.257 C 
ATOM     27  O   UNL A   1      33.536  15.501  24.221  1.00  0.00    -0.447 OA
ATOM     28  O   UNL A   1      34.214  16.845  22.510  1.00  0.00    -0.224 OA
ENDBRANCH  22  23
ENDBRANCH  15  17
ENDBRANCH  12  13
ENDBRANCH   6  12
ENDBRANCH   4   6
ENDBRANCH   3   4
ENDBRANCH   2   3
ENDBRANCH   1   2
BRANCH   1  29
ATOM     29  O   UNL A   1      32.932  29.921  26.096  1.00  0.00    -0.374 OA
BRANCH  29  30
ATOM     30  C   UNL A   1      31.812  30.789  26.199  1.00  0.00     0.202 C 
BRANCH  30  31
ATOM     31  C   UNL A   1      32.001  32.163  26.856  1.00  0.00     0.261 C 
BRANCH  31  32
ATOM     32  O   UNL A   1      32.881  32.161  27.984  1.00  0.00    -0.460 OA
BRANCH  32  33
ATOM     33  C   UNL A   1      33.856  33.102  27.896  1.00  0.00     0.338 C 
ATOM     34  O   UNL A   1      33.701  34.306  27.778  1.00  0.00    -0.246 OA
BRANCH  33  35
ATOM     35  C   UNL A   1      35.172  32.505  28.155  1.00  0.00     0.060 A 
ATOM     36  C   UNL A   1      35.187  31.142  28.468  1.00  0.00     0.016 A 
ATOM     37  C   UNL A   1      36.339  33.270  28.207  1.00  0.00     0.016 A 
ATOM     38  C   UNL A   1      36.363  30.548  28.902  1.00  0.00     0.010 A 
ATOM     39  C   UNL A   1      37.523  32.668  28.645  1.00  0.00     0.010 A 
ATOM     40  C   UNL A   1      37.526  31.317  29.036  1.00  0.00    -0.014 A 
BRANCH  40  41
ATOM     41  C   UNL A   1      38.690  30.705  29.720  1.00  0.00     0.031 A 
ATOM     42  C   UNL A   1      38.954  31.040  31.162  1.00  0.00     0.074 A 
ATOM     43  C   UNL A   1      39.426  29.780  29.080  1.00  0.00     0.049 A 
ATOM     44  N   UNL A   1      39.861  30.559  31.970  1.00  0.00    -0.248 NA
ATOM     45  C   UNL A   1      38.076  32.049  31.776  1.00  0.00     0.031 C 
ATOM     46  C   UNL A   1      39.214  29.350  27.696  1.00  0.00     0.029 A 
ATOM     47  N   UNL A   1      40.479  29.018  29.511  1.00  0.00    -0.354 N 
ATOM     48  C   UNL A   1      39.668  31.207  33.187  1.00  0.00     0.074 A 
ATOM     49  C   UNL A   1      38.583  32.145  32.995  1.00  0.00     0.031 C 
ATOM     50  C   UNL A   1      40.096  28.382  27.401  1.00  0.00     0.029 A 
ATOM     51  C   UNL A   1      40.962  28.157  28.555  1.00  0.00     0.049 A 
ATOM     52  H   UNL A   1      40.854  29.082  30.419  1.00  0.00     0.167 HD
ATOM     53  C   UNL A   1      40.332  31.025  34.355  1.00  0.00     0.034 A 
ATOM     54  C   UNL A   1      41.996  27.295  28.605  1.00  0.00     0.034 A 
ATOM     55  C   UNL A   1      41.415  30.083  34.517  1.00  0.00     0.049 A 
ATOM     56  C   UNL A   1      42.770  27.172  29.895  1.00  0.00     0.074 A 
ATOM     57  C   UNL A   1      42.145  29.798  35.658  1.00  0.00     0.029 A 
ATOM     58  N   UNL A   1      41.933  29.283  33.506  1.00  0.00    -0.354 N 
ATOM     59  N   UNL A   1      42.566  27.777  31.043  1.00  0.00    -0.248 NA
ATOM     60  C   UNL A   1      43.904  26.242  29.896  1.00  0.00     0.031 C 
ATOM     61  C   UNL A   1      43.159  28.899  35.315  1.00  0.00     0.029 A 
ATOM     62  C   UNL A   1      43.004  28.542  33.985  1.00  0.00     0.049 A 
ATOM     63  H   UNL A   1      41.591  29.248  32.583  1.00  0.00     0.167 HD
ATOM     64  C   UNL A   1      43.531  27.275  31.913  1.00  0.00     0.074 A 
ATOM     65  C   UNL A   1      44.294  26.300  31.160  1.00  0.00     0.031 C 
ATOM     66  C   UNL A   1      43.770  27.589  33.213  1.00  0.00     0.034 A 
BRANCH  53  67
ATOM     67  C   UNL A   1      39.948  31.901  35.525  1.00  0.00     0.023 A 
ATOM     68  C   UNL A   1      39.050  31.474  36.519  1.00  0.00     0.031 A 
ATOM     69  C   UNL A   1      40.480  33.199  35.636  1.00  0.00     0.131 A 
ATOM     70  C   UNL A   1      38.664  32.356  37.541  1.00  0.00     0.055 A 
ATOM     71  C   UNL A   1      40.156  34.041  36.701  1.00  0.00     0.041 A 
ATOM     72  F   UNL A   1      41.319  33.675  34.704  1.00  0.00    -0.206 F 
ATOM     73  C   UNL A   1      39.233  33.627  37.655  1.00  0.00     0.022 A 
BRANCH  70  74
ATOM     74  S   UNL A   1      37.300  31.875  38.636  1.00  0.00     0.124 S 
ATOM     75  O   UNL A   1      37.908  32.038  39.955  1.00  0.00    -0.237 OA
ATOM     76  O   UNL A   1      36.262  32.838  38.287  1.00  0.00    -0.237 OA
ATOM     77  O   UNL A   1      37.024  30.492  38.254  1.00  0.00    -0.744 OA
ENDBRANCH  70  74
ENDBRANCH  53  67
BRANCH  54  78
ATOM     78  C   UNL A   1      42.384  26.504  27.401  1.00  0.00     0.023 A 
ATOM     79  C   UNL A   1      42.023  25.154  27.270  1.00  0.00     0.031 A 
ATOM     80  C   UNL A   1      43.177  27.072  26.388  1.00  0.00     0.131 A 
ATOM     81  C   UNL A   1      42.499  24.404  26.183  1.00  0.00     0.055 A 
ATOM     82  C   UNL A   1      43.594  26.341  25.276  1.00  0.00     0.041 A 
ATOM     83  F   UNL A   1      43.556  28.359  26.462  1.00  0.00    -0.206 F 
ATOM     84  C   UNL A   1      43.268  24.993  25.177  1.00  0.00     0.022 A 
BRANCH  81  85
ATOM     85  S   UNL A   1      42.189  22.618  26.161  1.00  0.00     0.124 S 
ATOM     86  O   UNL A   1      40.735  22.569  26.262  1.00  0.00    -0.237 OA
ATOM     87  O   UNL A   1      42.758  22.228  24.875  1.00  0.00    -0.237 OA
ATOM     88  O   UNL A   1      42.914  22.133  27.334  1.00  0.00    -0.744 OA
ENDBRANCH  81  85
ENDBRANCH  54  78
BRANCH  66  89
ATOM     89  C   UNL A   1      44.884  26.836  33.902  1.00  0.00     0.023 A 
ATOM     90  C   UNL A   1      46.214  27.292  33.869  1.00  0.00     0.031 A 
ATOM     91  C   UNL A   1      44.620  25.625  34.566  1.00  0.00     0.131 A 
ATOM     92  C   UNL A   1      47.238  26.503  34.411  1.00  0.00     0.055 A 
ATOM     93  C   UNL A   1      45.633  24.884  35.177  1.00  0.00     0.041 A 
ATOM     94  F   UNL A   1      43.371  25.136  34.628  1.00  0.00    -0.206 F 
ATOM     95  C   UNL A   1      46.954  25.312  35.084  1.00  0.00     0.022 A 
BRANCH  92  96
ATOM     96  S   UNL A   1      48.958  26.984  34.101  1.00  0.00     0.124 S 
ATOM     97  O   UNL A   1      49.177  26.470  32.753  1.00  0.00    -0.237 OA
ATOM     98  O   UNL A   1      48.904  28.436  34.229  1.00  0.00    -0.237 OA
ATOM     99  O   UNL A   1      49.702  26.297  35.156  1.00  0.00    -0.744 OA
ENDBRANCH  92  96
ENDBRANCH  66  89
ENDBRANCH  40  41
ENDBRANCH  33  35
ENDBRANCH  32  33
ENDBRANCH  31  32
ENDBRANCH  30  31
ENDBRANCH  29  30
ENDBRANCH   1  29
TORSDOF 21
ENDMDL
