MODEL 1
REMARK VINA RESULT:     -11.7      0.000      0.000
REMARK SMILES Cc1ccccc1NC(=O)NC[C@@H]1CC[C@@H](C(=O)OCCOCCOC(=O)c2ccc(-c3c4nc(c(-c5cc(S(=O)(=O)[O-])ccc5F)c5ccc([nH]5)c(-c5cc(S(=O)(=O)[O-])ccc5F)c5nc(c(-c6cc(S(=O)(=O)[O-])ccc6F)c6ccc3[nH]6)C=C5)C=C4)cc2)O1
REMARK SMILES IDX 22 1 21 2 20 3 19 4 17 5 18 6 16 7 13 8 14 9 91 10 15 11
REMARK SMILES IDX 12 12 11 13 8 14 9 15 10 17 7 19 1 20 2 21 3 22 4 23 6 24
REMARK SMILES IDX 5 25 23 26 24 27 25 28 26 29 27 30 28 31 29 32 90 33 30 34
REMARK SMILES IDX 89 35 31 36 32 37 33 38 83 39 34 40 88 41 82 42 84 43 35 44
REMARK SMILES IDX 87 45 81 46 80 47 36 49 68 50 48 51 67 52 49 53 52 54 66 55
REMARK SMILES IDX 85 56 50 57 51 58 65 60 86 61 53 62 37 63 38 64 46 65 39 66
REMARK SMILES IDX 45 67 47 68 44 69 40 70 41 71 42 72 43 73 69 74 70 75 78 76
REMARK SMILES IDX 71 77 77 78 79 79 76 80 72 81 73 82 74 83 75 84 54 85 55 86
REMARK SMILES IDX 63 87 56 88 62 89 64 90 61 91 57 92 58 93 59 94 60 95
REMARK H PARENT 8 16 11 18 84 48 52 59
REMARK Flexibility Score: inf
ROOT
ATOM      1  O   UNL A   1      41.127  19.621  25.810  1.00  0.00    -0.374 OA
ENDROOT
BRANCH   1   2
ATOM      2  C   UNL A   1      40.609  20.446  26.843  1.00  0.00     0.202 C 
BRANCH   2   3
ATOM      3  C   UNL A   1      40.070  21.658  26.147  1.00  0.00     0.261 C 
BRANCH   3   4
ATOM      4  O   UNL A   1      38.883  21.407  25.381  1.00  0.00    -0.461 OA
BRANCH   4   5
ATOM      5  C   UNL A   1      37.842  22.288  25.459  1.00  0.00     0.335 C 
ATOM      6  O   UNL A   1      37.795  23.302  26.142  1.00  0.00    -0.249 OA
BRANCH   5   7
ATOM      7  C   UNL A   1      36.751  21.840  24.492  1.00  0.00     0.228 C 
ATOM      8  C   UNL A   1      34.562  22.559  24.849  1.00  0.00     0.138 C 
ATOM      9  C   UNL A   1      34.961  23.004  23.456  1.00  0.00     0.037 C 
ATOM     10  O   UNL A   1      35.513  21.537  25.176  1.00  0.00    -0.361 OA
ATOM     11  C   UNL A   1      36.448  22.953  23.499  1.00  0.00     0.047 C 
BRANCH   8  12
ATOM     12  C   UNL A   1      33.122  22.018  24.929  1.00  0.00     0.149 C 
BRANCH  12  13
ATOM     13  N   UNL A   1      32.378  22.611  26.041  1.00  0.00    -0.335 N 
ATOM     14  N   UNL A   1      31.412  24.713  25.381  1.00  0.00    -0.308 N 
ATOM     15  C   UNL A   1      31.594  23.678  26.221  1.00  0.00     0.319 C 
ATOM     16  H   UNL A   1      30.606  25.224  25.618  1.00  0.00     0.171 HD
ATOM     17  O   UNL A   1      30.906  23.690  27.251  1.00  0.00    -0.249 OA
ATOM     18  H   UNL A   1      32.482  22.090  26.869  1.00  0.00     0.165 HD
BRANCH  14  19
ATOM     19  C   UNL A   1      32.052  25.270  24.259  1.00  0.00     0.045 A 
ATOM     20  C   UNL A   1      33.889  26.371  25.683  1.00  0.00     0.046 C 
ATOM     21  C   UNL A   1      33.134  26.158  24.401  1.00  0.00    -0.027 A 
ATOM     22  C   UNL A   1      33.648  26.821  23.261  1.00  0.00     0.005 A 
ATOM     23  C   UNL A   1      33.136  26.579  21.995  1.00  0.00     0.000 A 
ATOM     24  C   UNL A   1      31.702  24.910  22.971  1.00  0.00     0.026 A 
ATOM     25  C   UNL A   1      32.190  25.584  21.845  1.00  0.00     0.002 A 
ENDBRANCH  14  19
ENDBRANCH  12  13
ENDBRANCH   8  12
ENDBRANCH   5   7
ENDBRANCH   4   5
ENDBRANCH   3   4
ENDBRANCH   2   3
ENDBRANCH   1   2
BRANCH   1  26
ATOM     26  C   UNL A   1      42.119  18.693  26.180  1.00  0.00     0.202 C 
BRANCH  26  27
ATOM     27  C   UNL A   1      43.407  18.827  25.358  1.00  0.00     0.261 C 
BRANCH  27  28
ATOM     28  O   UNL A   1      44.274  19.825  25.941  1.00  0.00    -0.460 OA
BRANCH  28  29
ATOM     29  C   UNL A   1      44.721  20.804  25.099  1.00  0.00     0.338 C 
ATOM     30  O   UNL A   1      45.637  20.681  24.313  1.00  0.00    -0.246 OA
BRANCH  29  31
ATOM     31  C   UNL A   1      43.999  22.083  25.378  1.00  0.00     0.060 A 
ATOM     32  C   UNL A   1      43.882  23.082  24.389  1.00  0.00     0.016 A 
ATOM     33  C   UNL A   1      43.688  22.381  26.699  1.00  0.00     0.016 A 
ATOM     34  C   UNL A   1      43.610  24.416  24.753  1.00  0.00     0.010 A 
ATOM     35  C   UNL A   1      43.534  23.701  27.058  1.00  0.00     0.010 A 
ATOM     36  C   UNL A   1      43.525  24.737  26.104  1.00  0.00    -0.014 A 
BRANCH  36  37
ATOM     37  C   UNL A   1      43.562  26.076  26.713  1.00  0.00     0.031 A 
ATOM     38  C   UNL A   1      42.266  26.780  26.854  1.00  0.00     0.074 A 
ATOM     39  C   UNL A   1      44.612  26.462  27.484  1.00  0.00     0.049 A 
ATOM     40  N   UNL A   1      42.122  27.906  27.447  1.00  0.00    -0.248 NA
ATOM     41  C   UNL A   1      41.000  26.278  26.318  1.00  0.00     0.031 C 
ATOM     42  C   UNL A   1      44.603  27.326  28.671  1.00  0.00     0.029 A 
ATOM     43  N   UNL A   1      45.963  26.149  27.353  1.00  0.00    -0.354 N 
ATOM     44  C   UNL A   1      40.786  28.089  27.703  1.00  0.00     0.074 A 
ATOM     45  C   UNL A   1      40.123  27.117  26.877  1.00  0.00     0.031 C 
ATOM     46  C   UNL A   1      45.860  27.682  28.993  1.00  0.00     0.029 A 
ATOM     47  C   UNL A   1      46.724  27.168  27.949  1.00  0.00     0.049 A 
ATOM     48  H   UNL A   1      46.325  25.346  26.914  1.00  0.00     0.167 HD
ATOM     49  C   UNL A   1      40.453  28.977  28.680  1.00  0.00     0.034 A 
ATOM     50  C   UNL A   1      47.636  27.843  27.204  1.00  0.00     0.034 A 
ATOM     51  C   UNL A   1      41.645  29.736  29.100  1.00  0.00     0.049 A 
ATOM     52  C   UNL A   1      47.113  29.249  27.051  1.00  0.00     0.074 A 
ATOM     53  C   UNL A   1      42.423  29.772  30.243  1.00  0.00     0.029 A 
ATOM     54  N   UNL A   1      42.374  30.406  28.117  1.00  0.00    -0.354 N 
ATOM     55  N   UNL A   1      45.852  29.558  27.228  1.00  0.00    -0.248 NA
ATOM     56  C   UNL A   1      47.953  30.426  26.877  1.00  0.00     0.031 C 
ATOM     57  C   UNL A   1      43.668  30.391  29.899  1.00  0.00     0.029 A 
ATOM     58  C   UNL A   1      43.630  30.763  28.562  1.00  0.00     0.049 A 
ATOM     59  H   UNL A   1      42.034  30.601  27.214  1.00  0.00     0.167 HD
ATOM     60  C   UNL A   1      45.716  30.907  27.339  1.00  0.00     0.074 A 
ATOM     61  C   UNL A   1      47.055  31.412  27.061  1.00  0.00     0.031 C 
ATOM     62  C   UNL A   1      44.537  31.508  27.690  1.00  0.00     0.034 A 
BRANCH  49  63
ATOM     63  C   UNL A   1      39.109  29.097  29.373  1.00  0.00     0.023 A 
ATOM     64  C   UNL A   1      38.197  30.063  28.897  1.00  0.00     0.031 A 
ATOM     65  C   UNL A   1      38.677  28.387  30.517  1.00  0.00     0.131 A 
ATOM     66  C   UNL A   1      36.959  30.292  29.530  1.00  0.00     0.055 A 
ATOM     67  C   UNL A   1      37.430  28.590  31.125  1.00  0.00     0.041 A 
ATOM     68  F   UNL A   1      39.436  27.484  31.141  1.00  0.00    -0.206 F 
ATOM     69  C   UNL A   1      36.564  29.549  30.636  1.00  0.00     0.022 A 
BRANCH  66  70
ATOM     70  S   UNL A   1      35.880  31.606  28.903  1.00  0.00     0.124 S 
ATOM     71  O   UNL A   1      35.106  31.960  30.088  1.00  0.00    -0.237 OA
ATOM     72  O   UNL A   1      36.839  32.598  28.433  1.00  0.00    -0.237 OA
ATOM     73  O   UNL A   1      35.117  30.942  27.846  1.00  0.00    -0.744 OA
ENDBRANCH  66  70
ENDBRANCH  49  63
BRANCH  50  74
ATOM     74  C   UNL A   1      48.302  26.899  26.238  1.00  0.00     0.023 A 
ATOM     75  C   UNL A   1      47.965  27.090  24.865  1.00  0.00     0.031 A 
ATOM     76  C   UNL A   1      49.561  26.343  26.516  1.00  0.00     0.131 A 
ATOM     77  C   UNL A   1      48.929  26.914  23.852  1.00  0.00     0.055 A 
ATOM     78  C   UNL A   1      50.507  26.134  25.495  1.00  0.00     0.041 A 
ATOM     79  F   UNL A   1      49.963  26.168  27.782  1.00  0.00    -0.206 F 
ATOM     80  C   UNL A   1      50.214  26.468  24.169  1.00  0.00     0.022 A 
BRANCH  77  81
ATOM     81  S   UNL A   1      48.608  27.596  22.179  1.00  0.00     0.124 S 
ATOM     82  O   UNL A   1      49.707  28.537  22.009  1.00  0.00    -0.237 OA
ATOM     83  O   UNL A   1      48.647  26.410  21.325  1.00  0.00    -0.237 OA
ATOM     84  O   UNL A   1      47.278  28.191  22.304  1.00  0.00    -0.744 OA
ENDBRANCH  77  81
ENDBRANCH  50  74
BRANCH  62  85
ATOM     85  C   UNL A   1      44.170  32.908  27.264  1.00  0.00     0.023 A 
ATOM     86  C   UNL A   1      43.947  33.928  28.194  1.00  0.00     0.031 A 
ATOM     87  C   UNL A   1      44.156  33.311  25.907  1.00  0.00     0.131 A 
ATOM     88  C   UNL A   1      43.605  35.222  27.795  1.00  0.00     0.055 A 
ATOM     89  C   UNL A   1      43.930  34.631  25.510  1.00  0.00     0.041 A 
ATOM     90  F   UNL A   1      44.388  32.456  24.903  1.00  0.00    -0.206 F 
ATOM     91  C   UNL A   1      43.623  35.596  26.456  1.00  0.00     0.022 A 
BRANCH  88  92
ATOM     92  S   UNL A   1      43.041  36.356  29.082  1.00  0.00     0.124 S 
ATOM     93  O   UNL A   1      41.969  37.074  28.395  1.00  0.00    -0.237 OA
ATOM     94  O   UNL A   1      42.610  35.446  30.138  1.00  0.00    -0.237 OA
ATOM     95  O   UNL A   1      44.228  37.149  29.385  1.00  0.00    -0.744 OA
ENDBRANCH  88  92
ENDBRANCH  62  85
ENDBRANCH  36  37
ENDBRANCH  29  31
ENDBRANCH  28  29
ENDBRANCH  27  28
ENDBRANCH  26  27
ENDBRANCH   1  26
TORSDOF 20
ENDMDL
MODEL 2
REMARK VINA RESULT:     -11.7      4.268      9.940
REMARK SMILES Cc1ccccc1NC(=O)NC[C@@H]1CC[C@@H](C(=O)OCCOCCOC(=O)c2ccc(-c3c4nc(c(-c5cc(S(=O)(=O)[O-])ccc5F)c5ccc([nH]5)c(-c5cc(S(=O)(=O)[O-])ccc5F)c5nc(c(-c6cc(S(=O)(=O)[O-])ccc6F)c6ccc3[nH]6)C=C5)C=C4)cc2)O1
REMARK SMILES IDX 22 1 21 2 20 3 19 4 17 5 18 6 16 7 13 8 14 9 91 10 15 11
REMARK SMILES IDX 12 12 11 13 8 14 9 15 10 17 7 19 1 20 2 21 3 22 4 23 6 24
REMARK SMILES IDX 5 25 23 26 24 27 25 28 26 29 27 30 28 31 29 32 90 33 30 34
REMARK SMILES IDX 89 35 31 36 32 37 33 38 83 39 34 40 88 41 82 42 84 43 35 44
REMARK SMILES IDX 87 45 81 46 80 47 36 49 68 50 48 51 67 52 49 53 52 54 66 55
REMARK SMILES IDX 85 56 50 57 51 58 65 60 86 61 53 62 37 63 38 64 46 65 39 66
REMARK SMILES IDX 45 67 47 68 44 69 40 70 41 71 42 72 43 73 69 74 70 75 78 76
REMARK SMILES IDX 71 77 77 78 79 79 76 80 72 81 73 82 74 83 75 84 54 85 55 86
REMARK SMILES IDX 63 87 56 88 62 89 64 90 61 91 57 92 58 93 59 94 60 95
REMARK H PARENT 8 16 11 18 84 48 52 59
REMARK Flexibility Score: inf
ROOT
ATOM      1  O   UNL A   1      32.044  29.408  24.660  1.00  0.00    -0.374 OA
ENDROOT
BRANCH   1   2
ATOM      2  C   UNL A   1      33.271  29.102  24.012  1.00  0.00     0.202 C 
BRANCH   2   3
ATOM      3  C   UNL A   1      32.883  28.410  22.742  1.00  0.00     0.261 C 
BRANCH   3   4
ATOM      4  O   UNL A   1      32.205  27.162  22.944  1.00  0.00    -0.461 OA
BRANCH   4   5
ATOM      5  C   UNL A   1      32.612  26.062  22.243  1.00  0.00     0.335 C 
ATOM      6  O   UNL A   1      33.625  25.966  21.562  1.00  0.00    -0.249 OA
BRANCH   5   7
ATOM      7  C   UNL A   1      31.626  24.929  22.500  1.00  0.00     0.228 C 
ATOM      8  C   UNL A   1      31.861  23.645  24.432  1.00  0.00     0.138 C 
ATOM      9  C   UNL A   1      30.466  24.236  24.451  1.00  0.00     0.037 C 
ATOM     10  O   UNL A   1      32.275  23.766  23.064  1.00  0.00    -0.361 OA
ATOM     11  C   UNL A   1      30.569  25.376  23.501  1.00  0.00     0.047 C 
BRANCH   8  12
ATOM     12  C   UNL A   1      31.911  22.177  24.896  1.00  0.00     0.149 C 
BRANCH  12  13
ATOM     13  N   UNL A   1      32.076  22.068  26.346  1.00  0.00    -0.335 N 
ATOM     14  N   UNL A   1      34.291  22.743  26.994  1.00  0.00    -0.308 N 
ATOM     15  C   UNL A   1      33.019  22.379  27.239  1.00  0.00     0.319 C 
ATOM     16  H   UNL A   1      34.696  23.166  27.786  1.00  0.00     0.171 HD
ATOM     17  O   UNL A   1      32.671  22.396  28.427  1.00  0.00    -0.249 OA
ATOM     18  H   UNL A   1      31.288  21.659  26.772  1.00  0.00     0.165 HD
BRANCH  14  19
ATOM     19  C   UNL A   1      35.204  22.689  25.926  1.00  0.00     0.045 A 
ATOM     20  C   UNL A   1      34.778  25.137  25.261  1.00  0.00     0.046 C 
ATOM     21  C   UNL A   1      35.340  23.763  25.026  1.00  0.00    -0.027 A 
ATOM     22  C   UNL A   1      36.149  23.612  23.875  1.00  0.00     0.005 A 
ATOM     23  C   UNL A   1      36.850  22.439  23.636  1.00  0.00     0.000 A 
ATOM     24  C   UNL A   1      36.064  21.620  25.759  1.00  0.00     0.026 A 
ATOM     25  C   UNL A   1      36.843  21.457  24.607  1.00  0.00     0.002 A 
ENDBRANCH  14  19
ENDBRANCH  12  13
ENDBRANCH   8  12
ENDBRANCH   5   7
ENDBRANCH   4   5
ENDBRANCH   3   4
ENDBRANCH   2   3
ENDBRANCH   1   2
BRANCH   1  26
ATOM     26  C   UNL A   1      32.130  29.901  25.976  1.00  0.00     0.202 C 
BRANCH  26  27
ATOM     27  C   UNL A   1      33.571  29.998  26.492  1.00  0.00     0.261 C 
BRANCH  27  28
ATOM     28  O   UNL A   1      33.653  30.946  27.579  1.00  0.00    -0.460 OA
BRANCH  28  29
ATOM     29  C   UNL A   1      34.888  31.475  27.828  1.00  0.00     0.338 C 
ATOM     30  O   UNL A   1      35.183  32.645  27.697  1.00  0.00    -0.246 OA
BRANCH  29  31
ATOM     31  C   UNL A   1      35.851  30.381  28.163  1.00  0.00     0.060 A 
ATOM     32  C   UNL A   1      35.981  29.907  29.485  1.00  0.00     0.016 A 
ATOM     33  C   UNL A   1      36.802  30.036  27.211  1.00  0.00     0.016 A 
ATOM     34  C   UNL A   1      37.146  29.223  29.885  1.00  0.00     0.010 A 
ATOM     35  C   UNL A   1      37.981  29.467  27.633  1.00  0.00     0.010 A 
ATOM     36  C   UNL A   1      38.187  29.084  28.972  1.00  0.00    -0.014 A 
BRANCH  36  37
ATOM     37  C   UNL A   1      39.580  28.697  29.250  1.00  0.00     0.031 A 
ATOM     38  C   UNL A   1      39.971  27.314  28.895  1.00  0.00     0.074 A 
ATOM     39  C   UNL A   1      40.546  29.639  29.404  1.00  0.00     0.049 A 
ATOM     40  N   UNL A   1      41.165  26.859  28.987  1.00  0.00    -0.248 NA
ATOM     41  C   UNL A   1      39.035  26.298  28.411  1.00  0.00     0.031 C 
ATOM     42  C   UNL A   1      41.958  29.572  29.004  1.00  0.00     0.029 A 
ATOM     43  N   UNL A   1      40.459  30.904  29.982  1.00  0.00    -0.354 N 
ATOM     44  C   UNL A   1      41.240  25.697  28.262  1.00  0.00     0.074 A 
ATOM     45  C   UNL A   1      39.870  25.328  28.028  1.00  0.00     0.031 C 
ATOM     46  C   UNL A   1      42.644  30.587  29.561  1.00  0.00     0.029 A 
ATOM     47  C   UNL A   1      41.730  31.277  30.449  1.00  0.00     0.049 A 
ATOM     48  H   UNL A   1      39.642  31.448  30.051  1.00  0.00     0.167 HD
ATOM     49  C   UNL A   1      42.476  25.285  27.867  1.00  0.00     0.034 A 
ATOM     50  C   UNL A   1      41.898  31.573  31.763  1.00  0.00     0.034 A 
ATOM     51  C   UNL A   1      43.513  26.095  28.532  1.00  0.00     0.049 A 
ATOM     52  C   UNL A   1      42.747  30.474  32.349  1.00  0.00     0.074 A 
ATOM     53  C   UNL A   1      44.419  27.052  28.111  1.00  0.00     0.029 A 
ATOM     54  N   UNL A   1      43.491  26.173  29.925  1.00  0.00    -0.354 N 
ATOM     55  N   UNL A   1      42.877  29.300  31.780  1.00  0.00    -0.248 NA
ATOM     56  C   UNL A   1      43.646  30.642  33.483  1.00  0.00     0.031 C 
ATOM     57  C   UNL A   1      44.862  27.766  29.271  1.00  0.00     0.029 A 
ATOM     58  C   UNL A   1      44.258  27.218  30.394  1.00  0.00     0.049 A 
ATOM     59  H   UNL A   1      42.988  25.555  30.505  1.00  0.00     0.167 HD
ATOM     60  C   UNL A   1      43.922  28.629  32.334  1.00  0.00     0.074 A 
ATOM     61  C   UNL A   1      44.341  29.491  33.432  1.00  0.00     0.031 C 
ATOM     62  C   UNL A   1      44.394  27.446  31.833  1.00  0.00     0.034 A 
BRANCH  49  63
ATOM     63  C   UNL A   1      42.788  24.258  26.795  1.00  0.00     0.023 A 
ATOM     64  C   UNL A   1      42.230  22.969  26.924  1.00  0.00     0.031 A 
ATOM     65  C   UNL A   1      43.654  24.421  25.690  1.00  0.00     0.131 A 
ATOM     66  C   UNL A   1      42.530  21.935  26.015  1.00  0.00     0.055 A 
ATOM     67  C   UNL A   1      43.924  23.403  24.765  1.00  0.00     0.041 A 
ATOM     68  F   UNL A   1      44.321  25.552  25.451  1.00  0.00    -0.206 F 
ATOM     69  C   UNL A   1      43.366  22.150  24.924  1.00  0.00     0.022 A 
BRANCH  66  70
ATOM     70  S   UNL A   1      41.834  20.286  26.295  1.00  0.00     0.124 S 
ATOM     71  O   UNL A   1      42.302  19.979  27.643  1.00  0.00    -0.237 OA
ATOM     72  O   UNL A   1      40.403  20.522  26.143  1.00  0.00    -0.237 OA
ATOM     73  O   UNL A   1      42.438  19.478  25.236  1.00  0.00    -0.744 OA
ENDBRANCH  66  70
ENDBRANCH  49  63
BRANCH  50  74
ATOM     74  C   UNL A   1      40.683  32.300  32.280  1.00  0.00     0.023 A 
ATOM     75  C   UNL A   1      39.896  31.580  33.226  1.00  0.00     0.031 A 
ATOM     76  C   UNL A   1      40.653  33.701  32.357  1.00  0.00     0.131 A 
ATOM     77  C   UNL A   1      39.279  32.241  34.307  1.00  0.00     0.055 A 
ATOM     78  C   UNL A   1      40.004  34.358  33.419  1.00  0.00     0.041 A 
ATOM     79  F   UNL A   1      41.396  34.445  31.526  1.00  0.00    -0.206 F 
ATOM     80  C   UNL A   1      39.362  33.630  34.425  1.00  0.00     0.022 A 
BRANCH  77  81
ATOM     81  S   UNL A   1      38.672  31.258  35.732  1.00  0.00     0.124 S 
ATOM     82  O   UNL A   1      37.559  32.065  36.216  1.00  0.00    -0.237 OA
ATOM     83  O   UNL A   1      38.314  29.978  35.124  1.00  0.00    -0.237 OA
ATOM     84  O   UNL A   1      39.835  31.187  36.617  1.00  0.00    -0.744 OA
ENDBRANCH  77  81
ENDBRANCH  50  74
BRANCH  62  85
ATOM     85  C   UNL A   1      45.087  26.411  32.684  1.00  0.00     0.023 A 
ATOM     86  C   UNL A   1      44.373  25.519  33.489  1.00  0.00     0.031 A 
ATOM     87  C   UNL A   1      46.484  26.191  32.625  1.00  0.00     0.131 A 
ATOM     88  C   UNL A   1      45.020  24.564  34.277  1.00  0.00     0.055 A 
ATOM     89  C   UNL A   1      47.119  25.160  33.322  1.00  0.00     0.041 A 
ATOM     90  F   UNL A   1      47.298  26.939  31.869  1.00  0.00    -0.206 F 
ATOM     91  C   UNL A   1      46.390  24.353  34.181  1.00  0.00     0.022 A 
BRANCH  88  92
ATOM     92  S   UNL A   1      44.015  23.691  35.497  1.00  0.00     0.124 S 
ATOM     93  O   UNL A   1      45.006  22.824  36.131  1.00  0.00    -0.237 OA
ATOM     94  O   UNL A   1      43.510  24.779  36.328  1.00  0.00    -0.237 OA
ATOM     95  O   UNL A   1      43.013  23.004  34.688  1.00  0.00    -0.744 OA
ENDBRANCH  88  92
ENDBRANCH  62  85
ENDBRANCH  36  37
ENDBRANCH  29  31
ENDBRANCH  28  29
ENDBRANCH  27  28
ENDBRANCH  26  27
ENDBRANCH   1  26
TORSDOF 20
ENDMDL
MODEL 3
REMARK VINA RESULT:     -11.6      5.519     11.811
REMARK SMILES Cc1ccccc1NC(=O)NC[C@@H]1CC[C@@H](C(=O)OCCOCCOC(=O)c2ccc(-c3c4nc(c(-c5cc(S(=O)(=O)[O-])ccc5F)c5ccc([nH]5)c(-c5cc(S(=O)(=O)[O-])ccc5F)c5nc(c(-c6cc(S(=O)(=O)[O-])ccc6F)c6ccc3[nH]6)C=C5)C=C4)cc2)O1
REMARK SMILES IDX 22 1 21 2 20 3 19 4 17 5 18 6 16 7 13 8 14 9 91 10 15 11
REMARK SMILES IDX 12 12 11 13 8 14 9 15 10 17 7 19 1 20 2 21 3 22 4 23 6 24
REMARK SMILES IDX 5 25 23 26 24 27 25 28 26 29 27 30 28 31 29 32 90 33 30 34
REMARK SMILES IDX 89 35 31 36 32 37 33 38 83 39 34 40 88 41 82 42 84 43 35 44
REMARK SMILES IDX 87 45 81 46 80 47 36 49 68 50 48 51 67 52 49 53 52 54 66 55
REMARK SMILES IDX 85 56 50 57 51 58 65 60 86 61 53 62 37 63 38 64 46 65 39 66
REMARK SMILES IDX 45 67 47 68 44 69 40 70 41 71 42 72 43 73 69 74 70 75 78 76
REMARK SMILES IDX 71 77 77 78 79 79 76 80 72 81 73 82 74 83 75 84 54 85 55 86
REMARK SMILES IDX 63 87 56 88 62 89 64 90 61 91 57 92 58 93 59 94 60 95
REMARK H PARENT 8 16 11 18 84 48 52 59
REMARK Flexibility Score: inf
ROOT
ATOM      1  O   UNL A   1      34.237  35.654  28.715  1.00  0.00    -0.374 OA
ENDROOT
BRANCH   1   2
ATOM      2  C   UNL A   1      34.379  34.629  27.742  1.00  0.00     0.202 C 
BRANCH   2   3
ATOM      3  C   UNL A   1      34.233  33.345  28.499  1.00  0.00     0.261 C 
BRANCH   3   4
ATOM      4  O   UNL A   1      33.740  32.256  27.705  1.00  0.00    -0.461 OA
BRANCH   4   5
ATOM      5  C   UNL A   1      34.520  31.147  27.538  1.00  0.00     0.335 C 
ATOM      6  O   UNL A   1      35.742  31.119  27.476  1.00  0.00    -0.249 OA
BRANCH   5   7
ATOM      7  C   UNL A   1      33.619  29.918  27.505  1.00  0.00     0.228 C 
ATOM      8  C   UNL A   1      32.512  29.383  25.524  1.00  0.00     0.138 C 
ATOM      9  C   UNL A   1      33.349  28.180  25.912  1.00  0.00     0.037 C 
ATOM     10  O   UNL A   1      32.418  30.149  26.733  1.00  0.00    -0.361 OA
ATOM     11  C   UNL A   1      34.350  28.755  26.850  1.00  0.00     0.047 C 
BRANCH   8  12
ATOM     12  C   UNL A   1      31.113  29.010  24.997  1.00  0.00     0.149 C 
BRANCH  12  13
ATOM     13  N   UNL A   1      30.855  29.591  23.679  1.00  0.00    -0.335 N 
ATOM     14  N   UNL A   1      30.969  27.897  21.975  1.00  0.00    -0.308 N 
ATOM     15  C   UNL A   1      30.704  29.135  22.432  1.00  0.00     0.319 C 
ATOM     16  H   UNL A   1      30.536  27.741  21.106  1.00  0.00     0.171 HD
ATOM     17  O   UNL A   1      30.207  29.919  21.613  1.00  0.00    -0.249 OA
ATOM     18  H   UNL A   1      30.770  30.571  23.723  1.00  0.00     0.165 HD
BRANCH  14  19
ATOM     19  C   UNL A   1      31.691  26.764  22.391  1.00  0.00     0.045 A 
ATOM     20  C   UNL A   1      33.952  27.982  22.239  1.00  0.00     0.046 C 
ATOM     21  C   UNL A   1      33.099  26.754  22.388  1.00  0.00    -0.027 A 
ATOM     22  C   UNL A   1      33.788  25.548  22.659  1.00  0.00     0.005 A 
ATOM     23  C   UNL A   1      33.106  24.382  22.973  1.00  0.00     0.000 A 
ATOM     24  C   UNL A   1      31.057  25.644  22.895  1.00  0.00     0.026 A 
ATOM     25  C   UNL A   1      31.736  24.444  23.137  1.00  0.00     0.002 A 
ENDBRANCH  14  19
ENDBRANCH  12  13
ENDBRANCH   8  12
ENDBRANCH   5   7
ENDBRANCH   4   5
ENDBRANCH   3   4
ENDBRANCH   2   3
ENDBRANCH   1   2
BRANCH   1  26
ATOM     26  C   UNL A   1      32.935  35.903  29.186  1.00  0.00     0.202 C 
BRANCH  26  27
ATOM     27  C   UNL A   1      32.812  35.792  30.711  1.00  0.00     0.261 C 
BRANCH  27  28
ATOM     28  O   UNL A   1      34.059  36.159  31.343  1.00  0.00    -0.460 OA
BRANCH  28  29
ATOM     29  C   UNL A   1      34.374  35.491  32.493  1.00  0.00     0.338 C 
ATOM     30  O   UNL A   1      34.175  35.904  33.616  1.00  0.00    -0.246 OA
BRANCH  29  31
ATOM     31  C   UNL A   1      35.114  34.234  32.162  1.00  0.00     0.060 A 
ATOM     32  C   UNL A   1      34.880  33.043  32.883  1.00  0.00     0.016 A 
ATOM     33  C   UNL A   1      36.220  34.328  31.328  1.00  0.00     0.016 A 
ATOM     34  C   UNL A   1      35.842  32.013  32.886  1.00  0.00     0.010 A 
ATOM     35  C   UNL A   1      37.202  33.370  31.424  1.00  0.00     0.010 A 
ATOM     36  C   UNL A   1      37.048  32.221  32.224  1.00  0.00    -0.014 A 
BRANCH  36  37
ATOM     37  C   UNL A   1      38.289  31.441  32.351  1.00  0.00     0.031 A 
ATOM     38  C   UNL A   1      38.374  30.190  31.563  1.00  0.00     0.074 A 
ATOM     39  C   UNL A   1      39.434  32.021  32.797  1.00  0.00     0.049 A 
ATOM     40  N   UNL A   1      39.420  29.455  31.494  1.00  0.00    -0.248 NA
ATOM     41  C   UNL A   1      37.266  29.639  30.781  1.00  0.00     0.031 C 
ATOM     42  C   UNL A   1      40.817  31.744  32.386  1.00  0.00     0.029 A 
ATOM     43  N   UNL A   1      39.601  33.020  33.754  1.00  0.00    -0.354 N 
ATOM     44  C   UNL A   1      39.276  28.600  30.430  1.00  0.00     0.074 A 
ATOM     45  C   UNL A   1      37.879  28.668  30.098  1.00  0.00     0.031 C 
ATOM     46  C   UNL A   1      41.677  32.331  33.238  1.00  0.00     0.029 A 
ATOM     47  C   UNL A   1      40.886  32.904  34.309  1.00  0.00     0.049 A 
ATOM     48  H   UNL A   1      38.929  33.694  34.002  1.00  0.00     0.167 HD
ATOM     49  C   UNL A   1      40.409  28.047  29.914  1.00  0.00     0.034 A 
ATOM     50  C   UNL A   1      41.022  32.719  35.646  1.00  0.00     0.034 A 
ATOM     51  C   UNL A   1      41.555  28.328  30.799  1.00  0.00     0.049 A 
ATOM     52  C   UNL A   1      41.549  31.320  35.837  1.00  0.00     0.074 A 
ATOM     53  C   UNL A   1      42.685  29.120  30.706  1.00  0.00     0.029 A 
ATOM     54  N   UNL A   1      41.450  27.964  32.142  1.00  0.00    -0.354 N 
ATOM     55  N   UNL A   1      41.444  30.393  34.917  1.00  0.00    -0.248 NA
ATOM     56  C   UNL A   1      42.377  30.897  36.958  1.00  0.00     0.031 C 
ATOM     57  C   UNL A   1      43.197  29.299  32.031  1.00  0.00     0.029 A 
ATOM     58  C   UNL A   1      42.402  28.587  32.920  1.00  0.00     0.049 A 
ATOM     59  H   UNL A   1      40.777  27.336  32.493  1.00  0.00     0.167 HD
ATOM     60  C   UNL A   1      42.263  29.348  35.216  1.00  0.00     0.074 A 
ATOM     61  C   UNL A   1      42.788  29.688  36.531  1.00  0.00     0.031 C 
ATOM     62  C   UNL A   1      42.483  28.308  34.353  1.00  0.00     0.034 A 
BRANCH  49  63
ATOM     63  C   UNL A   1      40.552  27.371  28.565  1.00  0.00     0.023 A 
ATOM     64  C   UNL A   1      40.700  25.967  28.535  1.00  0.00     0.031 A 
ATOM     65  C   UNL A   1      40.630  28.001  27.302  1.00  0.00     0.131 A 
ATOM     66  C   UNL A   1      40.915  25.268  27.331  1.00  0.00     0.055 A 
ATOM     67  C   UNL A   1      40.807  27.302  26.100  1.00  0.00     0.041 A 
ATOM     68  F   UNL A   1      40.577  29.326  27.148  1.00  0.00    -0.206 F 
ATOM     69  C   UNL A   1      40.956  25.928  26.108  1.00  0.00     0.022 A 
BRANCH  66  70
ATOM     70  S   UNL A   1      41.174  23.476  27.387  1.00  0.00     0.124 S 
ATOM     71  O   UNL A   1      42.079  23.260  26.263  1.00  0.00    -0.237 OA
ATOM     72  O   UNL A   1      41.737  23.285  28.719  1.00  0.00    -0.237 OA
ATOM     73  O   UNL A   1      39.828  22.932  27.207  1.00  0.00    -0.744 OA
ENDBRANCH  66  70
ENDBRANCH  49  63
BRANCH  50  74
ATOM     74  C   UNL A   1      39.975  33.517  36.379  1.00  0.00     0.023 A 
ATOM     75  C   UNL A   1      38.873  32.763  36.882  1.00  0.00     0.031 A 
ATOM     76  C   UNL A   1      40.306  34.698  37.061  1.00  0.00     0.131 A 
ATOM     77  C   UNL A   1      38.278  33.088  38.118  1.00  0.00     0.055 A 
ATOM     78  C   UNL A   1      39.682  35.037  38.276  1.00  0.00     0.041 A 
ATOM     79  F   UNL A   1      41.352  35.439  36.671  1.00  0.00    -0.206 F 
ATOM     80  C   UNL A   1      38.705  34.207  38.835  1.00  0.00     0.022 A 
BRANCH  77  81
ATOM     81  S   UNL A   1      37.194  31.859  38.943  1.00  0.00     0.124 S 
ATOM     82  O   UNL A   1      37.260  30.724  38.032  1.00  0.00    -0.237 OA
ATOM     83  O   UNL A   1      37.836  31.671  40.242  1.00  0.00    -0.237 OA
ATOM     84  O   UNL A   1      35.902  32.539  39.015  1.00  0.00    -0.744 OA
ENDBRANCH  77  81
ENDBRANCH  50  74
BRANCH  62  85
ATOM     85  C   UNL A   1      42.854  26.921  34.817  1.00  0.00     0.023 A 
ATOM     86  C   UNL A   1      43.912  26.209  34.243  1.00  0.00     0.031 A 
ATOM     87  C   UNL A   1      42.247  26.306  35.939  1.00  0.00     0.131 A 
ATOM     88  C   UNL A   1      44.251  24.924  34.675  1.00  0.00     0.055 A 
ATOM     89  C   UNL A   1      42.663  25.072  36.445  1.00  0.00     0.041 A 
ATOM     90  F   UNL A   1      41.245  26.881  36.617  1.00  0.00    -0.206 F 
ATOM     91  C   UNL A   1      43.655  24.356  35.794  1.00  0.00     0.022 A 
BRANCH  88  92
ATOM     92  S   UNL A   1      45.418  23.998  33.656  1.00  0.00     0.124 S 
ATOM     93  O   UNL A   1      46.312  25.058  33.191  1.00  0.00    -0.237 OA
ATOM     94  O   UNL A   1      45.999  23.062  34.612  1.00  0.00    -0.237 OA
ATOM     95  O   UNL A   1      44.575  23.398  32.626  1.00  0.00    -0.744 OA
ENDBRANCH  88  92
ENDBRANCH  62  85
ENDBRANCH  36  37
ENDBRANCH  29  31
ENDBRANCH  28  29
ENDBRANCH  27  28
ENDBRANCH  26  27
ENDBRANCH   1  26
TORSDOF 20
ENDMDL
