MODEL 1
REMARK VINA RESULT:     -11.2      0.000      0.000
REMARK SMILES CCOc1ccc(-c2nc(C(=O)OCCOCCOC(=O)c3ccc(-c4c5nc(c(-c6cc(S(=O)(=O)[O-])ccc6F)c6ccc([nH]6)c(-c6cc(S(=O)(=O)[O-])ccc6F)c6nc(c(-c7cc(S(=O)(=O)[O-])ccc7F)c7ccc4[nH]7)C=C6)C=C5)cc3)cc(=O)[nH]2)cc1
REMARK SMILES IDX 16 1 15 2 14 3 13 4 11 5 12 6 10 7 8 8 9 9 88 10 86 11 85 13
REMARK SMILES IDX 87 14 7 15 4 16 5 17 90 18 6 19 89 20 3 21 2 22 1 23 17 24
REMARK SMILES IDX 18 25 19 26 20 27 21 28 22 29 23 30 84 31 24 32 83 33 25 34
REMARK SMILES IDX 26 35 27 36 77 37 28 38 82 39 76 40 78 41 29 42 81 43 75 44
REMARK SMILES IDX 74 45 30 47 62 48 42 49 61 50 43 51 46 52 60 53 79 54 44 55
REMARK SMILES IDX 45 56 59 58 80 59 47 60 31 61 32 62 40 63 33 64 39 65 41 66
REMARK SMILES IDX 38 67 34 68 35 69 36 70 37 71 63 72 64 73 72 74 65 75 71 76
REMARK SMILES IDX 73 77 70 78 66 79 67 80 68 81 69 82 48 83 49 84 57 85 50 86
REMARK SMILES IDX 56 87 58 88 55 89 51 90 52 91 53 92 54 93
REMARK H PARENT 88 12 78 46 46 57
REMARK Flexibility Score: inf
ROOT
ATOM      1  O   UNL A   1      35.636  23.474  24.965  1.00  0.00    -0.374 OA
ENDROOT
BRANCH   1   2
ATOM      2  C   UNL A   1      35.121  24.708  25.467  1.00  0.00     0.202 C 
BRANCH   2   3
ATOM      3  C   UNL A   1      33.739  24.636  26.125  1.00  0.00     0.261 C 
BRANCH   3   4
ATOM      4  O   UNL A   1      32.973  25.817  25.830  1.00  0.00    -0.459 OA
BRANCH   4   5
ATOM      5  C   UNL A   1      31.871  25.614  25.060  1.00  0.00     0.357 C 
ATOM      6  O   UNL A   1      30.794  26.180  25.184  1.00  0.00    -0.244 OA
BRANCH   5   7
ATOM      7  C   UNL A   1      32.196  24.703  23.911  1.00  0.00     0.156 A 
ATOM      8  C   UNL A   1      32.408  22.547  23.195  1.00  0.00     0.141 A 
ATOM      9  N   UNL A   1      32.090  23.350  24.152  1.00  0.00    -0.223 NA
ATOM     10  N   UNL A   1      32.822  22.974  21.964  1.00  0.00    -0.306 N 
ATOM     11  C   UNL A   1      32.897  24.298  21.651  1.00  0.00     0.251 A 
ATOM     12  H   UNL A   1      33.073  22.306  21.285  1.00  0.00     0.171 HD
ATOM     13  C   UNL A   1      32.558  25.232  22.734  1.00  0.00     0.107 A 
ATOM     14  O   UNL A   1      33.226  24.693  20.540  1.00  0.00    -0.269 OA
BRANCH   8  15
ATOM     15  C   UNL A   1      32.310  21.094  23.396  1.00  0.00     0.018 A 
ATOM     16  C   UNL A   1      32.386  18.347  23.793  1.00  0.00     0.119 A 
ATOM     17  C   UNL A   1      32.208  18.858  22.504  1.00  0.00     0.047 A 
ATOM     18  C   UNL A   1      32.544  19.206  24.880  1.00  0.00     0.047 A 
ATOM     19  C   UNL A   1      32.158  20.239  22.302  1.00  0.00     0.016 A 
ATOM     20  C   UNL A   1      32.504  20.585  24.684  1.00  0.00     0.016 A 
BRANCH  16  21
ATOM     21  O   UNL A   1      32.558  17.000  23.938  1.00  0.00    -0.494 OA
BRANCH  21  22
ATOM     22  C   UNL A   1      33.855  16.552  23.533  1.00  0.00     0.226 C 
ATOM     23  C   UNL A   1      34.782  16.381  24.725  1.00  0.00     0.049 C 
ENDBRANCH  21  22
ENDBRANCH  16  21
ENDBRANCH   8  15
ENDBRANCH   5   7
ENDBRANCH   4   5
ENDBRANCH   3   4
ENDBRANCH   2   3
ENDBRANCH   1   2
BRANCH   1  24
ATOM     24  C   UNL A   1      35.387  22.302  25.742  1.00  0.00     0.202 C 
BRANCH  24  25
ATOM     25  C   UNL A   1      36.360  21.132  25.547  1.00  0.00     0.261 C 
BRANCH  25  26
ATOM     26  O   UNL A   1      37.628  21.561  25.017  1.00  0.00    -0.460 OA
BRANCH  26  27
ATOM     27  C   UNL A   1      38.703  21.207  25.762  1.00  0.00     0.338 C 
ATOM     28  O   UNL A   1      39.206  20.092  25.838  1.00  0.00    -0.246 OA
BRANCH  27  29
ATOM     29  C   UNL A   1      39.333  22.407  26.347  1.00  0.00     0.060 A 
ATOM     30  C   UNL A   1      38.750  23.648  26.060  1.00  0.00     0.016 A 
ATOM     31  C   UNL A   1      40.499  22.332  27.112  1.00  0.00     0.016 A 
ATOM     32  C   UNL A   1      39.357  24.824  26.499  1.00  0.00     0.010 A 
ATOM     33  C   UNL A   1      41.110  23.513  27.545  1.00  0.00     0.010 A 
ATOM     34  C   UNL A   1      40.560  24.766  27.214  1.00  0.00    -0.014 A 
BRANCH  34  35
ATOM     35  C   UNL A   1      41.314  26.017  27.485  1.00  0.00     0.031 A 
ATOM     36  C   UNL A   1      40.675  27.084  28.331  1.00  0.00     0.074 A 
ATOM     37  C   UNL A   1      42.562  26.186  27.011  1.00  0.00     0.049 A 
ATOM     38  N   UNL A   1      41.133  28.260  28.675  1.00  0.00    -0.248 NA
ATOM     39  C   UNL A   1      39.336  26.778  28.858  1.00  0.00     0.031 C 
ATOM     40  C   UNL A   1      43.306  25.205  26.225  1.00  0.00     0.029 A 
ATOM     41  N   UNL A   1      43.423  27.248  27.126  1.00  0.00    -0.354 N 
ATOM     42  C   UNL A   1      40.139  28.839  29.459  1.00  0.00     0.074 A 
ATOM     43  C   UNL A   1      39.037  27.898  29.496  1.00  0.00     0.031 C 
ATOM     44  C   UNL A   1      44.516  25.710  25.930  1.00  0.00     0.029 A 
ATOM     45  C   UNL A   1      44.616  27.065  26.470  1.00  0.00     0.049 A 
ATOM     46  H   UNL A   1      43.206  28.066  27.631  1.00  0.00     0.167 HD
ATOM     47  C   UNL A   1      40.148  30.036  30.097  1.00  0.00     0.034 A 
ATOM     48  C   UNL A   1      45.661  27.903  26.307  1.00  0.00     0.034 A 
ATOM     49  C   UNL A   1      41.246  30.970  30.034  1.00  0.00     0.049 A 
ATOM     50  C   UNL A   1      45.603  29.277  26.930  1.00  0.00     0.074 A 
ATOM     51  C   UNL A   1      41.368  32.204  30.648  1.00  0.00     0.029 A 
ATOM     52  N   UNL A   1      42.410  30.782  29.296  1.00  0.00    -0.354 N 
ATOM     53  N   UNL A   1      44.661  29.812  27.672  1.00  0.00    -0.248 NA
ATOM     54  C   UNL A   1      46.753  30.159  26.691  1.00  0.00     0.031 C 
ATOM     55  C   UNL A   1      42.566  32.793  30.223  1.00  0.00     0.029 A 
ATOM     56  C   UNL A   1      43.234  31.892  29.409  1.00  0.00     0.049 A 
ATOM     57  H   UNL A   1      42.619  29.975  28.771  1.00  0.00     0.167 HD
ATOM     58  C   UNL A   1      45.124  31.080  28.020  1.00  0.00     0.074 A 
ATOM     59  C   UNL A   1      46.431  31.224  27.411  1.00  0.00     0.031 C 
ATOM     60  C   UNL A   1      44.528  32.033  28.783  1.00  0.00     0.034 A 
BRANCH  47  61
ATOM     61  C   UNL A   1      38.904  30.414  30.869  1.00  0.00     0.023 A 
ATOM     62  C   UNL A   1      37.897  31.216  30.302  1.00  0.00     0.031 A 
ATOM     63  C   UNL A   1      38.749  30.014  32.208  1.00  0.00     0.131 A 
ATOM     64  C   UNL A   1      36.830  31.666  31.095  1.00  0.00     0.055 A 
ATOM     65  C   UNL A   1      37.639  30.393  32.966  1.00  0.00     0.041 A 
ATOM     66  F   UNL A   1      39.687  29.267  32.811  1.00  0.00    -0.206 F 
ATOM     67  C   UNL A   1      36.681  31.240  32.417  1.00  0.00     0.022 A 
BRANCH  64  68
ATOM     68  S   UNL A   1      35.740  32.953  30.429  1.00  0.00     0.124 S 
ATOM     69  O   UNL A   1      36.248  34.147  31.100  1.00  0.00    -0.237 OA
ATOM     70  O   UNL A   1      35.991  32.868  28.995  1.00  0.00    -0.237 OA
ATOM     71  O   UNL A   1      34.408  32.529  30.856  1.00  0.00    -0.744 OA
ENDBRANCH  64  68
ENDBRANCH  47  61
BRANCH  48  72
ATOM     72  C   UNL A   1      46.844  27.488  25.502  1.00  0.00     0.023 A 
ATOM     73  C   UNL A   1      46.986  27.892  24.166  1.00  0.00     0.031 A 
ATOM     74  C   UNL A   1      47.826  26.637  26.042  1.00  0.00     0.131 A 
ATOM     75  C   UNL A   1      48.060  27.413  23.400  1.00  0.00     0.055 A 
ATOM     76  C   UNL A   1      48.920  26.204  25.291  1.00  0.00     0.041 A 
ATOM     77  F   UNL A   1      47.736  26.219  27.314  1.00  0.00    -0.206 F 
ATOM     78  C   UNL A   1      49.035  26.582  23.957  1.00  0.00     0.022 A 
BRANCH  75  79
ATOM     79  S   UNL A   1      48.124  27.830  21.636  1.00  0.00     0.124 S 
ATOM     80  O   UNL A   1      46.831  28.475  21.437  1.00  0.00    -0.237 OA
ATOM     81  O   UNL A   1      49.293  28.700  21.573  1.00  0.00    -0.237 OA
ATOM     82  O   UNL A   1      48.281  26.532  20.985  1.00  0.00    -0.744 OA
ENDBRANCH  75  79
ENDBRANCH  48  72
BRANCH  60  83
ATOM     83  C   UNL A   1      45.314  33.298  29.039  1.00  0.00     0.023 A 
ATOM     84  C   UNL A   1      45.221  34.416  28.191  1.00  0.00     0.031 A 
ATOM     85  C   UNL A   1      46.182  33.378  30.143  1.00  0.00     0.131 A 
ATOM     86  C   UNL A   1      46.023  35.543  28.429  1.00  0.00     0.055 A 
ATOM     87  C   UNL A   1      46.932  34.525  30.409  1.00  0.00     0.041 A 
ATOM     88  F   UNL A   1      46.314  32.340  30.985  1.00  0.00    -0.206 F 
ATOM     89  C   UNL A   1      46.864  35.611  29.542  1.00  0.00     0.022 A 
BRANCH  86  90
ATOM     90  S   UNL A   1      46.022  36.889  27.212  1.00  0.00     0.124 S 
ATOM     91  O   UNL A   1      47.124  37.723  27.682  1.00  0.00    -0.237 OA
ATOM     92  O   UNL A   1      46.252  36.177  25.959  1.00  0.00    -0.237 OA
ATOM     93  O   UNL A   1      44.693  37.480  27.351  1.00  0.00    -0.744 OA
ENDBRANCH  86  90
ENDBRANCH  60  83
ENDBRANCH  34  35
ENDBRANCH  27  29
ENDBRANCH  26  27
ENDBRANCH  25  26
ENDBRANCH  24  25
ENDBRANCH   1  24
TORSDOF 20
ENDMDL
MODEL 2
REMARK VINA RESULT:     -11.1      5.090     10.008
REMARK SMILES CCOc1ccc(-c2nc(C(=O)OCCOCCOC(=O)c3ccc(-c4c5nc(c(-c6cc(S(=O)(=O)[O-])ccc6F)c6ccc([nH]6)c(-c6cc(S(=O)(=O)[O-])ccc6F)c6nc(c(-c7cc(S(=O)(=O)[O-])ccc7F)c7ccc4[nH]7)C=C6)C=C5)cc3)cc(=O)[nH]2)cc1
REMARK SMILES IDX 16 1 15 2 14 3 13 4 11 5 12 6 10 7 8 8 9 9 88 10 86 11 85 13
REMARK SMILES IDX 87 14 7 15 4 16 5 17 90 18 6 19 89 20 3 21 2 22 1 23 17 24
REMARK SMILES IDX 18 25 19 26 20 27 21 28 22 29 23 30 84 31 24 32 83 33 25 34
REMARK SMILES IDX 26 35 27 36 77 37 28 38 82 39 76 40 78 41 29 42 81 43 75 44
REMARK SMILES IDX 74 45 30 47 62 48 42 49 61 50 43 51 46 52 60 53 79 54 44 55
REMARK SMILES IDX 45 56 59 58 80 59 47 60 31 61 32 62 40 63 33 64 39 65 41 66
REMARK SMILES IDX 38 67 34 68 35 69 36 70 37 71 63 72 64 73 72 74 65 75 71 76
REMARK SMILES IDX 73 77 70 78 66 79 67 80 68 81 69 82 48 83 49 84 57 85 50 86
REMARK SMILES IDX 56 87 58 88 55 89 51 90 52 91 53 92 54 93
REMARK H PARENT 88 12 78 46 46 57
REMARK Flexibility Score: inf
ROOT
ATOM      1  O   UNL A   1      30.370  29.858  24.089  1.00  0.00    -0.374 OA
ENDROOT
BRANCH   1   2
ATOM      2  C   UNL A   1      29.932  29.006  23.029  1.00  0.00     0.202 C 
BRANCH   2   3
ATOM      3  C   UNL A   1      31.016  28.143  22.377  1.00  0.00     0.261 C 
BRANCH   3   4
ATOM      4  O   UNL A   1      30.661  26.750  22.437  1.00  0.00    -0.459 OA
BRANCH   4   5
ATOM      5  C   UNL A   1      31.707  25.892  22.565  1.00  0.00     0.357 C 
ATOM      6  O   UNL A   1      32.721  25.888  21.881  1.00  0.00    -0.244 OA
BRANCH   5   7
ATOM      7  C   UNL A   1      31.531  25.029  23.781  1.00  0.00     0.156 A 
ATOM      8  C   UNL A   1      32.077  23.072  24.820  1.00  0.00     0.141 A 
ATOM      9  N   UNL A   1      32.247  23.852  23.808  1.00  0.00    -0.223 NA
ATOM     10  N   UNL A   1      31.243  23.368  25.862  1.00  0.00    -0.306 N 
ATOM     11  C   UNL A   1      30.549  24.540  25.916  1.00  0.00     0.251 A 
ATOM     12  H   UNL A   1      31.141  22.716  26.594  1.00  0.00     0.171 HD
ATOM     13  C   UNL A   1      30.713  25.435  24.762  1.00  0.00     0.107 A 
ATOM     14  O   UNL A   1      29.831  24.836  26.864  1.00  0.00    -0.269 OA
BRANCH   8  15
ATOM     15  C   UNL A   1      32.818  21.805  24.902  1.00  0.00     0.018 A 
ATOM     16  C   UNL A   1      34.288  19.452  24.808  1.00  0.00     0.119 A 
ATOM     17  C   UNL A   1      32.897  19.407  24.681  1.00  0.00     0.047 A 
ATOM     18  C   UNL A   1      34.946  20.671  24.964  1.00  0.00     0.047 A 
ATOM     19  C   UNL A   1      32.153  20.588  24.739  1.00  0.00     0.016 A 
ATOM     20  C   UNL A   1      34.211  21.854  25.014  1.00  0.00     0.016 A 
BRANCH  16  21
ATOM     21  O   UNL A   1      34.993  18.298  24.620  1.00  0.00    -0.494 OA
BRANCH  21  22
ATOM     22  C   UNL A   1      34.160  17.137  24.536  1.00  0.00     0.226 C 
ATOM     23  C   UNL A   1      34.123  16.581  23.123  1.00  0.00     0.049 C 
ENDBRANCH  21  22
ENDBRANCH  16  21
ENDBRANCH   8  15
ENDBRANCH   5   7
ENDBRANCH   4   5
ENDBRANCH   3   4
ENDBRANCH   2   3
ENDBRANCH   1   2
BRANCH   1  24
ATOM     24  C   UNL A   1      31.216  29.277  25.082  1.00  0.00     0.202 C 
BRANCH  24  25
ATOM     25  C   UNL A   1      32.454  30.087  25.486  1.00  0.00     0.261 C 
BRANCH  25  26
ATOM     26  O   UNL A   1      32.484  30.371  26.896  1.00  0.00    -0.460 OA
BRANCH  26  27
ATOM     27  C   UNL A   1      33.148  31.503  27.233  1.00  0.00     0.338 C 
ATOM     28  O   UNL A   1      32.693  32.641  27.251  1.00  0.00    -0.246 OA
BRANCH  27  29
ATOM     29  C   UNL A   1      34.479  31.169  27.775  1.00  0.00     0.060 A 
ATOM     30  C   UNL A   1      34.736  29.825  28.077  1.00  0.00     0.016 A 
ATOM     31  C   UNL A   1      35.439  32.149  28.036  1.00  0.00     0.016 A 
ATOM     32  C   UNL A   1      35.937  29.463  28.685  1.00  0.00     0.010 A 
ATOM     33  C   UNL A   1      36.640  31.784  28.653  1.00  0.00     0.010 A 
ATOM     34  C   UNL A   1      36.882  30.444  29.010  1.00  0.00    -0.014 A 
BRANCH  34  35
ATOM     35  C   UNL A   1      38.052  30.087  29.852  1.00  0.00     0.031 A 
ATOM     36  C   UNL A   1      39.084  29.141  29.301  1.00  0.00     0.074 A 
ATOM     37  C   UNL A   1      38.211  30.622  31.076  1.00  0.00     0.049 A 
ATOM     38  N   UNL A   1      40.167  28.670  29.862  1.00  0.00    -0.248 NA
ATOM     39  C   UNL A   1      38.857  28.661  27.929  1.00  0.00     0.031 C 
ATOM     40  C   UNL A   1      37.308  31.588  31.697  1.00  0.00     0.029 A 
ATOM     41  N   UNL A   1      39.192  30.426  32.015  1.00  0.00    -0.354 N 
ATOM     42  C   UNL A   1      40.755  27.837  28.915  1.00  0.00     0.074 A 
ATOM     43  C   UNL A   1      39.877  27.834  27.762  1.00  0.00     0.031 C 
ATOM     44  C   UNL A   1      37.780  31.905  32.915  1.00  0.00     0.029 A 
ATOM     45  C   UNL A   1      38.993  31.133  33.176  1.00  0.00     0.049 A 
ATOM     46  H   UNL A   1      39.966  29.834  31.870  1.00  0.00     0.167 HD
ATOM     47  C   UNL A   1      41.921  27.149  28.993  1.00  0.00     0.034 A 
ATOM     48  C   UNL A   1      39.699  31.140  34.326  1.00  0.00     0.034 A 
ATOM     49  C   UNL A   1      42.775  27.147  30.156  1.00  0.00     0.049 A 
ATOM     50  C   UNL A   1      40.933  30.276  34.434  1.00  0.00     0.074 A 
ATOM     51  C   UNL A   1      43.982  26.496  30.342  1.00  0.00     0.029 A 
ATOM     52  N   UNL A   1      42.502  27.816  31.345  1.00  0.00    -0.354 N 
ATOM     53  N   UNL A   1      41.481  29.496  33.530  1.00  0.00    -0.248 NA
ATOM     54  C   UNL A   1      41.643  30.297  35.720  1.00  0.00     0.031 C 
ATOM     55  C   UNL A   1      44.400  26.709  31.662  1.00  0.00     0.029 A 
ATOM     56  C   UNL A   1      43.497  27.561  32.277  1.00  0.00     0.049 A 
ATOM     57  H   UNL A   1      41.717  28.390  31.500  1.00  0.00     0.167 HD
ATOM     58  C   UNL A   1      42.623  28.964  34.129  1.00  0.00     0.074 A 
ATOM     59  C   UNL A   1      42.685  29.518  35.466  1.00  0.00     0.031 C 
ATOM     60  C   UNL A   1      43.541  28.105  33.615  1.00  0.00     0.034 A 
BRANCH  47  61
ATOM     61  C   UNL A   1      42.301  26.301  27.800  1.00  0.00     0.023 A 
ATOM     62  C   UNL A   1      41.971  24.935  27.729  1.00  0.00     0.031 A 
ATOM     63  C   UNL A   1      43.052  26.851  26.747  1.00  0.00     0.131 A 
ATOM     64  C   UNL A   1      42.467  24.148  26.678  1.00  0.00     0.055 A 
ATOM     65  C   UNL A   1      43.466  26.081  25.657  1.00  0.00     0.041 A 
ATOM     66  F   UNL A   1      43.416  28.142  26.768  1.00  0.00    -0.206 F 
ATOM     67  C   UNL A   1      43.192  24.717  25.628  1.00  0.00     0.022 A 
BRANCH  64  68
ATOM     68  S   UNL A   1      42.301  22.346  26.793  1.00  0.00     0.124 S 
ATOM     69  O   UNL A   1      42.359  22.136  28.237  1.00  0.00    -0.237 OA
ATOM     70  O   UNL A   1      41.008  22.108  26.162  1.00  0.00    -0.237 OA
ATOM     71  O   UNL A   1      43.458  21.847  26.052  1.00  0.00    -0.744 OA
ENDBRANCH  64  68
ENDBRANCH  47  61
BRANCH  48  72
ATOM     72  C   UNL A   1      39.253  31.967  35.482  1.00  0.00     0.023 A 
ATOM     73  C   UNL A   1      38.553  31.392  36.554  1.00  0.00     0.031 A 
ATOM     74  C   UNL A   1      39.475  33.356  35.507  1.00  0.00     0.131 A 
ATOM     75  C   UNL A   1      38.062  32.207  37.586  1.00  0.00     0.055 A 
ATOM     76  C   UNL A   1      39.029  34.155  36.562  1.00  0.00     0.041 A 
ATOM     77  F   UNL A   1      40.137  33.956  34.506  1.00  0.00    -0.206 F 
ATOM     78  C   UNL A   1      38.307  33.582  37.603  1.00  0.00     0.022 A 
BRANCH  75  79
ATOM     79  S   UNL A   1      37.028  31.453  38.871  1.00  0.00     0.124 S 
ATOM     80  O   UNL A   1      36.847  30.103  38.351  1.00  0.00    -0.237 OA
ATOM     81  O   UNL A   1      37.875  31.578  40.053  1.00  0.00    -0.237 OA
ATOM     82  O   UNL A   1      35.829  32.287  38.877  1.00  0.00    -0.744 OA
ENDBRANCH  75  79
ENDBRANCH  48  72
BRANCH  60  83
ATOM     83  C   UNL A   1      44.719  27.753  34.493  1.00  0.00     0.023 A 
ATOM     84  C   UNL A   1      44.707  26.630  35.339  1.00  0.00     0.031 A 
ATOM     85  C   UNL A   1      45.867  28.566  34.493  1.00  0.00     0.131 A 
ATOM     86  C   UNL A   1      45.796  26.383  36.189  1.00  0.00     0.055 A 
ATOM     87  C   UNL A   1      46.972  28.281  35.296  1.00  0.00     0.041 A 
ATOM     88  F   UNL A   1      45.934  29.653  33.708  1.00  0.00    -0.206 F 
ATOM     89  C   UNL A   1      46.935  27.191  36.160  1.00  0.00     0.022 A 
BRANCH  86  90
ATOM     90  S   UNL A   1      45.669  25.041  37.405  1.00  0.00     0.124 S 
ATOM     91  O   UNL A   1      45.862  23.858  36.572  1.00  0.00    -0.237 OA
ATOM     92  O   UNL A   1      46.754  25.353  38.329  1.00  0.00    -0.237 OA
ATOM     93  O   UNL A   1      44.324  25.200  37.954  1.00  0.00    -0.744 OA
ENDBRANCH  86  90
ENDBRANCH  60  83
ENDBRANCH  34  35
ENDBRANCH  27  29
ENDBRANCH  26  27
ENDBRANCH  25  26
ENDBRANCH  24  25
ENDBRANCH   1  24
TORSDOF 20
ENDMDL
MODEL 3
REMARK VINA RESULT:     -11.1      5.282      8.536
REMARK SMILES CCOc1ccc(-c2nc(C(=O)OCCOCCOC(=O)c3ccc(-c4c5nc(c(-c6cc(S(=O)(=O)[O-])ccc6F)c6ccc([nH]6)c(-c6cc(S(=O)(=O)[O-])ccc6F)c6nc(c(-c7cc(S(=O)(=O)[O-])ccc7F)c7ccc4[nH]7)C=C6)C=C5)cc3)cc(=O)[nH]2)cc1
REMARK SMILES IDX 16 1 15 2 14 3 13 4 11 5 12 6 10 7 8 8 9 9 88 10 86 11 85 13
REMARK SMILES IDX 87 14 7 15 4 16 5 17 90 18 6 19 89 20 3 21 2 22 1 23 17 24
REMARK SMILES IDX 18 25 19 26 20 27 21 28 22 29 23 30 84 31 24 32 83 33 25 34
REMARK SMILES IDX 26 35 27 36 77 37 28 38 82 39 76 40 78 41 29 42 81 43 75 44
REMARK SMILES IDX 74 45 30 47 62 48 42 49 61 50 43 51 46 52 60 53 79 54 44 55
REMARK SMILES IDX 45 56 59 58 80 59 47 60 31 61 32 62 40 63 33 64 39 65 41 66
REMARK SMILES IDX 38 67 34 68 35 69 36 70 37 71 63 72 64 73 72 74 65 75 71 76
REMARK SMILES IDX 73 77 70 78 66 79 67 80 68 81 69 82 48 83 49 84 57 85 50 86
REMARK SMILES IDX 56 87 58 88 55 89 51 90 52 91 53 92 54 93
REMARK H PARENT 88 12 78 46 46 57
REMARK Flexibility Score: inf
ROOT
ATOM      1  O   UNL A   1      31.839  29.574  27.118  1.00  0.00    -0.374 OA
ENDROOT
BRANCH   1   2
ATOM      2  C   UNL A   1      31.805  28.190  26.765  1.00  0.00     0.202 C 
BRANCH   2   3
ATOM      3  C   UNL A   1      33.109  27.415  26.979  1.00  0.00     0.261 C 
BRANCH   3   4
ATOM      4  O   UNL A   1      33.902  27.413  25.779  1.00  0.00    -0.459 OA
BRANCH   4   5
ATOM      5  C   UNL A   1      33.963  26.221  25.128  1.00  0.00     0.357 C 
ATOM      6  O   UNL A   1      34.424  25.181  25.577  1.00  0.00    -0.244 OA
BRANCH   5   7
ATOM      7  C   UNL A   1      33.234  26.303  23.818  1.00  0.00     0.156 A 
ATOM      8  C   UNL A   1      31.498  27.226  22.661  1.00  0.00     0.141 A 
ATOM      9  N   UNL A   1      32.167  27.173  23.762  1.00  0.00    -0.223 NA
ATOM     10  N   UNL A   1      31.808  26.481  21.558  1.00  0.00    -0.306 N 
ATOM     11  C   UNL A   1      32.881  25.641  21.537  1.00  0.00     0.251 A 
ATOM     12  H   UNL A   1      31.239  26.552  20.757  1.00  0.00     0.171 HD
ATOM     13  C   UNL A   1      33.648  25.551  22.788  1.00  0.00     0.107 A 
ATOM     14  O   UNL A   1      33.195  25.000  20.542  1.00  0.00    -0.269 OA
BRANCH   8  15
ATOM     15  C   UNL A   1      30.351  28.139  22.545  1.00  0.00     0.018 A 
ATOM     16  C   UNL A   1      28.289  29.997  22.524  1.00  0.00     0.119 A 
ATOM     17  C   UNL A   1      28.091  28.747  23.117  1.00  0.00     0.047 A 
ATOM     18  C   UNL A   1      29.519  30.326  21.956  1.00  0.00     0.047 A 
ATOM     19  C   UNL A   1      29.123  27.806  23.121  1.00  0.00     0.016 A 
ATOM     20  C   UNL A   1      30.555  29.394  21.964  1.00  0.00     0.016 A 
BRANCH  16  21
ATOM     21  O   UNL A   1      27.306  30.937  22.651  1.00  0.00    -0.494 OA
BRANCH  21  22
ATOM     22  C   UNL A   1      27.807  32.278  22.644  1.00  0.00     0.226 C 
ATOM     23  C   UNL A   1      27.926  32.819  21.229  1.00  0.00     0.049 C 
ENDBRANCH  21  22
ENDBRANCH  16  21
ENDBRANCH   8  15
ENDBRANCH   5   7
ENDBRANCH   4   5
ENDBRANCH   3   4
ENDBRANCH   2   3
ENDBRANCH   1   2
BRANCH   1  24
ATOM     24  C   UNL A   1      31.820  30.518  26.047  1.00  0.00     0.202 C 
BRANCH  24  25
ATOM     25  C   UNL A   1      31.739  31.998  26.442  1.00  0.00     0.261 C 
BRANCH  25  26
ATOM     26  O   UNL A   1      32.372  32.260  27.706  1.00  0.00    -0.460 OA
BRANCH  26  27
ATOM     27  C   UNL A   1      33.379  33.166  27.661  1.00  0.00     0.338 C 
ATOM     28  O   UNL A   1      33.272  34.369  27.453  1.00  0.00    -0.246 OA
BRANCH  27  29
ATOM     29  C   UNL A   1      34.645  32.541  28.090  1.00  0.00     0.060 A 
ATOM     30  C   UNL A   1      34.622  31.172  28.388  1.00  0.00     0.016 A 
ATOM     31  C   UNL A   1      35.817  33.282  28.254  1.00  0.00     0.016 A 
ATOM     32  C   UNL A   1      35.761  30.548  28.895  1.00  0.00     0.010 A 
ATOM     33  C   UNL A   1      36.957  32.655  28.770  1.00  0.00     0.010 A 
ATOM     34  C   UNL A   1      36.925  31.293  29.123  1.00  0.00    -0.014 A 
BRANCH  34  35
ATOM     35  C   UNL A   1      38.055  30.679  29.866  1.00  0.00     0.031 A 
ATOM     36  C   UNL A   1      38.304  31.098  31.289  1.00  0.00     0.074 A 
ATOM     37  C   UNL A   1      38.827  29.738  29.293  1.00  0.00     0.049 A 
ATOM     38  N   UNL A   1      39.242  30.718  32.118  1.00  0.00    -0.248 NA
ATOM     39  C   UNL A   1      37.366  32.084  31.848  1.00  0.00     0.031 C 
ATOM     40  C   UNL A   1      38.652  29.212  27.942  1.00  0.00     0.029 A 
ATOM     41  N   UNL A   1      39.914  29.058  29.782  1.00  0.00    -0.354 N 
ATOM     42  C   UNL A   1      39.010  31.417  33.299  1.00  0.00     0.074 A 
ATOM     43  C   UNL A   1      37.870  32.278  33.057  1.00  0.00     0.031 C 
ATOM     44  C   UNL A   1      39.599  28.287  27.708  1.00  0.00     0.029 A 
ATOM     45  C   UNL A   1      40.470  28.185  28.877  1.00  0.00     0.049 A 
ATOM     46  H   UNL A   1      40.263  29.183  30.694  1.00  0.00     0.167 HD
ATOM     47  C   UNL A   1      39.676  31.339  34.478  1.00  0.00     0.034 A 
ATOM     48  C   UNL A   1      41.569  27.409  28.976  1.00  0.00     0.034 A 
ATOM     49  C   UNL A   1      40.822  30.490  34.698  1.00  0.00     0.049 A 
ATOM     50  C   UNL A   1      42.366  27.424  30.259  1.00  0.00     0.074 A 
ATOM     51  C   UNL A   1      41.567  30.324  35.852  1.00  0.00     0.029 A 
ATOM     52  N   UNL A   1      41.405  29.675  33.733  1.00  0.00    -0.354 N 
ATOM     53  N   UNL A   1      42.135  28.084  31.371  1.00  0.00    -0.248 NA
ATOM     54  C   UNL A   1      43.571  26.586  30.298  1.00  0.00     0.031 C 
ATOM     55  C   UNL A   1      42.640  29.470  35.566  1.00  0.00     0.029 A 
ATOM     56  C   UNL A   1      42.520  29.036  34.256  1.00  0.00     0.049 A 
ATOM     57  H   UNL A   1      41.072  29.565  32.813  1.00  0.00     0.167 HD
ATOM     58  C   UNL A   1      43.146  27.710  32.253  1.00  0.00     0.074 A 
ATOM     59  C   UNL A   1      43.983  26.762  31.545  1.00  0.00     0.031 C 
ATOM     60  C   UNL A   1      43.358  28.105  33.535  1.00  0.00     0.034 A 
BRANCH  47  61
ATOM     61  C   UNL A   1      39.205  32.243  35.595  1.00  0.00     0.023 A 
ATOM     62  C   UNL A   1      39.614  33.586  35.683  1.00  0.00     0.031 A 
ATOM     63  C   UNL A   1      38.382  31.739  36.618  1.00  0.00     0.131 A 
ATOM     64  C   UNL A   1      39.276  34.349  36.810  1.00  0.00     0.055 A 
ATOM     65  C   UNL A   1      37.975  32.532  37.693  1.00  0.00     0.041 A 
ATOM     66  F   UNL A   1      37.977  30.460  36.603  1.00  0.00    -0.206 F 
ATOM     67  C   UNL A   1      38.438  33.839  37.805  1.00  0.00     0.022 A 
BRANCH  64  68
ATOM     68  S   UNL A   1      40.088  35.954  37.044  1.00  0.00     0.124 S 
ATOM     69  O   UNL A   1      39.259  36.556  38.085  1.00  0.00    -0.237 OA
ATOM     70  O   UNL A   1      41.437  35.570  37.441  1.00  0.00    -0.237 OA
ATOM     71  O   UNL A   1      39.979  36.588  35.730  1.00  0.00    -0.744 OA
ENDBRANCH  64  68
ENDBRANCH  47  61
BRANCH  48  72
ATOM     72  C   UNL A   1      42.007  26.568  27.826  1.00  0.00     0.023 A 
ATOM     73  C   UNL A   1      41.597  25.231  27.712  1.00  0.00     0.031 A 
ATOM     74  C   UNL A   1      42.885  27.075  26.851  1.00  0.00     0.131 A 
ATOM     75  C   UNL A   1      42.097  24.433  26.671  1.00  0.00     0.055 A 
ATOM     76  C   UNL A   1      43.339  26.292  25.789  1.00  0.00     0.041 A 
ATOM     77  F   UNL A   1      43.310  28.347  26.915  1.00  0.00    -0.206 F 
ATOM     78  C   UNL A   1      42.954  24.958  25.702  1.00  0.00     0.022 A 
BRANCH  75  79
ATOM     79  S   UNL A   1      41.669  22.670  26.646  1.00  0.00     0.124 S 
ATOM     80  O   UNL A   1      40.212  22.719  26.670  1.00  0.00    -0.237 OA
ATOM     81  O   UNL A   1      42.277  22.229  25.395  1.00  0.00    -0.237 OA
ATOM     82  O   UNL A   1      42.297  22.150  27.858  1.00  0.00    -0.744 OA
ENDBRANCH  75  79
ENDBRANCH  48  72
BRANCH  60  83
ATOM     83  C   UNL A   1      44.516  27.469  34.268  1.00  0.00     0.023 A 
ATOM     84  C   UNL A   1      44.389  26.238  34.936  1.00  0.00     0.031 A 
ATOM     85  C   UNL A   1      45.765  28.116  34.309  1.00  0.00     0.131 A 
ATOM     86  C   UNL A   1      45.473  25.721  35.662  1.00  0.00     0.055 A 
ATOM     87  C   UNL A   1      46.857  27.567  34.983  1.00  0.00     0.041 A 
ATOM     88  F   UNL A   1      45.945  29.295  33.693  1.00  0.00    -0.206 F 
ATOM     89  C   UNL A   1      46.711  26.368  35.675  1.00  0.00     0.022 A 
BRANCH  86  90
ATOM     90  S   UNL A   1      45.220  24.233  36.669  1.00  0.00     0.124 S 
ATOM     91  O   UNL A   1      46.587  23.758  36.858  1.00  0.00    -0.237 OA
ATOM     92  O   UNL A   1      44.561  24.767  37.856  1.00  0.00    -0.237 OA
ATOM     93  O   UNL A   1      44.379  23.384  35.826  1.00  0.00    -0.744 OA
ENDBRANCH  86  90
ENDBRANCH  60  83
ENDBRANCH  34  35
ENDBRANCH  27  29
ENDBRANCH  26  27
ENDBRANCH  25  26
ENDBRANCH  24  25
ENDBRANCH   1  24
TORSDOF 20
ENDMDL
