MODEL 1
REMARK VINA RESULT:     -10.7      0.000      0.000
REMARK SMILES O=C(Cc1ccc(=O)n(C(F)F)c1)OCCOCCOC(=O)c1ccc(-c2c3nc(c(-c4cc(S(=O)(=O)[O-])ccc4F)c4ccc([nH]4)c(-c4cc(S(=O)(=O)[O-])ccc4F)c4nc(c(-c5cc(S(=O)(=O)[O-])ccc5F)c5ccc2[nH]5)C=C4)C=C3)cc1
REMARK SMILES IDX 18 1 17 2 16 3 15 4 14 5 2 6 1 7 3 8 4 9 5 10 13 11 6 12
REMARK SMILES IDX 9 13 7 14 8 15 10 16 11 17 12 18 19 19 20 20 21 21 22 22
REMARK SMILES IDX 23 23 24 24 85 25 25 26 84 27 26 28 27 29 28 30 78 31 29 32
REMARK SMILES IDX 83 33 77 34 79 35 30 36 82 37 76 38 75 39 31 41 63 42 43 43
REMARK SMILES IDX 62 44 44 45 47 46 61 47 80 48 45 49 46 50 60 52 81 53 48 54
REMARK SMILES IDX 32 55 33 56 41 57 34 58 40 59 42 60 39 61 35 62 36 63 37 64
REMARK SMILES IDX 38 65 64 66 65 67 73 68 66 69 72 70 74 71 71 72 67 73 68 74
REMARK SMILES IDX 69 75 70 76 49 77 50 78 58 79 51 80 57 81 59 82 56 83 52 84
REMARK SMILES IDX 53 85 54 86 55 87
REMARK H PARENT 79 40 47 51
REMARK Flexibility Score: inf
ROOT
ATOM      1  C   UNL A   1      35.820  21.301  25.656  1.00  0.00     0.202 C 
ENDROOT
BRANCH   1   2
ATOM      2  O   UNL A   1      35.342  22.596  25.278  1.00  0.00    -0.374 OA
BRANCH   2   3
ATOM      3  C   UNL A   1      34.416  23.238  26.141  1.00  0.00     0.202 C 
BRANCH   3   4
ATOM      4  C   UNL A   1      33.108  22.516  26.464  1.00  0.00     0.261 C 
BRANCH   4   5
ATOM      5  O   UNL A   1      32.157  23.238  27.261  1.00  0.00    -0.463 OA
BRANCH   5   6
ATOM      6  C   UNL A   1      30.935  23.628  26.821  1.00  0.00     0.310 C 
ATOM      7  O   UNL A   1      29.924  23.322  27.449  1.00  0.00    -0.252 OA
BRANCH   6   8
ATOM      8  C   UNL A   1      30.829  24.367  25.498  1.00  0.00     0.159 C 
BRANCH   8   9
ATOM      9  C   UNL A   1      30.964  25.865  25.471  1.00  0.00    -0.020 A 
ATOM     10  C   UNL A   1      31.564  26.613  26.556  1.00  0.00     0.011 A 
ATOM     11  C   UNL A   1      30.553  26.539  24.382  1.00  0.00     0.099 A 
ATOM     12  C   UNL A   1      31.827  27.920  26.426  1.00  0.00     0.072 A 
ATOM     13  N   UNL A   1      30.734  27.904  24.257  1.00  0.00    -0.258 N 
ATOM     14  C   UNL A   1      31.401  28.659  25.207  1.00  0.00     0.254 A 
ATOM     15  O   UNL A   1      31.640  29.859  25.129  1.00  0.00    -0.269 OA
BRANCH  13  16
ATOM     16  C   UNL A   1      30.143  28.611  23.153  1.00  0.00     0.451 C 
ATOM     17  F   UNL A   1      30.179  27.847  22.032  1.00  0.00    -0.185 F 
ATOM     18  F   UNL A   1      28.854  28.951  23.389  1.00  0.00    -0.185 F 
ENDBRANCH  13  16
ENDBRANCH   8   9
ENDBRANCH   6   8
ENDBRANCH   5   6
ENDBRANCH   4   5
ENDBRANCH   3   4
ENDBRANCH   2   3
ENDBRANCH   1   2
BRANCH   1  19
ATOM     19  C   UNL A   1      37.138  20.829  25.036  1.00  0.00     0.261 C 
BRANCH  19  20
ATOM     20  O   UNL A   1      38.170  21.817  25.186  1.00  0.00    -0.460 OA
BRANCH  20  21
ATOM     21  C   UNL A   1      39.153  21.520  26.074  1.00  0.00     0.338 C 
ATOM     22  O   UNL A   1      39.694  20.439  26.234  1.00  0.00    -0.246 OA
BRANCH  21  23
ATOM     23  C   UNL A   1      39.647  22.785  26.649  1.00  0.00     0.060 A 
ATOM     24  C   UNL A   1      40.739  22.791  27.516  1.00  0.00     0.016 A 
ATOM     25  C   UNL A   1      38.999  23.979  26.304  1.00  0.00     0.016 A 
ATOM     26  C   UNL A   1      41.203  24.006  28.020  1.00  0.00     0.010 A 
ATOM     27  C   UNL A   1      39.461  25.192  26.812  1.00  0.00     0.010 A 
ATOM     28  C   UNL A   1      40.580  25.214  27.656  1.00  0.00    -0.014 A 
BRANCH  28  29
ATOM     29  C   UNL A   1      41.202  26.505  28.029  1.00  0.00     0.031 A 
ATOM     30  C   UNL A   1      42.639  26.799  27.728  1.00  0.00     0.074 A 
ATOM     31  C   UNL A   1      40.435  27.408  28.670  1.00  0.00     0.049 A 
ATOM     32  N   UNL A   1      43.310  27.896  27.954  1.00  0.00    -0.248 NA
ATOM     33  C   UNL A   1      43.427  25.729  27.097  1.00  0.00     0.031 C 
ATOM     34  C   UNL A   1      39.034  27.194  29.035  1.00  0.00     0.029 A 
ATOM     35  N   UNL A   1      40.710  28.672  29.128  1.00  0.00    -0.354 N 
ATOM     36  C   UNL A   1      44.595  27.662  27.482  1.00  0.00     0.074 A 
ATOM     37  C   UNL A   1      44.621  26.299  26.996  1.00  0.00     0.031 C 
ATOM     38  C   UNL A   1      38.566  28.292  29.645  1.00  0.00     0.029 A 
ATOM     39  C   UNL A   1      39.642  29.274  29.754  1.00  0.00     0.049 A 
ATOM     40  H   UNL A   1      41.586  29.106  29.020  1.00  0.00     0.167 HD
ATOM     41  C   UNL A   1      45.639  28.522  27.446  1.00  0.00     0.034 A 
ATOM     42  C   UNL A   1      39.540  30.477  30.356  1.00  0.00     0.034 A 
ATOM     43  C   UNL A   1      45.580  29.876  27.939  1.00  0.00     0.049 A 
ATOM     44  C   UNL A   1      40.731  31.401  30.326  1.00  0.00     0.074 A 
ATOM     45  C   UNL A   1      46.571  30.840  27.897  1.00  0.00     0.029 A 
ATOM     46  N   UNL A   1      44.485  30.456  28.566  1.00  0.00    -0.354 N 
ATOM     47  N   UNL A   1      41.906  31.206  29.773  1.00  0.00    -0.248 NA
ATOM     48  C   UNL A   1      40.591  32.708  30.981  1.00  0.00     0.031 C 
ATOM     49  C   UNL A   1      46.110  31.969  28.569  1.00  0.00     0.029 A 
ATOM     50  C   UNL A   1      44.795  31.751  28.950  1.00  0.00     0.049 A 
ATOM     51  H   UNL A   1      43.619  30.014  28.715  1.00  0.00     0.167 HD
ATOM     52  C   UNL A   1      42.632  32.374  29.989  1.00  0.00     0.074 A 
ATOM     53  C   UNL A   1      41.756  33.280  30.702  1.00  0.00     0.031 C 
ATOM     54  C   UNL A   1      43.907  32.662  29.632  1.00  0.00     0.034 A 
BRANCH  41  55
ATOM     55  C   UNL A   1      46.944  28.075  26.833  1.00  0.00     0.023 A 
ATOM     56  C   UNL A   1      47.129  28.159  25.440  1.00  0.00     0.031 A 
ATOM     57  C   UNL A   1      47.905  27.383  27.592  1.00  0.00     0.131 A 
ATOM     58  C   UNL A   1      48.216  27.510  24.841  1.00  0.00     0.055 A 
ATOM     59  C   UNL A   1      49.011  26.777  26.994  1.00  0.00     0.041 A 
ATOM     60  F   UNL A   1      47.769  27.270  28.922  1.00  0.00    -0.206 F 
ATOM     61  C   UNL A   1      49.161  26.823  25.611  1.00  0.00     0.022 A 
BRANCH  58  62
ATOM     62  S   UNL A   1      48.395  27.451  23.037  1.00  0.00     0.124 S 
ATOM     63  O   UNL A   1      49.703  28.071  22.845  1.00  0.00    -0.237 OA
ATOM     64  O   UNL A   1      48.338  26.017  22.772  1.00  0.00    -0.237 OA
ATOM     65  O   UNL A   1      47.263  28.230  22.547  1.00  0.00    -0.744 OA
ENDBRANCH  58  62
ENDBRANCH  41  55
BRANCH  42  66
ATOM     66  C   UNL A   1      38.245  30.870  30.986  1.00  0.00     0.023 A 
ATOM     67  C   UNL A   1      37.254  31.532  30.238  1.00  0.00     0.031 A 
ATOM     68  C   UNL A   1      38.020  30.686  32.360  1.00  0.00     0.131 A 
ATOM     69  C   UNL A   1      36.118  32.045  30.880  1.00  0.00     0.055 A 
ATOM     70  C   UNL A   1      36.850  31.128  32.981  1.00  0.00     0.041 A 
ATOM     71  F   UNL A   1      38.942  30.077  33.121  1.00  0.00    -0.206 F 
ATOM     72  C   UNL A   1      35.900  31.828  32.243  1.00  0.00     0.022 A 
BRANCH  69  73
ATOM     73  S   UNL A   1      34.964  33.131  29.996  1.00  0.00     0.124 S 
ATOM     74  O   UNL A   1      35.870  34.086  29.366  1.00  0.00    -0.237 OA
ATOM     75  O   UNL A   1      34.306  32.192  29.090  1.00  0.00    -0.237 OA
ATOM     76  O   UNL A   1      34.117  33.667  31.055  1.00  0.00    -0.744 OA
ENDBRANCH  69  73
ENDBRANCH  42  66
BRANCH  54  77
ATOM     77  C   UNL A   1      44.476  34.020  29.975  1.00  0.00     0.023 A 
ATOM     78  C   UNL A   1      44.514  35.027  28.990  1.00  0.00     0.031 A 
ATOM     79  C   UNL A   1      45.161  34.242  31.181  1.00  0.00     0.131 A 
ATOM     80  C   UNL A   1      45.282  36.178  29.201  1.00  0.00     0.055 A 
ATOM     81  C   UNL A   1      45.876  35.419  31.410  1.00  0.00     0.041 A 
ATOM     82  F   UNL A   1      45.163  33.308  32.146  1.00  0.00    -0.206 F 
ATOM     83  C   UNL A   1      45.956  36.383  30.408  1.00  0.00     0.022 A 
BRANCH  80  84
ATOM     84  S   UNL A   1      45.529  37.392  27.875  1.00  0.00     0.124 S 
ATOM     85  O   UNL A   1      46.783  38.026  28.274  1.00  0.00    -0.237 OA
ATOM     86  O   UNL A   1      45.610  36.540  26.692  1.00  0.00    -0.237 OA
ATOM     87  O   UNL A   1      44.349  38.247  27.956  1.00  0.00    -0.744 OA
ENDBRANCH  80  84
ENDBRANCH  54  77
ENDBRANCH  28  29
ENDBRANCH  21  23
ENDBRANCH  20  21
ENDBRANCH  19  20
ENDBRANCH   1  19
TORSDOF 19
ENDMDL
MODEL 2
REMARK VINA RESULT:     -10.5      3.060      8.585
REMARK SMILES O=C(Cc1ccc(=O)n(C(F)F)c1)OCCOCCOC(=O)c1ccc(-c2c3nc(c(-c4cc(S(=O)(=O)[O-])ccc4F)c4ccc([nH]4)c(-c4cc(S(=O)(=O)[O-])ccc4F)c4nc(c(-c5cc(S(=O)(=O)[O-])ccc5F)c5ccc2[nH]5)C=C4)C=C3)cc1
REMARK SMILES IDX 18 1 17 2 16 3 15 4 14 5 2 6 1 7 3 8 4 9 5 10 13 11 6 12
REMARK SMILES IDX 9 13 7 14 8 15 10 16 11 17 12 18 19 19 20 20 21 21 22 22
REMARK SMILES IDX 23 23 24 24 85 25 25 26 84 27 26 28 27 29 28 30 78 31 29 32
REMARK SMILES IDX 83 33 77 34 79 35 30 36 82 37 76 38 75 39 31 41 63 42 43 43
REMARK SMILES IDX 62 44 44 45 47 46 61 47 80 48 45 49 46 50 60 52 81 53 48 54
REMARK SMILES IDX 32 55 33 56 41 57 34 58 40 59 42 60 39 61 35 62 36 63 37 64
REMARK SMILES IDX 38 65 64 66 65 67 73 68 66 69 72 70 74 71 71 72 67 73 68 74
REMARK SMILES IDX 69 75 70 76 49 77 50 78 58 79 51 80 57 81 59 82 56 83 52 84
REMARK SMILES IDX 53 85 54 86 55 87
REMARK H PARENT 79 40 47 51
REMARK Flexibility Score: inf
ROOT
ATOM      1  C   UNL A   1      36.967  19.643  24.999  1.00  0.00     0.202 C 
ENDROOT
BRANCH   1   2
ATOM      2  O   UNL A   1      36.370  20.895  25.349  1.00  0.00    -0.374 OA
BRANCH   2   3
ATOM      3  C   UNL A   1      35.801  21.673  24.307  1.00  0.00     0.202 C 
BRANCH   3   4
ATOM      4  C   UNL A   1      34.841  22.800  24.689  1.00  0.00     0.261 C 
BRANCH   4   5
ATOM      5  O   UNL A   1      34.378  22.815  26.047  1.00  0.00    -0.463 OA
BRANCH   5   6
ATOM      6  C   UNL A   1      33.554  21.880  26.581  1.00  0.00     0.310 C 
ATOM      7  O   UNL A   1      33.808  21.384  27.677  1.00  0.00    -0.252 OA
BRANCH   6   8
ATOM      8  C   UNL A   1      32.367  21.392  25.768  1.00  0.00     0.159 C 
BRANCH   8   9
ATOM      9  C   UNL A   1      32.487  20.125  24.967  1.00  0.00    -0.020 A 
ATOM     10  C   UNL A   1      32.279  20.085  23.534  1.00  0.00     0.011 A 
ATOM     11  C   UNL A   1      32.844  18.987  25.590  1.00  0.00     0.099 A 
ATOM     12  C   UNL A   1      32.564  18.984  22.828  1.00  0.00     0.072 A 
ATOM     13  N   UNL A   1      33.061  17.811  24.897  1.00  0.00    -0.258 N 
ATOM     14  C   UNL A   1      32.989  17.735  23.516  1.00  0.00     0.254 A 
ATOM     15  O   UNL A   1      33.223  16.738  22.841  1.00  0.00    -0.269 OA
BRANCH  13  16
ATOM     16  C   UNL A   1      33.286  16.584  25.612  1.00  0.00     0.451 C 
ATOM     17  F   UNL A   1      32.315  15.683  25.318  1.00  0.00    -0.185 F 
ATOM     18  F   UNL A   1      34.483  16.025  25.313  1.00  0.00    -0.185 F 
ENDBRANCH  13  16
ENDBRANCH   8   9
ENDBRANCH   6   8
ENDBRANCH   5   6
ENDBRANCH   4   5
ENDBRANCH   3   4
ENDBRANCH   2   3
ENDBRANCH   1   2
BRANCH   1  19
ATOM     19  C   UNL A   1      38.495  19.553  25.048  1.00  0.00     0.261 C 
BRANCH  19  20
ATOM     20  O   UNL A   1      39.077  20.784  25.504  1.00  0.00    -0.460 OA
BRANCH  20  21
ATOM     21  C   UNL A   1      39.956  20.680  26.532  1.00  0.00     0.338 C 
ATOM     22  O   UNL A   1      40.528  19.671  26.910  1.00  0.00    -0.246 OA
BRANCH  21  23
ATOM     23  C   UNL A   1      40.312  22.043  26.970  1.00  0.00     0.060 A 
ATOM     24  C   UNL A   1      41.297  22.244  27.937  1.00  0.00     0.016 A 
ATOM     25  C   UNL A   1      39.643  23.130  26.391  1.00  0.00     0.016 A 
ATOM     26  C   UNL A   1      41.633  23.545  28.308  1.00  0.00     0.010 A 
ATOM     27  C   UNL A   1      39.977  24.430  26.767  1.00  0.00     0.010 A 
ATOM     28  C   UNL A   1      40.991  24.646  27.712  1.00  0.00    -0.014 A 
BRANCH  28  29
ATOM     29  C   UNL A   1      41.495  26.016  27.959  1.00  0.00     0.031 A 
ATOM     30  C   UNL A   1      40.644  27.056  28.618  1.00  0.00     0.074 A 
ATOM     31  C   UNL A   1      42.746  26.307  27.552  1.00  0.00     0.049 A 
ATOM     32  N   UNL A   1      40.960  28.282  28.939  1.00  0.00    -0.248 NA
ATOM     33  C   UNL A   1      39.263  26.680  28.959  1.00  0.00     0.031 C 
ATOM     34  C   UNL A   1      43.634  25.364  26.870  1.00  0.00     0.029 A 
ATOM     35  N   UNL A   1      43.487  27.458  27.644  1.00  0.00    -0.354 N 
ATOM     36  C   UNL A   1      39.828  28.825  29.534  1.00  0.00     0.074 A 
ATOM     37  C   UNL A   1      38.802  27.806  29.489  1.00  0.00     0.031 C 
ATOM     38  C   UNL A   1      44.805  25.968  26.621  1.00  0.00     0.029 A 
ATOM     39  C   UNL A   1      44.739  27.352  27.085  1.00  0.00     0.049 A 
ATOM     40  H   UNL A   1      43.154  28.280  28.070  1.00  0.00     0.167 HD
ATOM     41  C   UNL A   1      39.681  30.054  30.080  1.00  0.00     0.034 A 
ATOM     42  C   UNL A   1      45.723  28.265  26.951  1.00  0.00     0.034 A 
ATOM     43  C   UNL A   1      40.727  31.048  30.109  1.00  0.00     0.049 A 
ATOM     44  C   UNL A   1      45.518  29.636  27.543  1.00  0.00     0.074 A 
ATOM     45  C   UNL A   1      40.689  32.304  30.688  1.00  0.00     0.029 A 
ATOM     46  N   UNL A   1      41.983  30.911  29.534  1.00  0.00    -0.354 N 
ATOM     47  N   UNL A   1      44.481  30.097  28.205  1.00  0.00    -0.248 NA
ATOM     48  C   UNL A   1      46.608  30.609  27.391  1.00  0.00     0.031 C 
ATOM     49  C   UNL A   1      41.885  32.955  30.394  1.00  0.00     0.029 A 
ATOM     50  C   UNL A   1      42.711  32.075  29.712  1.00  0.00     0.049 A 
ATOM     51  H   UNL A   1      42.308  30.106  29.070  1.00  0.00     0.167 HD
ATOM     52  C   UNL A   1      44.807  31.400  28.571  1.00  0.00     0.074 A 
ATOM     53  C   UNL A   1      46.145  31.647  28.078  1.00  0.00     0.031 C 
ATOM     54  C   UNL A   1      44.059  32.305  29.248  1.00  0.00     0.034 A 
BRANCH  41  55
ATOM     55  C   UNL A   1      38.370  30.423  30.730  1.00  0.00     0.023 A 
ATOM     56  C   UNL A   1      37.397  31.126  29.995  1.00  0.00     0.031 A 
ATOM     57  C   UNL A   1      38.174  30.264  32.113  1.00  0.00     0.131 A 
ATOM     58  C   UNL A   1      36.302  31.698  30.657  1.00  0.00     0.055 A 
ATOM     59  C   UNL A   1      37.058  30.796  32.760  1.00  0.00     0.041 A 
ATOM     60  F   UNL A   1      39.077  29.606  32.858  1.00  0.00    -0.206 F 
ATOM     61  C   UNL A   1      36.125  31.532  32.035  1.00  0.00     0.022 A 
BRANCH  58  62
ATOM     62  S   UNL A   1      35.121  32.754  29.775  1.00  0.00     0.124 S 
ATOM     63  O   UNL A   1      34.466  31.796  28.888  1.00  0.00    -0.237 OA
ATOM     64  O   UNL A   1      34.295  33.263  30.865  1.00  0.00    -0.237 OA
ATOM     65  O   UNL A   1      35.964  33.740  29.107  1.00  0.00    -0.744 OA
ENDBRANCH  58  62
ENDBRANCH  41  55
BRANCH  42  66
ATOM     66  C   UNL A   1      46.992  27.876  26.267  1.00  0.00     0.023 A 
ATOM     67  C   UNL A   1      47.159  28.092  24.887  1.00  0.00     0.031 A 
ATOM     68  C   UNL A   1      48.008  27.193  26.954  1.00  0.00     0.131 A 
ATOM     69  C   UNL A   1      48.280  27.570  24.227  1.00  0.00     0.055 A 
ATOM     70  C   UNL A   1      49.162  26.745  26.308  1.00  0.00     0.041 A 
ATOM     71  F   UNL A   1      47.889  26.945  28.268  1.00  0.00    -0.206 F 
ATOM     72  C   UNL A   1      49.293  26.916  24.933  1.00  0.00     0.022 A 
BRANCH  69  73
ATOM     73  S   UNL A   1      48.386  27.596  22.416  1.00  0.00     0.124 S 
ATOM     74  O   UNL A   1      49.519  28.488  22.192  1.00  0.00    -0.237 OA
ATOM     75  O   UNL A   1      48.622  26.187  22.111  1.00  0.00    -0.237 OA
ATOM     76  O   UNL A   1      47.085  28.110  22.002  1.00  0.00    -0.744 OA
ENDBRANCH  69  73
ENDBRANCH  42  66
BRANCH  54  77
ATOM     77  C   UNL A   1      44.642  33.670  29.536  1.00  0.00     0.023 A 
ATOM     78  C   UNL A   1      44.381  34.738  28.655  1.00  0.00     0.031 A 
ATOM     79  C   UNL A   1      45.607  33.855  30.539  1.00  0.00     0.131 A 
ATOM     80  C   UNL A   1      45.129  35.917  28.748  1.00  0.00     0.055 A 
ATOM     81  C   UNL A   1      46.308  35.056  30.666  1.00  0.00     0.041 A 
ATOM     82  F   UNL A   1      45.898  32.864  31.397  1.00  0.00    -0.206 F 
ATOM     83  C   UNL A   1      46.086  36.085  29.754  1.00  0.00     0.022 A 
BRANCH  80  84
ATOM     84  S   UNL A   1      44.973  37.224  27.500  1.00  0.00     0.124 S 
ATOM     85  O   UNL A   1      46.102  36.938  26.618  1.00  0.00    -0.237 OA
ATOM     86  O   UNL A   1      43.655  36.952  26.935  1.00  0.00    -0.237 OA
ATOM     87  O   UNL A   1      45.085  38.460  28.268  1.00  0.00    -0.744 OA
ENDBRANCH  80  84
ENDBRANCH  54  77
ENDBRANCH  28  29
ENDBRANCH  21  23
ENDBRANCH  20  21
ENDBRANCH  19  20
ENDBRANCH   1  19
TORSDOF 19
ENDMDL
MODEL 3
REMARK VINA RESULT:     -10.4      1.775      2.092
REMARK SMILES O=C(Cc1ccc(=O)n(C(F)F)c1)OCCOCCOC(=O)c1ccc(-c2c3nc(c(-c4cc(S(=O)(=O)[O-])ccc4F)c4ccc([nH]4)c(-c4cc(S(=O)(=O)[O-])ccc4F)c4nc(c(-c5cc(S(=O)(=O)[O-])ccc5F)c5ccc2[nH]5)C=C4)C=C3)cc1
REMARK SMILES IDX 18 1 17 2 16 3 15 4 14 5 2 6 1 7 3 8 4 9 5 10 13 11 6 12
REMARK SMILES IDX 9 13 7 14 8 15 10 16 11 17 12 18 19 19 20 20 21 21 22 22
REMARK SMILES IDX 23 23 24 24 85 25 25 26 84 27 26 28 27 29 28 30 78 31 29 32
REMARK SMILES IDX 83 33 77 34 79 35 30 36 82 37 76 38 75 39 31 41 63 42 43 43
REMARK SMILES IDX 62 44 44 45 47 46 61 47 80 48 45 49 46 50 60 52 81 53 48 54
REMARK SMILES IDX 32 55 33 56 41 57 34 58 40 59 42 60 39 61 35 62 36 63 37 64
REMARK SMILES IDX 38 65 64 66 65 67 73 68 66 69 72 70 74 71 71 72 67 73 68 74
REMARK SMILES IDX 69 75 70 76 49 77 50 78 58 79 51 80 57 81 59 82 56 83 52 84
REMARK SMILES IDX 53 85 54 86 55 87
REMARK H PARENT 79 40 47 51
REMARK Flexibility Score: inf
ROOT
ATOM      1  C   UNL A   1      36.014  21.512  25.997  1.00  0.00     0.202 C 
ENDROOT
BRANCH   1   2
ATOM      2  O   UNL A   1      35.505  22.817  25.707  1.00  0.00    -0.374 OA
BRANCH   2   3
ATOM      3  C   UNL A   1      34.458  23.318  26.524  1.00  0.00     0.202 C 
BRANCH   3   4
ATOM      4  C   UNL A   1      33.195  22.471  26.679  1.00  0.00     0.261 C 
BRANCH   4   5
ATOM      5  O   UNL A   1      32.105  23.071  27.396  1.00  0.00    -0.463 OA
BRANCH   5   6
ATOM      6  C   UNL A   1      30.902  23.366  26.845  1.00  0.00     0.310 C 
ATOM      7  O   UNL A   1      29.874  23.270  27.514  1.00  0.00    -0.252 OA
BRANCH   6   8
ATOM      8  C   UNL A   1      30.834  23.727  25.371  1.00  0.00     0.159 C 
BRANCH   8   9
ATOM      9  C   UNL A   1      30.896  25.171  24.956  1.00  0.00    -0.020 A 
ATOM     10  C   UNL A   1      29.996  25.739  23.973  1.00  0.00     0.011 A 
ATOM     11  C   UNL A   1      31.789  25.984  25.547  1.00  0.00     0.099 A 
ATOM     12  C   UNL A   1      29.962  27.060  23.755  1.00  0.00     0.072 A 
ATOM     13  N   UNL A   1      31.834  27.339  25.277  1.00  0.00    -0.258 N 
ATOM     14  C   UNL A   1      30.930  27.962  24.434  1.00  0.00     0.254 A 
ATOM     15  O   UNL A   1      30.884  29.165  24.197  1.00  0.00    -0.269 OA
BRANCH  13  16
ATOM     16  C   UNL A   1      32.901  28.144  25.807  1.00  0.00     0.451 C 
ATOM     17  F   UNL A   1      33.625  27.433  26.709  1.00  0.00    -0.185 F 
ATOM     18  F   UNL A   1      33.745  28.581  24.843  1.00  0.00    -0.185 F 
ENDBRANCH  13  16
ENDBRANCH   8   9
ENDBRANCH   6   8
ENDBRANCH   5   6
ENDBRANCH   4   5
ENDBRANCH   3   4
ENDBRANCH   2   3
ENDBRANCH   1   2
BRANCH   1  19
ATOM     19  C   UNL A   1      37.316  21.093  25.309  1.00  0.00     0.261 C 
BRANCH  19  20
ATOM     20  O   UNL A   1      38.322  22.112  25.431  1.00  0.00    -0.460 OA
BRANCH  20  21
ATOM     21  C   UNL A   1      39.266  21.904  26.383  1.00  0.00     0.338 C 
ATOM     22  O   UNL A   1      39.841  20.857  26.629  1.00  0.00    -0.246 OA
BRANCH  21  23
ATOM     23  C   UNL A   1      39.677  23.217  26.914  1.00  0.00     0.060 A 
ATOM     24  C   UNL A   1      40.678  23.310  27.881  1.00  0.00     0.016 A 
ATOM     25  C   UNL A   1      39.043  24.368  26.425  1.00  0.00     0.016 A 
ATOM     26  C   UNL A   1      41.066  24.568  28.342  1.00  0.00     0.010 A 
ATOM     27  C   UNL A   1      39.430  25.624  26.891  1.00  0.00     0.010 A 
ATOM     28  C   UNL A   1      40.460  25.732  27.836  1.00  0.00    -0.014 A 
BRANCH  28  29
ATOM     29  C   UNL A   1      41.017  27.061  28.177  1.00  0.00     0.031 A 
ATOM     30  C   UNL A   1      42.451  27.400  27.914  1.00  0.00     0.074 A 
ATOM     31  C   UNL A   1      40.192  27.956  28.754  1.00  0.00     0.049 A 
ATOM     32  N   UNL A   1      43.070  28.531  28.117  1.00  0.00    -0.248 NA
ATOM     33  C   UNL A   1      43.302  26.338  27.355  1.00  0.00     0.031 C 
ATOM     34  C   UNL A   1      38.789  27.700  29.079  1.00  0.00     0.029 A 
ATOM     35  N   UNL A   1      40.402  29.247  29.169  1.00  0.00    -0.354 N 
ATOM     36  C   UNL A   1      44.380  28.331  27.700  1.00  0.00     0.074 A 
ATOM     37  C   UNL A   1      44.477  26.952  27.271  1.00  0.00     0.031 C 
ATOM     38  C   UNL A   1      38.257  28.802  29.627  1.00  0.00     0.029 A 
ATOM     39  C   UNL A   1      39.290  29.830  29.732  1.00  0.00     0.049 A 
ATOM     40  H   UNL A   1      41.264  29.712  29.073  1.00  0.00     0.167 HD
ATOM     41  C   UNL A   1      45.391  29.230  27.665  1.00  0.00     0.034 A 
ATOM     42  C   UNL A   1      39.120  31.051  30.281  1.00  0.00     0.034 A 
ATOM     43  C   UNL A   1      45.261  30.599  28.100  1.00  0.00     0.049 A 
ATOM     44  C   UNL A   1      40.274  32.020  30.255  1.00  0.00     0.074 A 
ATOM     45  C   UNL A   1      46.215  31.599  28.053  1.00  0.00     0.029 A 
ATOM     46  N   UNL A   1      44.123  31.159  28.665  1.00  0.00    -0.354 N 
ATOM     47  N   UNL A   1      41.475  31.850  29.751  1.00  0.00    -0.248 NA
ATOM     48  C   UNL A   1      40.059  33.345  30.851  1.00  0.00     0.031 C 
ATOM     49  C   UNL A   1      45.686  32.735  28.661  1.00  0.00     0.029 A 
ATOM     50  C   UNL A   1      44.368  32.479  29.006  1.00  0.00     0.049 A 
ATOM     51  H   UNL A   1      43.269  30.688  28.802  1.00  0.00     0.167 HD
ATOM     52  C   UNL A   1      42.146  33.055  29.944  1.00  0.00     0.074 A 
ATOM     53  C   UNL A   1      41.211  33.952  30.589  1.00  0.00     0.031 C 
ATOM     54  C   UNL A   1      43.421  33.380  29.619  1.00  0.00     0.034 A 
BRANCH  41  55
ATOM     55  C   UNL A   1      46.733  28.812  27.116  1.00  0.00     0.023 A 
ATOM     56  C   UNL A   1      46.880  28.563  25.737  1.00  0.00     0.031 A 
ATOM     57  C   UNL A   1      47.792  28.463  27.972  1.00  0.00     0.131 A 
ATOM     58  C   UNL A   1      48.035  27.927  25.264  1.00  0.00     0.055 A 
ATOM     59  C   UNL A   1      48.960  27.872  27.488  1.00  0.00     0.041 A 
ATOM     60  F   UNL A   1      47.697  28.674  29.294  1.00  0.00    -0.206 F 
ATOM     61  C   UNL A   1      49.077  27.584  26.131  1.00  0.00     0.022 A 
BRANCH  58  62
ATOM     62  S   UNL A   1      48.187  27.436  23.524  1.00  0.00     0.124 S 
ATOM     63  O   UNL A   1      47.143  28.238  22.893  1.00  0.00    -0.237 OA
ATOM     64  O   UNL A   1      49.556  27.836  23.214  1.00  0.00    -0.237 OA
ATOM     65  O   UNL A   1      47.937  25.999  23.544  1.00  0.00    -0.744 OA
ENDBRANCH  58  62
ENDBRANCH  41  55
BRANCH  42  66
ATOM     66  C   UNL A   1      37.788  31.416  30.850  1.00  0.00     0.023 A 
ATOM     67  C   UNL A   1      36.826  32.075  30.062  1.00  0.00     0.031 A 
ATOM     68  C   UNL A   1      37.496  31.207  32.207  1.00  0.00     0.131 A 
ATOM     69  C   UNL A   1      35.652  32.562  30.652  1.00  0.00     0.055 A 
ATOM     70  C   UNL A   1      36.289  31.623  32.774  1.00  0.00     0.041 A 
ATOM     71  F   UNL A   1      38.387  30.600  33.006  1.00  0.00    -0.206 F 
ATOM     72  C   UNL A   1      35.368  32.321  31.999  1.00  0.00     0.022 A 
BRANCH  69  73
ATOM     73  S   UNL A   1      34.529  33.646  29.726  1.00  0.00     0.124 S 
ATOM     74  O   UNL A   1      35.461  34.546  29.056  1.00  0.00    -0.237 OA
ATOM     75  O   UNL A   1      33.840  32.691  28.861  1.00  0.00    -0.237 OA
ATOM     76  O   UNL A   1      33.701  34.250  30.764  1.00  0.00    -0.744 OA
ENDBRANCH  69  73
ENDBRANCH  42  66
BRANCH  54  77
ATOM     77  C   UNL A   1      43.925  34.772  29.926  1.00  0.00     0.023 A 
ATOM     78  C   UNL A   1      44.332  35.090  31.237  1.00  0.00     0.031 A 
ATOM     79  C   UNL A   1      43.801  35.815  28.995  1.00  0.00     0.131 A 
ATOM     80  C   UNL A   1      44.530  36.428  31.599  1.00  0.00     0.055 A 
ATOM     81  C   UNL A   1      44.058  37.142  29.345  1.00  0.00     0.041 A 
ATOM     82  F   UNL A   1      43.407  35.564  27.736  1.00  0.00    -0.206 F 
ATOM     83  C   UNL A   1      44.403  37.454  30.658  1.00  0.00     0.022 A 
BRANCH  80  84
ATOM     84  S   UNL A   1      44.840  36.893  33.325  1.00  0.00     0.124 S 
ATOM     85  O   UNL A   1      45.837  37.951  33.179  1.00  0.00    -0.237 OA
ATOM     86  O   UNL A   1      43.520  37.334  33.765  1.00  0.00    -0.237 OA
ATOM     87  O   UNL A   1      45.329  35.662  33.938  1.00  0.00    -0.744 OA
ENDBRANCH  80  84
ENDBRANCH  54  77
ENDBRANCH  28  29
ENDBRANCH  21  23
ENDBRANCH  20  21
ENDBRANCH  19  20
ENDBRANCH   1  19
TORSDOF 19
ENDMDL
