MODEL 1
REMARK VINA RESULT:      -9.4      0.000      0.000
REMARK SMILES O=C(C[C@@H]1CN(C(=O)NCc2cccs2)CCO1)OCCOCCOC(=O)c1ccc(-c2c3nc(c(-c4cc(S(=O)(=O)[O-])ccc4F)c4ccc([nH]4)c(-c4cc(S(=O)(=O)[O-])ccc4F)c4nc(c(-c5cc(S(=O)(=O)[O-])ccc5F)c5ccc2[nH]5)C=C4)C=C3)cc1
REMARK SMILES IDX 21 1 20 2 19 3 2 4 1 5 3 6 4 7 5 8 18 9 6 10 17 11 16 12
REMARK SMILES IDX 7 13 8 14 9 15 10 17 11 18 12 19 15 20 13 21 14 22 22 23
REMARK SMILES IDX 23 24 24 25 25 26 26 27 27 28 28 29 29 30 90 31 30 32 89 33
REMARK SMILES IDX 31 34 32 35 33 36 83 37 34 38 88 39 82 40 84 41 35 42 87 43
REMARK SMILES IDX 81 44 80 45 36 47 68 48 48 49 67 50 49 51 52 52 66 53 85 54
REMARK SMILES IDX 50 55 51 56 65 58 86 59 53 60 37 61 38 62 46 63 39 64 45 65
REMARK SMILES IDX 47 66 44 67 40 68 41 69 42 70 43 71 69 72 70 73 78 74 71 75
REMARK SMILES IDX 77 76 79 77 76 78 72 79 73 80 74 81 75 82 54 83 55 84 63 85
REMARK SMILES IDX 56 86 62 87 64 88 61 89 57 90 58 91 59 92 60 93
REMARK H PARENT 9 16 84 46 52 57
REMARK Flexibility Score: inf
ROOT
ATOM      1  C   UNL A   1      38.028  19.586  24.959  1.00  0.00     0.202 C 
ENDROOT
BRANCH   1   2
ATOM      2  C   UNL A   1      37.736  21.086  25.011  1.00  0.00     0.261 C 
BRANCH   2   3
ATOM      3  O   UNL A   1      36.710  21.512  25.917  1.00  0.00    -0.463 OA
BRANCH   3   4
ATOM      4  C   UNL A   1      35.875  22.549  25.678  1.00  0.00     0.308 C 
ATOM      5  O   UNL A   1      34.891  22.723  26.393  1.00  0.00    -0.252 OA
BRANCH   4   6
ATOM      6  C   UNL A   1      36.147  23.464  24.517  1.00  0.00     0.156 C 
BRANCH   6   7
ATOM      7  C   UNL A   1      34.986  23.694  23.554  1.00  0.00     0.149 C 
ATOM      8  C   UNL A   1      34.073  24.892  23.900  1.00  0.00     0.154 C 
ATOM      9  O   UNL A   1      34.210  22.468  23.531  1.00  0.00    -0.374 OA
ATOM     10  N   UNL A   1      32.996  24.970  22.914  1.00  0.00    -0.320 N 
ATOM     11  C   UNL A   1      33.122  22.549  22.593  1.00  0.00     0.182 C 
ATOM     12  C   UNL A   1      32.205  23.731  22.916  1.00  0.00     0.150 C 
BRANCH  10  13
ATOM     13  C   UNL A   1      32.705  25.892  21.958  1.00  0.00     0.317 C 
ATOM     14  O   UNL A   1      33.322  25.903  20.887  1.00  0.00    -0.249 OA
ATOM     15  N   UNL A   1      31.793  26.861  22.065  1.00  0.00    -0.333 N 
ATOM     16  H   UNL A   1      31.747  27.364  21.220  1.00  0.00     0.165 HD
BRANCH  15  17
ATOM     17  C   UNL A   1      30.851  27.415  23.013  1.00  0.00     0.164 C 
BRANCH  17  18
ATOM     18  C   UNL A   1      31.596  27.867  24.236  1.00  0.00     0.024 A 
ATOM     19  C   UNL A   1      31.447  27.478  25.556  1.00  0.00     0.017 A 
ATOM     20  S   UNL A   1      32.821  29.058  24.081  1.00  0.00    -0.147 S 
ATOM     21  C   UNL A   1      32.314  28.187  26.439  1.00  0.00     0.012 A 
ATOM     22  C   UNL A   1      33.122  29.072  25.763  1.00  0.00     0.065 A 
ENDBRANCH  17  18
ENDBRANCH  15  17
ENDBRANCH  10  13
ENDBRANCH   6   7
ENDBRANCH   4   6
ENDBRANCH   3   4
ENDBRANCH   2   3
ENDBRANCH   1   2
BRANCH   1  23
ATOM     23  O   UNL A   1      39.333  19.168  25.326  1.00  0.00    -0.374 OA
BRANCH  23  24
ATOM     24  C   UNL A   1      40.012  19.927  26.333  1.00  0.00     0.202 C 
BRANCH  24  25
ATOM     25  C   UNL A   1      41.461  20.329  26.045  1.00  0.00     0.261 C 
BRANCH  25  26
ATOM     26  O   UNL A   1      41.561  21.722  25.673  1.00  0.00    -0.460 OA
BRANCH  26  27
ATOM     27  C   UNL A   1      42.664  22.351  26.147  1.00  0.00     0.338 C 
ATOM     28  O   UNL A   1      43.824  22.002  25.998  1.00  0.00    -0.246 OA
BRANCH  27  29
ATOM     29  C   UNL A   1      42.309  23.645  26.753  1.00  0.00     0.060 A 
ATOM     30  C   UNL A   1      42.175  24.747  25.901  1.00  0.00     0.016 A 
ATOM     31  C   UNL A   1      42.283  23.811  28.140  1.00  0.00     0.016 A 
ATOM     32  C   UNL A   1      42.076  26.029  26.436  1.00  0.00     0.010 A 
ATOM     33  C   UNL A   1      42.187  25.103  28.674  1.00  0.00     0.010 A 
ATOM     34  C   UNL A   1      42.124  26.220  27.824  1.00  0.00    -0.014 A 
BRANCH  34  35
ATOM     35  C   UNL A   1      42.289  27.600  28.351  1.00  0.00     0.031 A 
ATOM     36  C   UNL A   1      43.675  28.184  28.432  1.00  0.00     0.074 A 
ATOM     37  C   UNL A   1      41.219  28.348  28.676  1.00  0.00     0.049 A 
ATOM     38  N   UNL A   1      44.056  29.365  28.845  1.00  0.00    -0.248 NA
ATOM     39  C   UNL A   1      44.775  27.320  27.978  1.00  0.00     0.031 C 
ATOM     40  C   UNL A   1      39.827  27.911  28.586  1.00  0.00     0.029 A 
ATOM     41  N   UNL A   1      41.140  29.635  29.144  1.00  0.00    -0.354 N 
ATOM     42  C   UNL A   1      45.438  29.394  28.686  1.00  0.00     0.074 A 
ATOM     43  C   UNL A   1      45.829  28.095  28.178  1.00  0.00     0.031 C 
ATOM     44  C   UNL A   1      39.030  28.913  28.996  1.00  0.00     0.029 A 
ATOM     45  C   UNL A   1      39.854  30.048  29.406  1.00  0.00     0.049 A 
ATOM     46  H   UNL A   1      41.927  30.209  29.280  1.00  0.00     0.167 HD
ATOM     47  C   UNL A   1      46.303  30.411  28.932  1.00  0.00     0.034 A 
ATOM     48  C   UNL A   1      39.400  31.201  29.939  1.00  0.00     0.034 A 
ATOM     49  C   UNL A   1      45.909  31.688  29.473  1.00  0.00     0.049 A 
ATOM     50  C   UNL A   1      40.390  32.285  30.292  1.00  0.00     0.074 A 
ATOM     51  C   UNL A   1      46.707  32.771  29.803  1.00  0.00     0.029 A 
ATOM     52  N   UNL A   1      44.604  32.054  29.775  1.00  0.00    -0.354 N 
ATOM     53  N   UNL A   1      41.697  32.290  30.156  1.00  0.00    -0.248 NA
ATOM     54  C   UNL A   1      39.841  33.524  30.861  1.00  0.00     0.031 C 
ATOM     55  C   UNL A   1      45.891  33.767  30.355  1.00  0.00     0.029 A 
ATOM     56  C   UNL A   1      44.575  33.335  30.305  1.00  0.00     0.049 A 
ATOM     57  H   UNL A   1      43.812  31.486  29.632  1.00  0.00     0.167 HD
ATOM     58  C   UNL A   1      42.121  33.539  30.607  1.00  0.00     0.074 A 
ATOM     59  C   UNL A   1      40.929  34.267  30.989  1.00  0.00     0.031 C 
ATOM     60  C   UNL A   1      43.380  34.040  30.702  1.00  0.00     0.034 A 
BRANCH  47  61
ATOM     61  C   UNL A   1      47.764  30.148  28.662  1.00  0.00     0.023 A 
ATOM     62  C   UNL A   1      48.593  29.547  29.626  1.00  0.00     0.031 A 
ATOM     63  C   UNL A   1      48.343  30.538  27.443  1.00  0.00     0.131 A 
ATOM     64  C   UNL A   1      49.967  29.410  29.378  1.00  0.00     0.055 A 
ATOM     65  C   UNL A   1      49.699  30.335  27.174  1.00  0.00     0.041 A 
ATOM     66  F   UNL A   1      47.605  31.139  26.496  1.00  0.00    -0.206 F 
ATOM     67  C   UNL A   1      50.522  29.779  28.150  1.00  0.00     0.022 A 
BRANCH  64  68
ATOM     68  S   UNL A   1      51.043  28.854  30.728  1.00  0.00     0.124 S 
ATOM     69  O   UNL A   1      52.029  29.931  30.782  1.00  0.00    -0.237 OA
ATOM     70  O   UNL A   1      50.121  28.775  31.856  1.00  0.00    -0.237 OA
ATOM     71  O   UNL A   1      51.557  27.572  30.251  1.00  0.00    -0.744 OA
ENDBRANCH  64  68
ENDBRANCH  47  61
BRANCH  48  72
ATOM     72  C   UNL A   1      37.949  31.381  30.232  1.00  0.00     0.023 A 
ATOM     73  C   UNL A   1      37.064  31.894  29.271  1.00  0.00     0.031 A 
ATOM     74  C   UNL A   1      37.443  31.114  31.517  1.00  0.00     0.131 A 
ATOM     75  C   UNL A   1      35.733  32.174  29.624  1.00  0.00     0.055 A 
ATOM     76  C   UNL A   1      36.106  31.344  31.848  1.00  0.00     0.041 A 
ATOM     77  F   UNL A   1      38.245  30.625  32.475  1.00  0.00    -0.206 F 
ATOM     78  C   UNL A   1      35.246  31.893  30.902  1.00  0.00     0.022 A 
BRANCH  75  79
ATOM     79  S   UNL A   1      34.670  33.010  28.414  1.00  0.00     0.124 S 
ATOM     80  O   UNL A   1      33.869  33.877  29.271  1.00  0.00    -0.237 OA
ATOM     81  O   UNL A   1      35.650  33.678  27.564  1.00  0.00    -0.237 OA
ATOM     82  O   UNL A   1      33.944  31.911  27.783  1.00  0.00    -0.744 OA
ENDBRANCH  75  79
ENDBRANCH  48  72
BRANCH  60  83
ATOM     83  C   UNL A   1      43.513  35.453  31.217  1.00  0.00     0.023 A 
ATOM     84  C   UNL A   1      43.641  36.547  30.342  1.00  0.00     0.031 A 
ATOM     85  C   UNL A   1      43.549  35.705  32.600  1.00  0.00     0.131 A 
ATOM     86  C   UNL A   1      43.867  37.832  30.858  1.00  0.00     0.055 A 
ATOM     87  C   UNL A   1      43.714  36.995  33.108  1.00  0.00     0.041 A 
ATOM     88  F   UNL A   1      43.430  34.699  33.481  1.00  0.00    -0.206 F 
ATOM     89  C   UNL A   1      43.892  38.065  32.235  1.00  0.00     0.022 A 
BRANCH  86  90
ATOM     90  S   UNL A   1      44.241  39.180  29.702  1.00  0.00     0.124 S 
ATOM     91  O   UNL A   1      43.064  39.176  28.839  1.00  0.00    -0.237 OA
ATOM     92  O   UNL A   1      44.372  40.327  30.595  1.00  0.00    -0.237 OA
ATOM     93  O   UNL A   1      45.481  38.748  29.060  1.00  0.00    -0.744 OA
ENDBRANCH  86  90
ENDBRANCH  60  83
ENDBRANCH  34  35
ENDBRANCH  27  29
ENDBRANCH  26  27
ENDBRANCH  25  26
ENDBRANCH  24  25
ENDBRANCH  23  24
ENDBRANCH   1  23
TORSDOF 21
ENDMDL
MODEL 2
REMARK VINA RESULT:      -9.1      2.454      7.790
REMARK SMILES O=C(C[C@@H]1CN(C(=O)NCc2cccs2)CCO1)OCCOCCOC(=O)c1ccc(-c2c3nc(c(-c4cc(S(=O)(=O)[O-])ccc4F)c4ccc([nH]4)c(-c4cc(S(=O)(=O)[O-])ccc4F)c4nc(c(-c5cc(S(=O)(=O)[O-])ccc5F)c5ccc2[nH]5)C=C4)C=C3)cc1
REMARK SMILES IDX 21 1 20 2 19 3 2 4 1 5 3 6 4 7 5 8 18 9 6 10 17 11 16 12
REMARK SMILES IDX 7 13 8 14 9 15 10 17 11 18 12 19 15 20 13 21 14 22 22 23
REMARK SMILES IDX 23 24 24 25 25 26 26 27 27 28 28 29 29 30 90 31 30 32 89 33
REMARK SMILES IDX 31 34 32 35 33 36 83 37 34 38 88 39 82 40 84 41 35 42 87 43
REMARK SMILES IDX 81 44 80 45 36 47 68 48 48 49 67 50 49 51 52 52 66 53 85 54
REMARK SMILES IDX 50 55 51 56 65 58 86 59 53 60 37 61 38 62 46 63 39 64 45 65
REMARK SMILES IDX 47 66 44 67 40 68 41 69 42 70 43 71 69 72 70 73 78 74 71 75
REMARK SMILES IDX 77 76 79 77 76 78 72 79 73 80 74 81 75 82 54 83 55 84 63 85
REMARK SMILES IDX 56 86 62 87 64 88 61 89 57 90 58 91 59 92 60 93
REMARK H PARENT 9 16 84 46 52 57
REMARK Flexibility Score: inf
ROOT
ATOM      1  C   UNL A   1      38.664  22.166  26.139  1.00  0.00     0.202 C 
ENDROOT
BRANCH   1   2
ATOM      2  C   UNL A   1      37.362  22.033  25.349  1.00  0.00     0.261 C 
BRANCH   2   3
ATOM      3  O   UNL A   1      36.203  22.669  25.905  1.00  0.00    -0.463 OA
BRANCH   3   4
ATOM      4  C   UNL A   1      35.044  22.025  26.171  1.00  0.00     0.308 C 
ATOM      5  O   UNL A   1      34.820  20.928  25.664  1.00  0.00    -0.252 OA
BRANCH   4   6
ATOM      6  C   UNL A   1      34.026  22.674  27.067  1.00  0.00     0.156 C 
BRANCH   6   7
ATOM      7  C   UNL A   1      32.687  23.020  26.424  1.00  0.00     0.149 C 
ATOM      8  C   UNL A   1      32.616  24.415  25.763  1.00  0.00     0.154 C 
ATOM      9  O   UNL A   1      31.680  22.909  27.463  1.00  0.00    -0.374 OA
ATOM     10  N   UNL A   1      31.274  24.616  25.218  1.00  0.00    -0.320 N 
ATOM     11  C   UNL A   1      30.359  23.146  26.945  1.00  0.00     0.182 C 
ATOM     12  C   UNL A   1      30.267  24.524  26.284  1.00  0.00     0.150 C 
BRANCH  10  13
ATOM     13  C   UNL A   1      30.820  24.734  23.942  1.00  0.00     0.317 C 
ATOM     14  O   UNL A   1      31.359  24.106  23.023  1.00  0.00    -0.249 OA
ATOM     15  N   UNL A   1      29.817  25.519  23.543  1.00  0.00    -0.333 N 
ATOM     16  H   UNL A   1      29.659  25.387  22.580  1.00  0.00     0.165 HD
BRANCH  15  17
ATOM     17  C   UNL A   1      28.885  26.498  24.060  1.00  0.00     0.164 C 
BRANCH  17  18
ATOM     18  C   UNL A   1      29.001  27.758  23.251  1.00  0.00     0.024 A 
ATOM     19  C   UNL A   1      30.117  28.336  22.671  1.00  0.00     0.017 A 
ATOM     20  S   UNL A   1      27.599  28.704  22.964  1.00  0.00    -0.147 S 
ATOM     21  C   UNL A   1      29.822  29.573  22.026  1.00  0.00     0.012 A 
ATOM     22  C   UNL A   1      28.484  29.886  22.103  1.00  0.00     0.065 A 
ENDBRANCH  17  18
ENDBRANCH  15  17
ENDBRANCH  10  13
ENDBRANCH   6   7
ENDBRANCH   4   6
ENDBRANCH   3   4
ENDBRANCH   2   3
ENDBRANCH   1   2
BRANCH   1  23
ATOM     23  O   UNL A   1      39.604  21.108  26.019  1.00  0.00    -0.374 OA
BRANCH  23  24
ATOM     24  C   UNL A   1      40.746  21.137  26.883  1.00  0.00     0.202 C 
BRANCH  24  25
ATOM     25  C   UNL A   1      42.124  21.121  26.216  1.00  0.00     0.261 C 
BRANCH  25  26
ATOM     26  O   UNL A   1      42.893  22.294  26.561  1.00  0.00    -0.460 OA
BRANCH  26  27
ATOM     27  C   UNL A   1      43.363  22.989  25.496  1.00  0.00     0.338 C 
ATOM     28  O   UNL A   1      43.312  22.652  24.324  1.00  0.00    -0.246 OA
BRANCH  27  29
ATOM     29  C   UNL A   1      43.820  24.329  25.905  1.00  0.00     0.060 A 
ATOM     30  C   UNL A   1      44.276  24.486  27.218  1.00  0.00     0.016 A 
ATOM     31  C   UNL A   1      43.636  25.439  25.077  1.00  0.00     0.016 A 
ATOM     32  C   UNL A   1      44.494  25.765  27.727  1.00  0.00     0.010 A 
ATOM     33  C   UNL A   1      43.852  26.723  25.595  1.00  0.00     0.010 A 
ATOM     34  C   UNL A   1      44.243  26.893  26.934  1.00  0.00    -0.014 A 
BRANCH  34  35
ATOM     35  C   UNL A   1      44.221  28.231  27.580  1.00  0.00     0.031 A 
ATOM     36  C   UNL A   1      42.923  28.739  28.152  1.00  0.00     0.074 A 
ATOM     37  C   UNL A   1      45.351  28.946  27.726  1.00  0.00     0.049 A 
ATOM     38  N   UNL A   1      42.670  29.865  28.767  1.00  0.00    -0.248 NA
ATOM     39  C   UNL A   1      41.759  27.851  28.016  1.00  0.00     0.031 C 
ATOM     40  C   UNL A   1      46.675  28.533  27.264  1.00  0.00     0.029 A 
ATOM     41  N   UNL A   1      45.563  30.170  28.309  1.00  0.00    -0.354 N 
ATOM     42  C   UNL A   1      41.322  29.817  29.107  1.00  0.00     0.074 A 
ATOM     43  C   UNL A   1      40.805  28.566  28.591  1.00  0.00     0.031 C 
ATOM     44  C   UNL A   1      47.562  29.494  27.575  1.00  0.00     0.029 A 
ATOM     45  C   UNL A   1      46.866  30.601  28.227  1.00  0.00     0.049 A 
ATOM     46  H   UNL A   1      44.851  30.690  28.745  1.00  0.00     0.167 HD
ATOM     47  C   UNL A   1      40.584  30.724  29.794  1.00  0.00     0.034 A 
ATOM     48  C   UNL A   1      47.425  31.766  28.613  1.00  0.00     0.034 A 
ATOM     49  C   UNL A   1      41.099  31.984  30.272  1.00  0.00     0.049 A 
ATOM     50  C   UNL A   1      46.563  32.803  29.293  1.00  0.00     0.074 A 
ATOM     51  C   UNL A   1      40.429  32.997  30.938  1.00  0.00     0.029 A 
ATOM     52  N   UNL A   1      42.413  32.411  30.126  1.00  0.00    -0.354 N 
ATOM     53  N   UNL A   1      45.284  32.752  29.589  1.00  0.00    -0.248 NA
ATOM     54  C   UNL A   1      47.224  34.051  29.701  1.00  0.00     0.031 C 
ATOM     55  C   UNL A   1      41.322  34.055  31.145  1.00  0.00     0.029 A 
ATOM     56  C   UNL A   1      42.568  33.677  30.670  1.00  0.00     0.049 A 
ATOM     57  H   UNL A   1      43.130  31.889  29.700  1.00  0.00     0.167 HD
ATOM     58  C   UNL A   1      44.995  33.953  30.234  1.00  0.00     0.074 A 
ATOM     59  C   UNL A   1      46.238  34.692  30.308  1.00  0.00     0.031 C 
ATOM     60  C   UNL A   1      43.811  34.410  30.717  1.00  0.00     0.034 A 
BRANCH  47  61
ATOM     61  C   UNL A   1      39.128  30.397  30.016  1.00  0.00     0.023 A 
ATOM     62  C   UNL A   1      38.121  30.937  29.196  1.00  0.00     0.031 A 
ATOM     63  C   UNL A   1      38.739  29.568  31.081  1.00  0.00     0.131 A 
ATOM     64  C   UNL A   1      36.771  30.691  29.493  1.00  0.00     0.055 A 
ATOM     65  C   UNL A   1      37.397  29.269  31.329  1.00  0.00     0.041 A 
ATOM     66  F   UNL A   1      39.656  29.044  31.910  1.00  0.00    -0.206 F 
ATOM     67  C   UNL A   1      36.404  29.842  30.540  1.00  0.00     0.022 A 
BRANCH  64  68
ATOM     68  S   UNL A   1      35.499  31.592  28.566  1.00  0.00     0.124 S 
ATOM     69  O   UNL A   1      34.968  30.544  27.698  1.00  0.00    -0.237 OA
ATOM     70  O   UNL A   1      34.608  32.058  29.623  1.00  0.00    -0.237 OA
ATOM     71  O   UNL A   1      36.252  32.638  27.879  1.00  0.00    -0.744 OA
ENDBRANCH  64  68
ENDBRANCH  47  61
BRANCH  48  72
ATOM     72  C   UNL A   1      48.859  32.054  28.319  1.00  0.00     0.023 A 
ATOM     73  C   UNL A   1      49.243  32.780  27.180  1.00  0.00     0.031 A 
ATOM     74  C   UNL A   1      49.874  31.531  29.141  1.00  0.00     0.131 A 
ATOM     75  C   UNL A   1      50.606  32.917  26.865  1.00  0.00     0.055 A 
ATOM     76  C   UNL A   1      51.227  31.717  28.852  1.00  0.00     0.041 A 
ATOM     77  F   UNL A   1      49.563  30.828  30.240  1.00  0.00    -0.206 F 
ATOM     78  C   UNL A   1      51.600  32.400  27.699  1.00  0.00     0.022 A 
BRANCH  75  79
ATOM     79  S   UNL A   1      51.060  33.696  25.291  1.00  0.00     0.124 S 
ATOM     80  O   UNL A   1      52.172  34.551  25.692  1.00  0.00    -0.237 OA
ATOM     81  O   UNL A   1      51.404  32.539  24.471  1.00  0.00    -0.237 OA
ATOM     82  O   UNL A   1      49.841  34.399  24.896  1.00  0.00    -0.744 OA
ENDBRANCH  75  79
ENDBRANCH  48  72
BRANCH  60  83
ATOM     83  C   UNL A   1      43.826  35.762  31.390  1.00  0.00     0.023 A 
ATOM     84  C   UNL A   1      43.790  36.955  30.645  1.00  0.00     0.031 A 
ATOM     85  C   UNL A   1      43.917  35.858  32.789  1.00  0.00     0.131 A 
ATOM     86  C   UNL A   1      43.912  38.191  31.299  1.00  0.00     0.055 A 
ATOM     87  C   UNL A   1      43.978  37.093  33.438  1.00  0.00     0.041 A 
ATOM     88  F   UNL A   1      43.954  34.752  33.549  1.00  0.00    -0.206 F 
ATOM     89  C   UNL A   1      43.993  38.268  32.692  1.00  0.00     0.022 A 
BRANCH  86  90
ATOM     90  S   UNL A   1      44.077  39.693  30.295  1.00  0.00     0.124 S 
ATOM     91  O   UNL A   1      45.473  39.629  29.878  1.00  0.00    -0.237 OA
ATOM     92  O   UNL A   1      43.087  39.475  29.245  1.00  0.00    -0.237 OA
ATOM     93  O   UNL A   1      43.759  40.769  31.233  1.00  0.00    -0.744 OA
ENDBRANCH  86  90
ENDBRANCH  60  83
ENDBRANCH  34  35
ENDBRANCH  27  29
ENDBRANCH  26  27
ENDBRANCH  25  26
ENDBRANCH  24  25
ENDBRANCH  23  24
ENDBRANCH   1  23
TORSDOF 21
ENDMDL
MODEL 3
REMARK VINA RESULT:      -9.0      7.663     15.780
REMARK SMILES O=C(C[C@@H]1CN(C(=O)NCc2cccs2)CCO1)OCCOCCOC(=O)c1ccc(-c2c3nc(c(-c4cc(S(=O)(=O)[O-])ccc4F)c4ccc([nH]4)c(-c4cc(S(=O)(=O)[O-])ccc4F)c4nc(c(-c5cc(S(=O)(=O)[O-])ccc5F)c5ccc2[nH]5)C=C4)C=C3)cc1
REMARK SMILES IDX 21 1 20 2 19 3 2 4 1 5 3 6 4 7 5 8 18 9 6 10 17 11 16 12
REMARK SMILES IDX 7 13 8 14 9 15 10 17 11 18 12 19 15 20 13 21 14 22 22 23
REMARK SMILES IDX 23 24 24 25 25 26 26 27 27 28 28 29 29 30 90 31 30 32 89 33
REMARK SMILES IDX 31 34 32 35 33 36 83 37 34 38 88 39 82 40 84 41 35 42 87 43
REMARK SMILES IDX 81 44 80 45 36 47 68 48 48 49 67 50 49 51 52 52 66 53 85 54
REMARK SMILES IDX 50 55 51 56 65 58 86 59 53 60 37 61 38 62 46 63 39 64 45 65
REMARK SMILES IDX 47 66 44 67 40 68 41 69 42 70 43 71 69 72 70 73 78 74 71 75
REMARK SMILES IDX 77 76 79 77 76 78 72 79 73 80 74 81 75 82 54 83 55 84 63 85
REMARK SMILES IDX 56 86 62 87 64 88 61 89 57 90 58 91 59 92 60 93
REMARK H PARENT 9 16 84 46 52 57
REMARK Flexibility Score: inf
ROOT
ATOM      1  C   UNL A   1      45.970  42.179  24.319  1.00  0.00     0.202 C 
ENDROOT
BRANCH   1   2
ATOM      2  C   UNL A   1      45.495  42.987  23.111  1.00  0.00     0.261 C 
BRANCH   2   3
ATOM      3  O   UNL A   1      44.437  42.416  22.329  1.00  0.00    -0.463 OA
BRANCH   3   4
ATOM      4  C   UNL A   1      43.208  42.967  22.206  1.00  0.00     0.308 C 
ATOM      5  O   UNL A   1      42.892  43.927  22.906  1.00  0.00    -0.252 OA
BRANCH   4   6
ATOM      6  C   UNL A   1      42.228  42.378  21.230  1.00  0.00     0.156 C 
BRANCH   6   7
ATOM      7  C   UNL A   1      42.142  43.060  19.868  1.00  0.00     0.149 C 
ATOM      8  C   UNL A   1      43.248  44.101  19.584  1.00  0.00     0.154 C 
ATOM      9  O   UNL A   1      40.836  43.688  19.793  1.00  0.00    -0.374 OA
ATOM     10  N   UNL A   1      43.022  44.688  18.263  1.00  0.00    -0.320 N 
ATOM     11  C   UNL A   1      40.619  44.304  18.512  1.00  0.00     0.182 C 
ATOM     12  C   UNL A   1      41.705  45.339  18.209  1.00  0.00     0.150 C 
BRANCH  10  13
ATOM     13  C   UNL A   1      43.730  44.619  17.105  1.00  0.00     0.317 C 
ATOM     14  O   UNL A   1      43.434  43.789  16.237  1.00  0.00    -0.249 OA
ATOM     15  N   UNL A   1      44.787  45.372  16.794  1.00  0.00    -0.333 N 
ATOM     16  H   UNL A   1      45.088  45.155  15.882  1.00  0.00     0.165 HD
BRANCH  15  17
ATOM     17  C   UNL A   1      45.634  46.401  17.355  1.00  0.00     0.164 C 
BRANCH  17  18
ATOM     18  C   UNL A   1      44.816  47.641  17.579  1.00  0.00     0.024 A 
ATOM     19  C   UNL A   1      43.942  48.289  16.724  1.00  0.00     0.017 A 
ATOM     20  S   UNL A   1      44.927  48.461  19.082  1.00  0.00    -0.147 S 
ATOM     21  C   UNL A   1      43.396  49.477  17.293  1.00  0.00     0.012 A 
ATOM     22  C   UNL A   1      43.843  49.683  18.578  1.00  0.00     0.065 A 
ENDBRANCH  17  18
ENDBRANCH  15  17
ENDBRANCH  10  13
ENDBRANCH   6   7
ENDBRANCH   4   6
ENDBRANCH   3   4
ENDBRANCH   2   3
ENDBRANCH   1   2
BRANCH   1  23
ATOM     23  O   UNL A   1      45.614  42.667  25.603  1.00  0.00    -0.374 OA
BRANCH  23  24
ATOM     24  C   UNL A   1      44.224  42.668  25.949  1.00  0.00     0.202 C 
BRANCH  24  25
ATOM     25  C   UNL A   1      43.438  41.383  25.677  1.00  0.00     0.261 C 
BRANCH  25  26
ATOM     26  O   UNL A   1      42.554  41.060  26.773  1.00  0.00    -0.460 OA
BRANCH  26  27
ATOM     27  C   UNL A   1      41.793  39.956  26.573  1.00  0.00     0.338 C 
ATOM     28  O   UNL A   1      40.808  39.867  25.860  1.00  0.00    -0.246 OA
BRANCH  27  29
ATOM     29  C   UNL A   1      42.404  38.778  27.213  1.00  0.00     0.060 A 
ATOM     30  C   UNL A   1      42.311  37.553  26.543  1.00  0.00     0.016 A 
ATOM     31  C   UNL A   1      42.897  38.839  28.519  1.00  0.00     0.016 A 
ATOM     32  C   UNL A   1      42.656  36.375  27.202  1.00  0.00     0.010 A 
ATOM     33  C   UNL A   1      43.239  37.651  29.179  1.00  0.00     0.010 A 
ATOM     34  C   UNL A   1      43.081  36.411  28.537  1.00  0.00    -0.014 A 
BRANCH  34  35
ATOM     35  C   UNL A   1      43.180  35.135  29.291  1.00  0.00     0.031 A 
ATOM     36  C   UNL A   1      41.911  34.457  29.739  1.00  0.00     0.074 A 
ATOM     37  C   UNL A   1      44.371  34.548  29.504  1.00  0.00     0.049 A 
ATOM     38  N   UNL A   1      41.754  33.338  30.397  1.00  0.00    -0.248 NA
ATOM     39  C   UNL A   1      40.652  35.133  29.390  1.00  0.00     0.031 C 
ATOM     40  C   UNL A   1      45.662  35.080  29.069  1.00  0.00     0.029 A 
ATOM     41  N   UNL A   1      44.687  33.373  30.138  1.00  0.00    -0.354 N 
ATOM     42  C   UNL A   1      40.380  33.164  30.527  1.00  0.00     0.074 A 
ATOM     43  C   UNL A   1      39.752  34.317  29.915  1.00  0.00     0.031 C 
ATOM     44  C   UNL A   1      46.633  34.236  29.457  1.00  0.00     0.029 A 
ATOM     45  C   UNL A   1      46.038  33.123  30.195  1.00  0.00     0.049 A 
ATOM     46  H   UNL A   1      44.011  32.766  30.516  1.00  0.00     0.167 HD
ATOM     47  C   UNL A   1      39.701  32.135  31.095  1.00  0.00     0.034 A 
ATOM     48  C   UNL A   1      46.715  32.123  30.795  1.00  0.00     0.034 A 
ATOM     49  C   UNL A   1      40.336  31.009  31.735  1.00  0.00     0.049 A 
ATOM     50  C   UNL A   1      45.942  31.036  31.503  1.00  0.00     0.074 A 
ATOM     51  C   UNL A   1      39.746  29.935  32.381  1.00  0.00     0.029 A 
ATOM     52  N   UNL A   1      41.708  30.814  31.819  1.00  0.00    -0.354 N 
ATOM     53  N   UNL A   1      44.643  30.895  31.636  1.00  0.00    -0.248 NA
ATOM     54  C   UNL A   1      46.729  29.965  32.132  1.00  0.00     0.031 C 
ATOM     55  C   UNL A   1      40.761  29.123  32.902  1.00  0.00     0.029 A 
ATOM     56  C   UNL A   1      41.985  29.651  32.522  1.00  0.00     0.049 A 
ATOM     57  H   UNL A   1      42.387  31.413  31.433  1.00  0.00     0.167 HD
ATOM     58  C   UNL A   1      44.459  29.713  32.349  1.00  0.00     0.074 A 
ATOM     59  C   UNL A   1      45.778  29.165  32.589  1.00  0.00     0.031 C 
ATOM     60  C   UNL A   1      43.307  29.130  32.772  1.00  0.00     0.034 A 
BRANCH  47  61
ATOM     61  C   UNL A   1      38.195  32.221  31.089  1.00  0.00     0.023 A 
ATOM     62  C   UNL A   1      37.507  33.111  31.933  1.00  0.00     0.031 A 
ATOM     63  C   UNL A   1      37.438  31.379  30.259  1.00  0.00     0.131 A 
ATOM     64  C   UNL A   1      36.104  33.093  31.972  1.00  0.00     0.055 A 
ATOM     65  C   UNL A   1      36.042  31.414  30.251  1.00  0.00     0.041 A 
ATOM     66  F   UNL A   1      38.042  30.493  29.450  1.00  0.00    -0.206 F 
ATOM     67  C   UNL A   1      35.367  32.267  31.121  1.00  0.00     0.022 A 
BRANCH  64  68
ATOM     68  S   UNL A   1      35.257  34.077  33.239  1.00  0.00     0.124 S 
ATOM     69  O   UNL A   1      34.118  34.605  32.490  1.00  0.00    -0.237 OA
ATOM     70  O   UNL A   1      34.945  33.082  34.258  1.00  0.00    -0.237 OA
ATOM     71  O   UNL A   1      36.255  35.072  33.623  1.00  0.00    -0.744 OA
ENDBRANCH  64  68
ENDBRANCH  47  61
BRANCH  48  72
ATOM     72  C   UNL A   1      48.207  32.120  30.813  1.00  0.00     0.023 A 
ATOM     73  C   UNL A   1      48.930  32.734  31.847  1.00  0.00     0.031 A 
ATOM     74  C   UNL A   1      48.932  31.566  29.741  1.00  0.00     0.131 A 
ATOM     75  C   UNL A   1      50.329  32.828  31.763  1.00  0.00     0.055 A 
ATOM     76  C   UNL A   1      50.325  31.614  29.689  1.00  0.00     0.041 A 
ATOM     77  F   UNL A   1      48.291  30.969  28.725  1.00  0.00    -0.206 F 
ATOM     78  C   UNL A   1      51.032  32.263  30.697  1.00  0.00     0.022 A 
BRANCH  75  79
ATOM     79  S   UNL A   1      51.213  33.792  33.021  1.00  0.00     0.124 S 
ATOM     80  O   UNL A   1      51.900  32.745  33.770  1.00  0.00    -0.237 OA
ATOM     81  O   UNL A   1      52.058  34.653  32.201  1.00  0.00    -0.237 OA
ATOM     82  O   UNL A   1      50.140  34.475  33.741  1.00  0.00    -0.744 OA
ENDBRANCH  75  79
ENDBRANCH  48  72
BRANCH  60  83
ATOM     83  C   UNL A   1      43.439  27.821  33.514  1.00  0.00     0.023 A 
ATOM     84  C   UNL A   1      43.313  27.752  34.914  1.00  0.00     0.031 A 
ATOM     85  C   UNL A   1      43.732  26.636  32.817  1.00  0.00     0.131 A 
ATOM     86  C   UNL A   1      43.546  26.538  35.577  1.00  0.00     0.055 A 
ATOM     87  C   UNL A   1      43.904  25.419  33.478  1.00  0.00     0.041 A 
ATOM     88  F   UNL A   1      43.863  26.643  31.481  1.00  0.00    -0.206 F 
ATOM     89  C   UNL A   1      43.828  25.368  34.868  1.00  0.00     0.022 A 
BRANCH  86  90
ATOM     90  S   UNL A   1      43.586  26.532  37.391  1.00  0.00     0.124 S 
ATOM     91  O   UNL A   1      44.466  25.403  37.673  1.00  0.00    -0.237 OA
ATOM     92  O   UNL A   1      44.127  27.853  37.695  1.00  0.00    -0.237 OA
ATOM     93  O   UNL A   1      42.187  26.334  37.764  1.00  0.00    -0.744 OA
ENDBRANCH  86  90
ENDBRANCH  60  83
ENDBRANCH  34  35
ENDBRANCH  27  29
ENDBRANCH  26  27
ENDBRANCH  25  26
ENDBRANCH  24  25
ENDBRANCH  23  24
ENDBRANCH   1  23
TORSDOF 21
ENDMDL
