MODEL 1
REMARK VINA RESULT:      -8.8      0.000      0.000
REMARK SMILES C[NH2+]C[C@H](C)C(=O)NC[C@](C)(O)C(=O)OCCOCCOC(=O)c1ccc(-c2c3nc(c(-c4cc(S(=O)(=O)[O-])ccc4F)c4ccc([nH]4)c(-c4cc(S(=O)(=O)[O-])ccc4F)c4nc(c(-c5cc(S(=O)(=O)[O-])ccc5F)c5ccc2[nH]5)C=C4)C=C3)cc1
REMARK SMILES IDX 17 1 16 2 15 3 13 4 14 5 10 6 11 7 9 8 8 9 6 10 7 11 4 13
REMARK SMILES IDX 5 14 3 15 2 16 1 17 12 20 18 22 19 23 20 24 21 25 22 26
REMARK SMILES IDX 23 27 24 28 25 29 86 30 26 31 85 32 27 33 28 34 29 35 79 36
REMARK SMILES IDX 30 37 84 38 78 39 80 40 31 41 83 42 77 43 76 44 32 46 64 47
REMARK SMILES IDX 44 48 63 49 45 50 48 51 62 52 81 53 46 54 47 55 61 57 82 58
REMARK SMILES IDX 49 59 33 60 34 61 42 62 35 63 41 64 43 65 40 66 36 67 37 68
REMARK SMILES IDX 38 69 39 70 65 71 66 72 74 73 67 74 73 75 75 76 72 77 68 78
REMARK SMILES IDX 69 79 70 80 71 81 50 82 51 83 59 84 52 85 58 86 60 87 57 88
REMARK SMILES IDX 53 89 54 90 55 91 56 92
REMARK H PARENT 8 12 2 18 2 19 12 21 80 45 48 56
REMARK Flexibility Score: inf
ROOT
ATOM      1  C   UNL A   1      42.606  20.258  25.765  1.00  0.00     0.202 C 
ENDROOT
BRANCH   1   2
ATOM      2  C   UNL A   1      41.338  20.326  26.616  1.00  0.00     0.261 C 
BRANCH   2   3
ATOM      3  O   UNL A   1      40.543  21.461  26.248  1.00  0.00    -0.461 OA
BRANCH   3   4
ATOM      4  C   UNL A   1      40.276  22.370  27.228  1.00  0.00     0.339 C 
ATOM      5  O   UNL A   1      40.669  22.302  28.387  1.00  0.00    -0.249 OA
BRANCH   4   6
ATOM      6  C   UNL A   1      39.405  23.518  26.676  1.00  0.00     0.176 C 
ATOM      7  C   UNL A   1      38.993  24.420  27.845  1.00  0.00     0.057 C 
BRANCH   6   8
ATOM      8  C   UNL A   1      38.164  22.906  26.000  1.00  0.00     0.162 C 
BRANCH   8   9
ATOM      9  N   UNL A   1      36.950  23.646  26.305  1.00  0.00    -0.352 N 
ATOM     10  C   UNL A   1      35.647  23.269  26.209  1.00  0.00     0.228 C 
ATOM     11  O   UNL A   1      34.796  24.162  26.192  1.00  0.00    -0.275 OA
ATOM     12  H   UNL A   1      37.095  24.564  26.632  1.00  0.00     0.163 HD
BRANCH  10  13
ATOM     13  C   UNL A   1      35.221  21.806  26.139  1.00  0.00     0.130 C 
ATOM     14  C   UNL A   1      34.248  21.432  27.254  1.00  0.00     0.024 C 
BRANCH  13  15
ATOM     15  C   UNL A   1      34.727  21.328  24.761  1.00  0.00     0.273 C 
BRANCH  15  16
ATOM     16  N   UNL A   1      33.283  21.126  24.604  1.00  0.00    -0.348 N 
ATOM     17  C   UNL A   1      32.950  19.761  24.211  1.00  0.00     0.330 C 
ATOM     18  H   UNL A   1      32.825  21.333  25.491  1.00  0.00     0.346 HD
ATOM     19  H   UNL A   1      32.961  21.750  23.863  1.00  0.00     0.346 HD
ENDBRANCH  15  16
ENDBRANCH  13  15
ENDBRANCH  10  13
ENDBRANCH   8   9
ENDBRANCH   6   8
BRANCH   6  20
ATOM     20  O   UNL A   1      40.099  24.342  25.729  1.00  0.00    -0.377 OA
ATOM     21  H   UNL A   1      41.055  24.283  25.889  1.00  0.00     0.212 HD
ENDBRANCH   6  20
ENDBRANCH   4   6
ENDBRANCH   3   4
ENDBRANCH   2   3
ENDBRANCH   1   2
BRANCH   1  22
ATOM     22  O   UNL A   1      43.628  21.207  26.073  1.00  0.00    -0.374 OA
BRANCH  22  23
ATOM     23  C   UNL A   1      44.194  21.951  24.995  1.00  0.00     0.202 C 
BRANCH  23  24
ATOM     24  C   UNL A   1      43.444  23.198  24.514  1.00  0.00     0.261 C 
BRANCH  24  25
ATOM     25  O   UNL A   1      44.286  24.354  24.399  1.00  0.00    -0.460 OA
BRANCH  25  26
ATOM     26  C   UNL A   1      44.868  24.728  25.563  1.00  0.00     0.338 C 
ATOM     27  O   UNL A   1      46.058  24.646  25.843  1.00  0.00    -0.246 OA
BRANCH  26  28
ATOM     28  C   UNL A   1      43.902  25.421  26.434  1.00  0.00     0.060 A 
ATOM     29  C   UNL A   1      43.895  26.821  26.386  1.00  0.00     0.016 A 
ATOM     30  C   UNL A   1      43.104  24.736  27.354  1.00  0.00     0.016 A 
ATOM     31  C   UNL A   1      43.159  27.545  27.316  1.00  0.00     0.010 A 
ATOM     32  C   UNL A   1      42.367  25.467  28.293  1.00  0.00     0.010 A 
ATOM     33  C   UNL A   1      42.438  26.872  28.312  1.00  0.00    -0.014 A 
BRANCH  33  34
ATOM     34  C   UNL A   1      41.954  27.647  29.482  1.00  0.00     0.031 A 
ATOM     35  C   UNL A   1      40.649  28.390  29.360  1.00  0.00     0.074 A 
ATOM     36  C   UNL A   1      42.619  27.623  30.650  1.00  0.00     0.049 A 
ATOM     37  N   UNL A   1      40.015  29.114  30.245  1.00  0.00    -0.248 NA
ATOM     38  C   UNL A   1      39.969  28.301  28.057  1.00  0.00     0.031 C 
ATOM     39  C   UNL A   1      43.863  26.896  30.898  1.00  0.00     0.029 A 
ATOM     40  N   UNL A   1      42.333  28.223  31.850  1.00  0.00    -0.354 N 
ATOM     41  C   UNL A   1      38.864  29.569  29.609  1.00  0.00     0.074 A 
ATOM     42  C   UNL A   1      38.912  29.075  28.249  1.00  0.00     0.031 C 
ATOM     43  C   UNL A   1      44.235  27.094  32.174  1.00  0.00     0.029 A 
ATOM     44  C   UNL A   1      43.275  27.985  32.823  1.00  0.00     0.049 A 
ATOM     45  H   UNL A   1      41.530  28.772  32.001  1.00  0.00     0.167 HD
ATOM     46  C   UNL A   1      37.853  30.317  30.116  1.00  0.00     0.034 A 
ATOM     47  C   UNL A   1      43.357  28.448  34.087  1.00  0.00     0.034 A 
ATOM     48  C   UNL A   1      37.826  30.808  31.472  1.00  0.00     0.049 A 
ATOM     49  C   UNL A   1      42.259  29.346  34.606  1.00  0.00     0.074 A 
ATOM     50  C   UNL A   1      36.854  31.571  32.095  1.00  0.00     0.029 A 
ATOM     51  N   UNL A   1      38.823  30.591  32.415  1.00  0.00    -0.354 N 
ATOM     52  N   UNL A   1      41.173  29.766  33.997  1.00  0.00    -0.248 NA
ATOM     53  C   UNL A   1      42.392  29.817  35.990  1.00  0.00     0.031 C 
ATOM     54  C   UNL A   1      37.296  31.873  33.389  1.00  0.00     0.029 A 
ATOM     55  C   UNL A   1      38.506  31.233  33.604  1.00  0.00     0.049 A 
ATOM     56  H   UNL A   1      39.637  30.059  32.262  1.00  0.00     0.167 HD
ATOM     57  C   UNL A   1      40.482  30.529  34.936  1.00  0.00     0.074 A 
ATOM     58  C   UNL A   1      41.263  30.491  36.154  1.00  0.00     0.031 C 
ATOM     59  C   UNL A   1      39.306  31.199  34.805  1.00  0.00     0.034 A 
BRANCH  46  60
ATOM     60  C   UNL A   1      36.731  30.691  29.176  1.00  0.00     0.023 A 
ATOM     61  C   UNL A   1      35.816  29.738  28.693  1.00  0.00     0.031 A 
ATOM     62  C   UNL A   1      36.601  32.015  28.720  1.00  0.00     0.131 A 
ATOM     63  C   UNL A   1      34.862  30.106  27.731  1.00  0.00     0.055 A 
ATOM     64  C   UNL A   1      35.599  32.392  27.825  1.00  0.00     0.041 A 
ATOM     65  F   UNL A   1      37.459  32.965  29.126  1.00  0.00    -0.206 F 
ATOM     66  C   UNL A   1      34.731  31.432  27.312  1.00  0.00     0.022 A 
BRANCH  63  67
ATOM     67  S   UNL A   1      33.891  28.802  26.925  1.00  0.00     0.124 S 
ATOM     68  O   UNL A   1      33.377  29.501  25.750  1.00  0.00    -0.237 OA
ATOM     69  O   UNL A   1      34.894  27.773  26.670  1.00  0.00    -0.237 OA
ATOM     70  O   UNL A   1      32.884  28.456  27.926  1.00  0.00    -0.744 OA
ENDBRANCH  63  67
ENDBRANCH  46  60
BRANCH  47  71
ATOM     71  C   UNL A   1      44.531  28.111  34.941  1.00  0.00     0.023 A 
ATOM     72  C   UNL A   1      44.572  26.926  35.693  1.00  0.00     0.031 A 
ATOM     73  C   UNL A   1      45.609  29.006  35.066  1.00  0.00     0.131 A 
ATOM     74  C   UNL A   1      45.642  26.690  36.571  1.00  0.00     0.055 A 
ATOM     75  C   UNL A   1      46.697  28.743  35.898  1.00  0.00     0.041 A 
ATOM     76  F   UNL A   1      45.620  30.156  34.372  1.00  0.00    -0.206 F 
ATOM     77  C   UNL A   1      46.711  27.584  36.668  1.00  0.00     0.022 A 
BRANCH  74  78
ATOM     78  S   UNL A   1      45.575  25.236  37.654  1.00  0.00     0.124 S 
ATOM     79  O   UNL A   1      46.589  25.561  38.650  1.00  0.00    -0.237 OA
ATOM     80  O   UNL A   1      44.191  25.264  38.114  1.00  0.00    -0.237 OA
ATOM     81  O   UNL A   1      45.911  24.130  36.759  1.00  0.00    -0.744 OA
ENDBRANCH  74  78
ENDBRANCH  47  71
BRANCH  59  82
ATOM     82  C   UNL A   1      38.786  31.908  36.033  1.00  0.00     0.023 A 
ATOM     83  C   UNL A   1      38.110  31.219  37.056  1.00  0.00     0.031 A 
ATOM     84  C   UNL A   1      38.945  33.299  36.168  1.00  0.00     0.131 A 
ATOM     85  C   UNL A   1      37.558  31.930  38.132  1.00  0.00     0.055 A 
ATOM     86  C   UNL A   1      38.451  33.992  37.274  1.00  0.00     0.041 A 
ATOM     87  F   UNL A   1      39.582  34.010  35.223  1.00  0.00    -0.206 F 
ATOM     88  C   UNL A   1      37.739  33.310  38.256  1.00  0.00     0.022 A 
BRANCH  85  89
ATOM     89  S   UNL A   1      36.503  31.043  39.311  1.00  0.00     0.124 S 
ATOM     90  O   UNL A   1      36.236  29.796  38.602  1.00  0.00    -0.237 OA
ATOM     91  O   UNL A   1      37.365  30.938  40.484  1.00  0.00    -0.237 OA
ATOM     92  O   UNL A   1      35.348  31.925  39.468  1.00  0.00    -0.744 OA
ENDBRANCH  85  89
ENDBRANCH  59  82
ENDBRANCH  33  34
ENDBRANCH  26  28
ENDBRANCH  25  26
ENDBRANCH  24  25
ENDBRANCH  23  24
ENDBRANCH  22  23
ENDBRANCH   1  22
TORSDOF 23
ENDMDL
MODEL 2
REMARK VINA RESULT:      -8.3      5.507      9.145
REMARK SMILES C[NH2+]C[C@H](C)C(=O)NC[C@](C)(O)C(=O)OCCOCCOC(=O)c1ccc(-c2c3nc(c(-c4cc(S(=O)(=O)[O-])ccc4F)c4ccc([nH]4)c(-c4cc(S(=O)(=O)[O-])ccc4F)c4nc(c(-c5cc(S(=O)(=O)[O-])ccc5F)c5ccc2[nH]5)C=C4)C=C3)cc1
REMARK SMILES IDX 17 1 16 2 15 3 13 4 14 5 10 6 11 7 9 8 8 9 6 10 7 11 4 13
REMARK SMILES IDX 5 14 3 15 2 16 1 17 12 20 18 22 19 23 20 24 21 25 22 26
REMARK SMILES IDX 23 27 24 28 25 29 86 30 26 31 85 32 27 33 28 34 29 35 79 36
REMARK SMILES IDX 30 37 84 38 78 39 80 40 31 41 83 42 77 43 76 44 32 46 64 47
REMARK SMILES IDX 44 48 63 49 45 50 48 51 62 52 81 53 46 54 47 55 61 57 82 58
REMARK SMILES IDX 49 59 33 60 34 61 42 62 35 63 41 64 43 65 40 66 36 67 37 68
REMARK SMILES IDX 38 69 39 70 65 71 66 72 74 73 67 74 73 75 75 76 72 77 68 78
REMARK SMILES IDX 69 79 70 80 71 81 50 82 51 83 59 84 52 85 58 86 60 87 57 88
REMARK SMILES IDX 53 89 54 90 55 91 56 92
REMARK H PARENT 8 12 2 18 2 19 12 21 80 45 48 56
REMARK Flexibility Score: inf
ROOT
ATOM      1  C   UNL A   1      41.139  19.632  26.092  1.00  0.00     0.202 C 
ENDROOT
BRANCH   1   2
ATOM      2  C   UNL A   1      41.469  21.020  26.641  1.00  0.00     0.261 C 
BRANCH   2   3
ATOM      3  O   UNL A   1      40.304  21.627  27.216  1.00  0.00    -0.461 OA
BRANCH   3   4
ATOM      4  C   UNL A   1      40.398  22.943  27.555  1.00  0.00     0.339 C 
ATOM      5  O   UNL A   1      41.221  23.421  28.327  1.00  0.00    -0.249 OA
BRANCH   4   6
ATOM      6  C   UNL A   1      39.319  23.768  26.822  1.00  0.00     0.176 C 
ATOM      7  C   UNL A   1      38.626  24.676  27.844  1.00  0.00     0.057 C 
BRANCH   6   8
ATOM      8  C   UNL A   1      38.308  22.793  26.189  1.00  0.00     0.162 C 
BRANCH   8   9
ATOM      9  N   UNL A   1      37.862  23.238  24.878  1.00  0.00    -0.352 N 
ATOM     10  C   UNL A   1      36.604  23.365  24.379  1.00  0.00     0.228 C 
ATOM     11  O   UNL A   1      36.483  23.428  23.152  1.00  0.00    -0.275 OA
ATOM     12  H   UNL A   1      38.585  23.485  24.256  1.00  0.00     0.163 HD
BRANCH  10  13
ATOM     13  C   UNL A   1      35.372  23.444  25.273  1.00  0.00     0.130 C 
ATOM     14  C   UNL A   1      34.875  24.878  25.450  1.00  0.00     0.024 C 
BRANCH  13  15
ATOM     15  C   UNL A   1      34.227  22.482  24.907  1.00  0.00     0.273 C 
BRANCH  15  16
ATOM     16  N   UNL A   1      34.604  21.143  24.442  1.00  0.00    -0.348 N 
ATOM     17  C   UNL A   1      33.887  20.086  25.147  1.00  0.00     0.330 C 
ATOM     18  H   UNL A   1      34.397  21.072  23.446  1.00  0.00     0.346 HD
ATOM     19  H   UNL A   1      35.600  21.020  24.626  1.00  0.00     0.346 HD
ENDBRANCH  15  16
ENDBRANCH  13  15
ENDBRANCH  10  13
ENDBRANCH   8   9
ENDBRANCH   6   8
BRANCH   6  20
ATOM     20  O   UNL A   1      39.860  24.616  25.800  1.00  0.00    -0.377 OA
ATOM     21  H   UNL A   1      40.788  24.816  26.004  1.00  0.00     0.212 HD
ENDBRANCH   6  20
ENDBRANCH   4   6
ENDBRANCH   3   4
ENDBRANCH   2   3
ENDBRANCH   1   2
BRANCH   1  22
ATOM     22  O   UNL A   1      42.151  19.006  25.303  1.00  0.00    -0.374 OA
BRANCH  22  23
ATOM     23  C   UNL A   1      43.513  19.230  25.663  1.00  0.00     0.202 C 
BRANCH  23  24
ATOM     24  C   UNL A   1      44.436  19.863  24.617  1.00  0.00     0.261 C 
BRANCH  24  25
ATOM     25  O   UNL A   1      44.275  21.286  24.509  1.00  0.00    -0.460 OA
BRANCH  25  26
ATOM     26  C   UNL A   1      45.265  21.996  25.096  1.00  0.00     0.338 C 
ATOM     27  O   UNL A   1      46.470  21.825  24.954  1.00  0.00    -0.246 OA
BRANCH  26  28
ATOM     28  C   UNL A   1      44.718  23.152  25.831  1.00  0.00     0.060 A 
ATOM     29  C   UNL A   1      44.343  24.267  25.073  1.00  0.00     0.016 A 
ATOM     30  C   UNL A   1      44.676  23.193  27.227  1.00  0.00     0.016 A 
ATOM     31  C   UNL A   1      44.009  25.458  25.705  1.00  0.00     0.010 A 
ATOM     32  C   UNL A   1      44.344  24.396  27.863  1.00  0.00     0.010 A 
ATOM     33  C   UNL A   1      44.065  25.546  27.102  1.00  0.00    -0.014 A 
BRANCH  33  34
ATOM     34  C   UNL A   1      44.048  26.891  27.730  1.00  0.00     0.031 A 
ATOM     35  C   UNL A   1      45.347  27.645  27.845  1.00  0.00     0.074 A 
ATOM     36  C   UNL A   1      42.892  27.461  28.113  1.00  0.00     0.049 A 
ATOM     37  N   UNL A   1      45.580  28.835  28.333  1.00  0.00    -0.248 NA
ATOM     38  C   UNL A   1      46.546  26.957  27.339  1.00  0.00     0.031 C 
ATOM     39  C   UNL A   1      41.570  26.845  28.000  1.00  0.00     0.029 A 
ATOM     40  N   UNL A   1      42.646  28.690  28.668  1.00  0.00    -0.354 N 
ATOM     41  C   UNL A   1      46.950  29.040  28.196  1.00  0.00     0.074 A 
ATOM     42  C   UNL A   1      47.500  27.832  27.620  1.00  0.00     0.031 C 
ATOM     43  C   UNL A   1      40.650  27.703  28.474  1.00  0.00     0.029 A 
ATOM     44  C   UNL A   1      41.319  28.912  28.951  1.00  0.00     0.049 A 
ATOM     45  H   UNL A   1      43.352  29.353  28.847  1.00  0.00     0.167 HD
ATOM     46  C   UNL A   1      47.680  30.140  28.508  1.00  0.00     0.034 A 
ATOM     47  C   UNL A   1      40.718  29.964  29.543  1.00  0.00     0.034 A 
ATOM     48  C   UNL A   1      47.115  31.334  29.089  1.00  0.00     0.049 A 
ATOM     49  C   UNL A   1      41.563  31.147  29.954  1.00  0.00     0.074 A 
ATOM     50  C   UNL A   1      47.756  32.508  29.443  1.00  0.00     0.029 A 
ATOM     51  N   UNL A   1      45.774  31.503  29.411  1.00  0.00    -0.354 N 
ATOM     52  N   UNL A   1      42.857  31.331  29.816  1.00  0.00    -0.248 NA
ATOM     53  C   UNL A   1      40.861  32.270  30.587  1.00  0.00     0.031 C 
ATOM     54  C   UNL A   1      46.818  33.357  30.042  1.00  0.00     0.029 A 
ATOM     55  C   UNL A   1      45.574  32.748  29.990  1.00  0.00     0.049 A 
ATOM     56  H   UNL A   1      45.068  30.836  29.252  1.00  0.00     0.167 HD
ATOM     57  C   UNL A   1      43.116  32.604  30.321  1.00  0.00     0.074 A 
ATOM     58  C   UNL A   1      41.842  33.146  30.746  1.00  0.00     0.031 C 
ATOM     59  C   UNL A   1      44.298  33.266  30.423  1.00  0.00     0.034 A 
BRANCH  46  60
ATOM     60  C   UNL A   1      49.170  30.069  28.276  1.00  0.00     0.023 A 
ATOM     61  C   UNL A   1      49.777  30.644  27.144  1.00  0.00     0.031 A 
ATOM     62  C   UNL A   1      49.995  29.376  29.181  1.00  0.00     0.131 A 
ATOM     63  C   UNL A   1      51.147  30.453  26.909  1.00  0.00     0.055 A 
ATOM     64  C   UNL A   1      51.372  29.258  28.982  1.00  0.00     0.041 A 
ATOM     65  F   UNL A   1      49.472  28.784  30.266  1.00  0.00    -0.206 F 
ATOM     66  C   UNL A   1      51.954  29.786  27.833  1.00  0.00     0.022 A 
BRANCH  63  67
ATOM     67  S   UNL A   1      51.835  30.962  25.308  1.00  0.00     0.124 S 
ATOM     68  O   UNL A   1      51.516  29.809  24.471  1.00  0.00    -0.237 OA
ATOM     69  O   UNL A   1      51.095  32.186  25.023  1.00  0.00    -0.237 OA
ATOM     70  O   UNL A   1      53.258  31.144  25.589  1.00  0.00    -0.744 OA
ENDBRANCH  63  67
ENDBRANCH  46  60
BRANCH  47  71
ATOM     71  C   UNL A   1      39.254  29.943  29.819  1.00  0.00     0.023 A 
ATOM     72  C   UNL A   1      38.359  30.735  29.083  1.00  0.00     0.031 A 
ATOM     73  C   UNL A   1      38.734  29.170  30.874  1.00  0.00     0.131 A 
ATOM     74  C   UNL A   1      37.002  30.774  29.440  1.00  0.00     0.055 A 
ATOM     75  C   UNL A   1      37.376  29.170  31.191  1.00  0.00     0.041 A 
ATOM     76  F   UNL A   1      39.546  28.397  31.613  1.00  0.00    -0.206 F 
ATOM     77  C   UNL A   1      36.501  29.986  30.480  1.00  0.00     0.022 A 
BRANCH  74  78
ATOM     78  S   UNL A   1      35.909  31.939  28.580  1.00  0.00     0.124 S 
ATOM     79  O   UNL A   1      36.846  32.976  28.166  1.00  0.00    -0.237 OA
ATOM     80  O   UNL A   1      35.359  31.108  27.513  1.00  0.00    -0.237 OA
ATOM     81  O   UNL A   1      34.954  32.335  29.612  1.00  0.00    -0.744 OA
ENDBRANCH  74  78
ENDBRANCH  47  71
BRANCH  59  82
ATOM     82  C   UNL A   1      44.247  34.668  30.983  1.00  0.00     0.023 A 
ATOM     83  C   UNL A   1      44.102  35.793  30.152  1.00  0.00     0.031 A 
ATOM     84  C   UNL A   1      44.373  34.883  32.367  1.00  0.00     0.131 A 
ATOM     85  C   UNL A   1      44.157  37.083  30.702  1.00  0.00     0.055 A 
ATOM     86  C   UNL A   1      44.361  36.166  32.917  1.00  0.00     0.041 A 
ATOM     87  F   UNL A   1      44.514  33.848  33.211  1.00  0.00    -0.206 F 
ATOM     88  C   UNL A   1      44.269  37.276  32.082  1.00  0.00     0.022 A 
BRANCH  85  89
ATOM     89  S   UNL A   1      44.195  38.507  29.581  1.00  0.00     0.124 S 
ATOM     90  O   UNL A   1      43.630  37.946  28.357  1.00  0.00    -0.237 OA
ATOM     91  O   UNL A   1      43.360  39.478  30.280  1.00  0.00    -0.237 OA
ATOM     92  O   UNL A   1      45.614  38.849  29.508  1.00  0.00    -0.744 OA
ENDBRANCH  85  89
ENDBRANCH  59  82
ENDBRANCH  33  34
ENDBRANCH  26  28
ENDBRANCH  25  26
ENDBRANCH  24  25
ENDBRANCH  23  24
ENDBRANCH  22  23
ENDBRANCH   1  22
TORSDOF 23
ENDMDL
MODEL 3
REMARK VINA RESULT:      -8.1      4.859      8.347
REMARK SMILES C[NH2+]C[C@H](C)C(=O)NC[C@](C)(O)C(=O)OCCOCCOC(=O)c1ccc(-c2c3nc(c(-c4cc(S(=O)(=O)[O-])ccc4F)c4ccc([nH]4)c(-c4cc(S(=O)(=O)[O-])ccc4F)c4nc(c(-c5cc(S(=O)(=O)[O-])ccc5F)c5ccc2[nH]5)C=C4)C=C3)cc1
REMARK SMILES IDX 17 1 16 2 15 3 13 4 14 5 10 6 11 7 9 8 8 9 6 10 7 11 4 13
REMARK SMILES IDX 5 14 3 15 2 16 1 17 12 20 18 22 19 23 20 24 21 25 22 26
REMARK SMILES IDX 23 27 24 28 25 29 86 30 26 31 85 32 27 33 28 34 29 35 79 36
REMARK SMILES IDX 30 37 84 38 78 39 80 40 31 41 83 42 77 43 76 44 32 46 64 47
REMARK SMILES IDX 44 48 63 49 45 50 48 51 62 52 81 53 46 54 47 55 61 57 82 58
REMARK SMILES IDX 49 59 33 60 34 61 42 62 35 63 41 64 43 65 40 66 36 67 37 68
REMARK SMILES IDX 38 69 39 70 65 71 66 72 74 73 67 74 73 75 75 76 72 77 68 78
REMARK SMILES IDX 69 79 70 80 71 81 50 82 51 83 59 84 52 85 58 86 60 87 57 88
REMARK SMILES IDX 53 89 54 90 55 91 56 92
REMARK H PARENT 8 12 2 18 2 19 12 21 80 45 48 56
REMARK Flexibility Score: inf
ROOT
ATOM      1  C   UNL A   1      41.748  20.610  26.867  1.00  0.00     0.202 C 
ENDROOT
BRANCH   1   2
ATOM      2  C   UNL A   1      40.613  21.632  26.797  1.00  0.00     0.261 C 
BRANCH   2   3
ATOM      3  O   UNL A   1      40.578  22.431  27.987  1.00  0.00    -0.461 OA
BRANCH   3   4
ATOM      4  C   UNL A   1      41.176  23.654  27.925  1.00  0.00     0.339 C 
ATOM      5  O   UNL A   1      42.382  23.859  28.002  1.00  0.00    -0.249 OA
BRANCH   4   6
ATOM      6  C   UNL A   1      40.119  24.763  27.738  1.00  0.00     0.176 C 
ATOM      7  C   UNL A   1      40.084  25.154  26.257  1.00  0.00     0.057 C 
BRANCH   6   8
ATOM      8  C   UNL A   1      40.521  25.969  28.608  1.00  0.00     0.162 C 
BRANCH   8   9
ATOM      9  N   UNL A   1      39.409  26.472  29.398  1.00  0.00    -0.352 N 
ATOM     10  C   UNL A   1      39.283  27.635  30.090  1.00  0.00     0.228 C 
ATOM     11  O   UNL A   1      38.401  27.691  30.953  1.00  0.00    -0.275 OA
ATOM     12  H   UNL A   1      38.624  25.876  29.438  1.00  0.00     0.163 HD
BRANCH  10  13
ATOM     13  C   UNL A   1      40.170  28.846  29.825  1.00  0.00     0.130 C 
ATOM     14  C   UNL A   1      40.191  29.237  28.349  1.00  0.00     0.024 C 
BRANCH  13  15
ATOM     15  C   UNL A   1      39.917  30.062  30.736  1.00  0.00     0.273 C 
BRANCH  15  16
ATOM     16  N   UNL A   1      38.525  30.495  30.899  1.00  0.00    -0.348 N 
ATOM     17  C   UNL A   1      38.422  31.864  31.393  1.00  0.00     0.330 C 
ATOM     18  H   UNL A   1      38.056  30.437  29.995  1.00  0.00     0.346 HD
ATOM     19  H   UNL A   1      38.088  29.883  31.587  1.00  0.00     0.346 HD
ENDBRANCH  15  16
ENDBRANCH  13  15
ENDBRANCH  10  13
ENDBRANCH   8   9
ENDBRANCH   6   8
BRANCH   6  20
ATOM     20  O   UNL A   1      38.797  24.342  28.097  1.00  0.00    -0.377 OA
ATOM     21  H   UNL A   1      38.502  24.834  28.880  1.00  0.00     0.212 HD
ENDBRANCH   6  20
ENDBRANCH   4   6
ENDBRANCH   3   4
ENDBRANCH   2   3
ENDBRANCH   1   2
BRANCH   1  22
ATOM     22  O   UNL A   1      42.664  20.605  25.772  1.00  0.00    -0.374 OA
BRANCH  22  23
ATOM     23  C   UNL A   1      43.649  21.636  25.722  1.00  0.00     0.202 C 
BRANCH  23  24
ATOM     24  C   UNL A   1      43.644  22.572  24.508  1.00  0.00     0.261 C 
BRANCH  24  25
ATOM     25  O   UNL A   1      43.493  23.955  24.863  1.00  0.00    -0.460 OA
BRANCH  25  26
ATOM     26  C   UNL A   1      44.662  24.634  24.936  1.00  0.00     0.338 C 
ATOM     27  O   UNL A   1      45.715  24.335  24.385  1.00  0.00    -0.246 OA
BRANCH  26  28
ATOM     28  C   UNL A   1      44.483  25.913  25.648  1.00  0.00     0.060 A 
ATOM     29  C   UNL A   1      45.582  26.399  26.366  1.00  0.00     0.016 A 
ATOM     30  C   UNL A   1      43.248  26.564  25.708  1.00  0.00     0.016 A 
ATOM     31  C   UNL A   1      45.430  27.486  27.218  1.00  0.00     0.010 A 
ATOM     32  C   UNL A   1      43.095  27.656  26.571  1.00  0.00     0.010 A 
ATOM     33  C   UNL A   1      44.172  28.083  27.370  1.00  0.00    -0.014 A 
BRANCH  33  34
ATOM     34  C   UNL A   1      43.955  28.996  28.521  1.00  0.00     0.031 A 
ATOM     35  C   UNL A   1      43.806  28.394  29.894  1.00  0.00     0.074 A 
ATOM     36  C   UNL A   1      43.971  30.330  28.358  1.00  0.00     0.049 A 
ATOM     37  N   UNL A   1      43.630  28.984  31.048  1.00  0.00    -0.248 NA
ATOM     38  C   UNL A   1      43.864  26.926  29.972  1.00  0.00     0.031 C 
ATOM     39  C   UNL A   1      44.159  31.022  27.084  1.00  0.00     0.029 A 
ATOM     40  N   UNL A   1      43.833  31.341  29.274  1.00  0.00    -0.354 N 
ATOM     41  C   UNL A   1      43.553  27.961  31.989  1.00  0.00     0.074 A 
ATOM     42  C   UNL A   1      43.659  26.713  31.262  1.00  0.00     0.031 C 
ATOM     43  C   UNL A   1      44.124  32.348  27.300  1.00  0.00     0.029 A 
ATOM     44  C   UNL A   1      43.880  32.598  28.720  1.00  0.00     0.049 A 
ATOM     45  H   UNL A   1      43.713  31.182  30.239  1.00  0.00     0.167 HD
ATOM     46  C   UNL A   1      43.424  28.053  33.336  1.00  0.00     0.034 A 
ATOM     47  C   UNL A   1      43.727  33.809  29.293  1.00  0.00     0.034 A 
ATOM     48  C   UNL A   1      43.313  29.306  34.042  1.00  0.00     0.049 A 
ATOM     49  C   UNL A   1      43.504  33.885  30.785  1.00  0.00     0.074 A 
ATOM     50  C   UNL A   1      43.180  29.521  35.402  1.00  0.00     0.029 A 
ATOM     51  N   UNL A   1      43.312  30.560  33.441  1.00  0.00    -0.354 N 
ATOM     52  N   UNL A   1      43.439  32.911  31.665  1.00  0.00    -0.248 NA
ATOM     53  C   UNL A   1      43.351  35.226  31.361  1.00  0.00     0.031 C 
ATOM     54  C   UNL A   1      43.029  30.896  35.617  1.00  0.00     0.029 A 
ATOM     55  C   UNL A   1      43.147  31.549  34.400  1.00  0.00     0.049 A 
ATOM     56  H   UNL A   1      43.412  30.721  32.476  1.00  0.00     0.167 HD
ATOM     57  C   UNL A   1      43.263  33.528  32.902  1.00  0.00     0.074 A 
ATOM     58  C   UNL A   1      43.256  34.955  32.654  1.00  0.00     0.031 C 
ATOM     59  C   UNL A   1      43.124  32.968  34.132  1.00  0.00     0.034 A 
BRANCH  46  60
ATOM     60  C   UNL A   1      43.339  26.760  34.112  1.00  0.00     0.023 A 
ATOM     61  C   UNL A   1      44.459  25.933  34.306  1.00  0.00     0.031 A 
ATOM     62  C   UNL A   1      42.105  26.327  34.631  1.00  0.00     0.131 A 
ATOM     63  C   UNL A   1      44.310  24.685  34.931  1.00  0.00     0.055 A 
ATOM     64  C   UNL A   1      41.980  25.121  35.323  1.00  0.00     0.041 A 
ATOM     65  F   UNL A   1      40.995  27.061  34.457  1.00  0.00    -0.206 F 
ATOM     66  C   UNL A   1      43.083  24.285  35.464  1.00  0.00     0.022 A 
BRANCH  63  67
ATOM     67  S   UNL A   1      45.709  23.529  34.911  1.00  0.00     0.124 S 
ATOM     68  O   UNL A   1      45.586  22.895  36.221  1.00  0.00    -0.237 OA
ATOM     69  O   UNL A   1      45.405  22.686  33.760  1.00  0.00    -0.237 OA
ATOM     70  O   UNL A   1      46.872  24.401  34.756  1.00  0.00    -0.744 OA
ENDBRANCH  63  67
ENDBRANCH  46  60
BRANCH  47  71
ATOM     71  C   UNL A   1      43.740  35.047  28.462  1.00  0.00     0.023 A 
ATOM     72  C   UNL A   1      44.943  35.680  28.112  1.00  0.00     0.031 A 
ATOM     73  C   UNL A   1      42.536  35.650  28.057  1.00  0.00     0.131 A 
ATOM     74  C   UNL A   1      44.915  36.902  27.421  1.00  0.00     0.055 A 
ATOM     75  C   UNL A   1      42.514  36.837  27.324  1.00  0.00     0.041 A 
ATOM     76  F   UNL A   1      41.356  35.089  28.368  1.00  0.00    -0.206 F 
ATOM     77  C   UNL A   1      43.709  37.478  27.013  1.00  0.00     0.022 A 
BRANCH  74  78
ATOM     78  S   UNL A   1      46.479  37.778  27.139  1.00  0.00     0.124 S 
ATOM     79  O   UNL A   1      47.372  36.683  26.779  1.00  0.00    -0.237 OA
ATOM     80  O   UNL A   1      46.122  38.696  26.062  1.00  0.00    -0.237 OA
ATOM     81  O   UNL A   1      46.752  38.410  28.428  1.00  0.00    -0.744 OA
ENDBRANCH  74  78
ENDBRANCH  47  71
BRANCH  59  82
ATOM     82  C   UNL A   1      42.993  33.915  35.301  1.00  0.00     0.023 A 
ATOM     83  C   UNL A   1      41.742  34.392  35.733  1.00  0.00     0.031 A 
ATOM     84  C   UNL A   1      44.140  34.371  35.976  1.00  0.00     0.131 A 
ATOM     85  C   UNL A   1      41.672  35.345  36.759  1.00  0.00     0.055 A 
ATOM     86  C   UNL A   1      44.059  35.269  37.041  1.00  0.00     0.041 A 
ATOM     87  F   UNL A   1      45.362  33.951  35.610  1.00  0.00    -0.206 F 
ATOM     88  C   UNL A   1      42.822  35.775  37.428  1.00  0.00     0.022 A 
BRANCH  85  89
ATOM     89  S   UNL A   1      40.068  36.103  37.135  1.00  0.00     0.124 S 
ATOM     90  O   UNL A   1      39.315  34.973  37.671  1.00  0.00    -0.237 OA
ATOM     91  O   UNL A   1      40.429  37.141  38.094  1.00  0.00    -0.237 OA
ATOM     92  O   UNL A   1      39.607  36.592  35.836  1.00  0.00    -0.744 OA
ENDBRANCH  85  89
ENDBRANCH  59  82
ENDBRANCH  33  34
ENDBRANCH  26  28
ENDBRANCH  25  26
ENDBRANCH  24  25
ENDBRANCH  23  24
ENDBRANCH  22  23
ENDBRANCH   1  22
TORSDOF 23
ENDMDL
