MODEL 1
REMARK VINA RESULT:     -11.6      0.000      0.000
REMARK SMILES CCCc1cc(OC(F)(F)F)cc2c1O[C@@H](C(F)(F)F)C(C(=O)OCCOCCOC(=O)c1ccc(-c3c4nc(c(-c5cc(S(=O)(=O)[O-])ccc5F)c5ccc([nH]5)c(-c5cc(S(=O)(=O)[O-])ccc5F)c5nc(c(-c6cc(S(=O)(=O)[O-])ccc6F)c6ccc3[nH]6)C=C5)C=C4)cc1)=C2
REMARK SMILES IDX 28 1 27 2 26 3 25 4 24 5 22 6 23 7 21 8 4 9 5 10 14 11 6 12
REMARK SMILES IDX 13 13 15 14 12 15 96 16 16 17 3 18 2 19 1 20 7 21 8 22 9 23
REMARK SMILES IDX 10 24 11 25 17 26 18 27 19 28 20 29 29 30 30 31 31 32 32 33
REMARK SMILES IDX 33 34 34 35 95 36 35 37 94 38 36 39 37 40 38 41 88 42 39 43
REMARK SMILES IDX 93 44 87 45 89 46 40 47 92 48 86 49 85 50 41 52 73 53 53 54
REMARK SMILES IDX 72 55 54 56 57 57 71 58 90 59 55 60 56 61 70 63 91 64 58 65
REMARK SMILES IDX 42 66 43 67 51 68 44 69 50 70 52 71 49 72 45 73 46 74 47 75
REMARK SMILES IDX 48 76 74 77 75 78 83 79 76 80 82 81 84 82 81 83 77 84 78 85
REMARK SMILES IDX 79 86 80 87 59 88 60 89 68 90 61 91 67 92 69 93 66 94 62 95
REMARK SMILES IDX 63 96 64 97 65 98
REMARK H PARENT 89 51 57 62
REMARK Flexibility Score: inf
ROOT
ATOM      1  C   UNL A   1      36.256  19.625  24.790  1.00  0.00     0.202 C 
ENDROOT
BRANCH   1   2
ATOM      2  O   UNL A   1      35.490  20.819  24.912  1.00  0.00    -0.374 OA
BRANCH   2   3
ATOM      3  C   UNL A   1      34.072  20.723  25.018  1.00  0.00     0.202 C 
BRANCH   3   4
ATOM      4  C   UNL A   1      33.219  21.184  23.833  1.00  0.00     0.261 C 
BRANCH   4   5
ATOM      5  O   UNL A   1      32.849  22.567  23.935  1.00  0.00    -0.460 OA
BRANCH   5   6
ATOM      6  C   UNL A   1      33.559  23.400  23.139  1.00  0.00     0.338 C 
ATOM      7  O   UNL A   1      34.341  23.077  22.259  1.00  0.00    -0.246 OA
BRANCH   6   8
ATOM      8  C   UNL A   1      33.171  24.799  23.370  1.00  0.00     0.087 C 
ATOM      9  C   UNL A   1      31.494  28.291  24.911  1.00  0.00    -0.002 A 
ATOM     10  C   UNL A   1      30.649  29.058  24.095  1.00  0.00     0.054 A 
ATOM     11  C   UNL A   1      32.070  27.137  24.362  1.00  0.00     0.131 A 
ATOM     12  C   UNL A   1      30.309  28.634  22.805  1.00  0.00     0.130 A 
ATOM     13  C   UNL A   1      31.745  26.699  23.067  1.00  0.00     0.021 A 
ATOM     14  O   UNL A   1      32.904  26.409  25.175  1.00  0.00    -0.475 OA
ATOM     15  C   UNL A   1      30.869  27.459  22.290  1.00  0.00     0.058 A 
ATOM     16  C   UNL A   1      32.209  25.379  22.632  1.00  0.00     0.027 C 
ATOM     17  C   UNL A   1      33.856  25.581  24.466  1.00  0.00     0.316 C 
BRANCH   9  18
ATOM     18  C   UNL A   1      31.805  28.686  26.342  1.00  0.00     0.039 C 
BRANCH  18  19
ATOM     19  C   UNL A   1      32.931  29.706  26.554  1.00  0.00     0.001 C 
ATOM     20  C   UNL A   1      34.298  29.065  26.760  1.00  0.00     0.004 C 
ENDBRANCH  18  19
ENDBRANCH   9  18
BRANCH  12  21
ATOM     21  O   UNL A   1      29.429  29.267  21.970  1.00  0.00    -0.406 OA
BRANCH  21  22
ATOM     22  C   UNL A   1      28.214  29.731  22.540  1.00  0.00     0.573 C 
ATOM     23  F   UNL A   1      28.438  30.564  23.581  1.00  0.00    -0.132 F 
ATOM     24  F   UNL A   1      27.461  30.365  21.616  1.00  0.00    -0.132 F 
ATOM     25  F   UNL A   1      27.510  28.672  22.998  1.00  0.00    -0.132 F 
ENDBRANCH  21  22
ENDBRANCH  12  21
BRANCH  17  26
ATOM     26  C   UNL A   1      34.715  24.840  25.505  1.00  0.00     0.430 C 
ATOM     27  F   UNL A   1      35.427  25.702  26.267  1.00  0.00    -0.167 F 
ATOM     28  F   UNL A   1      33.906  24.166  26.370  1.00  0.00    -0.167 F 
ATOM     29  F   UNL A   1      35.548  23.929  24.966  1.00  0.00    -0.167 F 
ENDBRANCH  17  26
ENDBRANCH   6   8
ENDBRANCH   5   6
ENDBRANCH   4   5
ENDBRANCH   3   4
ENDBRANCH   2   3
ENDBRANCH   1   2
BRANCH   1  30
ATOM     30  C   UNL A   1      37.782  19.679  24.952  1.00  0.00     0.261 C 
BRANCH  30  31
ATOM     31  O   UNL A   1      38.263  20.908  25.518  1.00  0.00    -0.460 OA
BRANCH  31  32
ATOM     32  C   UNL A   1      39.476  20.791  26.115  1.00  0.00     0.338 C 
ATOM     33  O   UNL A   1      40.277  19.882  25.970  1.00  0.00    -0.246 OA
BRANCH  32  34
ATOM     34  C   UNL A   1      39.816  22.030  26.836  1.00  0.00     0.060 A 
ATOM     35  C   UNL A   1      39.190  23.207  26.411  1.00  0.00     0.016 A 
ATOM     36  C   UNL A   1      40.804  22.062  27.821  1.00  0.00     0.016 A 
ATOM     37  C   UNL A   1      39.600  24.435  26.918  1.00  0.00     0.010 A 
ATOM     38  C   UNL A   1      41.220  23.300  28.327  1.00  0.00     0.010 A 
ATOM     39  C   UNL A   1      40.655  24.493  27.838  1.00  0.00    -0.014 A 
BRANCH  39  40
ATOM     40  C   UNL A   1      41.273  25.812  28.124  1.00  0.00     0.031 A 
ATOM     41  C   UNL A   1      42.663  26.087  27.610  1.00  0.00     0.074 A 
ATOM     42  C   UNL A   1      40.576  26.776  28.750  1.00  0.00     0.049 A 
ATOM     43  N   UNL A   1      43.388  27.171  27.712  1.00  0.00    -0.248 NA
ATOM     44  C   UNL A   1      43.324  24.990  26.885  1.00  0.00     0.031 C 
ATOM     45  C   UNL A   1      39.206  26.638  29.245  1.00  0.00     0.029 A 
ATOM     46  N   UNL A   1      40.919  28.066  29.066  1.00  0.00    -0.354 N 
ATOM     47  C   UNL A   1      44.589  26.887  27.070  1.00  0.00     0.074 A 
ATOM     48  C   UNL A   1      44.512  25.512  26.624  1.00  0.00     0.031 C 
ATOM     49  C   UNL A   1      38.824  27.802  29.798  1.00  0.00     0.029 A 
ATOM     50  C   UNL A   1      39.931  28.754  29.733  1.00  0.00     0.049 A 
ATOM     51  H   UNL A   1      41.790  28.462  28.838  1.00  0.00     0.167 HD
ATOM     52  C   UNL A   1      45.652  27.701  26.859  1.00  0.00     0.034 A 
ATOM     53  C   UNL A   1      39.930  29.999  30.246  1.00  0.00     0.034 A 
ATOM     54  C   UNL A   1      45.712  29.070  27.312  1.00  0.00     0.049 A 
ATOM     55  C   UNL A   1      41.158  30.862  30.066  1.00  0.00     0.074 A 
ATOM     56  C   UNL A   1      46.732  29.990  27.140  1.00  0.00     0.029 A 
ATOM     57  N   UNL A   1      44.715  29.716  28.033  1.00  0.00    -0.354 N 
ATOM     58  N   UNL A   1      42.283  30.584  29.446  1.00  0.00    -0.248 NA
ATOM     59  C   UNL A   1      41.107  32.210  30.643  1.00  0.00     0.031 C 
ATOM     60  C   UNL A   1      46.389  31.159  27.828  1.00  0.00     0.029 A 
ATOM     61  C   UNL A   1      45.114  31.007  28.349  1.00  0.00     0.049 A 
ATOM     62  H   UNL A   1      43.852  29.315  28.285  1.00  0.00     0.167 HD
ATOM     63  C   UNL A   1      43.059  31.739  29.532  1.00  0.00     0.074 A 
ATOM     64  C   UNL A   1      42.260  32.719  30.239  1.00  0.00     0.031 C 
ATOM     65  C   UNL A   1      44.314  31.971  29.067  1.00  0.00     0.034 A 
BRANCH  52  66
ATOM     66  C   UNL A   1      46.853  27.114  26.156  1.00  0.00     0.023 A 
ATOM     67  C   UNL A   1      47.874  26.447  26.856  1.00  0.00     0.031 A 
ATOM     68  C   UNL A   1      46.988  27.240  24.762  1.00  0.00     0.131 A 
ATOM     69  C   UNL A   1      49.012  25.991  26.170  1.00  0.00     0.055 A 
ATOM     70  C   UNL A   1      48.082  26.712  24.074  1.00  0.00     0.041 A 
ATOM     71  F   UNL A   1      46.059  27.891  24.042  1.00  0.00    -0.206 F 
ATOM     72  C   UNL A   1      49.109  26.095  24.780  1.00  0.00     0.022 A 
BRANCH  69  73
ATOM     73  S   UNL A   1      50.426  25.392  27.134  1.00  0.00     0.124 S 
ATOM     74  O   UNL A   1      50.757  26.568  27.936  1.00  0.00    -0.237 OA
ATOM     75  O   UNL A   1      49.856  24.263  27.861  1.00  0.00    -0.237 OA
ATOM     76  O   UNL A   1      51.413  25.044  26.115  1.00  0.00    -0.744 OA
ENDBRANCH  69  73
ENDBRANCH  52  66
BRANCH  53  77
ATOM     77  C   UNL A   1      38.752  30.506  31.012  1.00  0.00     0.023 A 
ATOM     78  C   UNL A   1      37.652  31.087  30.362  1.00  0.00     0.031 A 
ATOM     79  C   UNL A   1      38.746  30.482  32.419  1.00  0.00     0.131 A 
ATOM     80  C   UNL A   1      36.624  31.674  31.116  1.00  0.00     0.055 A 
ATOM     81  C   UNL A   1      37.689  31.009  33.163  1.00  0.00     0.041 A 
ATOM     82  F   UNL A   1      39.774  29.942  33.094  1.00  0.00    -0.206 F 
ATOM     83  C   UNL A   1      36.627  31.624  32.511  1.00  0.00     0.022 A 
BRANCH  80  84
ATOM     84  S   UNL A   1      35.332  32.606  30.246  1.00  0.00     0.124 S 
ATOM     85  O   UNL A   1      35.021  31.714  29.135  1.00  0.00    -0.237 OA
ATOM     86  O   UNL A   1      34.305  32.731  31.275  1.00  0.00    -0.237 OA
ATOM     87  O   UNL A   1      36.000  33.852  29.879  1.00  0.00    -0.744 OA
ENDBRANCH  80  84
ENDBRANCH  53  77
BRANCH  65  88
ATOM     88  C   UNL A   1      44.877  33.360  29.276  1.00  0.00     0.023 A 
ATOM     89  C   UNL A   1      44.713  34.377  28.320  1.00  0.00     0.031 A 
ATOM     90  C   UNL A   1      45.618  33.657  30.434  1.00  0.00     0.131 A 
ATOM     91  C   UNL A   1      45.350  35.614  28.499  1.00  0.00     0.055 A 
ATOM     92  C   UNL A   1      46.183  34.917  30.644  1.00  0.00     0.041 A 
ATOM     93  F   UNL A   1      45.811  32.727  31.382  1.00  0.00    -0.206 F 
ATOM     94  C   UNL A   1      46.067  35.897  29.663  1.00  0.00     0.022 A 
BRANCH  91  95
ATOM     95  S   UNL A   1      45.344  36.800  27.125  1.00  0.00     0.124 S 
ATOM     96  O   UNL A   1      46.189  36.128  26.143  1.00  0.00    -0.237 OA
ATOM     97  O   UNL A   1      43.926  36.885  26.793  1.00  0.00    -0.237 OA
ATOM     98  O   UNL A   1      45.917  38.009  27.714  1.00  0.00    -0.744 OA
ENDBRANCH  91  95
ENDBRANCH  65  88
ENDBRANCH  39  40
ENDBRANCH  32  34
ENDBRANCH  31  32
ENDBRANCH  30  31
ENDBRANCH   1  30
TORSDOF 22
ENDMDL
MODEL 2
REMARK VINA RESULT:     -11.5      1.493      7.661
REMARK SMILES CCCc1cc(OC(F)(F)F)cc2c1O[C@@H](C(F)(F)F)C(C(=O)OCCOCCOC(=O)c1ccc(-c3c4nc(c(-c5cc(S(=O)(=O)[O-])ccc5F)c5ccc([nH]5)c(-c5cc(S(=O)(=O)[O-])ccc5F)c5nc(c(-c6cc(S(=O)(=O)[O-])ccc6F)c6ccc3[nH]6)C=C5)C=C4)cc1)=C2
REMARK SMILES IDX 28 1 27 2 26 3 25 4 24 5 22 6 23 7 21 8 4 9 5 10 14 11 6 12
REMARK SMILES IDX 13 13 15 14 12 15 96 16 16 17 3 18 2 19 1 20 7 21 8 22 9 23
REMARK SMILES IDX 10 24 11 25 17 26 18 27 19 28 20 29 29 30 30 31 31 32 32 33
REMARK SMILES IDX 33 34 34 35 95 36 35 37 94 38 36 39 37 40 38 41 88 42 39 43
REMARK SMILES IDX 93 44 87 45 89 46 40 47 92 48 86 49 85 50 41 52 73 53 53 54
REMARK SMILES IDX 72 55 54 56 57 57 71 58 90 59 55 60 56 61 70 63 91 64 58 65
REMARK SMILES IDX 42 66 43 67 51 68 44 69 50 70 52 71 49 72 45 73 46 74 47 75
REMARK SMILES IDX 48 76 74 77 75 78 83 79 76 80 82 81 84 82 81 83 77 84 78 85
REMARK SMILES IDX 79 86 80 87 59 88 60 89 68 90 61 91 67 92 69 93 66 94 62 95
REMARK SMILES IDX 63 96 64 97 65 98
REMARK H PARENT 89 51 57 62
REMARK Flexibility Score: inf
ROOT
ATOM      1  C   UNL A   1      35.542  20.003  24.942  1.00  0.00     0.202 C 
ENDROOT
BRANCH   1   2
ATOM      2  O   UNL A   1      34.718  21.143  24.719  1.00  0.00    -0.374 OA
BRANCH   2   3
ATOM      3  C   UNL A   1      33.309  20.967  24.606  1.00  0.00     0.202 C 
BRANCH   3   4
ATOM      4  C   UNL A   1      32.620  21.415  23.314  1.00  0.00     0.261 C 
BRANCH   4   5
ATOM      5  O   UNL A   1      32.235  22.797  23.354  1.00  0.00    -0.460 OA
BRANCH   5   6
ATOM      6  C   UNL A   1      33.068  23.631  22.689  1.00  0.00     0.338 C 
ATOM      7  O   UNL A   1      33.871  23.324  21.824  1.00  0.00    -0.246 OA
BRANCH   6   8
ATOM      8  C   UNL A   1      32.796  25.032  23.046  1.00  0.00     0.087 C 
ATOM      9  C   UNL A   1      31.439  28.500  24.919  1.00  0.00    -0.002 A 
ATOM     10  C   UNL A   1      30.630  29.392  24.198  1.00  0.00     0.054 A 
ATOM     11  C   UNL A   1      31.907  27.356  24.260  1.00  0.00     0.131 A 
ATOM     12  C   UNL A   1      30.220  29.102  22.892  1.00  0.00     0.130 A 
ATOM     13  C   UNL A   1      31.511  27.050  22.947  1.00  0.00     0.021 A 
ATOM     14  O   UNL A   1      32.708  26.504  24.981  1.00  0.00    -0.475 OA
ATOM     15  C   UNL A   1      30.673  27.935  22.265  1.00  0.00     0.058 A 
ATOM     16  C   UNL A   1      31.859  25.740  22.391  1.00  0.00     0.027 C 
ATOM     17  C   UNL A   1      33.572  25.668  24.174  1.00  0.00     0.316 C 
BRANCH   9  18
ATOM     18  C   UNL A   1      31.822  28.752  26.365  1.00  0.00     0.039 C 
BRANCH  18  19
ATOM     19  C   UNL A   1      33.025  29.671  26.617  1.00  0.00     0.001 C 
ATOM     20  C   UNL A   1      34.337  28.918  26.789  1.00  0.00     0.004 C 
ENDBRANCH  18  19
ENDBRANCH   9  18
BRANCH  12  21
ATOM     21  O   UNL A   1      29.366  29.864  22.142  1.00  0.00    -0.406 OA
BRANCH  21  22
ATOM     22  C   UNL A   1      28.035  30.002  22.616  1.00  0.00     0.573 C 
ATOM     23  F   UNL A   1      27.431  28.801  22.760  1.00  0.00    -0.132 F 
ATOM     24  F   UNL A   1      28.011  30.657  23.796  1.00  0.00    -0.132 F 
ATOM     25  F   UNL A   1      27.322  30.723  21.723  1.00  0.00    -0.132 F 
ENDBRANCH  21  22
ENDBRANCH  12  21
BRANCH  17  26
ATOM     26  C   UNL A   1      34.402  24.783  25.119  1.00  0.00     0.430 C 
ATOM     27  F   UNL A   1      35.412  24.165  24.464  1.00  0.00    -0.167 F 
ATOM     28  F   UNL A   1      35.000  25.560  26.066  1.00  0.00    -0.167 F 
ATOM     29  F   UNL A   1      33.671  23.865  25.780  1.00  0.00    -0.167 F 
ENDBRANCH  17  26
ENDBRANCH   6   8
ENDBRANCH   5   6
ENDBRANCH   4   5
ENDBRANCH   3   4
ENDBRANCH   2   3
ENDBRANCH   1   2
BRANCH   1  30
ATOM     30  C   UNL A   1      37.057  20.101  24.717  1.00  0.00     0.261 C 
BRANCH  30  31
ATOM     31  O   UNL A   1      37.656  21.269  25.297  1.00  0.00    -0.460 OA
BRANCH  31  32
ATOM     32  C   UNL A   1      38.866  21.032  25.865  1.00  0.00     0.338 C 
ATOM     33  O   UNL A   1      39.559  20.038  25.720  1.00  0.00    -0.246 OA
BRANCH  32  34
ATOM     34  C   UNL A   1      39.361  22.242  26.546  1.00  0.00     0.060 A 
ATOM     35  C   UNL A   1      38.814  23.467  26.147  1.00  0.00     0.016 A 
ATOM     36  C   UNL A   1      40.411  22.193  27.464  1.00  0.00     0.016 A 
ATOM     37  C   UNL A   1      39.363  24.657  26.610  1.00  0.00     0.010 A 
ATOM     38  C   UNL A   1      40.966  23.393  27.925  1.00  0.00     0.010 A 
ATOM     39  C   UNL A   1      40.477  24.628  27.459  1.00  0.00    -0.014 A 
BRANCH  39  40
ATOM     40  C   UNL A   1      41.226  25.889  27.687  1.00  0.00     0.031 A 
ATOM     41  C   UNL A   1      40.549  27.008  28.435  1.00  0.00     0.074 A 
ATOM     42  C   UNL A   1      42.514  26.000  27.315  1.00  0.00     0.049 A 
ATOM     43  N   UNL A   1      41.015  28.182  28.775  1.00  0.00    -0.248 NA
ATOM     44  C   UNL A   1      39.158  26.771  28.853  1.00  0.00     0.031 C 
ATOM     45  C   UNL A   1      43.284  24.962  26.632  1.00  0.00     0.029 A 
ATOM     46  N   UNL A   1      43.403  27.032  27.471  1.00  0.00    -0.354 N 
ATOM     47  C   UNL A   1      39.976  28.825  29.441  1.00  0.00     0.074 A 
ATOM     48  C   UNL A   1      38.841  27.927  29.415  1.00  0.00     0.031 C 
ATOM     49  C   UNL A   1      44.536  25.410  26.431  1.00  0.00     0.029 A 
ATOM     50  C   UNL A   1      44.645  26.777  26.936  1.00  0.00     0.049 A 
ATOM     51  H   UNL A   1      43.175  27.876  27.922  1.00  0.00     0.167 HD
ATOM     52  C   UNL A   1      39.974  30.044  30.034  1.00  0.00     0.034 A 
ATOM     53  C   UNL A   1      45.736  27.564  26.848  1.00  0.00     0.034 A 
ATOM     54  C   UNL A   1      41.115  30.927  30.050  1.00  0.00     0.049 A 
ATOM     55  C   UNL A   1      45.682  28.950  27.447  1.00  0.00     0.074 A 
ATOM     56  C   UNL A   1      41.229  32.177  30.633  1.00  0.00     0.029 A 
ATOM     57  N   UNL A   1      42.339  30.659  29.449  1.00  0.00    -0.354 N 
ATOM     58  N   UNL A   1      44.697  29.541  28.086  1.00  0.00    -0.248 NA
ATOM     59  C   UNL A   1      46.895  29.768  27.327  1.00  0.00     0.031 C 
ATOM     60  C   UNL A   1      42.488  32.698  30.313  1.00  0.00     0.029 A 
ATOM     61  C   UNL A   1      43.198  31.736  29.613  1.00  0.00     0.049 A 
ATOM     62  H   UNL A   1      42.564  29.825  28.975  1.00  0.00     0.167 HD
ATOM     63  C   UNL A   1      45.187  30.787  28.471  1.00  0.00     0.074 A 
ATOM     64  C   UNL A   1      46.561  30.848  28.015  1.00  0.00     0.031 C 
ATOM     65  C   UNL A   1      44.562  31.790  29.141  1.00  0.00     0.034 A 
BRANCH  52  66
ATOM     66  C   UNL A   1      38.683  30.514  30.662  1.00  0.00     0.023 A 
ATOM     67  C   UNL A   1      37.724  31.245  29.938  1.00  0.00     0.031 A 
ATOM     68  C   UNL A   1      38.414  30.239  32.015  1.00  0.00     0.131 A 
ATOM     69  C   UNL A   1      36.577  31.731  30.587  1.00  0.00     0.055 A 
ATOM     70  C   UNL A   1      37.233  30.655  32.633  1.00  0.00     0.041 A 
ATOM     71  F   UNL A   1      39.304  29.569  32.766  1.00  0.00    -0.206 F 
ATOM     72  C   UNL A   1      36.313  31.417  31.922  1.00  0.00     0.022 A 
BRANCH  69  73
ATOM     73  S   UNL A   1      35.508  32.900  29.702  1.00  0.00     0.124 S 
ATOM     74  O   UNL A   1      34.814  33.558  30.807  1.00  0.00    -0.237 OA
ATOM     75  O   UNL A   1      36.471  33.719  28.975  1.00  0.00    -0.237 OA
ATOM     76  O   UNL A   1      34.669  32.037  28.874  1.00  0.00    -0.744 OA
ENDBRANCH  69  73
ENDBRANCH  52  66
BRANCH  53  77
ATOM     77  C   UNL A   1      46.961  27.090  26.138  1.00  0.00     0.023 A 
ATOM     78  C   UNL A   1      47.976  26.396  26.816  1.00  0.00     0.031 A 
ATOM     79  C   UNL A   1      47.167  27.395  24.780  1.00  0.00     0.131 A 
ATOM     80  C   UNL A   1      49.173  26.083  26.152  1.00  0.00     0.055 A 
ATOM     81  C   UNL A   1      48.333  27.022  24.108  1.00  0.00     0.041 A 
ATOM     82  F   UNL A   1      46.232  28.060  24.083  1.00  0.00    -0.206 F 
ATOM     83  C   UNL A   1      49.351  26.377  24.799  1.00  0.00     0.022 A 
BRANCH  80  84
ATOM     84  S   UNL A   1      50.542  25.384  27.115  1.00  0.00     0.124 S 
ATOM     85  O   UNL A   1      51.481  25.006  26.065  1.00  0.00    -0.237 OA
ATOM     86  O   UNL A   1      50.934  26.515  27.950  1.00  0.00    -0.237 OA
ATOM     87  O   UNL A   1      49.923  24.270  27.829  1.00  0.00    -0.744 OA
ENDBRANCH  80  84
ENDBRANCH  53  77
BRANCH  65  88
ATOM     88  C   UNL A   1      45.384  33.021  29.457  1.00  0.00     0.023 A 
ATOM     89  C   UNL A   1      46.124  33.132  30.647  1.00  0.00     0.031 A 
ATOM     90  C   UNL A   1      45.398  34.111  28.569  1.00  0.00     0.131 A 
ATOM     91  C   UNL A   1      46.777  34.335  30.955  1.00  0.00     0.055 A 
ATOM     92  C   UNL A   1      46.115  35.277  28.844  1.00  0.00     0.041 A 
ATOM     93  F   UNL A   1      44.708  34.066  27.418  1.00  0.00    -0.206 F 
ATOM     94  C   UNL A   1      46.794  35.400  30.052  1.00  0.00     0.022 A 
BRANCH  91  95
ATOM     95  S   UNL A   1      47.488  34.537  32.612  1.00  0.00     0.124 S 
ATOM     96  O   UNL A   1      46.565  33.762  33.433  1.00  0.00    -0.237 OA
ATOM     97  O   UNL A   1      48.824  33.972  32.449  1.00  0.00    -0.237 OA
ATOM     98  O   UNL A   1      47.449  35.982  32.828  1.00  0.00    -0.744 OA
ENDBRANCH  91  95
ENDBRANCH  65  88
ENDBRANCH  39  40
ENDBRANCH  32  34
ENDBRANCH  31  32
ENDBRANCH  30  31
ENDBRANCH   1  30
TORSDOF 22
ENDMDL
MODEL 3
REMARK VINA RESULT:     -11.2      5.811     12.360
REMARK SMILES CCCc1cc(OC(F)(F)F)cc2c1O[C@@H](C(F)(F)F)C(C(=O)OCCOCCOC(=O)c1ccc(-c3c4nc(c(-c5cc(S(=O)(=O)[O-])ccc5F)c5ccc([nH]5)c(-c5cc(S(=O)(=O)[O-])ccc5F)c5nc(c(-c6cc(S(=O)(=O)[O-])ccc6F)c6ccc3[nH]6)C=C5)C=C4)cc1)=C2
REMARK SMILES IDX 28 1 27 2 26 3 25 4 24 5 22 6 23 7 21 8 4 9 5 10 14 11 6 12
REMARK SMILES IDX 13 13 15 14 12 15 96 16 16 17 3 18 2 19 1 20 7 21 8 22 9 23
REMARK SMILES IDX 10 24 11 25 17 26 18 27 19 28 20 29 29 30 30 31 31 32 32 33
REMARK SMILES IDX 33 34 34 35 95 36 35 37 94 38 36 39 37 40 38 41 88 42 39 43
REMARK SMILES IDX 93 44 87 45 89 46 40 47 92 48 86 49 85 50 41 52 73 53 53 54
REMARK SMILES IDX 72 55 54 56 57 57 71 58 90 59 55 60 56 61 70 63 91 64 58 65
REMARK SMILES IDX 42 66 43 67 51 68 44 69 50 70 52 71 49 72 45 73 46 74 47 75
REMARK SMILES IDX 48 76 74 77 75 78 83 79 76 80 82 81 84 82 81 83 77 84 78 85
REMARK SMILES IDX 79 86 80 87 59 88 60 89 68 90 61 91 67 92 69 93 66 94 62 95
REMARK SMILES IDX 63 96 64 97 65 98
REMARK H PARENT 89 51 57 62
REMARK Flexibility Score: inf
ROOT
ATOM      1  C   UNL A   1      34.038  35.292  27.629  1.00  0.00     0.202 C 
ENDROOT
BRANCH   1   2
ATOM      2  O   UNL A   1      34.041  36.182  28.741  1.00  0.00    -0.374 OA
BRANCH   2   3
ATOM      3  C   UNL A   1      32.905  36.219  29.600  1.00  0.00     0.202 C 
BRANCH   3   4
ATOM      4  C   UNL A   1      33.013  35.565  30.980  1.00  0.00     0.261 C 
BRANCH   4   5
ATOM      5  O   UNL A   1      34.377  35.382  31.390  1.00  0.00    -0.460 OA
BRANCH   5   6
ATOM      6  C   UNL A   1      34.755  34.089  31.520  1.00  0.00     0.338 C 
ATOM      7  O   UNL A   1      34.119  33.105  31.181  1.00  0.00    -0.246 OA
BRANCH   6   8
ATOM      8  C   UNL A   1      36.137  33.998  32.018  1.00  0.00     0.087 C 
ATOM      9  C   UNL A   1      39.867  34.859  33.667  1.00  0.00    -0.002 A 
ATOM     10  C   UNL A   1      41.016  34.681  32.881  1.00  0.00     0.054 A 
ATOM     11  C   UNL A   1      38.627  34.536  33.101  1.00  0.00     0.131 A 
ATOM     12  C   UNL A   1      40.923  34.288  31.541  1.00  0.00     0.130 A 
ATOM     13  C   UNL A   1      38.513  34.134  31.759  1.00  0.00     0.021 A 
ATOM     14  O   UNL A   1      37.517  34.705  33.893  1.00  0.00    -0.475 OA
ATOM     15  C   UNL A   1      39.669  34.003  30.988  1.00  0.00     0.058 A 
ATOM     16  C   UNL A   1      37.177  34.018  31.168  1.00  0.00     0.027 C 
ATOM     17  C   UNL A   1      36.378  33.900  33.505  1.00  0.00     0.316 C 
BRANCH   9  18
ATOM     18  C   UNL A   1      39.940  35.370  35.093  1.00  0.00     0.039 C 
BRANCH  18  19
ATOM     19  C   UNL A   1      40.986  36.451  35.393  1.00  0.00     0.001 C 
ATOM     20  C   UNL A   1      41.558  36.367  36.802  1.00  0.00     0.004 C 
ENDBRANCH  18  19
ENDBRANCH   9  18
BRANCH  12  21
ATOM     21  O   UNL A   1      41.975  34.171  30.675  1.00  0.00    -0.406 OA
BRANCH  21  22
ATOM     22  C   UNL A   1      43.059  33.348  31.080  1.00  0.00     0.573 C 
ATOM     23  F   UNL A   1      42.642  32.314  31.844  1.00  0.00    -0.132 F 
ATOM     24  F   UNL A   1      43.725  32.868  30.007  1.00  0.00    -0.132 F 
ATOM     25  F   UNL A   1      43.922  34.085  31.812  1.00  0.00    -0.132 F 
ENDBRANCH  21  22
ENDBRANCH  12  21
BRANCH  17  26
ATOM     26  C   UNL A   1      35.227  34.196  34.483  1.00  0.00     0.430 C 
ATOM     27  F   UNL A   1      34.177  33.367  34.281  1.00  0.00    -0.167 F 
ATOM     28  F   UNL A   1      35.641  33.960  35.760  1.00  0.00    -0.167 F 
ATOM     29  F   UNL A   1      34.801  35.473  34.445  1.00  0.00    -0.167 F 
ENDBRANCH  17  26
ENDBRANCH   6   8
ENDBRANCH   5   6
ENDBRANCH   4   5
ENDBRANCH   3   4
ENDBRANCH   2   3
ENDBRANCH   1   2
BRANCH   1  30
ATOM     30  C   UNL A   1      33.781  33.796  27.851  1.00  0.00     0.261 C 
BRANCH  30  31
ATOM     31  O   UNL A   1      34.974  33.027  28.069  1.00  0.00    -0.460 OA
BRANCH  31  32
ATOM     32  C   UNL A   1      34.775  31.686  27.999  1.00  0.00     0.338 C 
ATOM     33  O   UNL A   1      33.737  31.116  27.706  1.00  0.00    -0.246 OA
BRANCH  32  34
ATOM     34  C   UNL A   1      36.055  30.968  28.130  1.00  0.00     0.060 A 
ATOM     35  C   UNL A   1      35.992  29.600  28.419  1.00  0.00     0.016 A 
ATOM     36  C   UNL A   1      37.281  31.633  28.087  1.00  0.00     0.016 A 
ATOM     37  C   UNL A   1      37.152  28.903  28.739  1.00  0.00     0.010 A 
ATOM     38  C   UNL A   1      38.447  30.931  28.415  1.00  0.00     0.010 A 
ATOM     39  C   UNL A   1      38.378  29.576  28.793  1.00  0.00    -0.014 A 
BRANCH  39  40
ATOM     40  C   UNL A   1      39.533  28.895  29.429  1.00  0.00     0.031 A 
ATOM     41  C   UNL A   1      39.989  29.360  30.788  1.00  0.00     0.074 A 
ATOM     42  C   UNL A   1      40.105  27.825  28.848  1.00  0.00     0.049 A 
ATOM     43  N   UNL A   1      40.951  28.898  31.545  1.00  0.00    -0.248 NA
ATOM     44  C   UNL A   1      39.264  30.501  31.369  1.00  0.00     0.031 C 
ATOM     45  C   UNL A   1      39.711  27.257  27.560  1.00  0.00     0.029 A 
ATOM     46  N   UNL A   1      41.130  27.019  29.273  1.00  0.00    -0.354 N 
ATOM     47  C   UNL A   1      40.949  29.693  32.688  1.00  0.00     0.074 A 
ATOM     48  C   UNL A   1      39.922  30.695  32.501  1.00  0.00     0.031 C 
ATOM     49  C   UNL A   1      40.485  26.188  27.301  1.00  0.00     0.029 A 
ATOM     50  C   UNL A   1      41.452  26.020  28.383  1.00  0.00     0.049 A 
ATOM     51  H   UNL A   1      41.593  27.144  30.132  1.00  0.00     0.167 HD
ATOM     52  C   UNL A   1      41.723  29.587  33.796  1.00  0.00     0.034 A 
ATOM     53  C   UNL A   1      42.426  25.090  28.431  1.00  0.00     0.034 A 
ATOM     54  C   UNL A   1      42.744  28.581  33.965  1.00  0.00     0.049 A 
ATOM     55  C   UNL A   1      43.328  25.043  29.643  1.00  0.00     0.074 A 
ATOM     56  C   UNL A   1      43.576  28.372  35.051  1.00  0.00     0.029 A 
ATOM     57  N   UNL A   1      43.081  27.620  33.019  1.00  0.00    -0.354 N 
ATOM     58  N   UNL A   1      43.307  25.793  30.723  1.00  0.00    -0.248 NA
ATOM     59  C   UNL A   1      44.373  24.012  29.648  1.00  0.00     0.031 C 
ATOM     60  C   UNL A   1      44.469  27.344  34.729  1.00  0.00     0.029 A 
ATOM     61  C   UNL A   1      44.134  26.844  33.481  1.00  0.00     0.049 A 
ATOM     62  H   UNL A   1      42.636  27.507  32.148  1.00  0.00     0.167 HD
ATOM     63  C   UNL A   1      44.317  25.299  31.547  1.00  0.00     0.074 A 
ATOM     64  C   UNL A   1      44.904  24.173  30.849  1.00  0.00     0.031 C 
ATOM     65  C   UNL A   1      44.721  25.732  32.769  1.00  0.00     0.034 A 
BRANCH  52  66
ATOM     66  C   UNL A   1      41.531  30.617  34.884  1.00  0.00     0.023 A 
ATOM     67  C   UNL A   1      40.346  30.693  35.638  1.00  0.00     0.031 A 
ATOM     68  C   UNL A   1      42.545  31.552  35.159  1.00  0.00     0.131 A 
ATOM     69  C   UNL A   1      40.181  31.720  36.582  1.00  0.00     0.055 A 
ATOM     70  C   UNL A   1      42.407  32.520  36.156  1.00  0.00     0.041 A 
ATOM     71  F   UNL A   1      43.687  31.548  34.453  1.00  0.00    -0.206 F 
ATOM     72  C   UNL A   1      41.214  32.617  36.864  1.00  0.00     0.022 A 
BRANCH  69  73
ATOM     73  S   UNL A   1      38.546  31.957  37.330  1.00  0.00     0.124 S 
ATOM     74  O   UNL A   1      37.892  30.689  37.019  1.00  0.00    -0.237 OA
ATOM     75  O   UNL A   1      38.871  32.180  38.734  1.00  0.00    -0.237 OA
ATOM     76  O   UNL A   1      38.010  33.117  36.622  1.00  0.00    -0.744 OA
ENDBRANCH  69  73
ENDBRANCH  52  66
BRANCH  53  77
ATOM     77  C   UNL A   1      42.637  24.149  27.291  1.00  0.00     0.023 A 
ATOM     78  C   UNL A   1      41.995  22.901  27.246  1.00  0.00     0.031 A 
ATOM     79  C   UNL A   1      43.547  24.458  26.263  1.00  0.00     0.131 A 
ATOM     80  C   UNL A   1      42.317  21.986  26.231  1.00  0.00     0.055 A 
ATOM     81  C   UNL A   1      43.814  23.569  25.220  1.00  0.00     0.041 A 
ATOM     82  F   UNL A   1      44.192  25.635  26.258  1.00  0.00    -0.206 F 
ATOM     83  C   UNL A   1      43.209  22.318  25.209  1.00  0.00     0.022 A 
BRANCH  80  84
ATOM     84  S   UNL A   1      41.635  20.307  26.327  1.00  0.00     0.124 S 
ATOM     85  O   UNL A   1      42.335  19.640  25.236  1.00  0.00    -0.237 OA
ATOM     86  O   UNL A   1      42.017  19.903  27.677  1.00  0.00    -0.237 OA
ATOM     87  O   UNL A   1      40.203  20.509  26.122  1.00  0.00    -0.744 OA
ENDBRANCH  80  84
ENDBRANCH  53  77
BRANCH  65  88
ATOM     88  C   UNL A   1      45.826  24.950  33.444  1.00  0.00     0.023 A 
ATOM     89  C   UNL A   1      45.562  23.795  34.199  1.00  0.00     0.031 A 
ATOM     90  C   UNL A   1      47.160  25.389  33.356  1.00  0.00     0.131 A 
ATOM     91  C   UNL A   1      46.601  23.167  34.904  1.00  0.00     0.055 A 
ATOM     92  C   UNL A   1      48.201  24.714  33.995  1.00  0.00     0.041 A 
ATOM     93  F   UNL A   1      47.475  26.488  32.652  1.00  0.00    -0.206 F 
ATOM     94  C   UNL A   1      47.921  23.607  34.791  1.00  0.00     0.022 A 
BRANCH  91  95
ATOM     95  S   UNL A   1      46.180  21.851  36.080  1.00  0.00     0.124 S 
ATOM     96  O   UNL A   1      47.494  21.308  36.408  1.00  0.00    -0.237 OA
ATOM     97  O   UNL A   1      45.512  22.589  37.147  1.00  0.00    -0.237 OA
ATOM     98  O   UNL A   1      45.316  20.962  35.306  1.00  0.00    -0.744 OA
ENDBRANCH  91  95
ENDBRANCH  65  88
ENDBRANCH  39  40
ENDBRANCH  32  34
ENDBRANCH  31  32
ENDBRANCH  30  31
ENDBRANCH   1  30
TORSDOF 22
ENDMDL
