MODEL 1
REMARK VINA RESULT:      -9.0      0.000      0.000
REMARK SMILES COC(=O)[C@H]1CC[C@]2(C)[C@H](CC[C@]3(C)[C@H]2CC=C2[C@H]4CC(C)(C)CC[C@]4(C(=O)OCCOCCOC(=O)c4ccc(-c5c6nc(c(-c7cc(S(=O)(=O)[O-])ccc7F)c7ccc([nH]7)c(-c7cc(S(=O)(=O)[O-])ccc7F)c7nc(c(-c8cc(S(=O)(=O)[O-])ccc8F)c8ccc5[nH]8)C=C7)C=C6)cc4)CC[C@@]23C)C1(C)C
REMARK SMILES IDX 33 1 32 2 31 3 30 4 29 5 27 6 28 7 26 8 5 9 6 10 105 11 7 12
REMARK SMILES IDX 10 13 106 14 107 15 8 16 11 17 15 18 9 19 12 20 16 21 13 22
REMARK SMILES IDX 17 23 103 24 14 25 18 26 102 27 104 28 19 29 101 30 20 31
REMARK SMILES IDX 21 32 25 33 24 34 22 35 23 36 3 37 4 38 2 39 1 40 34 41
REMARK SMILES IDX 35 42 36 43 37 44 38 45 39 46 100 47 40 48 99 49 41 50 42 51
REMARK SMILES IDX 43 52 93 53 44 54 98 55 92 56 94 57 45 58 97 59 91 60 90 61
REMARK SMILES IDX 46 63 78 64 58 65 77 66 59 67 62 68 76 69 95 70 60 71 61 72
REMARK SMILES IDX 75 74 96 75 63 76 47 77 48 78 56 79 49 80 55 81 57 82 54 83
REMARK SMILES IDX 50 84 51 85 52 86 53 87 79 88 80 89 88 90 81 91 87 92 89 93
REMARK SMILES IDX 86 94 82 95 83 96 84 97 85 98 64 99 65 100 73 101 66 102
REMARK SMILES IDX 72 103 74 104 71 105 67 106 68 107 69 108 70 109
REMARK H PARENT 94 62 62 73
REMARK Flexibility Score: inf
ROOT
ATOM      1  C   UNL A   1      42.913  22.840  28.329  1.00  0.00     0.202 C 
ENDROOT
BRANCH   1   2
ATOM      2  O   UNL A   1      42.941  23.742  29.405  1.00  0.00    -0.374 OA
BRANCH   2   3
ATOM      3  C   UNL A   1      43.771  23.513  30.528  1.00  0.00     0.202 C 
BRANCH   3   4
ATOM      4  C   UNL A   1      44.516  24.623  31.325  1.00  0.00     0.261 C 
BRANCH   4   5
ATOM      5  O   UNL A   1      44.152  24.817  32.710  1.00  0.00    -0.463 OA
BRANCH   5   6
ATOM      6  C   UNL A   1      45.148  24.571  33.632  1.00  0.00     0.312 C 
ATOM      7  O   UNL A   1      45.815  23.541  33.624  1.00  0.00    -0.252 OA
BRANCH   6   8
ATOM      8  C   UNL A   1      45.237  25.634  34.788  1.00  0.00     0.075 C 
ATOM      9  C   UNL A   1      40.673  32.526  34.049  1.00  0.00     0.105 C 
ATOM     10  C   UNL A   1      41.627  33.193  33.000  1.00  0.00     0.016 C 
ATOM     11  C   UNL A   1      41.143  31.205  34.785  1.00  0.00    -0.019 C 
ATOM     12  C   UNL A   1      43.097  32.704  32.904  1.00  0.00     0.008 C 
ATOM     13  C   UNL A   1      42.683  31.007  34.561  1.00  0.00     0.002 C 
ATOM     14  C   UNL A   1      40.258  30.004  34.353  1.00  0.00     0.012 C 
ATOM     15  C   UNL A   1      40.881  31.262  36.327  1.00  0.00     0.012 C 
ATOM     16  C   UNL A   1      43.214  31.164  33.101  1.00  0.00    -0.026 C 
ATOM     17  C   UNL A   1      43.273  29.777  35.200  1.00  0.00     0.005 C 
ATOM     18  C   UNL A   1      44.748  30.573  32.849  1.00  0.00     0.006 C 
ATOM     19  C   UNL A   1      42.289  30.587  32.020  1.00  0.00     0.012 C 
ATOM     20  C   UNL A   1      44.761  29.999  35.438  1.00  0.00     0.008 C 
ATOM     21  C   UNL A   1      44.858  29.506  31.661  1.00  0.00     0.032 C 
ATOM     22  C   UNL A   1      45.622  30.033  34.153  1.00  0.00    -0.020 C 
ATOM     23  C   UNL A   1      44.763  28.074  32.143  1.00  0.00    -0.027 C 
ATOM     24  C   UNL A   1      46.265  28.562  33.866  1.00  0.00    -0.006 C 
ATOM     25  C   UNL A   1      46.753  31.057  34.410  1.00  0.00     0.012 C 
ATOM     26  C   UNL A   1      45.047  27.765  33.413  1.00  0.00    -0.063 C 
ATOM     27  C   UNL A   1      46.995  27.699  34.954  1.00  0.00     0.013 C 
ATOM     28  C   UNL A   1      47.420  28.709  32.774  1.00  0.00     0.017 C 
ATOM     29  C   UNL A   1      44.351  26.821  34.469  1.00  0.00     0.033 C 
ATOM     30  C   UNL A   1      46.666  26.169  35.109  1.00  0.00     0.020 C 
ATOM     31  C   UNL A   1      42.829  26.384  34.471  1.00  0.00     0.015 C 
ATOM     32  C   UNL A   1      42.310  25.713  35.777  1.00  0.00    -0.035 C 
ATOM     33  C   UNL A   1      44.735  24.949  36.113  1.00  0.00     0.020 C 
ATOM     34  C   UNL A   1      43.260  24.573  36.178  1.00  0.00     0.007 C 
ATOM     35  C   UNL A   1      40.913  25.089  35.530  1.00  0.00     0.011 C 
ATOM     36  C   UNL A   1      42.142  26.745  36.905  1.00  0.00     0.011 C 
BRANCH   9  37
ATOM     37  C   UNL A   1      40.226  33.596  35.034  1.00  0.00     0.309 C 
ATOM     38  O   UNL A   1      39.081  33.729  35.447  1.00  0.00    -0.252 OA
BRANCH  37  39
ATOM     39  O   UNL A   1      41.266  34.435  35.308  1.00  0.00    -0.469 OA
ATOM     40  C   UNL A   1      40.972  35.819  35.127  1.00  0.00     0.282 C 
ENDBRANCH  37  39
ENDBRANCH   9  37
ENDBRANCH   6   8
ENDBRANCH   5   6
ENDBRANCH   4   5
ENDBRANCH   3   4
ENDBRANCH   2   3
ENDBRANCH   1   2
BRANCH   1  41
ATOM     41  C   UNL A   1      41.618  22.235  27.915  1.00  0.00     0.261 C 
BRANCH  41  42
ATOM     42  O   UNL A   1      41.015  23.161  27.031  1.00  0.00    -0.460 OA
BRANCH  42  43
ATOM     43  C   UNL A   1      39.681  23.004  26.790  1.00  0.00     0.338 C 
ATOM     44  O   UNL A   1      39.083  22.117  26.235  1.00  0.00    -0.246 OA
BRANCH  43  45
ATOM     45  C   UNL A   1      39.235  24.378  27.018  1.00  0.00     0.060 A 
ATOM     46  C   UNL A   1      39.019  24.645  28.373  1.00  0.00     0.016 A 
ATOM     47  C   UNL A   1      39.883  25.273  26.152  1.00  0.00     0.016 A 
ATOM     48  C   UNL A   1      39.666  25.730  28.914  1.00  0.00     0.010 A 
ATOM     49  C   UNL A   1      40.588  26.319  26.711  1.00  0.00     0.010 A 
ATOM     50  C   UNL A   1      40.464  26.544  28.090  1.00  0.00    -0.014 A 
BRANCH  50  51
ATOM     51  C   UNL A   1      40.884  27.816  28.676  1.00  0.00     0.031 A 
ATOM     52  C   UNL A   1      42.313  28.166  28.421  1.00  0.00     0.074 A 
ATOM     53  C   UNL A   1      39.962  28.647  29.187  1.00  0.00     0.049 A 
ATOM     54  N   UNL A   1      42.915  29.311  28.530  1.00  0.00    -0.248 NA
ATOM     55  C   UNL A   1      43.189  27.068  27.963  1.00  0.00     0.031 C 
ATOM     56  C   UNL A   1      38.556  28.310  29.441  1.00  0.00     0.029 A 
ATOM     57  N   UNL A   1      40.051  29.969  29.519  1.00  0.00    -0.354 N 
ATOM     58  C   UNL A   1      44.223  29.070  28.129  1.00  0.00     0.074 A 
ATOM     59  C   UNL A   1      44.363  27.660  27.889  1.00  0.00     0.031 C 
ATOM     60  C   UNL A   1      37.904  29.418  29.835  1.00  0.00     0.029 A 
ATOM     61  C   UNL A   1      38.842  30.535  29.854  1.00  0.00     0.049 A 
ATOM     62  H   UNL A   1      40.899  30.469  29.519  1.00  0.00     0.167 HD
ATOM     63  C   UNL A   1      45.201  29.974  27.916  1.00  0.00     0.034 A 
ATOM     64  C   UNL A   1      38.549  31.829  30.099  1.00  0.00     0.034 A 
ATOM     65  C   UNL A   1      44.988  31.370  28.162  1.00  0.00     0.049 A 
ATOM     66  C   UNL A   1      39.677  32.817  29.909  1.00  0.00     0.074 A 
ATOM     67  C   UNL A   1      45.875  32.419  28.056  1.00  0.00     0.029 A 
ATOM     68  N   UNL A   1      43.769  31.904  28.578  1.00  0.00    -0.354 N 
ATOM     69  N   UNL A   1      40.913  32.591  29.509  1.00  0.00    -0.248 NA
ATOM     70  C   UNL A   1      39.379  34.226  30.176  1.00  0.00     0.031 C 
ATOM     71  C   UNL A   1      45.207  33.579  28.464  1.00  0.00     0.029 A 
ATOM     72  C   UNL A   1      43.884  33.267  28.758  1.00  0.00     0.049 A 
ATOM     73  H   UNL A   1      42.945  31.384  28.722  1.00  0.00     0.167 HD
ATOM     74  C   UNL A   1      41.537  33.832  29.466  1.00  0.00     0.074 A 
ATOM     75  C   UNL A   1      40.526  34.803  29.849  1.00  0.00     0.031 C 
ATOM     76  C   UNL A   1      42.819  34.160  29.155  1.00  0.00     0.034 A 
BRANCH  63  77
ATOM     77  C   UNL A   1      46.536  29.432  27.473  1.00  0.00     0.023 A 
ATOM     78  C   UNL A   1      46.746  28.961  26.160  1.00  0.00     0.031 A 
ATOM     79  C   UNL A   1      47.558  29.231  28.413  1.00  0.00     0.131 A 
ATOM     80  C   UNL A   1      47.902  28.225  25.856  1.00  0.00     0.055 A 
ATOM     81  C   UNL A   1      48.746  28.580  28.078  1.00  0.00     0.041 A 
ATOM     82  F   UNL A   1      47.396  29.617  29.688  1.00  0.00    -0.206 F 
ATOM     83  C   UNL A   1      48.916  28.054  26.800  1.00  0.00     0.022 A 
BRANCH  80  84
ATOM     84  S   UNL A   1      47.979  27.332  24.276  1.00  0.00     0.124 S 
ATOM     85  O   UNL A   1      49.235  27.830  23.718  1.00  0.00    -0.237 OA
ATOM     86  O   UNL A   1      47.976  25.937  24.698  1.00  0.00    -0.237 OA
ATOM     87  O   UNL A   1      46.775  27.775  23.574  1.00  0.00    -0.744 OA
ENDBRANCH  80  84
ENDBRANCH  63  77
BRANCH  64  88
ATOM     88  C   UNL A   1      37.177  32.249  30.522  1.00  0.00     0.023 A 
ATOM     89  C   UNL A   1      36.251  32.799  29.618  1.00  0.00     0.031 A 
ATOM     90  C   UNL A   1      36.778  32.131  31.867  1.00  0.00     0.131 A 
ATOM     91  C   UNL A   1      34.996  33.242  30.076  1.00  0.00     0.055 A 
ATOM     92  C   UNL A   1      35.513  32.532  32.309  1.00  0.00     0.041 A 
ATOM     93  F   UNL A   1      37.614  31.614  32.781  1.00  0.00    -0.206 F 
ATOM     94  C   UNL A   1      34.618  33.102  31.412  1.00  0.00     0.022 A 
BRANCH  91  95
ATOM     95  S   UNL A   1      33.881  34.083  28.913  1.00  0.00     0.124 S 
ATOM     96  O   UNL A   1      32.837  34.579  29.803  1.00  0.00    -0.237 OA
ATOM     97  O   UNL A   1      34.761  35.090  28.329  1.00  0.00    -0.237 OA
ATOM     98  O   UNL A   1      33.469  33.016  28.003  1.00  0.00    -0.744 OA
ENDBRANCH  91  95
ENDBRANCH  64  88
BRANCH  76  99
ATOM     99  C   UNL A   1      43.166  35.619  29.223  1.00  0.00     0.023 A 
ATOM    100  C   UNL A   1      43.628  36.193  30.417  1.00  0.00     0.031 A 
ATOM    101  C   UNL A   1      43.063  36.428  28.079  1.00  0.00     0.131 A 
ATOM    102  C   UNL A   1      43.923  37.559  30.456  1.00  0.00     0.055 A 
ATOM    103  C   UNL A   1      43.423  37.774  28.108  1.00  0.00     0.041 A 
ATOM    104  F   UNL A   1      42.632  35.916  26.915  1.00  0.00    -0.206 F 
ATOM    105  C   UNL A   1      43.844  38.349  29.305  1.00  0.00     0.022 A 
BRANCH 102 106
ATOM    106  S   UNL A   1      44.330  38.303  32.055  1.00  0.00     0.124 S 
ATOM    107  O   UNL A   1      45.779  38.458  31.955  1.00  0.00    -0.237 OA
ATOM    108  O   UNL A   1      43.554  39.539  32.032  1.00  0.00    -0.237 OA
ATOM    109  O   UNL A   1      43.877  37.305  33.021  1.00  0.00    -0.744 OA
ENDBRANCH 102 106
ENDBRANCH  76  99
ENDBRANCH  50  51
ENDBRANCH  43  45
ENDBRANCH  42  43
ENDBRANCH  41  42
ENDBRANCH   1  41
TORSDOF 19
ENDMDL
MODEL 2
REMARK VINA RESULT:      -8.9      4.089     10.361
REMARK SMILES COC(=O)[C@H]1CC[C@]2(C)[C@H](CC[C@]3(C)[C@H]2CC=C2[C@H]4CC(C)(C)CC[C@]4(C(=O)OCCOCCOC(=O)c4ccc(-c5c6nc(c(-c7cc(S(=O)(=O)[O-])ccc7F)c7ccc([nH]7)c(-c7cc(S(=O)(=O)[O-])ccc7F)c7nc(c(-c8cc(S(=O)(=O)[O-])ccc8F)c8ccc5[nH]8)C=C7)C=C6)cc4)CC[C@@]23C)C1(C)C
REMARK SMILES IDX 33 1 32 2 31 3 30 4 29 5 27 6 28 7 26 8 5 9 6 10 105 11 7 12
REMARK SMILES IDX 10 13 106 14 107 15 8 16 11 17 15 18 9 19 12 20 16 21 13 22
REMARK SMILES IDX 17 23 103 24 14 25 18 26 102 27 104 28 19 29 101 30 20 31
REMARK SMILES IDX 21 32 25 33 24 34 22 35 23 36 3 37 4 38 2 39 1 40 34 41
REMARK SMILES IDX 35 42 36 43 37 44 38 45 39 46 100 47 40 48 99 49 41 50 42 51
REMARK SMILES IDX 43 52 93 53 44 54 98 55 92 56 94 57 45 58 97 59 91 60 90 61
REMARK SMILES IDX 46 63 78 64 58 65 77 66 59 67 62 68 76 69 95 70 60 71 61 72
REMARK SMILES IDX 75 74 96 75 63 76 47 77 48 78 56 79 49 80 55 81 57 82 54 83
REMARK SMILES IDX 50 84 51 85 52 86 53 87 79 88 80 89 88 90 81 91 87 92 89 93
REMARK SMILES IDX 86 94 82 95 83 96 84 97 85 98 64 99 65 100 73 101 66 102
REMARK SMILES IDX 72 103 74 104 71 105 67 106 68 107 69 108 70 109
REMARK H PARENT 94 62 62 73
REMARK Flexibility Score: inf
ROOT
ATOM      1  C   UNL A   1      40.811  21.506  27.714  1.00  0.00     0.202 C 
ENDROOT
BRANCH   1   2
ATOM      2  O   UNL A   1      41.033  22.873  27.950  1.00  0.00    -0.374 OA
BRANCH   2   3
ATOM      3  C   UNL A   1      40.125  23.852  27.483  1.00  0.00     0.202 C 
BRANCH   3   4
ATOM      4  C   UNL A   1      40.532  25.235  26.897  1.00  0.00     0.261 C 
BRANCH   4   5
ATOM      5  O   UNL A   1      39.652  26.356  27.140  1.00  0.00    -0.463 OA
BRANCH   5   6
ATOM      6  C   UNL A   1      39.867  27.042  28.318  1.00  0.00     0.312 C 
ATOM      7  O   UNL A   1      39.851  26.491  29.414  1.00  0.00    -0.252 OA
BRANCH   6   8
ATOM      8  C   UNL A   1      39.960  28.602  28.149  1.00  0.00     0.075 C 
ATOM      9  C   UNL A   1      39.445  33.259  34.999  1.00  0.00     0.105 C 
ATOM     10  C   UNL A   1      37.893  33.100  35.139  1.00  0.00     0.016 C 
ATOM     11  C   UNL A   1      40.155  32.747  33.679  1.00  0.00    -0.019 C 
ATOM     12  C   UNL A   1      37.064  32.694  33.891  1.00  0.00     0.008 C 
ATOM     13  C   UNL A   1      39.070  32.480  32.578  1.00  0.00     0.002 C 
ATOM     14  C   UNL A   1      41.076  31.537  33.998  1.00  0.00     0.012 C 
ATOM     15  C   UNL A   1      41.175  33.790  33.112  1.00  0.00     0.012 C 
ATOM     16  C   UNL A   1      37.813  31.658  33.004  1.00  0.00    -0.026 C 
ATOM     17  C   UNL A   1      39.600  31.975  31.262  1.00  0.00     0.005 C 
ATOM     18  C   UNL A   1      36.900  31.075  31.742  1.00  0.00     0.006 C 
ATOM     19  C   UNL A   1      38.105  30.498  33.967  1.00  0.00     0.012 C 
ATOM     20  C   UNL A   1      38.616  32.327  30.155  1.00  0.00     0.008 C 
ATOM     21  C   UNL A   1      36.654  29.493  31.780  1.00  0.00     0.032 C 
ATOM     22  C   UNL A   1      37.289  31.531  30.195  1.00  0.00    -0.020 C 
ATOM     23  C   UNL A   1      37.658  28.720  30.952  1.00  0.00    -0.027 C 
ATOM     24  C   UNL A   1      37.375  30.241  29.201  1.00  0.00    -0.006 C 
ATOM     25  C   UNL A   1      36.184  32.497  29.704  1.00  0.00     0.012 C 
ATOM     26  C   UNL A   1      38.323  29.319  29.957  1.00  0.00    -0.063 C 
ATOM     27  C   UNL A   1      37.891  30.310  27.721  1.00  0.00     0.013 C 
ATOM     28  C   UNL A   1      35.903  29.664  28.979  1.00  0.00     0.017 C 
ATOM     29  C   UNL A   1      39.833  29.277  29.499  1.00  0.00     0.033 C 
ATOM     30  C   UNL A   1      38.917  29.245  27.185  1.00  0.00     0.020 C 
ATOM     31  C   UNL A   1      41.076  28.919  30.411  1.00  0.00     0.015 C 
ATOM     32  C   UNL A   1      42.478  29.251  29.821  1.00  0.00    -0.035 C 
ATOM     33  C   UNL A   1      41.368  28.937  27.529  1.00  0.00     0.020 C 
ATOM     34  C   UNL A   1      42.588  28.666  28.403  1.00  0.00     0.007 C 
ATOM     35  C   UNL A   1      43.584  28.590  30.683  1.00  0.00     0.011 C 
ATOM     36  C   UNL A   1      42.746  30.766  29.839  1.00  0.00     0.011 C 
BRANCH   9  37
ATOM     37  C   UNL A   1      39.805  34.704  35.312  1.00  0.00     0.309 C 
ATOM     38  O   UNL A   1      39.277  35.682  34.797  1.00  0.00    -0.252 OA
BRANCH  37  39
ATOM     39  O   UNL A   1      40.862  34.742  36.173  1.00  0.00    -0.469 OA
ATOM     40  C   UNL A   1      40.667  35.577  37.313  1.00  0.00     0.282 C 
ENDBRANCH  37  39
ENDBRANCH   9  37
ENDBRANCH   6   8
ENDBRANCH   5   6
ENDBRANCH   4   5
ENDBRANCH   3   4
ENDBRANCH   2   3
ENDBRANCH   1   2
BRANCH   1  41
ATOM     41  C   UNL A   1      40.605  21.028  26.320  1.00  0.00     0.261 C 
BRANCH  41  42
ATOM     42  O   UNL A   1      41.660  21.578  25.555  1.00  0.00    -0.460 OA
BRANCH  42  43
ATOM     43  C   UNL A   1      42.737  20.773  25.320  1.00  0.00     0.338 C 
ATOM     44  O   UNL A   1      42.914  19.608  25.573  1.00  0.00    -0.246 OA
BRANCH  43  45
ATOM     45  C   UNL A   1      43.748  21.796  25.058  1.00  0.00     0.060 A 
ATOM     46  C   UNL A   1      43.232  23.090  25.174  1.00  0.00     0.016 A 
ATOM     47  C   UNL A   1      44.999  21.419  25.573  1.00  0.00     0.016 A 
ATOM     48  C   UNL A   1      43.883  23.958  26.017  1.00  0.00     0.010 A 
ATOM     49  C   UNL A   1      45.610  22.267  26.473  1.00  0.00     0.010 A 
ATOM     50  C   UNL A   1      45.050  23.536  26.680  1.00  0.00    -0.014 A 
BRANCH  50  51
ATOM     51  C   UNL A   1      45.824  24.593  27.329  1.00  0.00     0.031 A 
ATOM     52  C   UNL A   1      45.480  24.810  28.766  1.00  0.00     0.074 A 
ATOM     53  C   UNL A   1      46.885  25.122  26.698  1.00  0.00     0.049 A 
ATOM     54  N   UNL A   1      46.147  25.432  29.690  1.00  0.00    -0.248 NA
ATOM     55  C   UNL A   1      44.204  24.231  29.233  1.00  0.00     0.031 C 
ATOM     56  C   UNL A   1      47.229  24.913  25.286  1.00  0.00     0.029 A 
ATOM     57  N   UNL A   1      47.908  25.885  27.180  1.00  0.00    -0.354 N 
ATOM     58  C   UNL A   1      45.383  25.291  30.842  1.00  0.00     0.074 A 
ATOM     59  C   UNL A   1      44.155  24.634  30.486  1.00  0.00     0.031 C 
ATOM     60  C   UNL A   1      48.418  25.489  25.035  1.00  0.00     0.029 A 
ATOM     61  C   UNL A   1      48.915  26.097  26.264  1.00  0.00     0.049 A 
ATOM     62  H   UNL A   1      47.925  26.250  28.094  1.00  0.00     0.167 HD
ATOM     63  C   UNL A   1      45.723  25.626  32.104  1.00  0.00     0.034 A 
ATOM     64  C   UNL A   1      50.116  26.684  26.444  1.00  0.00     0.034 A 
ATOM     65  C   UNL A   1      46.973  26.266  32.391  1.00  0.00     0.049 A 
ATOM     66  C   UNL A   1      50.451  27.104  27.857  1.00  0.00     0.074 A 
ATOM     67  C   UNL A   1      47.460  26.726  33.595  1.00  0.00     0.029 A 
ATOM     68  N   UNL A   1      47.941  26.538  31.425  1.00  0.00    -0.354 N 
ATOM     69  N   UNL A   1      49.735  26.951  28.954  1.00  0.00    -0.248 NA
ATOM     70  C   UNL A   1      51.749  27.747  28.070  1.00  0.00     0.031 C 
ATOM     71  C   UNL A   1      48.698  27.328  33.346  1.00  0.00     0.029 A 
ATOM     72  C   UNL A   1      49.016  27.184  32.000  1.00  0.00     0.049 A 
ATOM     73  H   UNL A   1      47.868  26.305  30.471  1.00  0.00     0.167 HD
ATOM     74  C   UNL A   1      50.502  27.471  29.990  1.00  0.00     0.074 A 
ATOM     75  C   UNL A   1      51.749  27.908  29.385  1.00  0.00     0.031 C 
ATOM     76  C   UNL A   1      50.220  27.595  31.314  1.00  0.00     0.034 A 
BRANCH  63  77
ATOM     77  C   UNL A   1      44.697  25.352  33.174  1.00  0.00     0.023 A 
ATOM     78  C   UNL A   1      43.761  26.329  33.572  1.00  0.00     0.031 A 
ATOM     79  C   UNL A   1      44.759  24.162  33.915  1.00  0.00     0.131 A 
ATOM     80  C   UNL A   1      43.004  26.139  34.739  1.00  0.00     0.055 A 
ATOM     81  C   UNL A   1      43.936  23.941  35.020  1.00  0.00     0.041 A 
ATOM     82  F   UNL A   1      45.661  23.216  33.611  1.00  0.00    -0.206 F 
ATOM     83  C   UNL A   1      43.066  24.940  35.451  1.00  0.00     0.022 A 
BRANCH  80  84
ATOM     84  S   UNL A   1      42.082  27.549  35.421  1.00  0.00     0.124 S 
ATOM     85  O   UNL A   1      41.804  27.088  36.780  1.00  0.00    -0.237 OA
ATOM     86  O   UNL A   1      43.039  28.642  35.300  1.00  0.00    -0.237 OA
ATOM     87  O   UNL A   1      40.911  27.645  34.551  1.00  0.00    -0.744 OA
ENDBRANCH  80  84
ENDBRANCH  63  77
BRANCH  64  88
ATOM     88  C   UNL A   1      51.060  26.890  25.301  1.00  0.00     0.023 A 
ATOM     89  C   UNL A   1      50.929  27.966  24.407  1.00  0.00     0.031 A 
ATOM     90  C   UNL A   1      52.106  25.976  25.068  1.00  0.00     0.131 A 
ATOM     91  C   UNL A   1      51.801  28.080  23.308  1.00  0.00     0.055 A 
ATOM     92  C   UNL A   1      52.997  26.118  24.000  1.00  0.00     0.041 A 
ATOM     93  F   UNL A   1      52.286  24.926  25.885  1.00  0.00    -0.206 F 
ATOM     94  C   UNL A   1      52.839  27.170  23.105  1.00  0.00     0.022 A 
BRANCH  91  95
ATOM     95  S   UNL A   1      51.513  29.397  22.089  1.00  0.00     0.124 S 
ATOM     96  O   UNL A   1      50.164  29.088  21.625  1.00  0.00    -0.237 OA
ATOM     97  O   UNL A   1      51.653  30.598  22.905  1.00  0.00    -0.237 OA
ATOM     98  O   UNL A   1      52.573  29.188  21.104  1.00  0.00    -0.744 OA
ENDBRANCH  91  95
ENDBRANCH  64  88
BRANCH  76  99
ATOM     99  C   UNL A   1      51.287  28.224  32.163  1.00  0.00     0.023 A 
ATOM    100  C   UNL A   1      52.211  27.432  32.860  1.00  0.00     0.031 A 
ATOM    101  C   UNL A   1      51.397  29.622  32.246  1.00  0.00     0.131 A 
ATOM    102  C   UNL A   1      53.181  28.045  33.659  1.00  0.00     0.055 A 
ATOM    103  C   UNL A   1      52.407  30.227  32.990  1.00  0.00     0.041 A 
ATOM    104  F   UNL A   1      50.537  30.416  31.587  1.00  0.00    -0.206 F 
ATOM    105  C   UNL A   1      53.298  29.437  33.712  1.00  0.00     0.022 A 
BRANCH 102 106
ATOM    106  S   UNL A   1      54.230  26.993  34.694  1.00  0.00     0.124 S 
ATOM    107  O   UNL A   1      55.445  26.897  33.889  1.00  0.00    -0.237 OA
ATOM    108  O   UNL A   1      54.340  27.773  35.923  1.00  0.00    -0.237 OA
ATOM    109  O   UNL A   1      53.462  25.756  34.811  1.00  0.00    -0.744 OA
ENDBRANCH 102 106
ENDBRANCH  76  99
ENDBRANCH  50  51
ENDBRANCH  43  45
ENDBRANCH  42  43
ENDBRANCH  41  42
ENDBRANCH   1  41
TORSDOF 19
ENDMDL
MODEL 3
REMARK VINA RESULT:      -8.9      3.011     11.654
REMARK SMILES COC(=O)[C@H]1CC[C@]2(C)[C@H](CC[C@]3(C)[C@H]2CC=C2[C@H]4CC(C)(C)CC[C@]4(C(=O)OCCOCCOC(=O)c4ccc(-c5c6nc(c(-c7cc(S(=O)(=O)[O-])ccc7F)c7ccc([nH]7)c(-c7cc(S(=O)(=O)[O-])ccc7F)c7nc(c(-c8cc(S(=O)(=O)[O-])ccc8F)c8ccc5[nH]8)C=C7)C=C6)cc4)CC[C@@]23C)C1(C)C
REMARK SMILES IDX 33 1 32 2 31 3 30 4 29 5 27 6 28 7 26 8 5 9 6 10 105 11 7 12
REMARK SMILES IDX 10 13 106 14 107 15 8 16 11 17 15 18 9 19 12 20 16 21 13 22
REMARK SMILES IDX 17 23 103 24 14 25 18 26 102 27 104 28 19 29 101 30 20 31
REMARK SMILES IDX 21 32 25 33 24 34 22 35 23 36 3 37 4 38 2 39 1 40 34 41
REMARK SMILES IDX 35 42 36 43 37 44 38 45 39 46 100 47 40 48 99 49 41 50 42 51
REMARK SMILES IDX 43 52 93 53 44 54 98 55 92 56 94 57 45 58 97 59 91 60 90 61
REMARK SMILES IDX 46 63 78 64 58 65 77 66 59 67 62 68 76 69 95 70 60 71 61 72
REMARK SMILES IDX 75 74 96 75 63 76 47 77 48 78 56 79 49 80 55 81 57 82 54 83
REMARK SMILES IDX 50 84 51 85 52 86 53 87 79 88 80 89 88 90 81 91 87 92 89 93
REMARK SMILES IDX 86 94 82 95 83 96 84 97 85 98 64 99 65 100 73 101 66 102
REMARK SMILES IDX 72 103 74 104 71 105 67 106 68 107 69 108 70 109
REMARK H PARENT 94 62 62 73
REMARK Flexibility Score: inf
ROOT
ATOM      1  C   UNL A   1      46.862  36.862  26.273  1.00  0.00     0.202 C 
ENDROOT
BRANCH   1   2
ATOM      2  O   UNL A   1      46.673  35.653  26.962  1.00  0.00    -0.374 OA
BRANCH   2   3
ATOM      3  C   UNL A   1      46.661  34.415  26.276  1.00  0.00     0.202 C 
BRANCH   3   4
ATOM      4  C   UNL A   1      46.943  33.032  26.931  1.00  0.00     0.261 C 
BRANCH   4   5
ATOM      5  O   UNL A   1      45.834  32.117  27.076  1.00  0.00    -0.463 OA
BRANCH   5   6
ATOM      6  C   UNL A   1      46.057  30.829  26.634  1.00  0.00     0.312 C 
ATOM      7  O   UNL A   1      46.158  30.548  25.444  1.00  0.00    -0.252 OA
BRANCH   6   8
ATOM      8  C   UNL A   1      45.998  29.738  27.765  1.00  0.00     0.075 C 
ATOM      9  C   UNL A   1      41.060  23.181  26.541  1.00  0.00     0.105 C 
ATOM     10  C   UNL A   1      39.738  23.962  26.857  1.00  0.00     0.016 C 
ATOM     11  C   UNL A   1      42.452  23.876  26.833  1.00  0.00    -0.019 C 
ATOM     12  C   UNL A   1      39.820  25.273  27.684  1.00  0.00     0.008 C 
ATOM     13  C   UNL A   1      42.223  25.134  27.741  1.00  0.00     0.002 C 
ATOM     14  C   UNL A   1      43.203  24.157  25.502  1.00  0.00     0.012 C 
ATOM     15  C   UNL A   1      43.447  22.920  27.571  1.00  0.00     0.012 C 
ATOM     16  C   UNL A   1      41.080  26.113  27.325  1.00  0.00    -0.026 C 
ATOM     17  C   UNL A   1      43.466  25.907  28.096  1.00  0.00     0.005 C 
ATOM     18  C   UNL A   1      41.127  27.599  28.070  1.00  0.00     0.006 C 
ATOM     19  C   UNL A   1      40.950  26.334  25.811  1.00  0.00     0.012 C 
ATOM     20  C   UNL A   1      43.231  26.672  29.391  1.00  0.00     0.008 C 
ATOM     21  C   UNL A   1      41.138  28.843  27.062  1.00  0.00     0.032 C 
ATOM     22  C   UNL A   1      42.244  27.857  29.270  1.00  0.00    -0.020 C 
ATOM     23  C   UNL A   1      42.534  29.342  26.756  1.00  0.00    -0.027 C 
ATOM     24  C   UNL A   1      43.059  29.248  29.031  1.00  0.00    -0.006 C 
ATOM     25  C   UNL A   1      41.475  27.926  30.612  1.00  0.00     0.012 C 
ATOM     26  C   UNL A   1      43.545  29.090  27.595  1.00  0.00    -0.063 C 
ATOM     27  C   UNL A   1      44.299  29.694  29.884  1.00  0.00     0.013 C 
ATOM     28  C   UNL A   1      42.068  30.475  29.278  1.00  0.00     0.017 C 
ATOM     29  C   UNL A   1      45.039  28.634  27.369  1.00  0.00     0.033 C 
ATOM     30  C   UNL A   1      45.592  30.248  29.181  1.00  0.00     0.020 C 
ATOM     31  C   UNL A   1      45.595  27.849  26.112  1.00  0.00     0.015 C 
ATOM     32  C   UNL A   1      47.020  27.239  26.260  1.00  0.00    -0.035 C 
ATOM     33  C   UNL A   1      47.444  29.138  27.932  1.00  0.00     0.020 C 
ATOM     34  C   UNL A   1      47.989  28.320  26.767  1.00  0.00     0.007 C 
ATOM     35  C   UNL A   1      47.537  26.763  24.878  1.00  0.00     0.011 C 
ATOM     36  C   UNL A   1      47.006  26.004  27.177  1.00  0.00     0.011 C 
BRANCH   9  37
ATOM     37  C   UNL A   1      40.965  21.806  27.187  1.00  0.00     0.309 C 
ATOM     38  O   UNL A   1      40.770  21.608  28.379  1.00  0.00    -0.252 OA
BRANCH  37  39
ATOM     39  O   UNL A   1      41.226  20.841  26.260  1.00  0.00    -0.469 OA
ATOM     40  C   UNL A   1      41.782  19.641  26.795  1.00  0.00     0.282 C 
ENDBRANCH  37  39
ENDBRANCH   9  37
ENDBRANCH   6   8
ENDBRANCH   5   6
ENDBRANCH   4   5
ENDBRANCH   3   4
ENDBRANCH   2   3
ENDBRANCH   1   2
BRANCH   1  41
ATOM     41  C   UNL A   1      46.093  38.067  26.685  1.00  0.00     0.261 C 
BRANCH  41  42
ATOM     42  O   UNL A   1      45.046  37.602  27.515  1.00  0.00    -0.460 OA
BRANCH  42  43
ATOM     43  C   UNL A   1      43.772  37.885  27.117  1.00  0.00     0.338 C 
ATOM     44  O   UNL A   1      43.341  38.799  26.458  1.00  0.00    -0.246 OA
BRANCH  43  45
ATOM     45  C   UNL A   1      43.036  37.020  28.037  1.00  0.00     0.060 A 
ATOM     46  C   UNL A   1      43.145  35.670  27.695  1.00  0.00     0.016 A 
ATOM     47  C   UNL A   1      43.130  37.488  29.359  1.00  0.00     0.016 A 
ATOM     48  C   UNL A   1      43.581  34.803  28.668  1.00  0.00     0.010 A 
ATOM     49  C   UNL A   1      43.635  36.630  30.314  1.00  0.00     0.010 A 
ATOM     50  C   UNL A   1      43.847  35.289  29.961  1.00  0.00    -0.014 A 
BRANCH  50  51
ATOM     51  C   UNL A   1      44.034  34.271  30.993  1.00  0.00     0.031 A 
ATOM     52  C   UNL A   1      42.762  33.725  31.552  1.00  0.00     0.074 A 
ATOM     53  C   UNL A   1      45.257  33.760  31.207  1.00  0.00     0.049 A 
ATOM     54  N   UNL A   1      42.559  32.641  32.238  1.00  0.00    -0.248 NA
ATOM     55  C   UNL A   1      41.537  34.507  31.290  1.00  0.00     0.031 C 
ATOM     56  C   UNL A   1      46.512  34.292  30.660  1.00  0.00     0.029 A 
ATOM     57  N   UNL A   1      45.639  32.636  31.882  1.00  0.00    -0.354 N 
ATOM     58  C   UNL A   1      41.188  32.605  32.459  1.00  0.00     0.074 A 
ATOM     59  C   UNL A   1      40.622  33.822  31.945  1.00  0.00     0.031 C 
ATOM     60  C   UNL A   1      47.516  33.456  30.978  1.00  0.00     0.029 A 
ATOM     61  C   UNL A   1      46.975  32.337  31.740  1.00  0.00     0.049 A 
ATOM     62  H   UNL A   1      45.018  32.093  32.419  1.00  0.00     0.167 HD
ATOM     63  C   UNL A   1      40.463  31.598  32.988  1.00  0.00     0.034 A 
ATOM     64  C   UNL A   1      47.649  31.244  32.154  1.00  0.00     0.034 A 
ATOM     65  C   UNL A   1      41.092  30.403  33.468  1.00  0.00     0.049 A 
ATOM     66  C   UNL A   1      46.822  30.153  32.797  1.00  0.00     0.074 A 
ATOM     67  C   UNL A   1      40.526  29.308  34.082  1.00  0.00     0.029 A 
ATOM     68  N   UNL A   1      42.462  30.163  33.380  1.00  0.00    -0.354 N 
ATOM     69  N   UNL A   1      45.518  30.110  32.988  1.00  0.00    -0.248 NA
ATOM     70  C   UNL A   1      47.538  28.961  33.257  1.00  0.00     0.031 C 
ATOM     71  C   UNL A   1      41.564  28.430  34.418  1.00  0.00     0.029 A 
ATOM     72  C   UNL A   1      42.768  28.945  33.952  1.00  0.00     0.049 A 
ATOM     73  H   UNL A   1      43.117  30.773  32.970  1.00  0.00     0.167 HD
ATOM     74  C   UNL A   1      45.256  28.881  33.581  1.00  0.00     0.074 A 
ATOM     75  C   UNL A   1      46.537  28.203  33.682  1.00  0.00     0.031 C 
ATOM     76  C   UNL A   1      44.083  28.350  34.018  1.00  0.00     0.034 A 
BRANCH  63  77
ATOM     77  C   UNL A   1      38.977  31.827  33.105  1.00  0.00     0.023 A 
ATOM     78  C   UNL A   1      38.115  31.675  31.999  1.00  0.00     0.031 A 
ATOM     79  C   UNL A   1      38.441  32.358  34.287  1.00  0.00     0.131 A 
ATOM     80  C   UNL A   1      36.795  32.148  32.071  1.00  0.00     0.055 A 
ATOM     81  C   UNL A   1      37.102  32.739  34.380  1.00  0.00     0.041 A 
ATOM     82  F   UNL A   1      39.225  32.567  35.357  1.00  0.00    -0.206 F 
ATOM     83  C   UNL A   1      36.274  32.654  33.263  1.00  0.00     0.022 A 
BRANCH  80  84
ATOM     84  S   UNL A   1      35.826  32.268  30.539  1.00  0.00     0.124 S 
ATOM     85  O   UNL A   1      36.051  30.953  29.944  1.00  0.00    -0.237 OA
ATOM     86  O   UNL A   1      34.479  32.523  31.034  1.00  0.00    -0.237 OA
ATOM     87  O   UNL A   1      36.450  33.382  29.826  1.00  0.00    -0.744 OA
ENDBRANCH  80  84
ENDBRANCH  63  77
BRANCH  64  88
ATOM     88  C   UNL A   1      49.128  31.125  31.969  1.00  0.00     0.023 A 
ATOM     89  C   UNL A   1      49.696  30.590  30.800  1.00  0.00     0.031 A 
ATOM     90  C   UNL A   1      50.009  31.526  32.993  1.00  0.00     0.131 A 
ATOM     91  C   UNL A   1      51.092  30.437  30.698  1.00  0.00     0.055 A 
ATOM     92  C   UNL A   1      51.397  31.413  32.870  1.00  0.00     0.041 A 
ATOM     93  F   UNL A   1      49.532  32.046  34.135  1.00  0.00    -0.206 F 
ATOM     94  C   UNL A   1      51.945  30.855  31.721  1.00  0.00     0.022 A 
BRANCH  91  95
ATOM     95  S   UNL A   1      51.783  29.606  29.238  1.00  0.00     0.124 S 
ATOM     96  O   UNL A   1      51.696  28.201  29.622  1.00  0.00    -0.237 OA
ATOM     97  O   UNL A   1      50.872  30.042  28.185  1.00  0.00    -0.237 OA
ATOM     98  O   UNL A   1      53.139  30.144  29.148  1.00  0.00    -0.744 OA
ENDBRANCH  91  95
ENDBRANCH  64  88
BRANCH  76  99
ATOM     99  C   UNL A   1      44.164  26.982  34.632  1.00  0.00     0.023 A 
ATOM    100  C   UNL A   1      44.301  25.840  33.828  1.00  0.00     0.031 A 
ATOM    101  C   UNL A   1      44.136  26.826  36.027  1.00  0.00     0.131 A 
ATOM    102  C   UNL A   1      44.351  24.578  34.426  1.00  0.00     0.055 A 
ATOM    103  C   UNL A   1      44.255  25.571  36.620  1.00  0.00     0.041 A 
ATOM    104  F   UNL A   1      44.014  27.894  36.832  1.00  0.00    -0.206 F 
ATOM    105  C   UNL A   1      44.351  24.437  35.817  1.00  0.00     0.022 A 
BRANCH 102 106
ATOM    106  S   UNL A   1      44.332  23.119  33.354  1.00  0.00     0.124 S 
ATOM    107  O   UNL A   1      44.511  23.714  32.033  1.00  0.00    -0.237 OA
ATOM    108  O   UNL A   1      45.460  22.343  33.861  1.00  0.00    -0.237 OA
ATOM    109  O   UNL A   1      43.017  22.533  33.599  1.00  0.00    -0.744 OA
ENDBRANCH 102 106
ENDBRANCH  76  99
ENDBRANCH  50  51
ENDBRANCH  43  45
ENDBRANCH  42  43
ENDBRANCH  41  42
ENDBRANCH   1  41
TORSDOF 19
ENDMDL
