MODEL 1
REMARK VINA RESULT:     -11.2      0.000      0.000
REMARK SMILES Cc1ccc(Br)cc1C(=O)N1CCO[C@H](CC(=O)OCCOCCOC(=O)c2ccc(-c3c4nc(c(-c5cc(S(=O)(=O)[O-])ccc5F)c5ccc([nH]5)c(-c5cc(S(=O)(=O)[O-])ccc5F)c5nc(c(-c6cc(S(=O)(=O)[O-])ccc6F)c6ccc3[nH]6)C=C5)C=C4)cc2)C1
REMARK SMILES IDX 22 1 21 2 20 3 19 4 17 5 18 6 16 7 15 8 11 9 12 10 91 11
REMARK SMILES IDX 13 12 14 13 9 14 10 15 8 16 1 17 2 18 3 19 4 20 7 21 5 22
REMARK SMILES IDX 6 23 23 24 24 25 25 26 26 27 27 28 28 29 29 30 90 31 30 32
REMARK SMILES IDX 89 33 31 34 32 35 33 36 83 37 34 38 88 39 82 40 84 41 35 42
REMARK SMILES IDX 87 43 81 44 80 45 36 47 68 48 48 49 67 50 49 51 52 52 66 53
REMARK SMILES IDX 85 54 50 55 51 56 65 58 86 59 53 60 37 61 38 62 46 63 39 64
REMARK SMILES IDX 45 65 47 66 44 67 40 68 41 69 42 70 43 71 69 72 70 73 78 74
REMARK SMILES IDX 71 75 77 76 79 77 76 78 72 79 73 80 74 81 75 82 54 83 55 84
REMARK SMILES IDX 63 85 56 86 62 87 64 88 61 89 57 90 58 91 59 92 60 93
REMARK H PARENT 84 46 52 57
REMARK Flexibility Score: inf
ROOT
ATOM      1  O   UNL A   1      34.811  21.614  25.437  1.00  0.00    -0.374 OA
ENDROOT
BRANCH   1   2
ATOM      2  C   UNL A   1      34.399  20.413  24.794  1.00  0.00     0.202 C 
BRANCH   2   3
ATOM      3  C   UNL A   1      32.901  20.205  24.573  1.00  0.00     0.261 C 
BRANCH   3   4
ATOM      4  O   UNL A   1      32.349  21.066  23.569  1.00  0.00    -0.463 OA
BRANCH   4   5
ATOM      5  C   UNL A   1      31.850  22.234  24.039  1.00  0.00     0.308 C 
ATOM      6  O   UNL A   1      31.396  22.422  25.162  1.00  0.00    -0.252 OA
BRANCH   5   7
ATOM      7  C   UNL A   1      31.857  23.291  22.983  1.00  0.00     0.156 C 
BRANCH   7   8
ATOM      8  C   UNL A   1      33.205  23.537  22.293  1.00  0.00     0.148 C 
ATOM      9  N   UNL A   1      33.691  25.349  23.823  1.00  0.00    -0.334 N 
ATOM     10  C   UNL A   1      33.524  26.364  22.785  1.00  0.00     0.148 C 
ATOM     11  C   UNL A   1      34.228  24.096  23.291  1.00  0.00     0.152 C 
ATOM     12  C   UNL A   1      32.735  25.811  21.577  1.00  0.00     0.182 C 
ATOM     13  O   UNL A   1      33.098  24.472  21.192  1.00  0.00    -0.374 OA
BRANCH   9  14
ATOM     14  C   UNL A   1      34.018  25.684  25.122  1.00  0.00     0.254 C 
ATOM     15  O   UNL A   1      34.814  24.985  25.750  1.00  0.00    -0.269 OA
BRANCH  14  16
ATOM     16  C   UNL A   1      33.241  26.776  25.841  1.00  0.00     0.044 A 
ATOM     17  C   UNL A   1      30.780  25.869  25.823  1.00  0.00     0.045 C 
ATOM     18  C   UNL A   1      31.870  26.826  26.196  1.00  0.00    -0.038 A 
ATOM     19  C   UNL A   1      31.398  27.901  26.989  1.00  0.00     0.005 A 
ATOM     20  C   UNL A   1      32.235  28.922  27.419  1.00  0.00     0.016 A 
ATOM     21  C   UNL A   1      34.064  27.842  26.277  1.00  0.00     0.029 A 
ATOM     22  C   UNL A   1      33.568  28.893  27.050  1.00  0.00     0.018 A 
ATOM     23  Br  UNL A   1      34.722  30.279  27.617  1.00  0.00    -0.051 Br
ENDBRANCH  14  16
ENDBRANCH   9  14
ENDBRANCH   7   8
ENDBRANCH   5   7
ENDBRANCH   4   5
ENDBRANCH   3   4
ENDBRANCH   2   3
ENDBRANCH   1   2
BRANCH   1  24
ATOM     24  C   UNL A   1      36.181  21.753  25.806  1.00  0.00     0.202 C 
BRANCH  24  25
ATOM     25  C   UNL A   1      37.157  20.648  25.379  1.00  0.00     0.261 C 
BRANCH  25  26
ATOM     26  O   UNL A   1      38.464  21.153  25.051  1.00  0.00    -0.460 OA
BRANCH  26  27
ATOM     27  C   UNL A   1      39.396  20.981  26.021  1.00  0.00     0.338 C 
ATOM     28  O   UNL A   1      39.969  19.937  26.309  1.00  0.00    -0.246 OA
BRANCH  27  29
ATOM     29  C   UNL A   1      39.803  22.279  26.586  1.00  0.00     0.060 A 
ATOM     30  C   UNL A   1      39.200  23.432  26.068  1.00  0.00     0.016 A 
ATOM     31  C   UNL A   1      40.829  22.376  27.528  1.00  0.00     0.016 A 
ATOM     32  C   UNL A   1      39.642  24.691  26.465  1.00  0.00     0.010 A 
ATOM     33  C   UNL A   1      41.281  23.644  27.914  1.00  0.00     0.010 A 
ATOM     34  C   UNL A   1      40.709  24.807  27.366  1.00  0.00    -0.014 A 
BRANCH  34  35
ATOM     35  C   UNL A   1      41.298  26.144  27.629  1.00  0.00     0.031 A 
ATOM     36  C   UNL A   1      42.656  26.472  27.072  1.00  0.00     0.074 A 
ATOM     37  C   UNL A   1      40.609  27.067  28.323  1.00  0.00     0.049 A 
ATOM     38  N   UNL A   1      43.366  27.562  27.206  1.00  0.00    -0.248 NA
ATOM     39  C   UNL A   1      43.295  25.432  26.253  1.00  0.00     0.031 C 
ATOM     40  C   UNL A   1      39.261  26.882  28.862  1.00  0.00     0.029 A 
ATOM     41  N   UNL A   1      40.947  28.344  28.694  1.00  0.00    -0.354 N 
ATOM     42  C   UNL A   1      44.538  27.341  26.490  1.00  0.00     0.074 A 
ATOM     43  C   UNL A   1      44.455  25.999  25.954  1.00  0.00     0.031 C 
ATOM     44  C   UNL A   1      38.893  28.004  29.504  1.00  0.00     0.029 A 
ATOM     45  C   UNL A   1      39.990  28.967  29.461  1.00  0.00     0.049 A 
ATOM     46  H   UNL A   1      41.795  28.774  28.437  1.00  0.00     0.167 HD
ATOM     47  C   UNL A   1      45.582  28.185  26.292  1.00  0.00     0.034 A 
ATOM     48  C   UNL A   1      40.010  30.164  30.082  1.00  0.00     0.034 A 
ATOM     49  C   UNL A   1      45.656  29.516  26.846  1.00  0.00     0.049 A 
ATOM     50  C   UNL A   1      41.233  31.040  29.942  1.00  0.00     0.074 A 
ATOM     51  C   UNL A   1      46.655  30.461  26.689  1.00  0.00     0.029 A 
ATOM     52  N   UNL A   1      44.702  30.085  27.681  1.00  0.00    -0.354 N 
ATOM     53  N   UNL A   1      42.329  30.825  29.252  1.00  0.00    -0.248 NA
ATOM     54  C   UNL A   1      41.218  32.319  30.665  1.00  0.00     0.031 C 
ATOM     55  C   UNL A   1      46.345  31.566  27.490  1.00  0.00     0.029 A 
ATOM     56  C   UNL A   1      45.112  31.347  28.086  1.00  0.00     0.049 A 
ATOM     57  H   UNL A   1      43.859  29.654  27.947  1.00  0.00     0.167 HD
ATOM     58  C   UNL A   1      43.126  31.951  29.444  1.00  0.00     0.074 A 
ATOM     59  C   UNL A   1      42.375  32.850  30.295  1.00  0.00     0.031 C 
ATOM     60  C   UNL A   1      44.365  32.222  28.957  1.00  0.00     0.034 A 
BRANCH  47  61
ATOM     61  C   UNL A   1      46.752  27.668  25.489  1.00  0.00     0.023 A 
ATOM     62  C   UNL A   1      46.970  28.061  24.157  1.00  0.00     0.031 A 
ATOM     63  C   UNL A   1      47.651  26.750  26.060  1.00  0.00     0.131 A 
ATOM     64  C   UNL A   1      48.020  27.489  23.422  1.00  0.00     0.055 A 
ATOM     65  C   UNL A   1      48.739  26.242  25.347  1.00  0.00     0.041 A 
ATOM     66  F   UNL A   1      47.481  26.320  27.320  1.00  0.00    -0.206 F 
ATOM     67  C   UNL A   1      48.920  26.601  24.014  1.00  0.00     0.022 A 
BRANCH  64  68
ATOM     68  S   UNL A   1      48.113  27.820  21.641  1.00  0.00     0.124 S 
ATOM     69  O   UNL A   1      48.429  26.496  21.110  1.00  0.00    -0.237 OA
ATOM     70  O   UNL A   1      46.778  28.326  21.343  1.00  0.00    -0.237 OA
ATOM     71  O   UNL A   1      49.192  28.800  21.529  1.00  0.00    -0.744 OA
ENDBRANCH  64  68
ENDBRANCH  47  61
BRANCH  48  72
ATOM     72  C   UNL A   1      38.870  30.587  30.943  1.00  0.00     0.023 A 
ATOM     73  C   UNL A   1      37.878  31.458  30.465  1.00  0.00     0.031 A 
ATOM     74  C   UNL A   1      38.788  30.168  32.284  1.00  0.00     0.131 A 
ATOM     75  C   UNL A   1      36.871  31.914  31.331  1.00  0.00     0.055 A 
ATOM     76  C   UNL A   1      37.755  30.581  33.126  1.00  0.00     0.041 A 
ATOM     77  F   UNL A   1      39.712  29.339  32.794  1.00  0.00    -0.206 F 
ATOM     78  C   UNL A   1      36.795  31.472  32.654  1.00  0.00     0.022 A 
BRANCH  75  79
ATOM     79  S   UNL A   1      35.707  33.166  30.727  1.00  0.00     0.124 S 
ATOM     80  O   UNL A   1      36.044  34.313  31.562  1.00  0.00    -0.237 OA
ATOM     81  O   UNL A   1      36.075  33.265  29.319  1.00  0.00    -0.237 OA
ATOM     82  O   UNL A   1      34.400  32.567  30.985  1.00  0.00    -0.744 OA
ENDBRANCH  75  79
ENDBRANCH  48  72
BRANCH  60  83
ATOM     83  C   UNL A   1      44.969  33.556  29.325  1.00  0.00     0.023 A 
ATOM     84  C   UNL A   1      44.823  34.685  28.500  1.00  0.00     0.031 A 
ATOM     85  C   UNL A   1      45.710  33.698  30.512  1.00  0.00     0.131 A 
ATOM     86  C   UNL A   1      45.452  35.890  28.844  1.00  0.00     0.055 A 
ATOM     87  C   UNL A   1      46.283  34.916  30.881  1.00  0.00     0.041 A 
ATOM     88  F   UNL A   1      45.886  32.653  31.337  1.00  0.00    -0.206 F 
ATOM     89  C   UNL A   1      46.167  36.018  30.039  1.00  0.00     0.022 A 
BRANCH  86  90
ATOM     90  S   UNL A   1      45.399  37.270  27.668  1.00  0.00     0.124 S 
ATOM     91  O   UNL A   1      46.483  36.929  26.752  1.00  0.00    -0.237 OA
ATOM     92  O   UNL A   1      44.049  37.164  27.122  1.00  0.00    -0.237 OA
ATOM     93  O   UNL A   1      45.639  38.444  28.503  1.00  0.00    -0.744 OA
ENDBRANCH  86  90
ENDBRANCH  60  83
ENDBRANCH  34  35
ENDBRANCH  27  29
ENDBRANCH  26  27
ENDBRANCH  25  26
ENDBRANCH  24  25
ENDBRANCH   1  24
TORSDOF 20
ENDMDL
MODEL 2
REMARK VINA RESULT:     -11.0      4.875     10.287
REMARK SMILES Cc1ccc(Br)cc1C(=O)N1CCO[C@H](CC(=O)OCCOCCOC(=O)c2ccc(-c3c4nc(c(-c5cc(S(=O)(=O)[O-])ccc5F)c5ccc([nH]5)c(-c5cc(S(=O)(=O)[O-])ccc5F)c5nc(c(-c6cc(S(=O)(=O)[O-])ccc6F)c6ccc3[nH]6)C=C5)C=C4)cc2)C1
REMARK SMILES IDX 22 1 21 2 20 3 19 4 17 5 18 6 16 7 15 8 11 9 12 10 91 11
REMARK SMILES IDX 13 12 14 13 9 14 10 15 8 16 1 17 2 18 3 19 4 20 7 21 5 22
REMARK SMILES IDX 6 23 23 24 24 25 25 26 26 27 27 28 28 29 29 30 90 31 30 32
REMARK SMILES IDX 89 33 31 34 32 35 33 36 83 37 34 38 88 39 82 40 84 41 35 42
REMARK SMILES IDX 87 43 81 44 80 45 36 47 68 48 48 49 67 50 49 51 52 52 66 53
REMARK SMILES IDX 85 54 50 55 51 56 65 58 86 59 53 60 37 61 38 62 46 63 39 64
REMARK SMILES IDX 45 65 47 66 44 67 40 68 41 69 42 70 43 71 69 72 70 73 78 74
REMARK SMILES IDX 71 75 77 76 79 77 76 78 72 79 73 80 74 81 75 82 54 83 55 84
REMARK SMILES IDX 63 85 56 86 62 87 64 88 61 89 57 90 58 91 59 92 60 93
REMARK H PARENT 84 46 52 57
REMARK Flexibility Score: inf
ROOT
ATOM      1  O   UNL A   1      31.658  29.864  27.182  1.00  0.00    -0.374 OA
ENDROOT
BRANCH   1   2
ATOM      2  C   UNL A   1      32.758  28.962  27.242  1.00  0.00     0.202 C 
BRANCH   2   3
ATOM      3  C   UNL A   1      32.504  27.508  26.847  1.00  0.00     0.261 C 
BRANCH   3   4
ATOM      4  O   UNL A   1      31.174  27.062  27.141  1.00  0.00    -0.463 OA
BRANCH   4   5
ATOM      5  C   UNL A   1      30.729  26.054  26.352  1.00  0.00     0.308 C 
ATOM      6  O   UNL A   1      30.023  25.119  26.710  1.00  0.00    -0.252 OA
BRANCH   5   7
ATOM      7  C   UNL A   1      31.262  26.179  24.962  1.00  0.00     0.156 C 
BRANCH   7   8
ATOM      8  C   UNL A   1      30.310  25.744  23.839  1.00  0.00     0.148 C 
ATOM      9  N   UNL A   1      32.162  24.815  22.588  1.00  0.00    -0.334 N 
ATOM     10  C   UNL A   1      32.097  25.867  21.575  1.00  0.00     0.148 C 
ATOM     11  C   UNL A   1      30.844  24.490  23.134  1.00  0.00     0.152 C 
ATOM     12  C   UNL A   1      31.315  27.096  22.088  1.00  0.00     0.182 C 
ATOM     13  O   UNL A   1      30.129  26.776  22.839  1.00  0.00    -0.374 OA
BRANCH   9  14
ATOM     14  C   UNL A   1      33.095  23.799  22.522  1.00  0.00     0.254 C 
ATOM     15  O   UNL A   1      33.470  23.386  21.425  1.00  0.00    -0.269 OA
BRANCH  14  16
ATOM     16  C   UNL A   1      33.492  23.052  23.787  1.00  0.00     0.044 A 
ATOM     17  C   UNL A   1      34.667  24.902  25.228  1.00  0.00     0.045 C 
ATOM     18  C   UNL A   1      34.107  23.538  24.967  1.00  0.00    -0.038 A 
ATOM     19  C   UNL A   1      34.259  22.669  26.077  1.00  0.00     0.005 A 
ATOM     20  C   UNL A   1      33.838  21.347  26.040  1.00  0.00     0.016 A 
ATOM     21  C   UNL A   1      33.093  21.694  23.773  1.00  0.00     0.029 A 
ATOM     22  C   UNL A   1      33.265  20.860  24.879  1.00  0.00     0.018 A 
ATOM     23  Br  UNL A   1      32.694  19.059  24.806  1.00  0.00    -0.051 Br
ENDBRANCH  14  16
ENDBRANCH   9  14
ENDBRANCH   7   8
ENDBRANCH   5   7
ENDBRANCH   4   5
ENDBRANCH   3   4
ENDBRANCH   2   3
ENDBRANCH   1   2
BRANCH   1  24
ATOM     24  C   UNL A   1      31.737  30.976  26.293  1.00  0.00     0.202 C 
BRANCH  24  25
ATOM     25  C   UNL A   1      31.568  32.382  26.883  1.00  0.00     0.261 C 
BRANCH  25  26
ATOM     26  O   UNL A   1      32.732  33.209  26.699  1.00  0.00    -0.460 OA
BRANCH  26  27
ATOM     27  C   UNL A   1      33.256  33.708  27.847  1.00  0.00     0.338 C 
ATOM     28  O   UNL A   1      32.731  34.522  28.598  1.00  0.00    -0.246 OA
BRANCH  27  29
ATOM     29  C   UNL A   1      34.491  32.992  28.209  1.00  0.00     0.060 A 
ATOM     30  C   UNL A   1      34.364  31.690  28.709  1.00  0.00     0.016 A 
ATOM     31  C   UNL A   1      35.739  33.615  28.159  1.00  0.00     0.016 A 
ATOM     32  C   UNL A   1      35.482  31.016  29.195  1.00  0.00     0.010 A 
ATOM     33  C   UNL A   1      36.858  32.941  28.662  1.00  0.00     0.010 A 
ATOM     34  C   UNL A   1      36.732  31.649  29.207  1.00  0.00    -0.014 A 
BRANCH  34  35
ATOM     35  C   UNL A   1      37.871  31.000  29.903  1.00  0.00     0.031 A 
ATOM     36  C   UNL A   1      38.171  31.374  31.328  1.00  0.00     0.074 A 
ATOM     37  C   UNL A   1      38.602  30.057  29.281  1.00  0.00     0.049 A 
ATOM     38  N   UNL A   1      39.132  30.956  32.111  1.00  0.00    -0.248 NA
ATOM     39  C   UNL A   1      37.265  32.349  31.953  1.00  0.00     0.031 C 
ATOM     40  C   UNL A   1      38.367  29.572  27.921  1.00  0.00     0.029 A 
ATOM     41  N   UNL A   1      39.689  29.340  29.711  1.00  0.00    -0.354 N 
ATOM     42  C   UNL A   1      38.949  31.615  33.322  1.00  0.00     0.074 A 
ATOM     43  C   UNL A   1      37.805  32.488  33.155  1.00  0.00     0.031 C 
ATOM     44  C   UNL A   1      39.293  28.643  27.626  1.00  0.00     0.029 A 
ATOM     45  C   UNL A   1      40.208  28.499  28.755  1.00  0.00     0.049 A 
ATOM     46  H   UNL A   1      40.064  29.420  30.619  1.00  0.00     0.167 HD
ATOM     47  C   UNL A   1      39.665  31.496  34.468  1.00  0.00     0.034 A 
ATOM     48  C   UNL A   1      41.313  27.726  28.777  1.00  0.00     0.034 A 
ATOM     49  C   UNL A   1      40.812  30.632  34.614  1.00  0.00     0.049 A 
ATOM     50  C   UNL A   1      42.162  27.698  30.027  1.00  0.00     0.074 A 
ATOM     51  C   UNL A   1      41.594  30.418  35.735  1.00  0.00     0.029 A 
ATOM     52  N   UNL A   1      41.355  29.853  33.600  1.00  0.00    -0.354 N 
ATOM     53  N   UNL A   1      41.971  28.317  31.169  1.00  0.00    -0.248 NA
ATOM     54  C   UNL A   1      43.372  26.867  29.988  1.00  0.00     0.031 C 
ATOM     55  C   UNL A   1      42.652  29.575  35.380  1.00  0.00     0.029 A 
ATOM     56  C   UNL A   1      42.488  29.196  34.056  1.00  0.00     0.049 A 
ATOM     57  H   UNL A   1      40.989  29.778  32.689  1.00  0.00     0.167 HD
ATOM     58  C   UNL A   1      43.028  27.933  31.990  1.00  0.00     0.074 A 
ATOM     59  C   UNL A   1      43.839  27.014  31.219  1.00  0.00     0.031 C 
ATOM     60  C   UNL A   1      43.304  28.303  33.268  1.00  0.00     0.034 A 
BRANCH  47  61
ATOM     61  C   UNL A   1      39.259  32.366  35.635  1.00  0.00     0.023 A 
ATOM     62  C   UNL A   1      39.655  33.711  35.732  1.00  0.00     0.031 A 
ATOM     63  C   UNL A   1      38.478  31.833  36.676  1.00  0.00     0.131 A 
ATOM     64  C   UNL A   1      39.327  34.457  36.874  1.00  0.00     0.055 A 
ATOM     65  C   UNL A   1      38.090  32.602  37.774  1.00  0.00     0.041 A 
ATOM     66  F   UNL A   1      38.089  30.549  36.650  1.00  0.00    -0.206 F 
ATOM     67  C   UNL A   1      38.527  33.920  37.885  1.00  0.00     0.022 A 
BRANCH  64  68
ATOM     68  S   UNL A   1      40.072  36.097  37.084  1.00  0.00     0.124 S 
ATOM     69  O   UNL A   1      41.450  35.754  37.425  1.00  0.00    -0.237 OA
ATOM     70  O   UNL A   1      39.870  36.706  35.775  1.00  0.00    -0.237 OA
ATOM     71  O   UNL A   1      39.298  36.689  38.174  1.00  0.00    -0.744 OA
ENDBRANCH  64  68
ENDBRANCH  47  61
BRANCH  48  72
ATOM     72  C   UNL A   1      41.725  26.961  27.565  1.00  0.00     0.023 A 
ATOM     73  C   UNL A   1      41.541  25.573  27.481  1.00  0.00     0.031 A 
ATOM     74  C   UNL A   1      42.363  27.607  26.491  1.00  0.00     0.131 A 
ATOM     75  C   UNL A   1      42.027  24.869  26.368  1.00  0.00     0.055 A 
ATOM     76  C   UNL A   1      42.797  26.911  25.361  1.00  0.00     0.041 A 
ATOM     77  F   UNL A   1      42.569  28.933  26.520  1.00  0.00    -0.206 F 
ATOM     78  C   UNL A   1      42.642  25.530  25.303  1.00  0.00     0.022 A 
BRANCH  75  79
ATOM     79  S   UNL A   1      41.922  23.058  26.372  1.00  0.00     0.124 S 
ATOM     80  O   UNL A   1      42.659  22.720  27.583  1.00  0.00    -0.237 OA
ATOM     81  O   UNL A   1      40.480  22.840  26.414  1.00  0.00    -0.237 OA
ATOM     82  O   UNL A   1      42.570  22.679  25.118  1.00  0.00    -0.744 OA
ENDBRANCH  75  79
ENDBRANCH  48  72
BRANCH  60  83
ATOM     83  C   UNL A   1      44.525  27.690  33.911  1.00  0.00     0.023 A 
ATOM     84  C   UNL A   1      44.455  26.484  34.630  1.00  0.00     0.031 A 
ATOM     85  C   UNL A   1      45.775  28.328  33.811  1.00  0.00     0.131 A 
ATOM     86  C   UNL A   1      45.599  25.980  35.265  1.00  0.00     0.055 A 
ATOM     87  C   UNL A   1      46.924  27.790  34.394  1.00  0.00     0.041 A 
ATOM     88  F   UNL A   1      45.901  29.484  33.140  1.00  0.00    -0.206 F 
ATOM     89  C   UNL A   1      46.837  26.616  35.137  1.00  0.00     0.022 A 
BRANCH  86  90
ATOM     90  S   UNL A   1      45.434  24.526  36.336  1.00  0.00     0.124 S 
ATOM     91  O   UNL A   1      44.071  24.673  36.838  1.00  0.00    -0.237 OA
ATOM     92  O   UNL A   1      45.652  23.424  35.403  1.00  0.00    -0.237 OA
ATOM     93  O   UNL A   1      46.485  24.711  37.333  1.00  0.00    -0.744 OA
ENDBRANCH  86  90
ENDBRANCH  60  83
ENDBRANCH  34  35
ENDBRANCH  27  29
ENDBRANCH  26  27
ENDBRANCH  25  26
ENDBRANCH  24  25
ENDBRANCH   1  24
TORSDOF 20
ENDMDL
MODEL 3
REMARK VINA RESULT:     -10.9      4.443      7.135
REMARK SMILES Cc1ccc(Br)cc1C(=O)N1CCO[C@H](CC(=O)OCCOCCOC(=O)c2ccc(-c3c4nc(c(-c5cc(S(=O)(=O)[O-])ccc5F)c5ccc([nH]5)c(-c5cc(S(=O)(=O)[O-])ccc5F)c5nc(c(-c6cc(S(=O)(=O)[O-])ccc6F)c6ccc3[nH]6)C=C5)C=C4)cc2)C1
REMARK SMILES IDX 22 1 21 2 20 3 19 4 17 5 18 6 16 7 15 8 11 9 12 10 91 11
REMARK SMILES IDX 13 12 14 13 9 14 10 15 8 16 1 17 2 18 3 19 4 20 7 21 5 22
REMARK SMILES IDX 6 23 23 24 24 25 25 26 26 27 27 28 28 29 29 30 90 31 30 32
REMARK SMILES IDX 89 33 31 34 32 35 33 36 83 37 34 38 88 39 82 40 84 41 35 42
REMARK SMILES IDX 87 43 81 44 80 45 36 47 68 48 48 49 67 50 49 51 52 52 66 53
REMARK SMILES IDX 85 54 50 55 51 56 65 58 86 59 53 60 37 61 38 62 46 63 39 64
REMARK SMILES IDX 45 65 47 66 44 67 40 68 41 69 42 70 43 71 69 72 70 73 78 74
REMARK SMILES IDX 71 75 77 76 79 77 76 78 72 79 73 80 74 81 75 82 54 83 55 84
REMARK SMILES IDX 63 85 56 86 62 87 64 88 61 89 57 90 58 91 59 92 60 93
REMARK H PARENT 84 46 52 57
REMARK Flexibility Score: inf
ROOT
ATOM      1  O   UNL A   1      42.347  19.132  27.103  1.00  0.00    -0.374 OA
ENDROOT
BRANCH   1   2
ATOM      2  C   UNL A   1      43.156  18.133  26.491  1.00  0.00     0.202 C 
BRANCH   2   3
ATOM      3  C   UNL A   1      43.911  18.514  25.218  1.00  0.00     0.261 C 
BRANCH   3   4
ATOM      4  O   UNL A   1      45.334  18.549  25.390  1.00  0.00    -0.463 OA
BRANCH   4   5
ATOM      5  C   UNL A   1      45.936  19.652  24.883  1.00  0.00     0.308 C 
ATOM      6  O   UNL A   1      47.015  19.679  24.302  1.00  0.00    -0.252 OA
BRANCH   5   7
ATOM      7  C   UNL A   1      45.144  20.885  25.175  1.00  0.00     0.156 C 
BRANCH   7   8
ATOM      8  C   UNL A   1      45.392  22.076  24.239  1.00  0.00     0.148 C 
ATOM      9  N   UNL A   1      45.453  23.587  26.129  1.00  0.00    -0.334 N 
ATOM     10  C   UNL A   1      44.172  24.196  25.773  1.00  0.00     0.148 C 
ATOM     11  C   UNL A   1      46.210  23.161  24.951  1.00  0.00     0.152 C 
ATOM     12  C   UNL A   1      43.369  23.296  24.807  1.00  0.00     0.182 C 
ATOM     13  O   UNL A   1      44.159  22.678  23.774  1.00  0.00    -0.374 OA
BRANCH   9  14
ATOM     14  C   UNL A   1      46.169  23.995  27.236  1.00  0.00     0.254 C 
ATOM     15  O   UNL A   1      47.397  24.065  27.176  1.00  0.00    -0.269 OA
BRANCH  14  16
ATOM     16  C   UNL A   1      45.469  24.146  28.578  1.00  0.00     0.044 A 
ATOM     17  C   UNL A   1      43.570  22.341  28.467  1.00  0.00     0.045 C 
ATOM     18  C   UNL A   1      44.399  23.398  29.129  1.00  0.00    -0.038 A 
ATOM     19  C   UNL A   1      43.999  23.641  30.466  1.00  0.00     0.005 A 
ATOM     20  C   UNL A   1      44.614  24.604  31.255  1.00  0.00     0.016 A 
ATOM     21  C   UNL A   1      46.060  25.135  29.400  1.00  0.00     0.029 A 
ATOM     22  C   UNL A   1      45.638  25.358  30.712  1.00  0.00     0.018 A 
ATOM     23  Br  UNL A   1      46.481  26.682  31.766  1.00  0.00    -0.051 Br
ENDBRANCH  14  16
ENDBRANCH   9  14
ENDBRANCH   7   8
ENDBRANCH   5   7
ENDBRANCH   4   5
ENDBRANCH   3   4
ENDBRANCH   2   3
ENDBRANCH   1   2
BRANCH   1  24
ATOM     24  C   UNL A   1      41.688  20.080  26.266  1.00  0.00     0.202 C 
BRANCH  24  25
ATOM     25  C   UNL A   1      40.222  20.414  26.573  1.00  0.00     0.261 C 
BRANCH  25  26
ATOM     26  O   UNL A   1      40.069  21.650  27.293  1.00  0.00    -0.460 OA
BRANCH  26  27
ATOM     27  C   UNL A   1      39.496  22.651  26.581  1.00  0.00     0.338 C 
ATOM     28  O   UNL A   1      38.497  22.570  25.875  1.00  0.00    -0.246 OA
BRANCH  27  29
ATOM     29  C   UNL A   1      40.116  23.945  26.912  1.00  0.00     0.060 A 
ATOM     30  C   UNL A   1      40.630  24.108  28.204  1.00  0.00     0.016 A 
ATOM     31  C   UNL A   1      40.102  25.014  26.013  1.00  0.00     0.016 A 
ATOM     32  C   UNL A   1      41.104  25.351  28.617  1.00  0.00     0.010 A 
ATOM     33  C   UNL A   1      40.565  26.266  26.436  1.00  0.00     0.010 A 
ATOM     34  C   UNL A   1      41.043  26.448  27.747  1.00  0.00    -0.014 A 
BRANCH  34  35
ATOM     35  C   UNL A   1      41.366  27.803  28.261  1.00  0.00     0.031 A 
ATOM     36  C   UNL A   1      42.799  28.259  28.283  1.00  0.00     0.074 A 
ATOM     37  C   UNL A   1      40.385  28.631  28.663  1.00  0.00     0.049 A 
ATOM     38  N   UNL A   1      43.305  29.384  28.716  1.00  0.00    -0.248 NA
ATOM     39  C   UNL A   1      43.792  27.319  27.742  1.00  0.00     0.031 C 
ATOM     40  C   UNL A   1      38.956  28.320  28.632  1.00  0.00     0.029 A 
ATOM     41  N   UNL A   1      40.442  29.902  29.177  1.00  0.00    -0.354 N 
ATOM     42  C   UNL A   1      44.677  29.290  28.502  1.00  0.00     0.074 A 
ATOM     43  C   UNL A   1      44.923  27.982  27.933  1.00  0.00     0.031 C 
ATOM     44  C   UNL A   1      38.272  29.370  29.118  1.00  0.00     0.029 A 
ATOM     45  C   UNL A   1      39.214  30.408  29.533  1.00  0.00     0.049 A 
ATOM     46  H   UNL A   1      41.282  30.405  29.282  1.00  0.00     0.167 HD
ATOM     47  C   UNL A   1      45.638  30.215  28.751  1.00  0.00     0.034 A 
ATOM     48  C   UNL A   1      38.889  31.562  30.151  1.00  0.00     0.034 A 
ATOM     49  C   UNL A   1      45.377  31.510  29.332  1.00  0.00     0.049 A 
ATOM     50  C   UNL A   1      39.990  32.527  30.523  1.00  0.00     0.074 A 
ATOM     51  C   UNL A   1      46.272  32.529  29.604  1.00  0.00     0.029 A 
ATOM     52  N   UNL A   1      44.130  31.957  29.751  1.00  0.00    -0.354 N 
ATOM     53  N   UNL A   1      41.281  32.432  30.305  1.00  0.00    -0.248 NA
ATOM     54  C   UNL A   1      39.587  33.753  31.225  1.00  0.00     0.031 C 
ATOM     55  C   UNL A   1      45.583  33.557  30.257  1.00  0.00     0.029 A 
ATOM     56  C   UNL A   1      44.241  33.217  30.323  1.00  0.00     0.049 A 
ATOM     57  H   UNL A   1      43.290  31.454  29.657  1.00  0.00     0.167 HD
ATOM     58  C   UNL A   1      41.842  33.596  30.826  1.00  0.00     0.074 A 
ATOM     59  C   UNL A   1      40.746  34.385  31.348  1.00  0.00     0.031 C 
ATOM     60  C   UNL A   1      43.143  33.982  30.865  1.00  0.00     0.034 A 
BRANCH  47  61
ATOM     61  C   UNL A   1      47.067  29.831  28.446  1.00  0.00     0.023 A 
ATOM     62  C   UNL A   1      47.852  29.106  29.359  1.00  0.00     0.031 A 
ATOM     63  C   UNL A   1      47.658  30.214  27.229  1.00  0.00     0.131 A 
ATOM     64  C   UNL A   1      49.200  28.845  29.070  1.00  0.00     0.055 A 
ATOM     65  C   UNL A   1      48.978  29.886  26.915  1.00  0.00     0.041 A 
ATOM     66  F   UNL A   1      46.965  30.928  26.328  1.00  0.00    -0.206 F 
ATOM     67  C   UNL A   1      49.762  29.209  27.845  1.00  0.00     0.022 A 
BRANCH  64  68
ATOM     68  S   UNL A   1      50.247  28.143  30.374  1.00  0.00     0.124 S 
ATOM     69  O   UNL A   1      51.582  28.525  29.920  1.00  0.00    -0.237 OA
ATOM     70  O   UNL A   1      49.760  28.820  31.570  1.00  0.00    -0.237 OA
ATOM     71  O   UNL A   1      49.963  26.710  30.308  1.00  0.00    -0.744 OA
ENDBRANCH  64  68
ENDBRANCH  47  61
BRANCH  48  72
ATOM     72  C   UNL A   1      37.473  31.850  30.518  1.00  0.00     0.023 A 
ATOM     73  C   UNL A   1      36.596  32.467  29.612  1.00  0.00     0.031 A 
ATOM     74  C   UNL A   1      36.992  31.561  31.808  1.00  0.00     0.131 A 
ATOM     75  C   UNL A   1      35.298  32.813  30.021  1.00  0.00     0.055 A 
ATOM     76  C   UNL A   1      35.684  31.858  32.193  1.00  0.00     0.041 A 
ATOM     77  F   UNL A   1      37.789  30.976  32.715  1.00  0.00    -0.206 F 
ATOM     78  C   UNL A   1      34.832  32.501  31.300  1.00  0.00     0.022 A 
BRANCH  75  79
ATOM     79  S   UNL A   1      34.251  33.758  28.881  1.00  0.00     0.124 S 
ATOM     80  O   UNL A   1      33.278  34.348  29.791  1.00  0.00    -0.237 OA
ATOM     81  O   UNL A   1      35.212  34.677  28.281  1.00  0.00    -0.237 OA
ATOM     82  O   UNL A   1      33.724  32.736  27.979  1.00  0.00    -0.744 OA
ENDBRANCH  75  79
ENDBRANCH  48  72
BRANCH  60  83
ATOM     83  C   UNL A   1      43.441  35.328  31.480  1.00  0.00     0.023 A 
ATOM     84  C   UNL A   1      43.581  36.484  30.693  1.00  0.00     0.031 A 
ATOM     85  C   UNL A   1      43.597  35.455  32.872  1.00  0.00     0.131 A 
ATOM     86  C   UNL A   1      43.920  37.705  31.295  1.00  0.00     0.055 A 
ATOM     87  C   UNL A   1      43.874  36.684  33.473  1.00  0.00     0.041 A 
ATOM     88  F   UNL A   1      43.479  34.383  33.674  1.00  0.00    -0.206 F 
ATOM     89  C   UNL A   1      44.050  37.816  32.682  1.00  0.00     0.022 A 
BRANCH  86  90
ATOM     90  S   UNL A   1      44.275  39.133  30.234  1.00  0.00     0.124 S 
ATOM     91  O   UNL A   1      45.672  39.409  30.555  1.00  0.00    -0.237 OA
ATOM     92  O   UNL A   1      44.022  38.600  28.898  1.00  0.00    -0.237 OA
ATOM     93  O   UNL A   1      43.323  40.144  30.688  1.00  0.00    -0.744 OA
ENDBRANCH  86  90
ENDBRANCH  60  83
ENDBRANCH  34  35
ENDBRANCH  27  29
ENDBRANCH  26  27
ENDBRANCH  25  26
ENDBRANCH  24  25
ENDBRANCH   1  24
TORSDOF 20
ENDMDL
