MODEL 1
REMARK VINA RESULT:     -12.0      0.000      0.000
REMARK SMILES C[C@H](C(=O)OCCOCCOC(=O)c1ccc(-c2c3nc(c(-c4cc(S(=O)(=O)[O-])ccc4F)c4ccc([nH]4)c(-c4cc(S(=O)(=O)[O-])ccc4F)c4nc(c(-c5cc(S(=O)(=O)[O-])ccc5F)c5ccc2[nH]5)C=C4)C=C3)cc1)c1ccc2c3cc(Cl)ccc3n(C(=O)c3ccc(Cl)cc3)c2c1
REMARK SMILES IDX 8 1 7 2 6 3 5 4 3 5 4 6 2 7 1 8 77 9 78 10 99 11 79 12 98 13
REMARK SMILES IDX 80 14 88 15 81 16 87 17 82 18 86 19 83 20 85 21 84 22 89 23
REMARK SMILES IDX 90 24 91 25 92 26 97 27 93 28 96 29 94 30 95 31 9 32 10 33
REMARK SMILES IDX 11 34 12 35 13 36 14 37 15 38 76 39 16 40 75 41 17 42 18 43
REMARK SMILES IDX 19 44 69 45 20 46 74 47 68 48 70 49 21 50 73 51 67 52 66 53
REMARK SMILES IDX 22 55 54 56 34 57 53 58 35 59 38 60 52 61 71 62 36 63 37 64
REMARK SMILES IDX 51 66 72 67 39 68 23 69 24 70 32 71 25 72 31 73 33 74 30 75
REMARK SMILES IDX 26 76 27 77 28 78 29 79 55 80 56 81 64 82 57 83 63 84 65 85
REMARK SMILES IDX 62 86 58 87 59 88 60 89 61 90 40 91 41 92 49 93 42 94 48 95
REMARK SMILES IDX 50 96 47 97 43 98 44 99 45 100 46 101
REMARK H PARENT 70 54 38 65
REMARK Flexibility Score: inf
ROOT
ATOM      1  O   UNL A   1      32.070  31.002  27.025  1.00  0.00    -0.374 OA
ENDROOT
BRANCH   1   2
ATOM      2  C   UNL A   1      32.433  29.944  26.138  1.00  0.00     0.202 C 
BRANCH   2   3
ATOM      3  C   UNL A   1      31.289  29.261  25.383  1.00  0.00     0.261 C 
BRANCH   3   4
ATOM      4  O   UNL A   1      31.689  27.975  24.882  1.00  0.00    -0.463 OA
BRANCH   4   5
ATOM      5  C   UNL A   1      31.316  26.908  25.634  1.00  0.00     0.313 C 
ATOM      6  O   UNL A   1      30.914  26.995  26.792  1.00  0.00    -0.252 OA
BRANCH   5   7
ATOM      7  C   UNL A   1      31.416  25.560  24.915  1.00  0.00     0.126 C 
ATOM      8  C   UNL A   1      30.893  25.787  23.483  1.00  0.00     0.025 C 
BRANCH   7   9
ATOM      9  C   UNL A   1      32.759  24.816  24.967  1.00  0.00    -0.032 A 
ATOM     10  C   UNL A   1      33.930  25.507  25.297  1.00  0.00     0.005 A 
ATOM     11  C   UNL A   1      32.853  23.426  24.751  1.00  0.00     0.032 A 
ATOM     12  C   UNL A   1      35.157  24.841  25.446  1.00  0.00     0.011 A 
ATOM     13  C   UNL A   1      34.097  22.761  24.857  1.00  0.00     0.057 A 
ATOM     14  C   UNL A   1      35.239  23.447  25.245  1.00  0.00     0.008 A 
ATOM     15  N   UNL A   1      34.431  21.411  24.656  1.00  0.00    -0.276 N 
ATOM     16  C   UNL A   1      36.292  22.494  25.345  1.00  0.00     0.009 A 
ATOM     17  C   UNL A   1      35.798  21.252  24.919  1.00  0.00     0.057 A 
ATOM     18  C   UNL A   1      37.647  22.610  25.731  1.00  0.00     0.031 A 
ATOM     19  C   UNL A   1      36.672  20.157  24.752  1.00  0.00     0.029 A 
ATOM     20  C   UNL A   1      38.486  21.502  25.637  1.00  0.00     0.041 A 
ATOM     21  C   UNL A   1      38.013  20.299  25.133  1.00  0.00     0.023 A 
ATOM     22  Cl  UNL A   1      40.131  21.639  26.124  1.00  0.00    -0.084 Cl
BRANCH  15  23
ATOM     23  C   UNL A   1      33.496  20.447  24.192  1.00  0.00     0.262 C 
ATOM     24  O   UNL A   1      32.667  20.860  23.376  1.00  0.00    -0.268 OA
BRANCH  23  25
ATOM     25  C   UNL A   1      33.338  19.015  24.594  1.00  0.00     0.040 A 
ATOM     26  C   UNL A   1      33.671  18.044  23.625  1.00  0.00     0.015 A 
ATOM     27  C   UNL A   1      32.760  18.585  25.792  1.00  0.00     0.015 A 
ATOM     28  C   UNL A   1      33.452  16.682  23.851  1.00  0.00     0.021 A 
ATOM     29  C   UNL A   1      32.571  17.213  26.033  1.00  0.00     0.021 A 
ATOM     30  C   UNL A   1      32.909  16.271  25.060  1.00  0.00     0.041 A 
ATOM     31  Cl  UNL A   1      32.627  14.597  25.343  1.00  0.00    -0.084 Cl
ENDBRANCH  23  25
ENDBRANCH  15  23
ENDBRANCH   7   9
ENDBRANCH   5   7
ENDBRANCH   4   5
ENDBRANCH   3   4
ENDBRANCH   2   3
ENDBRANCH   1   2
BRANCH   1  32
ATOM     32  C   UNL A   1      33.033  32.032  27.261  1.00  0.00     0.202 C 
BRANCH  32  33
ATOM     33  C   UNL A   1      32.525  33.479  27.315  1.00  0.00     0.261 C 
BRANCH  33  34
ATOM     34  O   UNL A   1      32.448  34.003  28.654  1.00  0.00    -0.460 OA
BRANCH  34  35
ATOM     35  C   UNL A   1      33.490  34.784  29.020  1.00  0.00     0.338 C 
ATOM     36  O   UNL A   1      33.478  36.005  29.167  1.00  0.00    -0.246 OA
BRANCH  35  37
ATOM     37  C   UNL A   1      34.642  33.961  29.425  1.00  0.00     0.060 A 
ATOM     38  C   UNL A   1      34.412  32.942  30.359  1.00  0.00     0.016 A 
ATOM     39  C   UNL A   1      35.938  34.237  28.984  1.00  0.00     0.016 A 
ATOM     40  C   UNL A   1      35.483  32.228  30.895  1.00  0.00     0.010 A 
ATOM     41  C   UNL A   1      37.013  33.523  29.530  1.00  0.00     0.010 A 
ATOM     42  C   UNL A   1      36.795  32.541  30.516  1.00  0.00    -0.014 A 
BRANCH  42  43
ATOM     43  C   UNL A   1      37.929  31.943  31.268  1.00  0.00     0.031 A 
ATOM     44  C   UNL A   1      38.711  30.819  30.640  1.00  0.00     0.074 A 
ATOM     45  C   UNL A   1      38.294  32.427  32.469  1.00  0.00     0.049 A 
ATOM     46  N   UNL A   1      39.724  30.143  31.116  1.00  0.00    -0.248 NA
ATOM     47  C   UNL A   1      38.288  30.404  29.293  1.00  0.00     0.031 C 
ATOM     48  C   UNL A   1      37.652  33.548  33.155  1.00  0.00     0.029 A 
ATOM     49  N   UNL A   1      39.297  32.040  33.323  1.00  0.00    -0.354 N 
ATOM     50  C   UNL A   1      40.059  29.218  30.131  1.00  0.00     0.074 A 
ATOM     51  C   UNL A   1      39.113  29.396  29.050  1.00  0.00     0.031 C 
ATOM     52  C   UNL A   1      38.277  33.757  34.326  1.00  0.00     0.029 A 
ATOM     53  C   UNL A   1      39.336  32.762  34.493  1.00  0.00     0.049 A 
ATOM     54  H   UNL A   1      39.929  31.315  33.117  1.00  0.00     0.167 HD
ATOM     55  C   UNL A   1      41.069  28.310  30.127  1.00  0.00     0.034 A 
ATOM     56  C   UNL A   1      40.118  32.621  35.582  1.00  0.00     0.034 A 
ATOM     57  C   UNL A   1      42.001  28.139  31.214  1.00  0.00     0.049 A 
ATOM     58  C   UNL A   1      41.175  31.542  35.594  1.00  0.00     0.074 A 
ATOM     59  C   UNL A   1      43.071  27.264  31.304  1.00  0.00     0.029 A 
ATOM     60  N   UNL A   1      41.969  28.845  32.411  1.00  0.00    -0.354 N 
ATOM     61  N   UNL A   1      41.486  30.677  34.654  1.00  0.00    -0.248 NA
ATOM     62  C   UNL A   1      41.989  31.423  36.811  1.00  0.00     0.031 C 
ATOM     63  C   UNL A   1      43.632  27.385  32.579  1.00  0.00     0.029 A 
ATOM     64  C   UNL A   1      42.972  28.396  33.258  1.00  0.00     0.049 A 
ATOM     65  H   UNL A   1      41.327  29.559  32.626  1.00  0.00     0.167 HD
ATOM     66  C   UNL A   1      42.554  29.937  35.157  1.00  0.00     0.074 A 
ATOM     67  C   UNL A   1      42.840  30.465  36.474  1.00  0.00     0.031 C 
ATOM     68  C   UNL A   1      43.241  28.919  34.578  1.00  0.00     0.034 A 
BRANCH  55  69
ATOM     69  C   UNL A   1      41.173  27.396  28.928  1.00  0.00     0.023 A 
ATOM     70  C   UNL A   1      42.144  27.584  27.928  1.00  0.00     0.031 A 
ATOM     71  C   UNL A   1      40.265  26.333  28.768  1.00  0.00     0.131 A 
ATOM     72  C   UNL A   1      42.138  26.772  26.784  1.00  0.00     0.055 A 
ATOM     73  C   UNL A   1      40.316  25.478  27.667  1.00  0.00     0.041 A 
ATOM     74  F   UNL A   1      39.301  26.116  29.677  1.00  0.00    -0.206 F 
ATOM     75  C   UNL A   1      41.246  25.705  26.657  1.00  0.00     0.022 A 
BRANCH  72  76
ATOM     76  S   UNL A   1      43.213  27.225  25.393  1.00  0.00     0.124 S 
ATOM     77  O   UNL A   1      42.376  28.180  24.671  1.00  0.00    -0.237 OA
ATOM     78  O   UNL A   1      44.382  27.779  26.066  1.00  0.00    -0.237 OA
ATOM     79  O   UNL A   1      43.433  25.955  24.704  1.00  0.00    -0.744 OA
ENDBRANCH  72  76
ENDBRANCH  55  69
BRANCH  56  80
ATOM     80  C   UNL A   1      39.916  33.493  36.776  1.00  0.00     0.023 A 
ATOM     81  C   UNL A   1      40.727  34.617  37.005  1.00  0.00     0.031 A 
ATOM     82  C   UNL A   1      38.940  33.178  37.739  1.00  0.00     0.131 A 
ATOM     83  C   UNL A   1      40.577  35.358  38.188  1.00  0.00     0.055 A 
ATOM     84  C   UNL A   1      38.758  33.951  38.888  1.00  0.00     0.041 A 
ATOM     85  F   UNL A   1      38.140  32.113  37.572  1.00  0.00    -0.206 F 
ATOM     86  C   UNL A   1      39.588  35.042  39.123  1.00  0.00     0.022 A 
BRANCH  83  87
ATOM     87  S   UNL A   1      41.753  36.695  38.530  1.00  0.00     0.124 S 
ATOM     88  O   UNL A   1      42.294  36.961  37.203  1.00  0.00    -0.237 OA
ATOM     89  O   UNL A   1      40.886  37.726  39.090  1.00  0.00    -0.237 OA
ATOM     90  O   UNL A   1      42.689  36.091  39.477  1.00  0.00    -0.744 OA
ENDBRANCH  83  87
ENDBRANCH  56  80
BRANCH  68  91
ATOM     91  C   UNL A   1      44.404  28.342  35.352  1.00  0.00     0.023 A 
ATOM     92  C   UNL A   1      44.261  27.212  36.176  1.00  0.00     0.031 A 
ATOM     93  C   UNL A   1      45.674  28.940  35.269  1.00  0.00     0.131 A 
ATOM     94  C   UNL A   1      45.354  26.750  36.927  1.00  0.00     0.055 A 
ATOM     95  C   UNL A   1      46.773  28.439  35.968  1.00  0.00     0.041 A 
ATOM     96  F   UNL A   1      45.870  30.023  34.500  1.00  0.00    -0.206 F 
ATOM     97  C   UNL A   1      46.613  27.345  36.814  1.00  0.00     0.022 A 
BRANCH  94  98
ATOM     98  S   UNL A   1      45.087  25.417  38.129  1.00  0.00     0.124 S 
ATOM     99  O   UNL A   1      45.193  26.128  39.399  1.00  0.00    -0.237 OA
ATOM    100  O   UNL A   1      43.755  24.940  37.774  1.00  0.00    -0.237 OA
ATOM    101  O   UNL A   1      46.174  24.481  37.850  1.00  0.00    -0.744 OA
ENDBRANCH  94  98
ENDBRANCH  68  91
ENDBRANCH  42  43
ENDBRANCH  35  37
ENDBRANCH  34  35
ENDBRANCH  33  34
ENDBRANCH  32  33
ENDBRANCH   1  32
TORSDOF 20
ENDMDL
MODEL 2
REMARK VINA RESULT:     -12.0      1.738      2.030
REMARK SMILES C[C@H](C(=O)OCCOCCOC(=O)c1ccc(-c2c3nc(c(-c4cc(S(=O)(=O)[O-])ccc4F)c4ccc([nH]4)c(-c4cc(S(=O)(=O)[O-])ccc4F)c4nc(c(-c5cc(S(=O)(=O)[O-])ccc5F)c5ccc2[nH]5)C=C4)C=C3)cc1)c1ccc2c3cc(Cl)ccc3n(C(=O)c3ccc(Cl)cc3)c2c1
REMARK SMILES IDX 8 1 7 2 6 3 5 4 3 5 4 6 2 7 1 8 77 9 78 10 99 11 79 12 98 13
REMARK SMILES IDX 80 14 88 15 81 16 87 17 82 18 86 19 83 20 85 21 84 22 89 23
REMARK SMILES IDX 90 24 91 25 92 26 97 27 93 28 96 29 94 30 95 31 9 32 10 33
REMARK SMILES IDX 11 34 12 35 13 36 14 37 15 38 76 39 16 40 75 41 17 42 18 43
REMARK SMILES IDX 19 44 69 45 20 46 74 47 68 48 70 49 21 50 73 51 67 52 66 53
REMARK SMILES IDX 22 55 54 56 34 57 53 58 35 59 38 60 52 61 71 62 36 63 37 64
REMARK SMILES IDX 51 66 72 67 39 68 23 69 24 70 32 71 25 72 31 73 33 74 30 75
REMARK SMILES IDX 26 76 27 77 28 78 29 79 55 80 56 81 64 82 57 83 63 84 65 85
REMARK SMILES IDX 62 86 58 87 59 88 60 89 61 90 40 91 41 92 49 93 42 94 48 95
REMARK SMILES IDX 50 96 47 97 43 98 44 99 45 100 46 101
REMARK H PARENT 70 54 38 65
REMARK Flexibility Score: inf
ROOT
ATOM      1  O   UNL A   1      31.945  31.134  26.808  1.00  0.00    -0.374 OA
ENDROOT
BRANCH   1   2
ATOM      2  C   UNL A   1      32.387  29.994  26.072  1.00  0.00     0.202 C 
BRANCH   2   3
ATOM      3  C   UNL A   1      31.318  29.234  25.281  1.00  0.00     0.261 C 
BRANCH   3   4
ATOM      4  O   UNL A   1      31.776  27.922  24.911  1.00  0.00    -0.463 OA
BRANCH   4   5
ATOM      5  C   UNL A   1      31.390  26.910  25.728  1.00  0.00     0.313 C 
ATOM      6  O   UNL A   1      30.994  27.075  26.880  1.00  0.00    -0.252 OA
BRANCH   5   7
ATOM      7  C   UNL A   1      31.464  25.519  25.093  1.00  0.00     0.126 C 
ATOM      8  C   UNL A   1      30.859  25.648  23.681  1.00  0.00     0.025 C 
BRANCH   7   9
ATOM      9  C   UNL A   1      32.816  24.790  25.116  1.00  0.00    -0.032 A 
ATOM     10  C   UNL A   1      33.983  25.491  25.436  1.00  0.00     0.005 A 
ATOM     11  C   UNL A   1      32.922  23.404  24.885  1.00  0.00     0.032 A 
ATOM     12  C   UNL A   1      35.221  24.838  25.559  1.00  0.00     0.011 A 
ATOM     13  C   UNL A   1      34.175  22.752  24.965  1.00  0.00     0.057 A 
ATOM     14  C   UNL A   1      35.316  23.447  25.342  1.00  0.00     0.008 A 
ATOM     15  N   UNL A   1      34.522  21.408  24.745  1.00  0.00    -0.276 N 
ATOM     16  C   UNL A   1      36.381  22.505  25.417  1.00  0.00     0.009 A 
ATOM     17  C   UNL A   1      35.894  21.262  24.985  1.00  0.00     0.057 A 
ATOM     18  C   UNL A   1      37.740  22.633  25.783  1.00  0.00     0.031 A 
ATOM     19  C   UNL A   1      36.778  20.180  24.794  1.00  0.00     0.029 A 
ATOM     20  C   UNL A   1      38.590  21.537  25.664  1.00  0.00     0.041 A 
ATOM     21  C   UNL A   1      38.123  20.333  25.155  1.00  0.00     0.023 A 
ATOM     22  Cl  UNL A   1      40.240  21.687  26.127  1.00  0.00    -0.084 Cl
BRANCH  15  23
ATOM     23  C   UNL A   1      33.590  20.438  24.285  1.00  0.00     0.262 C 
ATOM     24  O   UNL A   1      32.750  20.848  23.480  1.00  0.00    -0.268 OA
BRANCH  23  25
ATOM     25  C   UNL A   1      33.450  19.002  24.681  1.00  0.00     0.040 A 
ATOM     26  C   UNL A   1      34.037  18.047  23.823  1.00  0.00     0.015 A 
ATOM     27  C   UNL A   1      32.670  18.545  25.747  1.00  0.00     0.015 A 
ATOM     28  C   UNL A   1      33.867  16.676  24.033  1.00  0.00     0.021 A 
ATOM     29  C   UNL A   1      32.528  17.166  25.979  1.00  0.00     0.021 A 
ATOM     30  C   UNL A   1      33.118  16.240  25.117  1.00  0.00     0.041 A 
ATOM     31  Cl  UNL A   1      32.896  14.554  25.376  1.00  0.00    -0.084 Cl
ENDBRANCH  23  25
ENDBRANCH  15  23
ENDBRANCH   7   9
ENDBRANCH   5   7
ENDBRANCH   4   5
ENDBRANCH   3   4
ENDBRANCH   2   3
ENDBRANCH   1   2
BRANCH   1  32
ATOM     32  C   UNL A   1      32.943  31.996  27.359  1.00  0.00     0.202 C 
BRANCH  32  33
ATOM     33  C   UNL A   1      32.691  33.508  27.289  1.00  0.00     0.261 C 
BRANCH  33  34
ATOM     34  O   UNL A   1      32.495  34.111  28.582  1.00  0.00    -0.460 OA
BRANCH  34  35
ATOM     35  C   UNL A   1      33.534  34.854  29.026  1.00  0.00     0.338 C 
ATOM     36  O   UNL A   1      33.536  36.066  29.235  1.00  0.00    -0.246 OA
BRANCH  35  37
ATOM     37  C   UNL A   1      34.656  33.990  29.431  1.00  0.00     0.060 A 
ATOM     38  C   UNL A   1      34.398  33.001  30.390  1.00  0.00     0.016 A 
ATOM     39  C   UNL A   1      35.956  34.202  28.965  1.00  0.00     0.016 A 
ATOM     40  C   UNL A   1      35.446  32.254  30.925  1.00  0.00     0.010 A 
ATOM     41  C   UNL A   1      37.008  33.454  29.511  1.00  0.00     0.010 A 
ATOM     42  C   UNL A   1      36.764  32.502  30.520  1.00  0.00    -0.014 A 
BRANCH  42  43
ATOM     43  C   UNL A   1      37.883  31.872  31.268  1.00  0.00     0.031 A 
ATOM     44  C   UNL A   1      38.643  30.739  30.629  1.00  0.00     0.074 A 
ATOM     45  C   UNL A   1      38.256  32.335  32.475  1.00  0.00     0.049 A 
ATOM     46  N   UNL A   1      39.640  30.036  31.099  1.00  0.00    -0.248 NA
ATOM     47  C   UNL A   1      38.215  30.348  29.276  1.00  0.00     0.031 C 
ATOM     48  C   UNL A   1      37.636  33.461  33.172  1.00  0.00     0.029 A 
ATOM     49  N   UNL A   1      39.248  31.917  33.327  1.00  0.00    -0.354 N 
ATOM     50  C   UNL A   1      39.959  29.115  30.105  1.00  0.00     0.074 A 
ATOM     51  C   UNL A   1      39.019  29.327  29.023  1.00  0.00     0.031 C 
ATOM     52  C   UNL A   1      38.262  33.643  34.348  1.00  0.00     0.029 A 
ATOM     53  C   UNL A   1      39.299  32.624  34.506  1.00  0.00     0.049 A 
ATOM     54  H   UNL A   1      39.865  31.180  33.114  1.00  0.00     0.167 HD
ATOM     55  C   UNL A   1      40.948  28.187  30.092  1.00  0.00     0.034 A 
ATOM     56  C   UNL A   1      40.076  32.454  35.594  1.00  0.00     0.034 A 
ATOM     57  C   UNL A   1      41.875  27.983  31.179  1.00  0.00     0.049 A 
ATOM     58  C   UNL A   1      41.109  31.352  35.596  1.00  0.00     0.074 A 
ATOM     59  C   UNL A   1      42.925  27.085  31.261  1.00  0.00     0.029 A 
ATOM     60  N   UNL A   1      41.854  28.676  32.384  1.00  0.00    -0.354 N 
ATOM     61  N   UNL A   1      41.404  30.492  34.647  1.00  0.00    -0.248 NA
ATOM     62  C   UNL A   1      41.918  31.203  36.813  1.00  0.00     0.031 C 
ATOM     63  C   UNL A   1      43.486  27.179  32.539  1.00  0.00     0.029 A 
ATOM     64  C   UNL A   1      42.845  28.197  33.228  1.00  0.00     0.049 A 
ATOM     65  H   UNL A   1      41.227  29.401  32.606  1.00  0.00     0.167 HD
ATOM     66  C   UNL A   1      42.455  29.724  35.143  1.00  0.00     0.074 A 
ATOM     67  C   UNL A   1      42.748  30.230  36.468  1.00  0.00     0.031 C 
ATOM     68  C   UNL A   1      43.122  28.698  34.554  1.00  0.00     0.034 A 
BRANCH  55  69
ATOM     69  C   UNL A   1      41.037  27.284  28.883  1.00  0.00     0.023 A 
ATOM     70  C   UNL A   1      42.003  27.474  27.879  1.00  0.00     0.031 A 
ATOM     71  C   UNL A   1      40.117  26.232  28.718  1.00  0.00     0.131 A 
ATOM     72  C   UNL A   1      41.982  26.675  26.726  1.00  0.00     0.055 A 
ATOM     73  C   UNL A   1      40.153  25.388  27.607  1.00  0.00     0.041 A 
ATOM     74  F   UNL A   1      39.157  26.015  29.630  1.00  0.00    -0.206 F 
ATOM     75  C   UNL A   1      41.079  25.617  26.594  1.00  0.00     0.022 A 
BRANCH  72  76
ATOM     76  S   UNL A   1      43.053  27.132  25.333  1.00  0.00     0.124 S 
ATOM     77  O   UNL A   1      44.239  27.631  26.024  1.00  0.00    -0.237 OA
ATOM     78  O   UNL A   1      43.208  25.865  24.627  1.00  0.00    -0.237 OA
ATOM     79  O   UNL A   1      42.278  28.150  24.626  1.00  0.00    -0.744 OA
ENDBRANCH  72  76
ENDBRANCH  55  69
BRANCH  56  80
ATOM     80  C   UNL A   1      39.889  33.317  36.798  1.00  0.00     0.023 A 
ATOM     81  C   UNL A   1      39.161  32.868  37.911  1.00  0.00     0.031 A 
ATOM     82  C   UNL A   1      40.392  34.631  36.826  1.00  0.00     0.131 A 
ATOM     83  C   UNL A   1      38.918  33.739  38.986  1.00  0.00     0.055 A 
ATOM     84  C   UNL A   1      40.194  35.475  37.920  1.00  0.00     0.041 A 
ATOM     85  F   UNL A   1      41.092  35.112  35.786  1.00  0.00    -0.206 F 
ATOM     86  C   UNL A   1      39.443  35.033  39.004  1.00  0.00     0.022 A 
BRANCH  83  87
ATOM     87  S   UNL A   1      37.830  33.183  40.326  1.00  0.00     0.124 S 
ATOM     88  O   UNL A   1      36.657  32.733  39.588  1.00  0.00    -0.237 OA
ATOM     89  O   UNL A   1      38.634  32.141  40.955  1.00  0.00    -0.237 OA
ATOM     90  O   UNL A   1      37.639  34.389  41.130  1.00  0.00    -0.744 OA
ENDBRANCH  83  87
ENDBRANCH  56  80
BRANCH  68  91
ATOM     91  C   UNL A   1      44.270  28.088  35.325  1.00  0.00     0.023 A 
ATOM     92  C   UNL A   1      45.590  28.549  35.182  1.00  0.00     0.031 A 
ATOM     93  C   UNL A   1      44.037  27.020  36.210  1.00  0.00     0.131 A 
ATOM     94  C   UNL A   1      46.634  27.908  35.871  1.00  0.00     0.055 A 
ATOM     95  C   UNL A   1      45.069  26.428  36.940  1.00  0.00     0.041 A 
ATOM     96  F   UNL A   1      42.797  26.535  36.385  1.00  0.00    -0.206 F 
ATOM     97  C   UNL A   1      46.379  26.864  36.761  1.00  0.00     0.022 A 
BRANCH  94  98
ATOM     98  S   UNL A   1      48.345  28.397  35.513  1.00  0.00     0.124 S 
ATOM     99  O   UNL A   1      49.087  27.194  35.878  1.00  0.00    -0.237 OA
ATOM    100  O   UNL A   1      48.289  28.704  34.088  1.00  0.00    -0.237 OA
ATOM    101  O   UNL A   1      48.562  29.549  36.385  1.00  0.00    -0.744 OA
ENDBRANCH  94  98
ENDBRANCH  68  91
ENDBRANCH  42  43
ENDBRANCH  35  37
ENDBRANCH  34  35
ENDBRANCH  33  34
ENDBRANCH  32  33
ENDBRANCH   1  32
TORSDOF 20
ENDMDL
MODEL 3
REMARK VINA RESULT:     -11.9      5.734     10.534
REMARK SMILES C[C@H](C(=O)OCCOCCOC(=O)c1ccc(-c2c3nc(c(-c4cc(S(=O)(=O)[O-])ccc4F)c4ccc([nH]4)c(-c4cc(S(=O)(=O)[O-])ccc4F)c4nc(c(-c5cc(S(=O)(=O)[O-])ccc5F)c5ccc2[nH]5)C=C4)C=C3)cc1)c1ccc2c3cc(Cl)ccc3n(C(=O)c3ccc(Cl)cc3)c2c1
REMARK SMILES IDX 8 1 7 2 6 3 5 4 3 5 4 6 2 7 1 8 77 9 78 10 99 11 79 12 98 13
REMARK SMILES IDX 80 14 88 15 81 16 87 17 82 18 86 19 83 20 85 21 84 22 89 23
REMARK SMILES IDX 90 24 91 25 92 26 97 27 93 28 96 29 94 30 95 31 9 32 10 33
REMARK SMILES IDX 11 34 12 35 13 36 14 37 15 38 76 39 16 40 75 41 17 42 18 43
REMARK SMILES IDX 19 44 69 45 20 46 74 47 68 48 70 49 21 50 73 51 67 52 66 53
REMARK SMILES IDX 22 55 54 56 34 57 53 58 35 59 38 60 52 61 71 62 36 63 37 64
REMARK SMILES IDX 51 66 72 67 39 68 23 69 24 70 32 71 25 72 31 73 33 74 30 75
REMARK SMILES IDX 26 76 27 77 28 78 29 79 55 80 56 81 64 82 57 83 63 84 65 85
REMARK SMILES IDX 62 86 58 87 59 88 60 89 61 90 40 91 41 92 49 93 42 94 48 95
REMARK SMILES IDX 50 96 47 97 43 98 44 99 45 100 46 101
REMARK H PARENT 70 54 38 65
REMARK Flexibility Score: inf
ROOT
ATOM      1  O   UNL A   1      37.574  21.652  24.764  1.00  0.00    -0.374 OA
ENDROOT
BRANCH   1   2
ATOM      2  C   UNL A   1      37.054  22.664  25.627  1.00  0.00     0.202 C 
BRANCH   2   3
ATOM      3  C   UNL A   1      35.637  22.445  26.163  1.00  0.00     0.261 C 
BRANCH   3   4
ATOM      4  O   UNL A   1      34.836  23.630  26.025  1.00  0.00    -0.463 OA
BRANCH   4   5
ATOM      5  C   UNL A   1      33.783  23.536  25.175  1.00  0.00     0.313 C 
ATOM      6  O   UNL A   1      32.728  22.972  25.455  1.00  0.00    -0.252 OA
BRANCH   5   7
ATOM      7  C   UNL A   1      34.000  24.215  23.820  1.00  0.00     0.126 C 
ATOM      8  C   UNL A   1      33.952  23.101  22.757  1.00  0.00     0.025 C 
BRANCH   7   9
ATOM      9  C   UNL A   1      33.122  25.429  23.477  1.00  0.00    -0.032 A 
ATOM     10  C   UNL A   1      32.600  25.571  22.187  1.00  0.00     0.005 A 
ATOM     11  C   UNL A   1      32.765  26.391  24.442  1.00  0.00     0.032 A 
ATOM     12  C   UNL A   1      31.719  26.616  21.863  1.00  0.00     0.011 A 
ATOM     13  C   UNL A   1      31.913  27.469  24.106  1.00  0.00     0.057 A 
ATOM     14  C   UNL A   1      31.353  27.566  22.840  1.00  0.00     0.008 A 
ATOM     15  N   UNL A   1      31.455  28.549  24.882  1.00  0.00    -0.276 N 
ATOM     16  C   UNL A   1      30.483  28.693  22.846  1.00  0.00     0.009 A 
ATOM     17  C   UNL A   1      30.602  29.329  24.092  1.00  0.00     0.057 A 
ATOM     18  C   UNL A   1      29.631  29.243  21.861  1.00  0.00     0.031 A 
ATOM     19  C   UNL A   1      29.980  30.574  24.317  1.00  0.00     0.029 A 
ATOM     20  C   UNL A   1      28.958  30.434  22.121  1.00  0.00     0.041 A 
ATOM     21  C   UNL A   1      29.147  31.104  23.322  1.00  0.00     0.023 A 
ATOM     22  Cl  UNL A   1      27.907  31.093  20.929  1.00  0.00    -0.084 Cl
BRANCH  15  23
ATOM     23  C   UNL A   1      31.892  28.778  26.215  1.00  0.00     0.262 C 
ATOM     24  O   UNL A   1      31.402  28.035  27.070  1.00  0.00    -0.268 OA
BRANCH  23  25
ATOM     25  C   UNL A   1      32.820  29.829  26.737  1.00  0.00     0.040 A 
ATOM     26  C   UNL A   1      34.101  29.399  27.142  1.00  0.00     0.015 A 
ATOM     27  C   UNL A   1      32.460  31.158  26.977  1.00  0.00     0.015 A 
ATOM     28  C   UNL A   1      35.005  30.272  27.753  1.00  0.00     0.021 A 
ATOM     29  C   UNL A   1      33.382  32.046  27.559  1.00  0.00     0.021 A 
ATOM     30  C   UNL A   1      34.644  31.597  27.951  1.00  0.00     0.041 A 
ATOM     31  Cl  UNL A   1      35.747  32.677  28.711  1.00  0.00    -0.084 Cl
ENDBRANCH  23  25
ENDBRANCH  15  23
ENDBRANCH   7   9
ENDBRANCH   5   7
ENDBRANCH   4   5
ENDBRANCH   3   4
ENDBRANCH   2   3
ENDBRANCH   1   2
BRANCH   1  32
ATOM     32  C   UNL A   1      38.391  20.636  25.351  1.00  0.00     0.202 C 
BRANCH  32  33
ATOM     33  C   UNL A   1      39.648  21.085  26.107  1.00  0.00     0.261 C 
BRANCH  33  34
ATOM     34  O   UNL A   1      40.438  19.985  26.598  1.00  0.00    -0.460 OA
BRANCH  34  35
ATOM     35  C   UNL A   1      41.679  19.895  26.067  1.00  0.00     0.338 C 
ATOM     36  O   UNL A   1      42.116  18.981  25.371  1.00  0.00    -0.246 OA
BRANCH  35  37
ATOM     37  C   UNL A   1      42.421  21.152  26.262  1.00  0.00     0.060 A 
ATOM     38  C   UNL A   1      42.742  21.516  27.577  1.00  0.00     0.016 A 
ATOM     39  C   UNL A   1      42.711  22.010  25.199  1.00  0.00     0.016 A 
ATOM     40  C   UNL A   1      43.308  22.762  27.840  1.00  0.00     0.010 A 
ATOM     41  C   UNL A   1      43.273  23.266  25.468  1.00  0.00     0.010 A 
ATOM     42  C   UNL A   1      43.540  23.663  26.792  1.00  0.00    -0.014 A 
BRANCH  42  43
ATOM     43  C   UNL A   1      43.915  25.066  27.112  1.00  0.00     0.031 A 
ATOM     44  C   UNL A   1      45.315  25.534  26.815  1.00  0.00     0.074 A 
ATOM     45  C   UNL A   1      43.009  25.928  27.608  1.00  0.00     0.049 A 
ATOM     46  N   UNL A   1      45.863  26.703  27.022  1.00  0.00    -0.248 NA
ATOM     47  C   UNL A   1      46.217  24.545  26.204  1.00  0.00     0.031 C 
ATOM     48  C   UNL A   1      41.608  25.610  27.884  1.00  0.00     0.029 A 
ATOM     49  N   UNL A   1      43.130  27.248  27.964  1.00  0.00    -0.354 N 
ATOM     50  C   UNL A   1      47.176  26.593  26.572  1.00  0.00     0.074 A 
ATOM     51  C   UNL A   1      47.349  25.228  26.120  1.00  0.00     0.031 C 
ATOM     52  C   UNL A   1      41.000  26.707  28.369  1.00  0.00     0.029 A 
ATOM     53  C   UNL A   1      41.975  27.791  28.476  1.00  0.00     0.049 A 
ATOM     54  H   UNL A   1      43.966  27.758  27.862  1.00  0.00     0.167 HD
ATOM     55  C   UNL A   1      48.143  27.544  26.533  1.00  0.00     0.034 A 
ATOM     56  C   UNL A   1      41.737  29.014  28.992  1.00  0.00     0.034 A 
ATOM     57  C   UNL A   1      47.959  28.899  26.993  1.00  0.00     0.049 A 
ATOM     58  C   UNL A   1      42.856  30.029  29.024  1.00  0.00     0.074 A 
ATOM     59  C   UNL A   1      48.865  29.946  26.979  1.00  0.00     0.029 A 
ATOM     60  N   UNL A   1      46.793  29.394  27.565  1.00  0.00    -0.354 N 
ATOM     61  N   UNL A   1      44.091  29.914  28.591  1.00  0.00    -0.248 NA
ATOM     62  C   UNL A   1      42.546  31.339  29.611  1.00  0.00     0.031 C 
ATOM     63  C   UNL A   1      48.276  31.045  27.613  1.00  0.00     0.029 A 
ATOM     64  C   UNL A   1      46.972  30.717  27.944  1.00  0.00     0.049 A 
ATOM     65  H   UNL A   1      45.961  28.881  27.683  1.00  0.00     0.167 HD
ATOM     66  C   UNL A   1      44.692  31.149  28.822  1.00  0.00     0.074 A 
ATOM     67  C   UNL A   1      43.681  31.995  29.422  1.00  0.00     0.031 C 
ATOM     68  C   UNL A   1      45.962  31.550  28.556  1.00  0.00     0.034 A 
BRANCH  55  69
ATOM     69  C   UNL A   1      49.505  27.127  26.025  1.00  0.00     0.023 A 
ATOM     70  C   UNL A   1      49.946  27.444  24.728  1.00  0.00     0.031 A 
ATOM     71  C   UNL A   1      50.364  26.374  26.844  1.00  0.00     0.131 A 
ATOM     72  C   UNL A   1      51.175  26.949  24.265  1.00  0.00     0.055 A 
ATOM     73  C   UNL A   1      51.621  25.954  26.407  1.00  0.00     0.041 A 
ATOM     74  F   UNL A   1      49.990  26.021  28.085  1.00  0.00    -0.206 F 
ATOM     75  C   UNL A   1      52.027  26.227  25.104  1.00  0.00     0.022 A 
BRANCH  72  76
ATOM     76  S   UNL A   1      51.578  27.133  22.506  1.00  0.00     0.124 S 
ATOM     77  O   UNL A   1      50.310  26.777  21.873  1.00  0.00    -0.237 OA
ATOM     78  O   UNL A   1      51.966  28.536  22.416  1.00  0.00    -0.237 OA
ATOM     79  O   UNL A   1      52.660  26.172  22.300  1.00  0.00    -0.744 OA
ENDBRANCH  72  76
ENDBRANCH  55  69
BRANCH  56  80
ATOM     80  C   UNL A   1      40.398  29.347  29.562  1.00  0.00     0.023 A 
ATOM     81  C   UNL A   1      40.164  29.307  30.945  1.00  0.00     0.031 A 
ATOM     82  C   UNL A   1      39.315  29.656  28.718  1.00  0.00     0.131 A 
ATOM     83  C   UNL A   1      38.868  29.526  31.442  1.00  0.00     0.055 A 
ATOM     84  C   UNL A   1      38.042  29.929  29.220  1.00  0.00     0.041 A 
ATOM     85  F   UNL A   1      39.483  29.705  27.387  1.00  0.00    -0.206 F 
ATOM     86  C   UNL A   1      37.810  29.852  30.590  1.00  0.00     0.022 A 
BRANCH  83  87
ATOM     87  S   UNL A   1      38.567  29.296  33.215  1.00  0.00     0.124 S 
ATOM     88  O   UNL A   1      38.489  30.674  33.684  1.00  0.00    -0.237 OA
ATOM     89  O   UNL A   1      37.317  28.544  33.215  1.00  0.00    -0.237 OA
ATOM     90  O   UNL A   1      39.741  28.548  33.664  1.00  0.00    -0.744 OA
ENDBRANCH  83  87
ENDBRANCH  56  80
BRANCH  68  91
ATOM     91  C   UNL A   1      46.313  32.986  28.869  1.00  0.00     0.023 A 
ATOM     92  C   UNL A   1      46.063  34.028  27.960  1.00  0.00     0.031 A 
ATOM     93  C   UNL A   1      46.916  33.313  30.096  1.00  0.00     0.131 A 
ATOM     94  C   UNL A   1      46.465  35.338  28.268  1.00  0.00     0.055 A 
ATOM     95  C   UNL A   1      47.257  34.627  30.424  1.00  0.00     0.041 A 
ATOM     96  F   UNL A   1      47.183  32.360  31.003  1.00  0.00    -0.206 F 
ATOM     97  C   UNL A   1      47.043  35.646  29.501  1.00  0.00     0.022 A 
BRANCH  94  98
ATOM     98  S   UNL A   1      46.309  36.622  26.995  1.00  0.00     0.124 S 
ATOM     99  O   UNL A   1      44.882  36.926  27.043  1.00  0.00    -0.237 OA
ATOM    100  O   UNL A   1      47.199  37.665  27.493  1.00  0.00    -0.237 OA
ATOM    101  O   UNL A   1      46.760  35.954  25.776  1.00  0.00    -0.744 OA
ENDBRANCH  94  98
ENDBRANCH  68  91
ENDBRANCH  42  43
ENDBRANCH  35  37
ENDBRANCH  34  35
ENDBRANCH  33  34
ENDBRANCH  32  33
ENDBRANCH   1  32
TORSDOF 20
ENDMDL
