MODEL 1
REMARK VINA RESULT:     -10.5      0.000      0.000
REMARK SMILES C[C@@H]1SCCC[C@H]1[N@H+]1CCC[C@H](CCC(=O)OCCOCCOC(=O)c2ccc(-c3c4nc(c(-c5cc(S(=O)(=O)[O-])ccc5F)c5ccc([nH]5)c(-c5cc(S(=O)(=O)[O-])ccc5F)c5nc(c(-c6cc(S(=O)(=O)[O-])ccc6F)c6ccc3[nH]6)C=C5)C=C4)cc2)C1
REMARK SMILES IDX 20 1 19 2 18 3 17 4 15 5 16 6 14 7 13 8 12 9 8 10 9 11 89 12
REMARK SMILES IDX 10 14 11 15 7 16 1 17 2 18 3 19 4 20 6 21 5 22 21 23 22 24
REMARK SMILES IDX 23 25 24 26 25 27 26 28 27 29 88 30 28 31 87 32 29 33 30 34
REMARK SMILES IDX 31 35 81 36 32 37 86 38 80 39 82 40 33 41 85 42 79 43 78 44
REMARK SMILES IDX 34 46 66 47 46 48 65 49 47 50 50 51 64 52 83 53 48 54 49 55
REMARK SMILES IDX 63 57 84 58 51 59 35 60 36 61 44 62 37 63 43 64 45 65 42 66
REMARK SMILES IDX 38 67 39 68 40 69 41 70 67 71 68 72 76 73 69 74 75 75 77 76
REMARK SMILES IDX 74 77 70 78 71 79 72 80 73 81 52 82 53 83 61 84 54 85 60 86
REMARK SMILES IDX 62 87 59 88 55 89 56 90 57 91 58 92
REMARK H PARENT 8 13 82 45 50 56
REMARK Flexibility Score: inf
ROOT
ATOM      1  O   UNL A   1      32.344  30.871  26.820  1.00  0.00    -0.374 OA
ENDROOT
BRANCH   1   2
ATOM      2  C   UNL A   1      32.078  29.539  26.377  1.00  0.00     0.202 C 
BRANCH   2   3
ATOM      3  C   UNL A   1      32.020  29.385  24.852  1.00  0.00     0.261 C 
BRANCH   3   4
ATOM      4  O   UNL A   1      30.656  29.366  24.382  1.00  0.00    -0.463 OA
BRANCH   4   5
ATOM      5  C   UNL A   1      30.411  28.750  23.205  1.00  0.00     0.305 C 
ATOM      6  O   UNL A   1      30.921  29.051  22.132  1.00  0.00    -0.252 OA
BRANCH   5   7
ATOM      7  C   UNL A   1      29.360  27.665  23.327  1.00  0.00     0.123 C 
BRANCH   7   8
ATOM      8  C   UNL A   1      29.560  26.543  24.359  1.00  0.00     0.021 C 
BRANCH   8   9
ATOM      9  C   UNL A   1      30.565  25.392  24.069  1.00  0.00     0.045 C 
ATOM     10  N   UNL A   1      32.807  24.440  24.751  1.00  0.00    -0.331 N 
ATOM     11  C   UNL A   1      33.406  24.982  23.547  1.00  0.00     0.262 C 
ATOM     12  C   UNL A   1      31.654  25.242  25.142  1.00  0.00     0.265 C 
ATOM     13  H   UNL A   1      33.559  24.545  25.431  1.00  0.00     0.348 HD
ATOM     14  C   UNL A   1      32.489  24.941  22.344  1.00  0.00     0.062 C 
ATOM     15  C   UNL A   1      31.064  25.412  22.612  1.00  0.00     0.015 C 
BRANCH  10  16
ATOM     16  C   UNL A   1      32.767  22.991  25.039  1.00  0.00     0.196 C 
ATOM     17  C   UNL A   1      33.023  20.595  24.164  1.00  0.00     0.026 C 
ATOM     18  C   UNL A   1      33.641  22.001  24.211  1.00  0.00     0.101 C 
ATOM     19  S   UNL A   1      35.381  21.824  24.743  1.00  0.00    -0.153 SA
ATOM     20  C   UNL A   1      35.173  21.613  26.535  1.00  0.00     0.070 C 
ATOM     21  C   UNL A   1      32.810  22.655  26.544  1.00  0.00     0.067 C 
ATOM     22  C   UNL A   1      34.190  22.567  27.187  1.00  0.00     0.017 C 
ENDBRANCH  10  16
ENDBRANCH   8   9
ENDBRANCH   7   8
ENDBRANCH   5   7
ENDBRANCH   4   5
ENDBRANCH   3   4
ENDBRANCH   2   3
ENDBRANCH   1   2
BRANCH   1  23
ATOM     23  C   UNL A   1      31.366  31.853  26.482  1.00  0.00     0.202 C 
BRANCH  23  24
ATOM     24  C   UNL A   1      31.803  33.311  26.686  1.00  0.00     0.261 C 
BRANCH  24  25
ATOM     25  O   UNL A   1      32.176  33.591  28.048  1.00  0.00    -0.460 OA
BRANCH  25  26
ATOM     26  C   UNL A   1      33.249  34.409  28.198  1.00  0.00     0.338 C 
ATOM     27  O   UNL A   1      33.244  35.629  28.157  1.00  0.00    -0.246 OA
BRANCH  26  28
ATOM     28  C   UNL A   1      34.437  33.622  28.599  1.00  0.00     0.060 A 
ATOM     29  C   UNL A   1      34.217  32.367  29.181  1.00  0.00     0.016 A 
ATOM     30  C   UNL A   1      35.742  34.096  28.434  1.00  0.00     0.016 A 
ATOM     31  C   UNL A   1      35.294  31.594  29.622  1.00  0.00     0.010 A 
ATOM     32  C   UNL A   1      36.823  33.317  28.876  1.00  0.00     0.010 A 
ATOM     33  C   UNL A   1      36.606  32.072  29.496  1.00  0.00    -0.014 A 
BRANCH  33  34
ATOM     34  C   UNL A   1      37.731  31.342  30.146  1.00  0.00     0.031 A 
ATOM     35  C   UNL A   1      38.097  31.692  31.565  1.00  0.00     0.074 A 
ATOM     36  C   UNL A   1      38.393  30.354  29.512  1.00  0.00     0.049 A 
ATOM     37  N   UNL A   1      39.069  31.231  32.311  1.00  0.00    -0.248 NA
ATOM     38  C   UNL A   1      37.246  32.689  32.232  1.00  0.00     0.031 C 
ATOM     39  C   UNL A   1      38.091  29.858  28.171  1.00  0.00     0.029 A 
ATOM     40  N   UNL A   1      39.461  29.589  29.917  1.00  0.00    -0.354 N 
ATOM     41  C   UNL A   1      38.938  31.870  33.539  1.00  0.00     0.074 A 
ATOM     42  C   UNL A   1      37.826  32.789  33.419  1.00  0.00     0.031 C 
ATOM     43  C   UNL A   1      38.965  28.884  27.856  1.00  0.00     0.029 A 
ATOM     44  C   UNL A   1      39.910  28.708  28.958  1.00  0.00     0.049 A 
ATOM     45  H   UNL A   1      39.867  29.663  30.809  1.00  0.00     0.167 HD
ATOM     46  C   UNL A   1      39.661  31.693  34.673  1.00  0.00     0.034 A 
ATOM     47  C   UNL A   1      40.977  27.879  28.958  1.00  0.00     0.034 A 
ATOM     48  C   UNL A   1      40.777  30.788  34.789  1.00  0.00     0.049 A 
ATOM     49  C   UNL A   1      41.867  27.821  30.180  1.00  0.00     0.074 A 
ATOM     50  C   UNL A   1      41.578  30.545  35.892  1.00  0.00     0.029 A 
ATOM     51  N   UNL A   1      41.256  29.983  33.766  1.00  0.00    -0.354 N 
ATOM     52  N   UNL A   1      41.736  28.440  31.330  1.00  0.00    -0.248 NA
ATOM     53  C   UNL A   1      43.049  26.950  30.103  1.00  0.00     0.031 C 
ATOM     54  C   UNL A   1      42.581  29.646  35.517  1.00  0.00     0.029 A 
ATOM     55  C   UNL A   1      42.363  29.272  34.201  1.00  0.00     0.049 A 
ATOM     56  H   UNL A   1      40.868  29.926  32.863  1.00  0.00     0.167 HD
ATOM     57  C   UNL A   1      42.795  28.000  32.122  1.00  0.00     0.074 A 
ATOM     58  C   UNL A   1      43.551  27.060  31.323  1.00  0.00     0.031 C 
ATOM     59  C   UNL A   1      43.111  28.336  33.397  1.00  0.00     0.034 A 
BRANCH  46  60
ATOM     60  C   UNL A   1      39.280  32.524  35.871  1.00  0.00     0.023 A 
ATOM     61  C   UNL A   1      39.697  33.860  35.999  1.00  0.00     0.031 A 
ATOM     62  C   UNL A   1      38.498  31.973  36.902  1.00  0.00     0.131 A 
ATOM     63  C   UNL A   1      39.379  34.584  37.157  1.00  0.00     0.055 A 
ATOM     64  C   UNL A   1      38.125  32.721  38.019  1.00  0.00     0.041 A 
ATOM     65  F   UNL A   1      38.090  30.696  36.841  1.00  0.00    -0.206 F 
ATOM     66  C   UNL A   1      38.575  34.032  38.158  1.00  0.00     0.022 A 
BRANCH  63  67
ATOM     67  S   UNL A   1      40.131  36.217  37.393  1.00  0.00     0.124 S 
ATOM     68  O   UNL A   1      41.496  35.860  37.771  1.00  0.00    -0.237 OA
ATOM     69  O   UNL A   1      39.971  36.830  36.080  1.00  0.00    -0.237 OA
ATOM     70  O   UNL A   1      39.330  36.811  38.461  1.00  0.00    -0.744 OA
ENDBRANCH  63  67
ENDBRANCH  46  60
BRANCH  47  71
ATOM     71  C   UNL A   1      41.327  27.070  27.752  1.00  0.00     0.023 A 
ATOM     72  C   UNL A   1      41.101  25.685  27.713  1.00  0.00     0.031 A 
ATOM     73  C   UNL A   1      42.007  27.654  26.670  1.00  0.00     0.131 A 
ATOM     74  C   UNL A   1      41.606  24.924  26.646  1.00  0.00     0.055 A 
ATOM     75  C   UNL A   1      42.446  26.904  25.577  1.00  0.00     0.041 A 
ATOM     76  F   UNL A   1      42.281  28.967  26.672  1.00  0.00    -0.206 F 
ATOM     77  C   UNL A   1      42.262  25.526  25.570  1.00  0.00     0.022 A 
BRANCH  74  78
ATOM     78  S   UNL A   1      41.521  23.114  26.754  1.00  0.00     0.124 S 
ATOM     79  O   UNL A   1      42.226  22.859  28.004  1.00  0.00    -0.237 OA
ATOM     80  O   UNL A   1      40.081  22.882  26.767  1.00  0.00    -0.237 OA
ATOM     81  O   UNL A   1      42.212  22.669  25.545  1.00  0.00    -0.744 OA
ENDBRANCH  74  78
ENDBRANCH  47  71
BRANCH  59  82
ATOM     82  C   UNL A   1      44.295  27.643  34.026  1.00  0.00     0.023 A 
ATOM     83  C   UNL A   1      44.156  26.443  34.743  1.00  0.00     0.031 A 
ATOM     84  C   UNL A   1      45.584  28.191  33.893  1.00  0.00     0.131 A 
ATOM     85  C   UNL A   1      45.281  25.849  35.335  1.00  0.00     0.055 A 
ATOM     86  C   UNL A   1      46.707  27.567  34.438  1.00  0.00     0.041 A 
ATOM     87  F   UNL A   1      45.773  29.336  33.218  1.00  0.00    -0.206 F 
ATOM     88  C   UNL A   1      46.558  26.393  35.172  1.00  0.00     0.022 A 
BRANCH  85  89
ATOM     89  S   UNL A   1      45.049  24.378  36.372  1.00  0.00     0.124 S 
ATOM     90  O   UNL A   1      46.411  24.107  36.823  1.00  0.00    -0.237 OA
ATOM     91  O   UNL A   1      44.124  24.857  37.393  1.00  0.00    -0.237 OA
ATOM     92  O   UNL A   1      44.494  23.390  35.448  1.00  0.00    -0.744 OA
ENDBRANCH  85  89
ENDBRANCH  59  82
ENDBRANCH  33  34
ENDBRANCH  26  28
ENDBRANCH  25  26
ENDBRANCH  24  25
ENDBRANCH  23  24
ENDBRANCH   1  23
TORSDOF 20
ENDMDL
MODEL 2
REMARK VINA RESULT:     -10.3      4.979     10.556
REMARK SMILES C[C@@H]1SCCC[C@H]1[N@H+]1CCC[C@H](CCC(=O)OCCOCCOC(=O)c2ccc(-c3c4nc(c(-c5cc(S(=O)(=O)[O-])ccc5F)c5ccc([nH]5)c(-c5cc(S(=O)(=O)[O-])ccc5F)c5nc(c(-c6cc(S(=O)(=O)[O-])ccc6F)c6ccc3[nH]6)C=C5)C=C4)cc2)C1
REMARK SMILES IDX 20 1 19 2 18 3 17 4 15 5 16 6 14 7 13 8 12 9 8 10 9 11 89 12
REMARK SMILES IDX 10 14 11 15 7 16 1 17 2 18 3 19 4 20 6 21 5 22 21 23 22 24
REMARK SMILES IDX 23 25 24 26 25 27 26 28 27 29 88 30 28 31 87 32 29 33 30 34
REMARK SMILES IDX 31 35 81 36 32 37 86 38 80 39 82 40 33 41 85 42 79 43 78 44
REMARK SMILES IDX 34 46 66 47 46 48 65 49 47 50 50 51 64 52 83 53 48 54 49 55
REMARK SMILES IDX 63 57 84 58 51 59 35 60 36 61 44 62 37 63 43 64 45 65 42 66
REMARK SMILES IDX 38 67 39 68 40 69 41 70 67 71 68 72 76 73 69 74 75 75 77 76
REMARK SMILES IDX 74 77 70 78 71 79 72 80 73 81 52 82 53 83 61 84 54 85 60 86
REMARK SMILES IDX 62 87 59 88 55 89 56 90 57 91 58 92
REMARK H PARENT 8 13 82 45 50 56
REMARK Flexibility Score: inf
ROOT
ATOM      1  O   UNL A   1      37.099  21.310  24.576  1.00  0.00    -0.374 OA
ENDROOT
BRANCH   1   2
ATOM      2  C   UNL A   1      35.704  21.616  24.634  1.00  0.00     0.202 C 
BRANCH   2   3
ATOM      3  C   UNL A   1      34.814  20.419  24.992  1.00  0.00     0.261 C 
BRANCH   3   4
ATOM      4  O   UNL A   1      33.666  20.835  25.759  1.00  0.00    -0.463 OA
BRANCH   4   5
ATOM      5  C   UNL A   1      32.448  20.448  25.318  1.00  0.00     0.305 C 
ATOM      6  O   UNL A   1      32.173  19.331  24.898  1.00  0.00    -0.252 OA
BRANCH   5   7
ATOM      7  C   UNL A   1      31.442  21.582  25.325  1.00  0.00     0.123 C 
BRANCH   7   8
ATOM      8  C   UNL A   1      31.719  22.821  26.194  1.00  0.00     0.021 C 
BRANCH   8   9
ATOM      9  C   UNL A   1      32.200  24.142  25.529  1.00  0.00     0.045 C 
ATOM     10  N   UNL A   1      32.842  25.176  23.312  1.00  0.00    -0.331 N 
ATOM     11  C   UNL A   1      34.243  25.099  23.679  1.00  0.00     0.262 C 
ATOM     12  C   UNL A   1      32.086  24.135  23.997  1.00  0.00     0.265 C 
ATOM     13  H   UNL A   1      32.871  24.992  22.310  1.00  0.00     0.348 HD
ATOM     14  C   UNL A   1      34.497  25.350  25.149  1.00  0.00     0.062 C 
ATOM     15  C   UNL A   1      33.552  24.616  26.093  1.00  0.00     0.015 C 
BRANCH  10  16
ATOM     16  C   UNL A   1      32.158  26.458  23.041  1.00  0.00     0.196 C 
ATOM     17  C   UNL A   1      30.107  27.948  23.423  1.00  0.00     0.026 C 
ATOM     18  C   UNL A   1      31.168  27.057  24.085  1.00  0.00     0.101 C 
ATOM     19  S   UNL A   1      31.917  28.010  25.453  1.00  0.00    -0.153 SA
ATOM     20  C   UNL A   1      33.067  29.078  24.537  1.00  0.00     0.070 C 
ATOM     21  C   UNL A   1      33.085  27.546  22.458  1.00  0.00     0.067 C 
ATOM     22  C   UNL A   1      33.876  28.381  23.459  1.00  0.00     0.017 C 
ENDBRANCH  10  16
ENDBRANCH   8   9
ENDBRANCH   7   8
ENDBRANCH   5   7
ENDBRANCH   4   5
ENDBRANCH   3   4
ENDBRANCH   2   3
ENDBRANCH   1   2
BRANCH   1  23
ATOM     23  C   UNL A   1      37.442  19.928  24.656  1.00  0.00     0.202 C 
BRANCH  23  24
ATOM     24  C   UNL A   1      38.757  19.621  25.388  1.00  0.00     0.261 C 
BRANCH  24  25
ATOM     25  O   UNL A   1      39.084  20.612  26.380  1.00  0.00    -0.460 OA
BRANCH  25  26
ATOM     26  C   UNL A   1      40.409  20.755  26.640  1.00  0.00     0.338 C 
ATOM     27  O   UNL A   1      41.291  19.951  26.382  1.00  0.00    -0.246 OA
BRANCH  26  28
ATOM     28  C   UNL A   1      40.686  22.121  27.137  1.00  0.00     0.060 A 
ATOM     29  C   UNL A   1      39.992  23.181  26.539  1.00  0.00     0.016 A 
ATOM     30  C   UNL A   1      41.615  22.378  28.150  1.00  0.00     0.016 A 
ATOM     31  C   UNL A   1      40.241  24.499  26.932  1.00  0.00     0.010 A 
ATOM     32  C   UNL A   1      41.861  23.702  28.544  1.00  0.00     0.010 A 
ATOM     33  C   UNL A   1      41.195  24.774  27.921  1.00  0.00    -0.014 A 
BRANCH  33  34
ATOM     34  C   UNL A   1      41.602  26.181  28.193  1.00  0.00     0.031 A 
ATOM     35  C   UNL A   1      42.998  26.614  27.829  1.00  0.00     0.074 A 
ATOM     36  C   UNL A   1      40.742  27.079  28.713  1.00  0.00     0.049 A 
ATOM     37  N   UNL A   1      43.589  27.766  28.022  1.00  0.00    -0.248 NA
ATOM     38  C   UNL A   1      43.835  25.615  27.148  1.00  0.00     0.031 C 
ATOM     39  C   UNL A   1      39.340  26.819  29.036  1.00  0.00     0.029 A 
ATOM     40  N   UNL A   1      40.924  28.396  29.062  1.00  0.00    -0.354 N 
ATOM     41  C   UNL A   1      44.861  27.636  27.474  1.00  0.00     0.074 A 
ATOM     42  C   UNL A   1      44.973  26.276  26.990  1.00  0.00     0.031 C 
ATOM     43  C   UNL A   1      38.794  27.935  29.552  1.00  0.00     0.029 A 
ATOM     44  C   UNL A   1      39.813  28.981  29.629  1.00  0.00     0.049 A 
ATOM     45  H   UNL A   1      41.770  28.878  28.919  1.00  0.00     0.167 HD
ATOM     46  C   UNL A   1      45.840  28.567  27.361  1.00  0.00     0.034 A 
ATOM     47  C   UNL A   1      39.647  30.207  30.172  1.00  0.00     0.034 A 
ATOM     48  C   UNL A   1      45.734  29.917  27.855  1.00  0.00     0.049 A 
ATOM     49  C   UNL A   1      40.810  31.174  30.181  1.00  0.00     0.074 A 
ATOM     50  C   UNL A   1      46.674  30.933  27.797  1.00  0.00     0.029 A 
ATOM     51  N   UNL A   1      44.626  30.441  28.505  1.00  0.00    -0.354 N 
ATOM     52  N   UNL A   1      42.010  31.031  29.668  1.00  0.00    -0.248 NA
ATOM     53  C   UNL A   1      40.594  32.470  30.842  1.00  0.00     0.031 C 
ATOM     54  C   UNL A   1      46.161  32.046  28.470  1.00  0.00     0.029 A 
ATOM     55  C   UNL A   1      44.873  31.750  28.885  1.00  0.00     0.049 A 
ATOM     56  H   UNL A   1      43.787  29.953  28.673  1.00  0.00     0.167 HD
ATOM     57  C   UNL A   1      42.672  32.233  29.911  1.00  0.00     0.074 A 
ATOM     58  C   UNL A   1      41.740  33.091  30.608  1.00  0.00     0.031 C 
ATOM     59  C   UNL A   1      43.936  32.599  29.580  1.00  0.00     0.034 A 
BRANCH  46  60
ATOM     60  C   UNL A   1      47.126  28.141  26.701  1.00  0.00     0.023 A 
ATOM     61  C   UNL A   1      47.267  28.140  25.304  1.00  0.00     0.031 A 
ATOM     62  C   UNL A   1      48.222  27.725  27.478  1.00  0.00     0.131 A 
ATOM     63  C   UNL A   1      48.456  27.676  24.722  1.00  0.00     0.055 A 
ATOM     64  C   UNL A   1      49.427  27.331  26.895  1.00  0.00     0.041 A 
ATOM     65  F   UNL A   1      48.135  27.686  28.817  1.00  0.00    -0.206 F 
ATOM     66  C   UNL A   1      49.546  27.295  25.508  1.00  0.00     0.022 A 
BRANCH  63  67
ATOM     67  S   UNL A   1      48.516  27.464  22.922  1.00  0.00     0.124 S 
ATOM     68  O   UNL A   1      49.825  28.029  22.603  1.00  0.00    -0.237 OA
ATOM     69  O   UNL A   1      48.388  26.020  22.770  1.00  0.00    -0.237 OA
ATOM     70  O   UNL A   1      47.375  28.245  22.447  1.00  0.00    -0.744 OA
ENDBRANCH  63  67
ENDBRANCH  46  60
BRANCH  47  71
ATOM     71  C   UNL A   1      38.359  30.596  30.820  1.00  0.00     0.023 A 
ATOM     72  C   UNL A   1      37.423  31.402  30.153  1.00  0.00     0.031 A 
ATOM     73  C   UNL A   1      38.104  30.269  32.162  1.00  0.00     0.131 A 
ATOM     74  C   UNL A   1      36.311  31.904  30.849  1.00  0.00     0.055 A 
ATOM     75  C   UNL A   1      36.960  30.711  32.830  1.00  0.00     0.041 A 
ATOM     76  F   UNL A   1      38.982  29.532  32.858  1.00  0.00    -0.206 F 
ATOM     77  C   UNL A   1      36.064  31.551  32.177  1.00  0.00     0.022 A 
BRANCH  74  78
ATOM     78  S   UNL A   1      35.264  33.144  30.035  1.00  0.00     0.124 S 
ATOM     79  O   UNL A   1      34.329  32.302  29.297  1.00  0.00    -0.237 OA
ATOM     80  O   UNL A   1      34.716  33.870  31.175  1.00  0.00    -0.237 OA
ATOM     81  O   UNL A   1      36.209  33.899  29.213  1.00  0.00    -0.744 OA
ENDBRANCH  74  78
ENDBRANCH  47  71
BRANCH  59  82
ATOM     82  C   UNL A   1      44.365  34.004  29.922  1.00  0.00     0.023 A 
ATOM     83  C   UNL A   1      44.067  35.094  29.085  1.00  0.00     0.031 A 
ATOM     84  C   UNL A   1      45.074  34.255  31.111  1.00  0.00     0.131 A 
ATOM     85  C   UNL A   1      44.511  36.380  29.430  1.00  0.00     0.055 A 
ATOM     86  C   UNL A   1      45.466  35.545  31.474  1.00  0.00     0.041 A 
ATOM     87  F   UNL A   1      45.384  33.251  31.946  1.00  0.00    -0.206 F 
ATOM     88  C   UNL A   1      45.193  36.615  30.627  1.00  0.00     0.022 A 
BRANCH  85  89
ATOM     89  S   UNL A   1      44.235  37.741  28.263  1.00  0.00     0.124 S 
ATOM     90  O   UNL A   1      45.267  38.695  28.657  1.00  0.00    -0.237 OA
ATOM     91  O   UNL A   1      44.430  37.091  26.970  1.00  0.00    -0.237 OA
ATOM     92  O   UNL A   1      42.863  38.161  28.543  1.00  0.00    -0.744 OA
ENDBRANCH  85  89
ENDBRANCH  59  82
ENDBRANCH  33  34
ENDBRANCH  26  28
ENDBRANCH  25  26
ENDBRANCH  24  25
ENDBRANCH  23  24
ENDBRANCH   1  23
TORSDOF 20
ENDMDL
MODEL 3
REMARK VINA RESULT:     -10.2      5.245     10.924
REMARK SMILES C[C@@H]1SCCC[C@H]1[N@H+]1CCC[C@H](CCC(=O)OCCOCCOC(=O)c2ccc(-c3c4nc(c(-c5cc(S(=O)(=O)[O-])ccc5F)c5ccc([nH]5)c(-c5cc(S(=O)(=O)[O-])ccc5F)c5nc(c(-c6cc(S(=O)(=O)[O-])ccc6F)c6ccc3[nH]6)C=C5)C=C4)cc2)C1
REMARK SMILES IDX 20 1 19 2 18 3 17 4 15 5 16 6 14 7 13 8 12 9 8 10 9 11 89 12
REMARK SMILES IDX 10 14 11 15 7 16 1 17 2 18 3 19 4 20 6 21 5 22 21 23 22 24
REMARK SMILES IDX 23 25 24 26 25 27 26 28 27 29 88 30 28 31 87 32 29 33 30 34
REMARK SMILES IDX 31 35 81 36 32 37 86 38 80 39 82 40 33 41 85 42 79 43 78 44
REMARK SMILES IDX 34 46 66 47 46 48 65 49 47 50 50 51 64 52 83 53 48 54 49 55
REMARK SMILES IDX 63 57 84 58 51 59 35 60 36 61 44 62 37 63 43 64 45 65 42 66
REMARK SMILES IDX 38 67 39 68 40 69 41 70 67 71 68 72 76 73 69 74 75 75 77 76
REMARK SMILES IDX 74 77 70 78 71 79 72 80 73 81 52 82 53 83 61 84 54 85 60 86
REMARK SMILES IDX 62 87 59 88 55 89 56 90 57 91 58 92
REMARK H PARENT 8 13 82 45 50 56
REMARK Flexibility Score: inf
ROOT
ATOM      1  O   UNL A   1      38.942  21.606  25.773  1.00  0.00    -0.374 OA
ENDROOT
BRANCH   1   2
ATOM      2  C   UNL A   1      37.723  22.344  25.897  1.00  0.00     0.202 C 
BRANCH   2   3
ATOM      3  C   UNL A   1      36.761  22.167  24.716  1.00  0.00     0.261 C 
BRANCH   3   4
ATOM      4  O   UNL A   1      35.394  22.077  25.169  1.00  0.00    -0.463 OA
BRANCH   4   5
ATOM      5  C   UNL A   1      34.427  22.037  24.225  1.00  0.00     0.305 C 
ATOM      6  O   UNL A   1      33.417  21.347  24.280  1.00  0.00    -0.252 OA
BRANCH   5   7
ATOM      7  C   UNL A   1      34.755  22.900  23.023  1.00  0.00     0.123 C 
BRANCH   7   8
ATOM      8  C   UNL A   1      34.483  24.412  23.091  1.00  0.00     0.021 C 
BRANCH   8   9
ATOM      9  C   UNL A   1      33.148  24.932  23.697  1.00  0.00     0.045 C 
ATOM     10  N   UNL A   1      31.787  25.014  25.827  1.00  0.00    -0.331 N 
ATOM     11  C   UNL A   1      30.904  23.988  25.305  1.00  0.00     0.262 C 
ATOM     12  C   UNL A   1      33.112  24.886  25.232  1.00  0.00     0.265 C 
ATOM     13  H   UNL A   1      31.821  24.784  26.820  1.00  0.00     0.348 HD
ATOM     14  C   UNL A   1      30.664  24.099  23.816  1.00  0.00     0.062 C 
ATOM     15  C   UNL A   1      31.918  24.341  22.984  1.00  0.00     0.015 C 
BRANCH  10  16
ATOM     16  C   UNL A   1      31.316  26.372  26.172  1.00  0.00     0.196 C 
ATOM     17  C   UNL A   1      31.573  28.449  27.652  1.00  0.00     0.026 C 
ATOM     18  C   UNL A   1      32.301  27.415  26.780  1.00  0.00     0.101 C 
ATOM     19  S   UNL A   1      33.342  28.330  25.588  1.00  0.00    -0.153 SA
ATOM     20  C   UNL A   1      32.102  28.824  24.356  1.00  0.00     0.070 C 
ATOM     21  C   UNL A   1      30.417  27.011  25.092  1.00  0.00     0.067 C 
ATOM     22  C   UNL A   1      31.125  27.735  23.953  1.00  0.00     0.017 C 
ENDBRANCH  10  16
ENDBRANCH   8   9
ENDBRANCH   7   8
ENDBRANCH   5   7
ENDBRANCH   4   5
ENDBRANCH   3   4
ENDBRANCH   2   3
ENDBRANCH   1   2
BRANCH   1  23
ATOM     23  C   UNL A   1      38.831  20.302  25.205  1.00  0.00     0.202 C 
BRANCH  23  24
ATOM     24  C   UNL A   1      39.604  19.199  25.942  1.00  0.00     0.261 C 
BRANCH  24  25
ATOM     25  O   UNL A   1      40.988  19.134  25.549  1.00  0.00    -0.460 OA
BRANCH  25  26
ATOM     26  C   UNL A   1      41.883  19.400  26.533  1.00  0.00     0.338 C 
ATOM     27  O   UNL A   1      42.658  18.606  27.044  1.00  0.00    -0.246 OA
BRANCH  26  28
ATOM     28  C   UNL A   1      41.926  20.854  26.805  1.00  0.00     0.060 A 
ATOM     29  C   UNL A   1      42.273  21.700  25.743  1.00  0.00     0.016 A 
ATOM     30  C   UNL A   1      41.657  21.392  28.066  1.00  0.00     0.016 A 
ATOM     31  C   UNL A   1      42.375  23.080  25.945  1.00  0.00     0.010 A 
ATOM     32  C   UNL A   1      41.759  22.777  28.266  1.00  0.00     0.010 A 
ATOM     33  C   UNL A   1      42.142  23.629  27.213  1.00  0.00    -0.014 A 
BRANCH  33  34
ATOM     34  C   UNL A   1      42.448  25.064  27.471  1.00  0.00     0.031 A 
ATOM     35  C   UNL A   1      43.815  25.589  27.116  1.00  0.00     0.074 A 
ATOM     36  C   UNL A   1      41.522  25.906  27.971  1.00  0.00     0.049 A 
ATOM     37  N   UNL A   1      44.322  26.781  27.301  1.00  0.00    -0.248 NA
ATOM     38  C   UNL A   1      44.727  24.641  26.456  1.00  0.00     0.031 C 
ATOM     39  C   UNL A   1      40.138  25.552  28.283  1.00  0.00     0.029 A 
ATOM     40  N   UNL A   1      41.608  27.236  28.306  1.00  0.00    -0.354 N 
ATOM     41  C   UNL A   1      45.606  26.733  26.767  1.00  0.00     0.074 A 
ATOM     42  C   UNL A   1      45.817  25.378  26.302  1.00  0.00     0.031 C 
ATOM     43  C   UNL A   1      39.510  26.634  28.780  1.00  0.00     0.029 A 
ATOM     44  C   UNL A   1      40.454  27.749  28.854  1.00  0.00     0.049 A 
ATOM     45  H   UNL A   1      42.420  27.773  28.165  1.00  0.00     0.167 HD
ATOM     46  C   UNL A   1      46.519  27.728  26.653  1.00  0.00     0.034 A 
ATOM     47  C   UNL A   1      40.197  28.966  29.380  1.00  0.00     0.034 A 
ATOM     48  C   UNL A   1      46.314  29.074  27.129  1.00  0.00     0.049 A 
ATOM     49  C   UNL A   1      41.290  30.012  29.389  1.00  0.00     0.074 A 
ATOM     50  C   UNL A   1      47.182  30.151  27.068  1.00  0.00     0.029 A 
ATOM     51  N   UNL A   1      45.165  29.527  27.761  1.00  0.00    -0.354 N 
ATOM     52  N   UNL A   1      42.503  29.947  28.891  1.00  0.00    -0.248 NA
ATOM     53  C   UNL A   1      40.977  31.298  30.032  1.00  0.00     0.031 C 
ATOM     54  C   UNL A   1      46.586  31.234  27.722  1.00  0.00     0.029 A 
ATOM     55  C   UNL A   1      45.317  30.854  28.128  1.00  0.00     0.049 A 
ATOM     56  H   UNL A   1      44.361  28.983  27.927  1.00  0.00     0.167 HD
ATOM     57  C   UNL A   1      43.077  31.195  29.125  1.00  0.00     0.074 A 
ATOM     58  C   UNL A   1      42.080  31.994  29.802  1.00  0.00     0.031 C 
ATOM     59  C   UNL A   1      44.316  31.644  28.802  1.00  0.00     0.034 A 
BRANCH  46  60
ATOM     60  C   UNL A   1      47.839  27.385  26.012  1.00  0.00     0.023 A 
ATOM     61  C   UNL A   1      48.050  27.555  24.634  1.00  0.00     0.031 A 
ATOM     62  C   UNL A   1      48.897  26.875  26.786  1.00  0.00     0.131 A 
ATOM     63  C   UNL A   1      49.269  27.165  24.060  1.00  0.00     0.055 A 
ATOM     64  C   UNL A   1      50.132  26.555  26.220  1.00  0.00     0.041 A 
ATOM     65  F   UNL A   1      48.743  26.673  28.104  1.00  0.00    -0.206 F 
ATOM     66  C   UNL A   1      50.321  26.689  24.847  1.00  0.00     0.022 A 
BRANCH  63  67
ATOM     67  S   UNL A   1      49.420  27.176  22.253  1.00  0.00     0.124 S 
ATOM     68  O   UNL A   1      50.867  27.071  22.078  1.00  0.00    -0.237 OA
ATOM     69  O   UNL A   1      48.643  26.004  21.865  1.00  0.00    -0.237 OA
ATOM     70  O   UNL A   1      48.844  28.462  21.869  1.00  0.00    -0.744 OA
ENDBRANCH  63  67
ENDBRANCH  46  60
BRANCH  47  71
ATOM     71  C   UNL A   1      38.878  29.273  30.010  1.00  0.00     0.023 A 
ATOM     72  C   UNL A   1      37.895  30.003  29.323  1.00  0.00     0.031 A 
ATOM     73  C   UNL A   1      38.632  28.946  31.354  1.00  0.00     0.131 A 
ATOM     74  C   UNL A   1      36.743  30.434  30.002  1.00  0.00     0.055 A 
ATOM     75  C   UNL A   1      37.453  29.315  32.005  1.00  0.00     0.041 A 
ATOM     76  F   UNL A   1      39.552  28.281  32.068  1.00  0.00    -0.206 F 
ATOM     77  C   UNL A   1      36.507  30.081  31.332  1.00  0.00     0.022 A 
BRANCH  74  78
ATOM     78  S   UNL A   1      35.621  31.587  29.160  1.00  0.00     0.124 S 
ATOM     79  O   UNL A   1      34.846  30.683  28.318  1.00  0.00    -0.237 OA
ATOM     80  O   UNL A   1      34.911  32.189  30.284  1.00  0.00    -0.237 OA
ATOM     81  O   UNL A   1      36.529  32.483  28.445  1.00  0.00    -0.744 OA
ENDBRANCH  74  78
ENDBRANCH  47  71
BRANCH  59  82
ATOM     82  C   UNL A   1      44.643  33.079  29.131  1.00  0.00     0.023 A 
ATOM     83  C   UNL A   1      44.280  34.136  28.278  1.00  0.00     0.031 A 
ATOM     84  C   UNL A   1      45.319  33.393  30.325  1.00  0.00     0.131 A 
ATOM     85  C   UNL A   1      44.630  35.454  28.611  1.00  0.00     0.055 A 
ATOM     86  C   UNL A   1      45.617  34.710  30.676  1.00  0.00     0.041 A 
ATOM     87  F   UNL A   1      45.689  32.422  31.175  1.00  0.00    -0.206 F 
ATOM     88  C   UNL A   1      45.280  35.749  29.812  1.00  0.00     0.022 A 
BRANCH  85  89
ATOM     89  S   UNL A   1      44.273  36.778  27.425  1.00  0.00     0.124 S 
ATOM     90  O   UNL A   1      43.327  36.130  26.521  1.00  0.00    -0.237 OA
ATOM     91  O   UNL A   1      43.721  37.825  28.279  1.00  0.00    -0.237 OA
ATOM     92  O   UNL A   1      45.579  37.080  26.843  1.00  0.00    -0.744 OA
ENDBRANCH  85  89
ENDBRANCH  59  82
ENDBRANCH  33  34
ENDBRANCH  26  28
ENDBRANCH  25  26
ENDBRANCH  24  25
ENDBRANCH  23  24
ENDBRANCH   1  23
TORSDOF 20
ENDMDL
