MODEL 1
REMARK VINA RESULT:     -11.2      0.000      0.000
REMARK SMILES COc1ccc2cc([C@@H](O)[C@H](F)C(=O)OCCOCCOC(=O)c3ccc(-c4c5nc(c(-c6cc(S(=O)(=O)[O-])ccc6F)c6ccc([nH]6)c(-c6cc(S(=O)(=O)[O-])ccc6F)c6nc(c(-c7cc(S(=O)(=O)[O-])ccc7F)c7ccc4[nH]7)C=C6)C=C5)cc3)ccc2c1
REMARK SMILES IDX 18 1 17 2 16 3 15 4 13 5 14 6 11 7 12 8 9 9 8 10 3 11 4 12
REMARK SMILES IDX 90 13 5 14 89 15 6 16 88 17 7 18 87 19 2 20 1 21 10 22 19 24
REMARK SMILES IDX 20 25 21 26 22 27 23 28 24 29 25 30 86 31 26 32 85 33 27 34
REMARK SMILES IDX 28 35 29 36 79 37 30 38 84 39 78 40 80 41 31 42 83 43 77 44
REMARK SMILES IDX 76 45 32 47 64 48 44 49 63 50 45 51 48 52 62 53 81 54 46 55
REMARK SMILES IDX 47 56 61 58 82 59 49 60 33 61 34 62 42 63 35 64 41 65 43 66
REMARK SMILES IDX 40 67 36 68 37 69 38 70 39 71 65 72 66 73 74 74 67 75 73 76
REMARK SMILES IDX 75 77 72 78 68 79 69 80 70 81 71 82 50 83 51 84 59 85 52 86
REMARK SMILES IDX 58 87 60 88 57 89 53 90 54 91 55 92 56 93
REMARK H PARENT 10 23 80 46 48 57
REMARK Flexibility Score: inf
ROOT
ATOM      1  O   UNL A   1      34.860  19.132  24.640  1.00  0.00    -0.374 OA
ENDROOT
BRANCH   1   2
ATOM      2  C   UNL A   1      33.478  19.106  25.008  1.00  0.00     0.202 C 
BRANCH   2   3
ATOM      3  C   UNL A   1      32.498  19.543  23.918  1.00  0.00     0.261 C 
BRANCH   3   4
ATOM      4  O   UNL A   1      32.103  20.902  24.151  1.00  0.00    -0.461 OA
BRANCH   4   5
ATOM      5  C   UNL A   1      31.934  21.687  23.056  1.00  0.00     0.343 C 
ATOM      6  O   UNL A   1      32.052  21.316  21.894  1.00  0.00    -0.249 OA
BRANCH   5   7
ATOM      7  C   UNL A   1      31.534  23.090  23.458  1.00  0.00     0.308 C 
ATOM      8  F   UNL A   1      30.266  23.412  23.051  1.00  0.00    -0.232 F 
BRANCH   7   9
ATOM      9  C   UNL A   1      31.658  23.219  24.981  1.00  0.00     0.190 C 
BRANCH   9  10
ATOM     10  C   UNL A   1      32.309  24.536  25.347  1.00  0.00    -0.015 A 
ATOM     11  C   UNL A   1      33.340  29.219  27.013  1.00  0.00     0.119 A 
ATOM     12  C   UNL A   1      32.030  28.952  27.402  1.00  0.00     0.047 A 
ATOM     13  C   UNL A   1      34.050  28.275  26.267  1.00  0.00     0.055 A 
ATOM     14  C   UNL A   1      31.445  27.724  27.085  1.00  0.00     0.012 A 
ATOM     15  C   UNL A   1      33.480  27.033  25.948  1.00  0.00    -0.015 A 
ATOM     16  C   UNL A   1      32.163  26.752  26.372  1.00  0.00    -0.018 A 
ATOM     17  C   UNL A   1      34.187  26.065  25.218  1.00  0.00     0.009 A 
ATOM     18  C   UNL A   1      31.593  25.509  26.067  1.00  0.00     0.015 A 
ATOM     19  C   UNL A   1      33.607  24.831  24.918  1.00  0.00     0.007 A 
BRANCH  11  20
ATOM     20  O   UNL A   1      34.004  30.388  27.275  1.00  0.00    -0.497 OA
ATOM     21  C   UNL A   1      35.328  30.215  27.768  1.00  0.00     0.278 C 
ENDBRANCH  11  20
ENDBRANCH   9  10
BRANCH   9  22
ATOM     22  O   UNL A   1      30.381  23.155  25.624  1.00  0.00    -0.385 OA
ATOM     23  H   UNL A   1      29.707  23.545  25.045  1.00  0.00     0.211 HD
ENDBRANCH   9  22
ENDBRANCH   7   9
ENDBRANCH   5   7
ENDBRANCH   4   5
ENDBRANCH   3   4
ENDBRANCH   2   3
ENDBRANCH   1   2
BRANCH   1  24
ATOM     24  C   UNL A   1      35.618  20.291  24.993  1.00  0.00     0.202 C 
BRANCH  24  25
ATOM     25  C   UNL A   1      37.146  20.187  24.902  1.00  0.00     0.261 C 
BRANCH  25  26
ATOM     26  O   UNL A   1      37.814  21.349  25.422  1.00  0.00    -0.460 OA
BRANCH  26  27
ATOM     27  C   UNL A   1      39.016  21.102  25.993  1.00  0.00     0.338 C 
ATOM     28  O   UNL A   1      39.673  20.072  25.906  1.00  0.00    -0.246 OA
BRANCH  27  29
ATOM     29  C   UNL A   1      39.550  22.333  26.604  1.00  0.00     0.060 A 
ATOM     30  C   UNL A   1      39.065  23.556  26.123  1.00  0.00     0.016 A 
ATOM     31  C   UNL A   1      40.557  22.301  27.571  1.00  0.00     0.016 A 
ATOM     32  C   UNL A   1      39.618  24.752  26.573  1.00  0.00     0.010 A 
ATOM     33  C   UNL A   1      41.118  23.504  28.015  1.00  0.00     0.010 A 
ATOM     34  C   UNL A   1      40.674  24.733  27.493  1.00  0.00    -0.014 A 
BRANCH  34  35
ATOM     35  C   UNL A   1      41.406  25.990  27.787  1.00  0.00     0.031 A 
ATOM     36  C   UNL A   1      40.711  27.069  28.572  1.00  0.00     0.074 A 
ATOM     37  C   UNL A   1      42.683  26.151  27.395  1.00  0.00     0.049 A 
ATOM     38  N   UNL A   1      41.142  28.253  28.922  1.00  0.00    -0.248 NA
ATOM     39  C   UNL A   1      39.342  26.769  29.021  1.00  0.00     0.031 C 
ATOM     40  C   UNL A   1      43.473  25.157  26.671  1.00  0.00     0.029 A 
ATOM     41  N   UNL A   1      43.537  27.213  27.549  1.00  0.00    -0.354 N 
ATOM     42  C   UNL A   1      40.101  28.843  29.629  1.00  0.00     0.074 A 
ATOM     43  C   UNL A   1      39.003  27.898  29.625  1.00  0.00     0.031 C 
ATOM     44  C   UNL A   1      44.696  25.660  26.435  1.00  0.00     0.029 A 
ATOM     45  C   UNL A   1      44.764  27.025  26.957  1.00  0.00     0.049 A 
ATOM     46  H   UNL A   1      43.295  28.033  28.037  1.00  0.00     0.167 HD
ATOM     47  C   UNL A   1      40.066  30.056  30.234  1.00  0.00     0.034 A 
ATOM     48  C   UNL A   1      45.810  27.867  26.828  1.00  0.00     0.034 A 
ATOM     49  C   UNL A   1      41.163  30.992  30.217  1.00  0.00     0.049 A 
ATOM     50  C   UNL A   1      45.716  29.248  27.431  1.00  0.00     0.074 A 
ATOM     51  C   UNL A   1      41.242  32.242  30.806  1.00  0.00     0.029 A 
ATOM     52  N   UNL A   1      42.373  30.788  29.564  1.00  0.00    -0.354 N 
ATOM     53  N   UNL A   1      44.728  29.791  28.106  1.00  0.00    -0.248 NA
ATOM     54  C   UNL A   1      46.881  30.125  27.262  1.00  0.00     0.031 C 
ATOM     55  C   UNL A   1      42.464  32.821  30.451  1.00  0.00     0.029 A 
ATOM     56  C   UNL A   1      43.187  31.901  29.706  1.00  0.00     0.049 A 
ATOM     57  H   UNL A   1      42.616  29.970  29.072  1.00  0.00     0.167 HD
ATOM     58  C   UNL A   1      45.168  31.063  28.467  1.00  0.00     0.074 A 
ATOM     59  C   UNL A   1      46.513  31.198  27.947  1.00  0.00     0.031 C 
ATOM     60  C   UNL A   1      44.523  32.029  29.170  1.00  0.00     0.034 A 
BRANCH  47  61
ATOM     61  C   UNL A   1      38.777  30.454  30.915  1.00  0.00     0.023 A 
ATOM     62  C   UNL A   1      37.874  31.353  30.324  1.00  0.00     0.031 A 
ATOM     63  C   UNL A   1      38.466  29.950  32.190  1.00  0.00     0.131 A 
ATOM     64  C   UNL A   1      36.738  31.774  31.034  1.00  0.00     0.055 A 
ATOM     65  C   UNL A   1      37.295  30.314  32.860  1.00  0.00     0.041 A 
ATOM     66  F   UNL A   1      39.301  29.106  32.815  1.00  0.00    -0.206 F 
ATOM     67  C   UNL A   1      36.431  31.241  32.288  1.00  0.00     0.022 A 
BRANCH  64  68
ATOM     68  S   UNL A   1      35.744  33.134  30.358  1.00  0.00     0.124 S 
ATOM     69  O   UNL A   1      35.959  34.180  31.355  1.00  0.00    -0.237 OA
ATOM     70  O   UNL A   1      36.360  33.356  29.055  1.00  0.00    -0.237 OA
ATOM     71  O   UNL A   1      34.391  32.585  30.324  1.00  0.00    -0.744 OA
ENDBRANCH  64  68
ENDBRANCH  47  61
BRANCH  48  72
ATOM     72  C   UNL A   1      47.021  27.454  26.062  1.00  0.00     0.023 A 
ATOM     73  C   UNL A   1      47.191  27.814  24.716  1.00  0.00     0.031 A 
ATOM     74  C   UNL A   1      48.004  26.641  26.656  1.00  0.00     0.131 A 
ATOM     75  C   UNL A   1      48.291  27.326  23.995  1.00  0.00     0.055 A 
ATOM     76  C   UNL A   1      49.124  26.201  25.949  1.00  0.00     0.041 A 
ATOM     77  F   UNL A   1      47.891  26.265  27.940  1.00  0.00    -0.206 F 
ATOM     78  C   UNL A   1      49.266  26.533  24.606  1.00  0.00     0.022 A 
BRANCH  75  79
ATOM     79  S   UNL A   1      48.390  27.673  22.217  1.00  0.00     0.124 S 
ATOM     80  O   UNL A   1      48.526  26.332  21.660  1.00  0.00    -0.237 OA
ATOM     81  O   UNL A   1      47.119  28.345  21.971  1.00  0.00    -0.237 OA
ATOM     82  O   UNL A   1      49.574  28.521  22.101  1.00  0.00    -0.744 OA
ENDBRANCH  75  79
ENDBRANCH  48  72
BRANCH  60  83
ATOM     83  C   UNL A   1      45.287  33.299  29.455  1.00  0.00     0.023 A 
ATOM     84  C   UNL A   1      45.323  34.366  28.539  1.00  0.00     0.031 A 
ATOM     85  C   UNL A   1      45.999  33.439  30.659  1.00  0.00     0.131 A 
ATOM     86  C   UNL A   1      46.099  35.501  28.818  1.00  0.00     0.055 A 
ATOM     87  C   UNL A   1      46.720  34.596  30.959  1.00  0.00     0.041 A 
ATOM     88  F   UNL A   1      46.002  32.452  31.570  1.00  0.00    -0.206 F 
ATOM     89  C   UNL A   1      46.784  35.630  30.030  1.00  0.00     0.022 A 
BRANCH  86  90
ATOM     90  S   UNL A   1      46.277  36.774  27.538  1.00  0.00     0.124 S 
ATOM     91  O   UNL A   1      47.691  37.121  27.649  1.00  0.00    -0.237 OA
ATOM     92  O   UNL A   1      45.891  36.055  26.328  1.00  0.00    -0.237 OA
ATOM     93  O   UNL A   1      45.347  37.819  27.960  1.00  0.00    -0.744 OA
ENDBRANCH  86  90
ENDBRANCH  60  83
ENDBRANCH  34  35
ENDBRANCH  27  29
ENDBRANCH  26  27
ENDBRANCH  25  26
ENDBRANCH  24  25
ENDBRANCH   1  24
TORSDOF 21
ENDMDL
MODEL 2
REMARK VINA RESULT:     -11.1      2.115      8.434
REMARK SMILES COc1ccc2cc([C@@H](O)[C@H](F)C(=O)OCCOCCOC(=O)c3ccc(-c4c5nc(c(-c6cc(S(=O)(=O)[O-])ccc6F)c6ccc([nH]6)c(-c6cc(S(=O)(=O)[O-])ccc6F)c6nc(c(-c7cc(S(=O)(=O)[O-])ccc7F)c7ccc4[nH]7)C=C6)C=C5)cc3)ccc2c1
REMARK SMILES IDX 18 1 17 2 16 3 15 4 13 5 14 6 11 7 12 8 9 9 8 10 3 11 4 12
REMARK SMILES IDX 90 13 5 14 89 15 6 16 88 17 7 18 87 19 2 20 1 21 10 22 19 24
REMARK SMILES IDX 20 25 21 26 22 27 23 28 24 29 25 30 86 31 26 32 85 33 27 34
REMARK SMILES IDX 28 35 29 36 79 37 30 38 84 39 78 40 80 41 31 42 83 43 77 44
REMARK SMILES IDX 76 45 32 47 64 48 44 49 63 50 45 51 48 52 62 53 81 54 46 55
REMARK SMILES IDX 47 56 61 58 82 59 49 60 33 61 34 62 42 63 35 64 41 65 43 66
REMARK SMILES IDX 40 67 36 68 37 69 38 70 39 71 65 72 66 73 74 74 67 75 73 76
REMARK SMILES IDX 75 77 72 78 68 79 69 80 70 81 71 82 50 83 51 84 59 85 52 86
REMARK SMILES IDX 58 87 60 88 57 89 53 90 54 91 55 92 56 93
REMARK H PARENT 10 23 80 46 48 57
REMARK Flexibility Score: inf
ROOT
ATOM      1  O   UNL A   1      35.772  21.525  25.030  1.00  0.00    -0.374 OA
ENDROOT
BRANCH   1   2
ATOM      2  C   UNL A   1      36.025  22.333  23.878  1.00  0.00     0.202 C 
BRANCH   2   3
ATOM      3  C   UNL A   1      35.357  23.709  23.879  1.00  0.00     0.261 C 
BRANCH   3   4
ATOM      4  O   UNL A   1      34.554  23.848  22.699  1.00  0.00    -0.461 OA
BRANCH   4   5
ATOM      5  C   UNL A   1      33.688  24.893  22.668  1.00  0.00     0.343 C 
ATOM      6  O   UNL A   1      33.818  25.901  21.983  1.00  0.00    -0.249 OA
BRANCH   5   7
ATOM      7  C   UNL A   1      32.499  24.633  23.568  1.00  0.00     0.308 C 
ATOM      8  F   UNL A   1      31.708  25.739  23.730  1.00  0.00    -0.232 F 
BRANCH   7   9
ATOM      9  C   UNL A   1      31.687  23.471  22.984  1.00  0.00     0.190 C 
BRANCH   9  10
ATOM     10  C   UNL A   1      32.043  22.174  23.680  1.00  0.00    -0.015 A 
ATOM     11  C   UNL A   1      33.070  17.346  24.863  1.00  0.00     0.119 A 
ATOM     12  C   UNL A   1      32.891  17.374  23.481  1.00  0.00     0.047 A 
ATOM     13  C   UNL A   1      32.902  18.514  25.609  1.00  0.00     0.055 A 
ATOM     14  C   UNL A   1      32.590  18.579  22.842  1.00  0.00     0.012 A 
ATOM     15  C   UNL A   1      32.609  19.734  24.981  1.00  0.00    -0.015 A 
ATOM     16  C   UNL A   1      32.461  19.767  23.577  1.00  0.00    -0.018 A 
ATOM     17  C   UNL A   1      32.458  20.921  25.714  1.00  0.00     0.009 A 
ATOM     18  C   UNL A   1      32.179  20.984  22.944  1.00  0.00     0.015 A 
ATOM     19  C   UNL A   1      32.175  22.128  25.072  1.00  0.00     0.007 A 
BRANCH  11  20
ATOM     20  O   UNL A   1      33.368  16.220  25.583  1.00  0.00    -0.497 OA
ATOM     21  C   UNL A   1      32.276  15.323  25.752  1.00  0.00     0.278 C 
ENDBRANCH  11  20
ENDBRANCH   9  10
BRANCH   9  22
ATOM     22  O   UNL A   1      30.278  23.686  23.128  1.00  0.00    -0.385 OA
ATOM     23  H   UNL A   1      29.825  23.413  22.314  1.00  0.00     0.211 HD
ENDBRANCH   9  22
ENDBRANCH   7   9
ENDBRANCH   5   7
ENDBRANCH   4   5
ENDBRANCH   3   4
ENDBRANCH   2   3
ENDBRANCH   1   2
BRANCH   1  24
ATOM     24  C   UNL A   1      36.224  20.170  25.001  1.00  0.00     0.202 C 
BRANCH  24  25
ATOM     25  C   UNL A   1      37.739  19.935  24.952  1.00  0.00     0.261 C 
BRANCH  25  26
ATOM     26  O   UNL A   1      38.496  21.116  25.271  1.00  0.00    -0.460 OA
BRANCH  26  27
ATOM     27  C   UNL A   1      39.503  20.922  26.154  1.00  0.00     0.338 C 
ATOM     28  O   UNL A   1      40.111  19.878  26.357  1.00  0.00    -0.246 OA
BRANCH  27  29
ATOM     29  C   UNL A   1      39.926  22.210  26.732  1.00  0.00     0.060 A 
ATOM     30  C   UNL A   1      39.274  23.365  26.285  1.00  0.00     0.016 A 
ATOM     31  C   UNL A   1      40.988  22.300  27.635  1.00  0.00     0.016 A 
ATOM     32  C   UNL A   1      39.709  24.620  26.703  1.00  0.00     0.010 A 
ATOM     33  C   UNL A   1      41.432  23.563  28.045  1.00  0.00     0.010 A 
ATOM     34  C   UNL A   1      40.816  24.729  27.555  1.00  0.00    -0.014 A 
BRANCH  34  35
ATOM     35  C   UNL A   1      41.413  26.065  27.805  1.00  0.00     0.031 A 
ATOM     36  C   UNL A   1      42.808  26.340  27.313  1.00  0.00     0.074 A 
ATOM     37  C   UNL A   1      40.709  27.029  28.425  1.00  0.00     0.049 A 
ATOM     38  N   UNL A   1      43.537  27.418  27.439  1.00  0.00    -0.248 NA
ATOM     39  C   UNL A   1      43.468  25.247  26.581  1.00  0.00     0.031 C 
ATOM     40  C   UNL A   1      39.334  26.892  28.902  1.00  0.00     0.029 A 
ATOM     41  N   UNL A   1      41.056  28.312  28.761  1.00  0.00    -0.354 N 
ATOM     42  C   UNL A   1      44.743  27.137  26.806  1.00  0.00     0.074 A 
ATOM     43  C   UNL A   1      44.658  25.771  26.330  1.00  0.00     0.031 C 
ATOM     44  C   UNL A   1      38.957  28.046  29.479  1.00  0.00     0.029 A 
ATOM     45  C   UNL A   1      40.074  28.989  29.446  1.00  0.00     0.049 A 
ATOM     46  H   UNL A   1      41.927  28.712  28.534  1.00  0.00     0.167 HD
ATOM     47  C   UNL A   1      45.817  27.945  26.630  1.00  0.00     0.034 A 
ATOM     48  C   UNL A   1      40.087  30.217  30.005  1.00  0.00     0.034 A 
ATOM     49  C   UNL A   1      45.892  29.299  27.123  1.00  0.00     0.049 A 
ATOM     50  C   UNL A   1      41.328  31.066  29.876  1.00  0.00     0.074 A 
ATOM     51  C   UNL A   1      46.925  30.210  26.992  1.00  0.00     0.029 A 
ATOM     52  N   UNL A   1      44.897  29.933  27.857  1.00  0.00    -0.354 N 
ATOM     53  N   UNL A   1      42.459  30.792  29.267  1.00  0.00    -0.248 NA
ATOM     54  C   UNL A   1      41.290  32.394  30.502  1.00  0.00     0.031 C 
ATOM     55  C   UNL A   1      46.587  31.365  27.705  1.00  0.00     0.029 A 
ATOM     56  C   UNL A   1      45.307  31.209  28.216  1.00  0.00     0.049 A 
ATOM     57  H   UNL A   1      44.027  29.535  28.089  1.00  0.00     0.167 HD
ATOM     58  C   UNL A   1      43.254  31.928  29.412  1.00  0.00     0.074 A 
ATOM     59  C   UNL A   1      42.467  32.891  30.154  1.00  0.00     0.031 C 
ATOM     60  C   UNL A   1      44.517  32.156  28.968  1.00  0.00     0.034 A 
BRANCH  47  61
ATOM     61  C   UNL A   1      47.015  27.360  25.921  1.00  0.00     0.023 A 
ATOM     62  C   UNL A   1      48.021  26.664  26.614  1.00  0.00     0.031 A 
ATOM     63  C   UNL A   1      47.169  27.530  24.533  1.00  0.00     0.131 A 
ATOM     64  C   UNL A   1      49.167  26.224  25.932  1.00  0.00     0.055 A 
ATOM     65  C   UNL A   1      48.276  27.023  23.847  1.00  0.00     0.041 A 
ATOM     66  F   UNL A   1      46.254  28.206  23.821  1.00  0.00    -0.206 F 
ATOM     67  C   UNL A   1      49.289  26.378  24.549  1.00  0.00     0.022 A 
BRANCH  64  68
ATOM     68  S   UNL A   1      50.559  25.577  26.899  1.00  0.00     0.124 S 
ATOM     69  O   UNL A   1      51.502  25.206  25.846  1.00  0.00    -0.237 OA
ATOM     70  O   UNL A   1      50.934  26.724  27.718  1.00  0.00    -0.237 OA
ATOM     71  O   UNL A   1      49.977  24.453  27.627  1.00  0.00    -0.744 OA
ENDBRANCH  64  68
ENDBRANCH  47  61
BRANCH  48  72
ATOM     72  C   UNL A   1      38.908  30.706  30.777  1.00  0.00     0.023 A 
ATOM     73  C   UNL A   1      37.920  31.500  30.174  1.00  0.00     0.031 A 
ATOM     74  C   UNL A   1      38.786  30.432  32.151  1.00  0.00     0.131 A 
ATOM     75  C   UNL A   1      36.878  32.029  30.951  1.00  0.00     0.055 A 
ATOM     76  C   UNL A   1      37.719  30.917  32.909  1.00  0.00     0.041 A 
ATOM     77  F   UNL A   1      39.704  29.680  32.779  1.00  0.00    -0.206 F 
ATOM     78  C   UNL A   1      36.763  31.732  32.311  1.00  0.00     0.022 A 
BRANCH  75  79
ATOM     79  S   UNL A   1      35.714  33.184  30.175  1.00  0.00     0.124 S 
ATOM     80  O   UNL A   1      34.757  32.273  29.558  1.00  0.00    -0.237 OA
ATOM     81  O   UNL A   1      35.230  33.941  31.325  1.00  0.00    -0.237 OA
ATOM     82  O   UNL A   1      36.551  33.937  29.244  1.00  0.00    -0.744 OA
ENDBRANCH  75  79
ENDBRANCH  48  72
BRANCH  60  83
ATOM     83  C   UNL A   1      45.104  33.521  29.235  1.00  0.00     0.023 A 
ATOM     84  C   UNL A   1      44.793  34.633  28.432  1.00  0.00     0.031 A 
ATOM     85  C   UNL A   1      45.995  33.710  30.305  1.00  0.00     0.131 A 
ATOM     86  C   UNL A   1      45.411  35.868  28.678  1.00  0.00     0.055 A 
ATOM     87  C   UNL A   1      46.561  34.955  30.583  1.00  0.00     0.041 A 
ATOM     88  F   UNL A   1      46.330  32.684  31.105  1.00  0.00    -0.206 F 
ATOM     89  C   UNL A   1      46.280  36.040  29.758  1.00  0.00     0.022 A 
BRANCH  86  90
ATOM     90  S   UNL A   1      45.137  37.230  27.511  1.00  0.00     0.124 S 
ATOM     91  O   UNL A   1      46.326  37.151  26.667  1.00  0.00    -0.237 OA
ATOM     92  O   UNL A   1      43.879  36.849  26.877  1.00  0.00    -0.237 OA
ATOM     93  O   UNL A   1      45.064  38.410  28.370  1.00  0.00    -0.744 OA
ENDBRANCH  86  90
ENDBRANCH  60  83
ENDBRANCH  34  35
ENDBRANCH  27  29
ENDBRANCH  26  27
ENDBRANCH  25  26
ENDBRANCH  24  25
ENDBRANCH   1  24
TORSDOF 21
ENDMDL
MODEL 3
REMARK VINA RESULT:     -11.1      5.295      9.786
REMARK SMILES COc1ccc2cc([C@@H](O)[C@H](F)C(=O)OCCOCCOC(=O)c3ccc(-c4c5nc(c(-c6cc(S(=O)(=O)[O-])ccc6F)c6ccc([nH]6)c(-c6cc(S(=O)(=O)[O-])ccc6F)c6nc(c(-c7cc(S(=O)(=O)[O-])ccc7F)c7ccc4[nH]7)C=C6)C=C5)cc3)ccc2c1
REMARK SMILES IDX 18 1 17 2 16 3 15 4 13 5 14 6 11 7 12 8 9 9 8 10 3 11 4 12
REMARK SMILES IDX 90 13 5 14 89 15 6 16 88 17 7 18 87 19 2 20 1 21 10 22 19 24
REMARK SMILES IDX 20 25 21 26 22 27 23 28 24 29 25 30 86 31 26 32 85 33 27 34
REMARK SMILES IDX 28 35 29 36 79 37 30 38 84 39 78 40 80 41 31 42 83 43 77 44
REMARK SMILES IDX 76 45 32 47 64 48 44 49 63 50 45 51 48 52 62 53 81 54 46 55
REMARK SMILES IDX 47 56 61 58 82 59 49 60 33 61 34 62 42 63 35 64 41 65 43 66
REMARK SMILES IDX 40 67 36 68 37 69 38 70 39 71 65 72 66 73 74 74 67 75 73 76
REMARK SMILES IDX 75 77 72 78 68 79 69 80 70 81 71 82 50 83 51 84 59 85 52 86
REMARK SMILES IDX 58 87 60 88 57 89 53 90 54 91 55 92 56 93
REMARK H PARENT 10 23 80 46 48 57
REMARK Flexibility Score: inf
ROOT
ATOM      1  O   UNL A   1      32.542  35.521  28.786  1.00  0.00    -0.374 OA
ENDROOT
BRANCH   1   2
ATOM      2  C   UNL A   1      33.328  35.963  29.895  1.00  0.00     0.202 C 
BRANCH   2   3
ATOM      3  C   UNL A   1      32.607  35.991  31.244  1.00  0.00     0.261 C 
BRANCH   3   4
ATOM      4  O   UNL A   1      33.290  35.131  32.166  1.00  0.00    -0.461 OA
BRANCH   4   5
ATOM      5  C   UNL A   1      34.281  35.692  32.907  1.00  0.00     0.343 C 
ATOM      6  O   UNL A   1      34.329  36.867  33.251  1.00  0.00    -0.249 OA
BRANCH   5   7
ATOM      7  C   UNL A   1      35.313  34.656  33.296  1.00  0.00     0.308 C 
ATOM      8  F   UNL A   1      34.986  33.996  34.451  1.00  0.00    -0.232 F 
BRANCH   7   9
ATOM      9  C   UNL A   1      35.473  33.664  32.138  1.00  0.00     0.190 C 
BRANCH   9  10
ATOM     10  C   UNL A   1      36.880  33.727  31.580  1.00  0.00    -0.015 A 
ATOM     11  C   UNL A   1      41.869  34.343  30.871  1.00  0.00     0.119 A 
ATOM     12  C   UNL A   1      41.637  34.597  32.221  1.00  0.00     0.047 A 
ATOM     13  C   UNL A   1      40.797  34.046  30.026  1.00  0.00     0.055 A 
ATOM     14  C   UNL A   1      40.342  34.509  32.735  1.00  0.00     0.012 A 
ATOM     15  C   UNL A   1      39.490  33.945  30.529  1.00  0.00    -0.015 A 
ATOM     16  C   UNL A   1      39.263  34.171  31.904  1.00  0.00    -0.018 A 
ATOM     17  C   UNL A   1      38.405  33.626  29.698  1.00  0.00     0.009 A 
ATOM     18  C   UNL A   1      37.962  34.060  32.413  1.00  0.00     0.015 A 
ATOM     19  C   UNL A   1      37.113  33.521  30.216  1.00  0.00     0.007 A 
BRANCH  11  20
ATOM     20  O   UNL A   1      43.098  34.400  30.271  1.00  0.00    -0.497 OA
ATOM     21  C   UNL A   1      44.161  33.868  31.054  1.00  0.00     0.278 C 
ENDBRANCH  11  20
ENDBRANCH   9  10
BRANCH   9  22
ATOM     22  O   UNL A   1      35.215  32.318  32.554  1.00  0.00    -0.385 OA
ATOM     23  H   UNL A   1      35.529  31.703  31.872  1.00  0.00     0.211 HD
ENDBRANCH   9  22
ENDBRANCH   7   9
ENDBRANCH   5   7
ENDBRANCH   4   5
ENDBRANCH   3   4
ENDBRANCH   2   3
ENDBRANCH   1   2
BRANCH   1  24
ATOM     24  C   UNL A   1      32.980  34.355  28.086  1.00  0.00     0.202 C 
BRANCH  24  25
ATOM     25  C   UNL A   1      34.044  33.484  28.766  1.00  0.00     0.261 C 
BRANCH  25  26
ATOM     26  O   UNL A   1      34.826  32.726  27.827  1.00  0.00    -0.460 OA
BRANCH  26  27
ATOM     27  C   UNL A   1      34.524  31.408  27.772  1.00  0.00     0.338 C 
ATOM     28  O   UNL A   1      33.472  30.911  27.389  1.00  0.00    -0.246 OA
BRANCH  27  29
ATOM     29  C   UNL A   1      35.722  30.601  28.064  1.00  0.00     0.060 A 
ATOM     30  C   UNL A   1      35.653  29.704  29.137  1.00  0.00     0.016 A 
ATOM     31  C   UNL A   1      36.914  30.768  27.355  1.00  0.00     0.016 A 
ATOM     32  C   UNL A   1      36.787  29.003  29.536  1.00  0.00     0.010 A 
ATOM     33  C   UNL A   1      38.057  30.070  27.765  1.00  0.00     0.010 A 
ATOM     34  C   UNL A   1      38.007  29.210  28.878  1.00  0.00    -0.014 A 
BRANCH  34  35
ATOM     35  C   UNL A   1      39.251  28.642  29.454  1.00  0.00     0.031 A 
ATOM     36  C   UNL A   1      39.806  29.242  30.717  1.00  0.00     0.074 A 
ATOM     37  C   UNL A   1      39.853  27.583  28.883  1.00  0.00     0.049 A 
ATOM     38  N   UNL A   1      40.888  28.929  31.381  1.00  0.00    -0.248 NA
ATOM     39  C   UNL A   1      39.036  30.348  31.306  1.00  0.00     0.031 C 
ATOM     40  C   UNL A   1      39.379  26.889  27.687  1.00  0.00     0.029 A 
ATOM     41  N   UNL A   1      40.995  26.909  29.234  1.00  0.00    -0.354 N 
ATOM     42  C   UNL A   1      40.932  29.797  32.466  1.00  0.00     0.074 A 
ATOM     43  C   UNL A   1      39.786  30.675  32.347  1.00  0.00     0.031 C 
ATOM     44  C   UNL A   1      40.231  25.891  27.397  1.00  0.00     0.029 A 
ATOM     45  C   UNL A   1      41.329  25.898  28.362  1.00  0.00     0.049 A 
ATOM     46  H   UNL A   1      41.526  27.128  30.033  1.00  0.00     0.167 HD
ATOM     47  C   UNL A   1      41.839  29.851  33.473  1.00  0.00     0.034 A 
ATOM     48  C   UNL A   1      42.409  25.091  28.335  1.00  0.00     0.034 A 
ATOM     49  C   UNL A   1      42.983  28.978  33.570  1.00  0.00     0.049 A 
ATOM     50  C   UNL A   1      43.454  25.230  29.415  1.00  0.00     0.074 A 
ATOM     51  C   UNL A   1      43.957  28.937  34.552  1.00  0.00     0.029 A 
ATOM     52  N   UNL A   1      43.317  28.000  32.642  1.00  0.00    -0.354 N 
ATOM     53  N   UNL A   1      43.480  26.050  30.442  1.00  0.00    -0.248 NA
ATOM     54  C   UNL A   1      44.611  24.328  29.338  1.00  0.00     0.031 C 
ATOM     55  C   UNL A   1      44.916  27.987  34.182  1.00  0.00     0.029 A 
ATOM     56  C   UNL A   1      44.500  27.376  33.009  1.00  0.00     0.049 A 
ATOM     57  H   UNL A   1      42.790  27.781  31.839  1.00  0.00     0.167 HD
ATOM     58  C   UNL A   1      44.641  25.739  31.147  1.00  0.00     0.074 A 
ATOM     59  C   UNL A   1      45.278  24.650  30.437  1.00  0.00     0.031 C 
ATOM     60  C   UNL A   1      45.132  26.298  32.283  1.00  0.00     0.034 A 
BRANCH  47  61
ATOM     61  C   UNL A   1      41.652  30.928  34.516  1.00  0.00     0.023 A 
ATOM     62  C   UNL A   1      40.557  30.926  35.397  1.00  0.00     0.031 A 
ATOM     63  C   UNL A   1      42.568  31.991  34.607  1.00  0.00     0.131 A 
ATOM     64  C   UNL A   1      40.367  31.999  36.283  1.00  0.00     0.055 A 
ATOM     65  C   UNL A   1      42.415  33.017  35.543  1.00  0.00     0.041 A 
ATOM     66  F   UNL A   1      43.620  32.061  33.777  1.00  0.00    -0.206 F 
ATOM     67  C   UNL A   1      41.303  33.032  36.377  1.00  0.00     0.022 A 
BRANCH  64  68
ATOM     68  S   UNL A   1      38.809  32.098  37.207  1.00  0.00     0.124 S 
ATOM     69  O   UNL A   1      38.143  33.217  36.544  1.00  0.00    -0.237 OA
ATOM     70  O   UNL A   1      38.225  30.781  36.981  1.00  0.00    -0.237 OA
ATOM     71  O   UNL A   1      39.240  32.363  38.577  1.00  0.00    -0.744 OA
ENDBRANCH  64  68
ENDBRANCH  47  61
BRANCH  48  72
ATOM     72  C   UNL A   1      42.590  24.110  27.226  1.00  0.00     0.023 A 
ATOM     73  C   UNL A   1      41.995  22.839  27.273  1.00  0.00     0.031 A 
ATOM     74  C   UNL A   1      43.411  24.413  26.125  1.00  0.00     0.131 A 
ATOM     75  C   UNL A   1      42.266  21.903  26.264  1.00  0.00     0.055 A 
ATOM     76  C   UNL A   1      43.636  23.497  25.097  1.00  0.00     0.041 A 
ATOM     77  F   UNL A   1      44.006  25.613  26.031  1.00  0.00    -0.206 F 
ATOM     78  C   UNL A   1      43.072  22.227  25.170  1.00  0.00     0.022 A 
BRANCH  75  79
ATOM     79  S   UNL A   1      41.617  20.218  26.442  1.00  0.00     0.124 S 
ATOM     80  O   UNL A   1      42.235  19.540  25.308  1.00  0.00    -0.237 OA
ATOM     81  O   UNL A   1      42.113  19.843  27.763  1.00  0.00    -0.237 OA
ATOM     82  O   UNL A   1      40.170  20.399  26.351  1.00  0.00    -0.744 OA
ENDBRANCH  75  79
ENDBRANCH  48  72
BRANCH  60  83
ATOM     83  C   UNL A   1      46.400  25.704  32.849  1.00  0.00     0.023 A 
ATOM     84  C   UNL A   1      47.670  26.069  32.369  1.00  0.00     0.031 A 
ATOM     85  C   UNL A   1      46.333  24.751  33.881  1.00  0.00     0.131 A 
ATOM     86  C   UNL A   1      48.817  25.444  32.881  1.00  0.00     0.055 A 
ATOM     87  C   UNL A   1      47.481  24.177  34.429  1.00  0.00     0.041 A 
ATOM     88  F   UNL A   1      45.147  24.364  34.377  1.00  0.00    -0.206 F 
ATOM     89  C   UNL A   1      48.732  24.512  33.919  1.00  0.00     0.022 A 
BRANCH  86  90
ATOM     90  S   UNL A   1      50.421  25.795  32.110  1.00  0.00     0.124 S 
ATOM     91  O   UNL A   1      50.088  25.762  30.688  1.00  0.00    -0.237 OA
ATOM     92  O   UNL A   1      50.749  27.108  32.656  1.00  0.00    -0.237 OA
ATOM     93  O   UNL A   1      51.273  24.702  32.573  1.00  0.00    -0.744 OA
ENDBRANCH  86  90
ENDBRANCH  60  83
ENDBRANCH  34  35
ENDBRANCH  27  29
ENDBRANCH  26  27
ENDBRANCH  25  26
ENDBRANCH  24  25
ENDBRANCH   1  24
TORSDOF 21
ENDMDL
