MODEL 1
REMARK VINA RESULT:     -11.8      0.000      0.000
REMARK SMILES O=C(OCCOCCOC(=O)c1ccc(-c2c3nc(c(-c4cc(S(=O)(=O)[O-])ccc4F)c4ccc([nH]4)c(-c4cc(S(=O)(=O)[O-])ccc4F)c4nc(c(-c5cc(S(=O)(=O)[O-])ccc5F)c5ccc2[nH]5)C=C4)C=C3)cc1)C1=Cc2c(cc(Cl)c(Cl)c2Cl)O[C@H]1C(F)(F)F
REMARK SMILES IDX 7 1 6 2 5 3 4 4 3 5 2 6 1 7 75 8 76 9 87 10 77 11 86 12
REMARK SMILES IDX 78 13 84 14 79 15 82 16 85 17 80 18 83 19 81 20 88 21 89 22
REMARK SMILES IDX 90 23 91 24 8 25 9 26 10 27 11 28 12 29 13 30 74 31 14 32
REMARK SMILES IDX 73 33 15 34 16 35 17 36 67 37 18 38 72 39 66 40 68 41 19 42
REMARK SMILES IDX 71 43 65 44 64 45 20 47 52 48 32 49 51 50 33 51 36 52 50 53
REMARK SMILES IDX 69 54 34 55 35 56 49 58 70 59 37 60 21 61 22 62 30 63 23 64
REMARK SMILES IDX 29 65 31 66 28 67 24 68 25 69 26 70 27 71 53 72 54 73 62 74
REMARK SMILES IDX 55 75 61 76 63 77 60 78 56 79 57 80 58 81 59 82 38 83 39 84
REMARK SMILES IDX 47 85 40 86 46 87 48 88 45 89 41 90 42 91 43 92 44 93
REMARK H PARENT 68 46 36 57
REMARK Flexibility Score: inf
ROOT
ATOM      1  C   UNL A   1      35.848  21.680  25.871  1.00  0.00     0.202 C 
ENDROOT
BRANCH   1   2
ATOM      2  O   UNL A   1      34.524  21.466  25.387  1.00  0.00    -0.374 OA
BRANCH   2   3
ATOM      3  C   UNL A   1      33.633  20.977  26.390  1.00  0.00     0.202 C 
BRANCH   3   4
ATOM      4  C   UNL A   1      33.672  21.839  27.654  1.00  0.00     0.261 C 
BRANCH   4   5
ATOM      5  O   UNL A   1      33.347  23.221  27.418  1.00  0.00    -0.460 OA
BRANCH   5   6
ATOM      6  C   UNL A   1      32.207  23.710  26.883  1.00  0.00     0.338 C 
ATOM      7  O   UNL A   1      31.133  23.471  27.435  1.00  0.00    -0.246 OA
BRANCH   6   8
ATOM      8  C   UNL A   1      32.200  24.650  25.735  1.00  0.00     0.087 C 
ATOM      9  C   UNL A   1      32.912  25.779  25.652  1.00  0.00     0.029 C 
ATOM     10  C   UNL A   1      31.167  24.333  24.676  1.00  0.00     0.316 C 
ATOM     11  C   UNL A   1      32.145  26.943  25.204  1.00  0.00     0.038 A 
ATOM     12  O   UNL A   1      30.843  25.462  23.799  1.00  0.00    -0.475 OA
ATOM     13  C   UNL A   1      31.125  26.714  24.282  1.00  0.00     0.131 A 
ATOM     14  C   UNL A   1      32.342  28.238  25.734  1.00  0.00     0.072 A 
ATOM     15  C   UNL A   1      30.364  27.777  23.818  1.00  0.00     0.069 A 
ATOM     16  C   UNL A   1      31.552  29.307  25.294  1.00  0.00     0.079 A 
ATOM     17  Cl  UNL A   1      33.503  28.495  26.997  1.00  0.00    -0.082 Cl
ATOM     18  C   UNL A   1      30.572  29.068  24.322  1.00  0.00     0.064 A 
ATOM     19  Cl  UNL A   1      31.766  30.897  25.965  1.00  0.00    -0.081 Cl
ATOM     20  Cl  UNL A   1      29.554  30.327  23.715  1.00  0.00    -0.083 Cl
BRANCH  10  21
ATOM     21  C   UNL A   1      31.608  23.112  23.824  1.00  0.00     0.430 C 
ATOM     22  F   UNL A   1      30.926  22.990  22.659  1.00  0.00    -0.167 F 
ATOM     23  F   UNL A   1      32.925  23.177  23.514  1.00  0.00    -0.167 F 
ATOM     24  F   UNL A   1      31.422  21.943  24.488  1.00  0.00    -0.167 F 
ENDBRANCH  10  21
ENDBRANCH   6   8
ENDBRANCH   5   6
ENDBRANCH   4   5
ENDBRANCH   3   4
ENDBRANCH   2   3
ENDBRANCH   1   2
BRANCH   1  25
ATOM     25  C   UNL A   1      36.898  20.782  25.206  1.00  0.00     0.261 C 
BRANCH  25  26
ATOM     26  O   UNL A   1      38.156  21.462  25.046  1.00  0.00    -0.460 OA
BRANCH  26  27
ATOM     27  C   UNL A   1      39.148  21.127  25.919  1.00  0.00     0.338 C 
ATOM     28  O   UNL A   1      39.586  20.011  26.114  1.00  0.00    -0.246 OA
BRANCH  27  29
ATOM     29  C   UNL A   1      39.733  22.363  26.525  1.00  0.00     0.060 A 
ATOM     30  C   UNL A   1      39.214  23.613  26.147  1.00  0.00     0.016 A 
ATOM     31  C   UNL A   1      40.751  22.308  27.483  1.00  0.00     0.016 A 
ATOM     32  C   UNL A   1      39.696  24.795  26.734  1.00  0.00     0.010 A 
ATOM     33  C   UNL A   1      41.236  23.485  28.062  1.00  0.00     0.010 A 
ATOM     34  C   UNL A   1      40.723  24.737  27.687  1.00  0.00    -0.014 A 
BRANCH  34  35
ATOM     35  C   UNL A   1      41.459  25.953  28.125  1.00  0.00     0.031 A 
ATOM     36  C   UNL A   1      40.663  27.026  28.813  1.00  0.00     0.074 A 
ATOM     37  C   UNL A   1      42.755  26.167  27.829  1.00  0.00     0.049 A 
ATOM     38  N   UNL A   1      40.993  28.256  29.108  1.00  0.00    -0.248 NA
ATOM     39  C   UNL A   1      39.292  26.656  29.189  1.00  0.00     0.031 C 
ATOM     40  C   UNL A   1      43.651  25.202  27.198  1.00  0.00     0.029 A 
ATOM     41  N   UNL A   1      43.532  27.291  27.995  1.00  0.00    -0.354 N 
ATOM     42  C   UNL A   1      39.862  28.815  29.691  1.00  0.00     0.074 A 
ATOM     43  C   UNL A   1      38.832  27.798  29.670  1.00  0.00     0.031 C 
ATOM     44  C   UNL A   1      44.849  25.784  27.005  1.00  0.00     0.029 A 
ATOM     45  C   UNL A   1      44.792  27.179  27.450  1.00  0.00     0.049 A 
ATOM     46  H   UNL A   1      43.218  28.100  28.460  1.00  0.00     0.167 HD
ATOM     47  C   UNL A   1      39.692  30.063  30.195  1.00  0.00     0.034 A 
ATOM     48  C   UNL A   1      45.768  28.101  27.292  1.00  0.00     0.034 A 
ATOM     49  C   UNL A   1      40.707  31.085  30.158  1.00  0.00     0.049 A 
ATOM     50  C   UNL A   1      45.531  29.522  27.764  1.00  0.00     0.074 A 
ATOM     51  C   UNL A   1      40.640  32.382  30.632  1.00  0.00     0.029 A 
ATOM     52  N   UNL A   1      41.963  30.935  29.585  1.00  0.00    -0.354 N 
ATOM     53  N   UNL A   1      44.462  30.041  28.325  1.00  0.00    -0.248 NA
ATOM     54  C   UNL A   1      46.630  30.481  27.578  1.00  0.00     0.031 C 
ATOM     55  C   UNL A   1      41.817  33.043  30.264  1.00  0.00     0.029 A 
ATOM     56  C   UNL A   1      42.664  32.130  29.656  1.00  0.00     0.049 A 
ATOM     57  H   UNL A   1      42.307  30.104  29.186  1.00  0.00     0.167 HD
ATOM     58  C   UNL A   1      44.777  31.374  28.592  1.00  0.00     0.074 A 
ATOM     59  C   UNL A   1      46.131  31.581  28.126  1.00  0.00     0.031 C 
ATOM     60  C   UNL A   1      44.017  32.333  29.185  1.00  0.00     0.034 A 
BRANCH  47  61
ATOM     61  C   UNL A   1      38.320  30.389  30.739  1.00  0.00     0.023 A 
ATOM     62  C   UNL A   1      37.327  30.969  29.929  1.00  0.00     0.031 A 
ATOM     63  C   UNL A   1      38.042  30.227  32.107  1.00  0.00     0.131 A 
ATOM     64  C   UNL A   1      36.161  31.481  30.515  1.00  0.00     0.055 A 
ATOM     65  C   UNL A   1      36.829  30.639  32.664  1.00  0.00     0.041 A 
ATOM     66  F   UNL A   1      38.959  29.705  32.936  1.00  0.00    -0.206 F 
ATOM     67  C   UNL A   1      35.891  31.295  31.872  1.00  0.00     0.022 A 
BRANCH  64  68
ATOM     68  S   UNL A   1      35.120  32.592  29.527  1.00  0.00     0.124 S 
ATOM     69  O   UNL A   1      36.120  33.467  28.919  1.00  0.00    -0.237 OA
ATOM     70  O   UNL A   1      34.443  31.671  28.623  1.00  0.00    -0.237 OA
ATOM     71  O   UNL A   1      34.265  33.236  30.522  1.00  0.00    -0.744 OA
ENDBRANCH  64  68
ENDBRANCH  47  61
BRANCH  48  72
ATOM     72  C   UNL A   1      47.041  27.740  26.595  1.00  0.00     0.023 A 
ATOM     73  C   UNL A   1      47.186  27.880  25.204  1.00  0.00     0.031 A 
ATOM     74  C   UNL A   1      48.127  27.211  27.317  1.00  0.00     0.131 A 
ATOM     75  C   UNL A   1      48.379  27.471  24.579  1.00  0.00     0.055 A 
ATOM     76  C   UNL A   1      49.326  26.855  26.698  1.00  0.00     0.041 A 
ATOM     77  F   UNL A   1      48.040  27.043  28.647  1.00  0.00    -0.206 F 
ATOM     78  C   UNL A   1      49.454  26.977  25.320  1.00  0.00     0.022 A 
BRANCH  75  79
ATOM     79  S   UNL A   1      48.488  27.535  22.767  1.00  0.00     0.124 S 
ATOM     80  O   UNL A   1      49.739  28.258  22.572  1.00  0.00    -0.237 OA
ATOM     81  O   UNL A   1      48.501  26.120  22.412  1.00  0.00    -0.237 OA
ATOM     82  O   UNL A   1      47.280  28.260  22.379  1.00  0.00    -0.744 OA
ENDBRANCH  75  79
ENDBRANCH  48  72
BRANCH  60  83
ATOM     83  C   UNL A   1      44.648  33.684  29.442  1.00  0.00     0.023 A 
ATOM     84  C   UNL A   1      44.665  34.708  28.478  1.00  0.00     0.031 A 
ATOM     85  C   UNL A   1      45.202  33.961  30.707  1.00  0.00     0.131 A 
ATOM     86  C   UNL A   1      45.249  35.949  28.788  1.00  0.00     0.055 A 
ATOM     87  C   UNL A   1      45.726  35.214  31.028  1.00  0.00     0.041 A 
ATOM     88  F   UNL A   1      45.219  33.020  31.665  1.00  0.00    -0.206 F 
ATOM     89  C   UNL A   1      45.758  36.215  30.063  1.00  0.00     0.022 A 
BRANCH  86  90
ATOM     90  S   UNL A   1      45.400  37.201  27.483  1.00  0.00     0.124 S 
ATOM     91  O   UNL A   1      46.324  38.157  28.084  1.00  0.00    -0.237 OA
ATOM     92  O   UNL A   1      45.924  36.426  26.363  1.00  0.00    -0.237 OA
ATOM     93  O   UNL A   1      44.031  37.685  27.312  1.00  0.00    -0.744 OA
ENDBRANCH  86  90
ENDBRANCH  60  83
ENDBRANCH  34  35
ENDBRANCH  27  29
ENDBRANCH  26  27
ENDBRANCH  25  26
ENDBRANCH   1  25
TORSDOF 18
ENDMDL
MODEL 2
REMARK VINA RESULT:     -11.6      1.456      1.947
REMARK SMILES O=C(OCCOCCOC(=O)c1ccc(-c2c3nc(c(-c4cc(S(=O)(=O)[O-])ccc4F)c4ccc([nH]4)c(-c4cc(S(=O)(=O)[O-])ccc4F)c4nc(c(-c5cc(S(=O)(=O)[O-])ccc5F)c5ccc2[nH]5)C=C4)C=C3)cc1)C1=Cc2c(cc(Cl)c(Cl)c2Cl)O[C@H]1C(F)(F)F
REMARK SMILES IDX 7 1 6 2 5 3 4 4 3 5 2 6 1 7 75 8 76 9 87 10 77 11 86 12
REMARK SMILES IDX 78 13 84 14 79 15 82 16 85 17 80 18 83 19 81 20 88 21 89 22
REMARK SMILES IDX 90 23 91 24 8 25 9 26 10 27 11 28 12 29 13 30 74 31 14 32
REMARK SMILES IDX 73 33 15 34 16 35 17 36 67 37 18 38 72 39 66 40 68 41 19 42
REMARK SMILES IDX 71 43 65 44 64 45 20 47 52 48 32 49 51 50 33 51 36 52 50 53
REMARK SMILES IDX 69 54 34 55 35 56 49 58 70 59 37 60 21 61 22 62 30 63 23 64
REMARK SMILES IDX 29 65 31 66 28 67 24 68 25 69 26 70 27 71 53 72 54 73 62 74
REMARK SMILES IDX 55 75 61 76 63 77 60 78 56 79 57 80 58 81 59 82 38 83 39 84
REMARK SMILES IDX 47 85 40 86 46 87 48 88 45 89 41 90 42 91 43 92 44 93
REMARK H PARENT 68 46 36 57
REMARK Flexibility Score: inf
ROOT
ATOM      1  C   UNL A   1      35.483  21.694  26.156  1.00  0.00     0.202 C 
ENDROOT
BRANCH   1   2
ATOM      2  O   UNL A   1      34.149  21.790  25.664  1.00  0.00    -0.374 OA
BRANCH   2   3
ATOM      3  C   UNL A   1      33.920  20.991  24.502  1.00  0.00     0.202 C 
BRANCH   3   4
ATOM      4  C   UNL A   1      32.647  21.413  23.764  1.00  0.00     0.261 C 
BRANCH   4   5
ATOM      5  O   UNL A   1      32.390  22.829  23.826  1.00  0.00    -0.460 OA
BRANCH   5   6
ATOM      6  C   UNL A   1      31.507  23.462  24.628  1.00  0.00     0.338 C 
ATOM      7  O   UNL A   1      30.772  22.796  25.357  1.00  0.00    -0.246 OA
BRANCH   6   8
ATOM      8  C   UNL A   1      31.481  24.938  24.782  1.00  0.00     0.087 C 
ATOM      9  C   UNL A   1      30.407  25.664  25.109  1.00  0.00     0.029 C 
ATOM     10  C   UNL A   1      32.760  25.630  24.367  1.00  0.00     0.316 C 
ATOM     11  C   UNL A   1      30.196  26.842  24.264  1.00  0.00     0.038 A 
ATOM     12  O   UNL A   1      32.601  27.060  24.084  1.00  0.00    -0.475 OA
ATOM     13  C   UNL A   1      31.334  27.488  23.783  1.00  0.00     0.131 A 
ATOM     14  C   UNL A   1      28.914  27.273  23.859  1.00  0.00     0.072 A 
ATOM     15  C   UNL A   1      31.200  28.612  22.979  1.00  0.00     0.069 A 
ATOM     16  C   UNL A   1      28.776  28.385  23.018  1.00  0.00     0.079 A 
ATOM     17  Cl  UNL A   1      27.505  26.374  24.326  1.00  0.00    -0.082 Cl
ATOM     18  C   UNL A   1      29.929  29.058  22.595  1.00  0.00     0.064 A 
ATOM     19  Cl  UNL A   1      27.203  28.901  22.488  1.00  0.00    -0.081 Cl
ATOM     20  Cl  UNL A   1      29.856  30.443  21.562  1.00  0.00    -0.083 Cl
BRANCH  10  21
ATOM     21  C   UNL A   1      33.870  25.423  25.433  1.00  0.00     0.430 C 
ATOM     22  F   UNL A   1      34.360  26.581  25.938  1.00  0.00    -0.167 F 
ATOM     23  F   UNL A   1      33.418  24.688  26.478  1.00  0.00    -0.167 F 
ATOM     24  F   UNL A   1      34.938  24.759  24.922  1.00  0.00    -0.167 F 
ENDBRANCH  10  21
ENDBRANCH   6   8
ENDBRANCH   5   6
ENDBRANCH   4   5
ENDBRANCH   3   4
ENDBRANCH   2   3
ENDBRANCH   1   2
BRANCH   1  25
ATOM     25  C   UNL A   1      36.391  20.806  25.296  1.00  0.00     0.261 C 
BRANCH  25  26
ATOM     26  O   UNL A   1      37.635  21.459  24.984  1.00  0.00    -0.460 OA
BRANCH  26  27
ATOM     27  C   UNL A   1      38.730  21.061  25.692  1.00  0.00     0.338 C 
ATOM     28  O   UNL A   1      39.184  19.936  25.739  1.00  0.00    -0.246 OA
BRANCH  27  29
ATOM     29  C   UNL A   1      39.393  22.248  26.315  1.00  0.00     0.060 A 
ATOM     30  C   UNL A   1      38.938  23.533  25.976  1.00  0.00     0.016 A 
ATOM     31  C   UNL A   1      40.423  22.114  27.252  1.00  0.00     0.016 A 
ATOM     32  C   UNL A   1      39.495  24.673  26.581  1.00  0.00     0.010 A 
ATOM     33  C   UNL A   1      40.983  23.248  27.848  1.00  0.00     0.010 A 
ATOM     34  C   UNL A   1      40.534  24.536  27.512  1.00  0.00    -0.014 A 
BRANCH  34  35
ATOM     35  C   UNL A   1      41.345  25.699  27.964  1.00  0.00     0.031 A 
ATOM     36  C   UNL A   1      40.628  26.782  28.720  1.00  0.00     0.074 A 
ATOM     37  C   UNL A   1      42.638  25.862  27.625  1.00  0.00     0.049 A 
ATOM     38  N   UNL A   1      41.028  27.983  29.045  1.00  0.00    -0.248 NA
ATOM     39  C   UNL A   1      39.255  26.463  29.135  1.00  0.00     0.031 C 
ATOM     40  C   UNL A   1      43.461  24.879  26.927  1.00  0.00     0.029 A 
ATOM     41  N   UNL A   1      43.474  26.941  27.801  1.00  0.00    -0.354 N 
ATOM     42  C   UNL A   1      39.948  28.573  29.691  1.00  0.00     0.074 A 
ATOM     43  C   UNL A   1      38.870  27.608  29.673  1.00  0.00     0.031 C 
ATOM     44  C   UNL A   1      44.678  25.411  26.708  1.00  0.00     0.029 A 
ATOM     45  C   UNL A   1      44.707  26.789  27.204  1.00  0.00     0.049 A 
ATOM     46  H   UNL A   1      43.218  27.745  28.306  1.00  0.00     0.167 HD
ATOM     47  C   UNL A   1      39.858  29.808  30.244  1.00  0.00     0.034 A 
ATOM     48  C   UNL A   1      45.719  27.669  27.040  1.00  0.00     0.034 A 
ATOM     49  C   UNL A   1      40.919  30.781  30.203  1.00  0.00     0.049 A 
ATOM     50  C   UNL A   1      45.570  29.081  27.571  1.00  0.00     0.074 A 
ATOM     51  C   UNL A   1      40.934  32.062  30.725  1.00  0.00     0.029 A 
ATOM     52  N   UNL A   1      42.145  30.594  29.577  1.00  0.00    -0.354 N 
ATOM     53  N   UNL A   1      44.549  29.629  28.191  1.00  0.00    -0.248 NA
ATOM     54  C   UNL A   1      46.706  29.993  27.377  1.00  0.00     0.031 C 
ATOM     55  C   UNL A   1      42.127  32.680  30.335  1.00  0.00     0.029 A 
ATOM     56  C   UNL A   1      42.905  31.750  29.663  1.00  0.00     0.049 A 
ATOM     57  H   UNL A   1      42.432  29.762  29.136  1.00  0.00     0.167 HD
ATOM     58  C   UNL A   1      44.938  30.935  28.492  1.00  0.00     0.074 A 
ATOM     59  C   UNL A   1      46.283  31.095  27.982  1.00  0.00     0.031 C 
ATOM     60  C   UNL A   1      44.248  31.906  29.148  1.00  0.00     0.034 A 
BRANCH  47  61
ATOM     61  C   UNL A   1      38.525  30.179  30.852  1.00  0.00     0.023 A 
ATOM     62  C   UNL A   1      37.507  30.774  30.085  1.00  0.00     0.031 A 
ATOM     63  C   UNL A   1      38.313  30.044  32.235  1.00  0.00     0.131 A 
ATOM     64  C   UNL A   1      36.386  31.324  30.721  1.00  0.00     0.055 A 
ATOM     65  C   UNL A   1      37.142  30.495  32.846  1.00  0.00     0.041 A 
ATOM     66  F   UNL A   1      39.258  29.509  33.024  1.00  0.00    -0.206 F 
ATOM     67  C   UNL A   1      36.182  31.165  32.093  1.00  0.00     0.022 A 
BRANCH  64  68
ATOM     68  S   UNL A   1      35.325  32.449  29.770  1.00  0.00     0.124 S 
ATOM     69  O   UNL A   1      34.887  31.585  28.676  1.00  0.00    -0.237 OA
ATOM     70  O   UNL A   1      34.302  32.817  30.742  1.00  0.00    -0.237 OA
ATOM     71  O   UNL A   1      36.232  33.525  29.376  1.00  0.00    -0.744 OA
ENDBRANCH  64  68
ENDBRANCH  47  61
BRANCH  48  72
ATOM     72  C   UNL A   1      46.946  27.274  26.283  1.00  0.00     0.023 A 
ATOM     73  C   UNL A   1      47.132  27.636  24.937  1.00  0.00     0.031 A 
ATOM     74  C   UNL A   1      47.943  26.490  26.893  1.00  0.00     0.131 A 
ATOM     75  C   UNL A   1      48.272  27.192  24.242  1.00  0.00     0.055 A 
ATOM     76  C   UNL A   1      49.097  26.095  26.212  1.00  0.00     0.041 A 
ATOM     77  F   UNL A   1      47.814  26.103  28.173  1.00  0.00    -0.206 F 
ATOM     78  C   UNL A   1      49.262  26.440  24.877  1.00  0.00     0.022 A 
BRANCH  75  79
ATOM     79  S   UNL A   1      48.418  27.559  22.468  1.00  0.00     0.124 S 
ATOM     80  O   UNL A   1      47.189  28.302  22.218  1.00  0.00    -0.237 OA
ATOM     81  O   UNL A   1      49.657  28.329  22.418  1.00  0.00    -0.237 OA
ATOM     82  O   UNL A   1      48.486  26.236  21.852  1.00  0.00    -0.744 OA
ENDBRANCH  75  79
ENDBRANCH  48  72
BRANCH  60  83
ATOM     83  C   UNL A   1      44.954  33.215  29.427  1.00  0.00     0.023 A 
ATOM     84  C   UNL A   1      44.948  34.288  28.518  1.00  0.00     0.031 A 
ATOM     85  C   UNL A   1      45.605  33.402  30.662  1.00  0.00     0.131 A 
ATOM     86  C   UNL A   1      45.606  35.487  28.848  1.00  0.00     0.055 A 
ATOM     87  C   UNL A   1      46.204  34.614  31.007  1.00  0.00     0.041 A 
ATOM     88  F   UNL A   1      45.648  32.411  31.567  1.00  0.00    -0.206 F 
ATOM     89  C   UNL A   1      46.212  35.663  30.095  1.00  0.00     0.022 A 
BRANCH  86  90
ATOM     90  S   UNL A   1      45.719  36.800  27.600  1.00  0.00     0.124 S 
ATOM     91  O   UNL A   1      45.808  36.033  26.361  1.00  0.00    -0.237 OA
ATOM     92  O   UNL A   1      44.478  37.538  27.806  1.00  0.00    -0.237 OA
ATOM     93  O   UNL A   1      46.936  37.521  27.970  1.00  0.00    -0.744 OA
ENDBRANCH  86  90
ENDBRANCH  60  83
ENDBRANCH  34  35
ENDBRANCH  27  29
ENDBRANCH  26  27
ENDBRANCH  25  26
ENDBRANCH   1  25
TORSDOF 18
ENDMDL
MODEL 3
REMARK VINA RESULT:     -11.2      5.460     10.112
REMARK SMILES O=C(OCCOCCOC(=O)c1ccc(-c2c3nc(c(-c4cc(S(=O)(=O)[O-])ccc4F)c4ccc([nH]4)c(-c4cc(S(=O)(=O)[O-])ccc4F)c4nc(c(-c5cc(S(=O)(=O)[O-])ccc5F)c5ccc2[nH]5)C=C4)C=C3)cc1)C1=Cc2c(cc(Cl)c(Cl)c2Cl)O[C@H]1C(F)(F)F
REMARK SMILES IDX 7 1 6 2 5 3 4 4 3 5 2 6 1 7 75 8 76 9 87 10 77 11 86 12
REMARK SMILES IDX 78 13 84 14 79 15 82 16 85 17 80 18 83 19 81 20 88 21 89 22
REMARK SMILES IDX 90 23 91 24 8 25 9 26 10 27 11 28 12 29 13 30 74 31 14 32
REMARK SMILES IDX 73 33 15 34 16 35 17 36 67 37 18 38 72 39 66 40 68 41 19 42
REMARK SMILES IDX 71 43 65 44 64 45 20 47 52 48 32 49 51 50 33 51 36 52 50 53
REMARK SMILES IDX 69 54 34 55 35 56 49 58 70 59 37 60 21 61 22 62 30 63 23 64
REMARK SMILES IDX 29 65 31 66 28 67 24 68 25 69 26 70 27 71 53 72 54 73 62 74
REMARK SMILES IDX 55 75 61 76 63 77 60 78 56 79 57 80 58 81 59 82 38 83 39 84
REMARK SMILES IDX 47 85 40 86 46 87 48 88 45 89 41 90 42 91 43 92 44 93
REMARK H PARENT 68 46 36 57
REMARK Flexibility Score: inf
ROOT
ATOM      1  C   UNL A   1      32.249  28.969  23.299  1.00  0.00     0.202 C 
ENDROOT
BRANCH   1   2
ATOM      2  O   UNL A   1      31.106  28.468  22.610  1.00  0.00    -0.374 OA
BRANCH   2   3
ATOM      3  C   UNL A   1      29.965  28.317  23.454  1.00  0.00     0.202 C 
BRANCH   3   4
ATOM      4  C   UNL A   1      29.584  26.845  23.636  1.00  0.00     0.261 C 
BRANCH   4   5
ATOM      5  O   UNL A   1      30.701  25.999  23.963  1.00  0.00    -0.460 OA
BRANCH   5   6
ATOM      6  C   UNL A   1      31.439  25.257  23.107  1.00  0.00     0.338 C 
ATOM      7  O   UNL A   1      31.381  25.496  21.901  1.00  0.00    -0.246 OA
BRANCH   6   8
ATOM      8  C   UNL A   1      32.434  24.257  23.568  1.00  0.00     0.087 C 
ATOM      9  C   UNL A   1      32.873  23.215  22.854  1.00  0.00     0.029 C 
ATOM     10  C   UNL A   1      32.825  24.391  25.023  1.00  0.00     0.316 C 
ATOM     11  C   UNL A   1      32.882  21.946  23.586  1.00  0.00     0.038 A 
ATOM     12  O   UNL A   1      33.427  23.183  25.595  1.00  0.00    -0.475 OA
ATOM     13  C   UNL A   1      33.162  22.003  24.950  1.00  0.00     0.131 A 
ATOM     14  C   UNL A   1      32.534  20.716  22.986  1.00  0.00     0.072 A 
ATOM     15  C   UNL A   1      33.187  20.833  25.698  1.00  0.00     0.069 A 
ATOM     16  C   UNL A   1      32.523  19.539  23.745  1.00  0.00     0.079 A 
ATOM     17  Cl  UNL A   1      32.030  20.668  21.326  1.00  0.00    -0.082 Cl
ATOM     18  C   UNL A   1      32.866  19.607  25.101  1.00  0.00     0.064 A 
ATOM     19  Cl  UNL A   1      32.064  18.026  23.021  1.00  0.00    -0.081 Cl
ATOM     20  Cl  UNL A   1      32.886  18.206  26.114  1.00  0.00    -0.083 Cl
BRANCH  10  21
ATOM     21  C   UNL A   1      33.773  25.603  25.230  1.00  0.00     0.430 C 
ATOM     22  F   UNL A   1      33.279  26.541  26.074  1.00  0.00    -0.167 F 
ATOM     23  F   UNL A   1      34.973  25.211  25.724  1.00  0.00    -0.167 F 
ATOM     24  F   UNL A   1      34.025  26.249  24.063  1.00  0.00    -0.167 F 
ENDBRANCH  10  21
ENDBRANCH   6   8
ENDBRANCH   5   6
ENDBRANCH   4   5
ENDBRANCH   3   4
ENDBRANCH   2   3
ENDBRANCH   1   2
BRANCH   1  25
ATOM     25  C   UNL A   1      31.972  29.339  24.761  1.00  0.00     0.261 C 
BRANCH  25  26
ATOM     26  O   UNL A   1      33.163  29.782  25.434  1.00  0.00    -0.460 OA
BRANCH  26  27
ATOM     27  C   UNL A   1      32.991  30.605  26.507  1.00  0.00     0.338 C 
ATOM     28  O   UNL A   1      31.984  31.228  26.779  1.00  0.00    -0.246 OA
BRANCH  27  29
ATOM     29  C   UNL A   1      34.188  30.537  27.400  1.00  0.00     0.060 A 
ATOM     30  C   UNL A   1      34.924  31.709  27.638  1.00  0.00     0.016 A 
ATOM     31  C   UNL A   1      34.571  29.350  28.036  1.00  0.00     0.016 A 
ATOM     32  C   UNL A   1      36.021  31.701  28.515  1.00  0.00     0.010 A 
ATOM     33  C   UNL A   1      35.668  29.340  28.903  1.00  0.00     0.010 A 
ATOM     34  C   UNL A   1      36.409  30.509  29.143  1.00  0.00    -0.014 A 
BRANCH  34  35
ATOM     35  C   UNL A   1      37.713  30.377  29.846  1.00  0.00     0.031 A 
ATOM     36  C   UNL A   1      38.738  29.470  29.226  1.00  0.00     0.074 A 
ATOM     37  C   UNL A   1      37.955  30.938  31.046  1.00  0.00     0.049 A 
ATOM     38  N   UNL A   1      39.859  29.011  29.718  1.00  0.00    -0.248 NA
ATOM     39  C   UNL A   1      38.427  28.996  27.870  1.00  0.00     0.031 C 
ATOM     40  C   UNL A   1      37.066  31.864  31.742  1.00  0.00     0.029 A 
ATOM     41  N   UNL A   1      39.017  30.777  31.906  1.00  0.00    -0.354 N 
ATOM     42  C   UNL A   1      40.381  28.177  28.736  1.00  0.00     0.074 A 
ATOM     43  C   UNL A   1      39.434  28.169  27.643  1.00  0.00     0.031 C 
ATOM     44  C   UNL A   1      37.608  32.169  32.937  1.00  0.00     0.029 A 
ATOM     45  C   UNL A   1      38.855  31.421  33.113  1.00  0.00     0.049 A 
ATOM     46  H   UNL A   1      39.819  30.253  31.680  1.00  0.00     0.167 HD
ATOM     47  C   UNL A   1      41.543  27.476  28.745  1.00  0.00     0.034 A 
ATOM     48  C   UNL A   1      39.601  31.379  34.239  1.00  0.00     0.034 A 
ATOM     49  C   UNL A   1      42.450  27.446  29.864  1.00  0.00     0.049 A 
ATOM     50  C   UNL A   1      40.843  30.511  34.276  1.00  0.00     0.074 A 
ATOM     51  C   UNL A   1      43.649  26.767  29.982  1.00  0.00     0.029 A 
ATOM     52  N   UNL A   1      42.242  28.100  31.072  1.00  0.00    -0.354 N 
ATOM     53  N   UNL A   1      41.339  29.734  33.340  1.00  0.00    -0.248 NA
ATOM     54  C   UNL A   1      41.624  30.513  35.522  1.00  0.00     0.031 C 
ATOM     55  C   UNL A   1      44.118  26.933  31.290  1.00  0.00     0.029 A 
ATOM     56  C   UNL A   1      43.269  27.804  31.955  1.00  0.00     0.049 A 
ATOM     57  H   UNL A   1      41.477  28.686  31.273  1.00  0.00     0.167 HD
ATOM     58  C   UNL A   1      42.506  29.186  33.873  1.00  0.00     0.074 A 
ATOM     59  C   UNL A   1      42.639  29.717  35.213  1.00  0.00     0.031 C 
ATOM     60  C   UNL A   1      43.396  28.335  33.296  1.00  0.00     0.034 A 
BRANCH  47  61
ATOM     61  C   UNL A   1      41.825  26.623  27.530  1.00  0.00     0.023 A 
ATOM     62  C   UNL A   1      41.457  25.266  27.482  1.00  0.00     0.031 A 
ATOM     63  C   UNL A   1      42.570  27.140  26.456  1.00  0.00     0.131 A 
ATOM     64  C   UNL A   1      41.944  24.448  26.454  1.00  0.00     0.055 A 
ATOM     65  C   UNL A   1      42.957  26.342  25.378  1.00  0.00     0.041 A 
ATOM     66  F   UNL A   1      42.974  28.420  26.456  1.00  0.00    -0.206 F 
ATOM     67  C   UNL A   1      42.668  24.980  25.386  1.00  0.00     0.022 A 
BRANCH  64  68
ATOM     68  S   UNL A   1      41.819  22.648  26.657  1.00  0.00     0.124 S 
ATOM     69  O   UNL A   1      40.390  22.427  26.441  1.00  0.00    -0.237 OA
ATOM     70  O   UNL A   1      42.707  22.149  25.615  1.00  0.00    -0.237 OA
ATOM     71  O   UNL A   1      42.273  22.425  28.029  1.00  0.00    -0.744 OA
ENDBRANCH  64  68
ENDBRANCH  47  61
BRANCH  48  72
ATOM     72  C   UNL A   1      39.167  32.127  35.459  1.00  0.00     0.023 A 
ATOM     73  C   UNL A   1      38.478  31.494  36.508  1.00  0.00     0.031 A 
ATOM     74  C   UNL A   1      39.408  33.509  35.575  1.00  0.00     0.131 A 
ATOM     75  C   UNL A   1      38.033  32.246  37.611  1.00  0.00     0.055 A 
ATOM     76  C   UNL A   1      39.009  34.240  36.696  1.00  0.00     0.041 A 
ATOM     77  F   UNL A   1      40.051  34.170  34.599  1.00  0.00    -0.206 F 
ATOM     78  C   UNL A   1      38.310  33.610  37.718  1.00  0.00     0.022 A 
BRANCH  75  79
ATOM     79  S   UNL A   1      37.027  31.429  38.884  1.00  0.00     0.124 S 
ATOM     80  O   UNL A   1      37.891  31.534  40.054  1.00  0.00    -0.237 OA
ATOM     81  O   UNL A   1      35.823  32.252  38.897  1.00  0.00    -0.237 OA
ATOM     82  O   UNL A   1      36.847  30.077  38.359  1.00  0.00    -0.744 OA
ENDBRANCH  75  79
ENDBRANCH  48  72
BRANCH  60  83
ATOM     83  C   UNL A   1      44.642  27.973  34.074  1.00  0.00     0.023 A 
ATOM     84  C   UNL A   1      44.720  26.833  34.893  1.00  0.00     0.031 A 
ATOM     85  C   UNL A   1      45.796  28.771  33.945  1.00  0.00     0.131 A 
ATOM     86  C   UNL A   1      45.916  26.541  35.573  1.00  0.00     0.055 A 
ATOM     87  C   UNL A   1      46.997  28.443  34.574  1.00  0.00     0.041 A 
ATOM     88  F   UNL A   1      45.780  29.875  33.180  1.00  0.00    -0.206 F 
ATOM     89  C   UNL A   1      47.060  27.326  35.399  1.00  0.00     0.022 A 
BRANCH  86  90
ATOM     90  S   UNL A   1      45.946  25.156  36.744  1.00  0.00     0.124 S 
ATOM     91  O   UNL A   1      46.781  25.685  37.819  1.00  0.00    -0.237 OA
ATOM     92  O   UNL A   1      44.533  24.982  37.062  1.00  0.00    -0.237 OA
ATOM     93  O   UNL A   1      46.545  24.067  35.974  1.00  0.00    -0.744 OA
ENDBRANCH  86  90
ENDBRANCH  60  83
ENDBRANCH  34  35
ENDBRANCH  27  29
ENDBRANCH  26  27
ENDBRANCH  25  26
ENDBRANCH   1  25
TORSDOF 18
ENDMDL
