MODEL 1
REMARK VINA RESULT:     -12.0      0.000      0.000
REMARK SMILES CC1(C)O[C@](C)([C@H](O)C2CCCCC2)CC[C@H]1C(=O)OCCOCCOC(=O)c1ccc(-c2c3nc(c(-c4cc(S(=O)(=O)[O-])ccc4F)c4ccc([nH]4)c(-c4cc(S(=O)(=O)[O-])ccc4F)c4nc(c(-c5cc(S(=O)(=O)[O-])ccc5F)c5ccc2[nH]5)C=C4)C=C3)cc1
REMARK SMILES IDX 24 1 23 2 22 3 21 4 20 5 18 6 19 7 17 8 1 9 2 10 3 11 4 12
REMARK SMILES IDX 5 13 16 14 6 15 15 16 7 17 9 18 10 19 14 20 11 21 13 22
REMARK SMILES IDX 12 23 8 24 25 26 26 27 27 28 28 29 29 30 30 31 91 32 31 33
REMARK SMILES IDX 90 34 32 35 33 36 34 37 84 38 35 39 89 40 83 41 85 42 36 43
REMARK SMILES IDX 88 44 82 45 81 46 37 48 69 49 49 50 68 51 50 52 53 53 67 54
REMARK SMILES IDX 86 55 51 56 52 57 66 59 87 60 54 61 38 62 39 63 47 64 40 65
REMARK SMILES IDX 46 66 48 67 45 68 41 69 42 70 43 71 44 72 70 73 71 74 79 75
REMARK SMILES IDX 72 76 78 77 80 78 77 79 73 80 74 81 75 82 76 83 55 84 56 85
REMARK SMILES IDX 64 86 57 87 63 88 65 89 62 90 58 91 59 92 60 93 61 94
REMARK H PARENT 8 25 85 47 53 58
REMARK Flexibility Score: inf
ROOT
ATOM      1  C   UNL A   1      35.443  21.732  25.691  1.00  0.00     0.202 C 
ENDROOT
BRANCH   1   2
ATOM      2  O   UNL A   1      34.083  21.325  25.555  1.00  0.00    -0.374 OA
BRANCH   2   3
ATOM      3  C   UNL A   1      33.115  22.010  26.350  1.00  0.00     0.202 C 
BRANCH   3   4
ATOM      4  C   UNL A   1      33.318  23.518  26.516  1.00  0.00     0.261 C 
BRANCH   4   5
ATOM      5  O   UNL A   1      32.764  24.275  25.420  1.00  0.00    -0.463 OA
BRANCH   5   6
ATOM      6  C   UNL A   1      33.541  25.267  24.925  1.00  0.00     0.311 C 
ATOM      7  O   UNL A   1      34.768  25.254  24.922  1.00  0.00    -0.252 OA
BRANCH   6   8
ATOM      8  C   UNL A   1      32.758  26.477  24.460  1.00  0.00     0.131 C 
ATOM      9  C   UNL A   1      31.560  25.357  22.401  1.00  0.00     0.043 C 
ATOM     10  C   UNL A   1      32.274  26.582  22.988  1.00  0.00     0.077 C 
ATOM     11  C   UNL A   1      33.465  26.896  22.059  1.00  0.00     0.043 C 
ATOM     12  O   UNL A   1      31.434  27.743  22.803  1.00  0.00    -0.366 OA
ATOM     13  C   UNL A   1      30.391  28.051  23.735  1.00  0.00     0.092 C 
ATOM     14  C   UNL A   1      31.642  26.689  25.478  1.00  0.00     0.021 C 
ATOM     15  C   UNL A   1      29.198  27.086  23.610  1.00  0.00     0.045 C 
ATOM     16  C   UNL A   1      30.923  27.992  25.183  1.00  0.00     0.039 C 
BRANCH  13  17
ATOM     17  C   UNL A   1      29.991  29.549  23.446  1.00  0.00     0.149 C 
BRANCH  17  18
ATOM     18  C   UNL A   1      28.486  29.899  23.192  1.00  0.00     0.021 C 
ATOM     19  C   UNL A   1      27.918  31.189  23.795  1.00  0.00     0.006 C 
ATOM     20  C   UNL A   1      28.141  29.899  21.684  1.00  0.00     0.006 C 
ATOM     21  C   UNL A   1      28.462  32.452  23.143  1.00  0.00     0.000 C 
ATOM     22  C   UNL A   1      28.587  31.161  20.937  1.00  0.00     0.000 C 
ATOM     23  C   UNL A   1      28.197  32.459  21.641  1.00  0.00     0.000 C 
ENDBRANCH  17  18
BRANCH  17  24
ATOM     24  O   UNL A   1      30.631  30.437  24.362  1.00  0.00    -0.390 OA
ATOM     25  H   UNL A   1      29.993  31.099  24.670  1.00  0.00     0.211 HD
ENDBRANCH  17  24
ENDBRANCH  13  17
ENDBRANCH   6   8
ENDBRANCH   5   6
ENDBRANCH   4   5
ENDBRANCH   3   4
ENDBRANCH   2   3
ENDBRANCH   1   2
BRANCH   1  26
ATOM     26  C   UNL A   1      36.497  20.756  25.157  1.00  0.00     0.261 C 
BRANCH  26  27
ATOM     27  O   UNL A   1      37.747  21.418  24.889  1.00  0.00    -0.460 OA
BRANCH  27  28
ATOM     28  C   UNL A   1      38.756  21.067  25.728  1.00  0.00     0.338 C 
ATOM     29  O   UNL A   1      39.245  19.959  25.857  1.00  0.00    -0.246 OA
BRANCH  28  30
ATOM     30  C   UNL A   1      39.344  22.268  26.354  1.00  0.00     0.060 A 
ATOM     31  C   UNL A   1      38.767  23.500  26.024  1.00  0.00     0.016 A 
ATOM     32  C   UNL A   1      40.476  22.211  27.168  1.00  0.00     0.016 A 
ATOM     33  C   UNL A   1      39.350  24.686  26.465  1.00  0.00     0.010 A 
ATOM     34  C   UNL A   1      41.067  23.406  27.603  1.00  0.00     0.010 A 
ATOM     35  C   UNL A   1      40.526  24.649  27.226  1.00  0.00    -0.014 A 
BRANCH  35  36
ATOM     36  C   UNL A   1      41.245  25.920  27.504  1.00  0.00     0.031 A 
ATOM     37  C   UNL A   1      40.567  26.988  28.318  1.00  0.00     0.074 A 
ATOM     38  C   UNL A   1      42.512  26.093  27.090  1.00  0.00     0.049 A 
ATOM     39  N   UNL A   1      41.017  28.157  28.696  1.00  0.00    -0.248 NA
ATOM     40  C   UNL A   1      39.199  26.693  28.767  1.00  0.00     0.031 C 
ATOM     41  C   UNL A   1      43.296  25.110  26.346  1.00  0.00     0.029 A 
ATOM     42  N   UNL A   1      43.365  27.157  27.246  1.00  0.00    -0.354 N 
ATOM     43  C   UNL A   1      39.992  28.737  29.435  1.00  0.00     0.074 A 
ATOM     44  C   UNL A   1      38.881  27.807  29.408  1.00  0.00     0.031 C 
ATOM     45  C   UNL A   1      44.519  25.616  26.111  1.00  0.00     0.029 A 
ATOM     46  C   UNL A   1      44.591  26.972  26.653  1.00  0.00     0.049 A 
ATOM     47  H   UNL A   1      43.122  27.976  27.735  1.00  0.00     0.167 HD
ATOM     48  C   UNL A   1      39.982  29.928  30.087  1.00  0.00     0.034 A 
ATOM     49  C   UNL A   1      45.643  27.807  26.540  1.00  0.00     0.034 A 
ATOM     50  C   UNL A   1      41.088  30.856  30.085  1.00  0.00     0.049 A 
ATOM     51  C   UNL A   1      45.561  29.182  27.155  1.00  0.00     0.074 A 
ATOM     52  C   UNL A   1      41.194  32.075  30.733  1.00  0.00     0.029 A 
ATOM     53  N   UNL A   1      42.273  30.680  29.381  1.00  0.00    -0.354 N 
ATOM     54  N   UNL A   1      44.592  29.715  27.864  1.00  0.00    -0.248 NA
ATOM     55  C   UNL A   1      46.714  30.069  26.950  1.00  0.00     0.031 C 
ATOM     56  C   UNL A   1      42.403  32.672  30.354  1.00  0.00     0.029 A 
ATOM     57  C   UNL A   1      43.091  31.791  29.533  1.00  0.00     0.049 A 
ATOM     58  H   UNL A   1      42.500  29.883  28.851  1.00  0.00     0.167 HD
ATOM     59  C   UNL A   1      45.028  30.993  28.205  1.00  0.00     0.074 A 
ATOM     60  C   UNL A   1      46.353  31.144  27.637  1.00  0.00     0.031 C 
ATOM     61  C   UNL A   1      44.395  31.950  28.931  1.00  0.00     0.034 A 
BRANCH  48  62
ATOM     62  C   UNL A   1      38.706  30.309  30.803  1.00  0.00     0.023 A 
ATOM     63  C   UNL A   1      37.647  30.952  30.137  1.00  0.00     0.031 A 
ATOM     64  C   UNL A   1      38.568  30.075  32.182  1.00  0.00     0.131 A 
ATOM     65  C   UNL A   1      36.542  31.419  30.865  1.00  0.00     0.055 A 
ATOM     66  C   UNL A   1      37.426  30.465  32.885  1.00  0.00     0.041 A 
ATOM     67  F   UNL A   1      39.552  29.484  32.878  1.00  0.00    -0.206 F 
ATOM     68  C   UNL A   1      36.413  31.159  32.231  1.00  0.00     0.022 A 
BRANCH  65  69
ATOM     69  S   UNL A   1      35.364  32.523  30.036  1.00  0.00     0.124 S 
ATOM     70  O   UNL A   1      36.223  33.643  29.660  1.00  0.00    -0.237 OA
ATOM     71  O   UNL A   1      34.875  31.695  28.940  1.00  0.00    -0.237 OA
ATOM     72  O   UNL A   1      34.384  32.822  31.079  1.00  0.00    -0.744 OA
ENDBRANCH  65  69
ENDBRANCH  48  62
BRANCH  49  73
ATOM     73  C   UNL A   1      46.851  27.389  25.775  1.00  0.00     0.023 A 
ATOM     74  C   UNL A   1      47.029  27.764  24.435  1.00  0.00     0.031 A 
ATOM     75  C   UNL A   1      47.834  26.580  26.373  1.00  0.00     0.131 A 
ATOM     76  C   UNL A   1      48.152  27.307  23.727  1.00  0.00     0.055 A 
ATOM     77  C   UNL A   1      48.972  26.166  25.678  1.00  0.00     0.041 A 
ATOM     78  F   UNL A   1      47.709  26.193  27.653  1.00  0.00    -0.206 F 
ATOM     79  C   UNL A   1      49.131  26.523  24.344  1.00  0.00     0.022 A 
BRANCH  76  80
ATOM     80  S   UNL A   1      48.294  27.711  21.965  1.00  0.00     0.124 S 
ATOM     81  O   UNL A   1      47.012  28.355  21.704  1.00  0.00    -0.237 OA
ATOM     82  O   UNL A   1      49.465  28.583  21.947  1.00  0.00    -0.237 OA
ATOM     83  O   UNL A   1      48.481  26.408  21.331  1.00  0.00    -0.744 OA
ENDBRANCH  76  80
ENDBRANCH  49  73
BRANCH  61  84
ATOM     84  C   UNL A   1      45.140  33.245  29.158  1.00  0.00     0.023 A 
ATOM     85  C   UNL A   1      45.125  34.281  28.207  1.00  0.00     0.031 A 
ATOM     86  C   UNL A   1      45.881  33.442  30.337  1.00  0.00     0.131 A 
ATOM     87  C   UNL A   1      45.875  35.446  28.431  1.00  0.00     0.055 A 
ATOM     88  C   UNL A   1      46.577  34.627  30.580  1.00  0.00     0.041 A 
ATOM     89  F   UNL A   1      45.933  32.486  31.278  1.00  0.00    -0.206 F 
ATOM     90  C   UNL A   1      46.587  35.633  29.618  1.00  0.00     0.022 A 
BRANCH  87  91
ATOM     91  S   UNL A   1      45.974  36.687  27.110  1.00  0.00     0.124 S 
ATOM     92  O   UNL A   1      44.702  37.386  27.255  1.00  0.00    -0.237 OA
ATOM     93  O   UNL A   1      47.165  37.446  27.481  1.00  0.00    -0.237 OA
ATOM     94  O   UNL A   1      46.106  35.885  25.895  1.00  0.00    -0.744 OA
ENDBRANCH  87  91
ENDBRANCH  61  84
ENDBRANCH  35  36
ENDBRANCH  28  30
ENDBRANCH  27  28
ENDBRANCH  26  27
ENDBRANCH   1  26
TORSDOF 20
ENDMDL
MODEL 2
REMARK VINA RESULT:     -11.5      1.674      2.161
REMARK SMILES CC1(C)O[C@](C)([C@H](O)C2CCCCC2)CC[C@H]1C(=O)OCCOCCOC(=O)c1ccc(-c2c3nc(c(-c4cc(S(=O)(=O)[O-])ccc4F)c4ccc([nH]4)c(-c4cc(S(=O)(=O)[O-])ccc4F)c4nc(c(-c5cc(S(=O)(=O)[O-])ccc5F)c5ccc2[nH]5)C=C4)C=C3)cc1
REMARK SMILES IDX 24 1 23 2 22 3 21 4 20 5 18 6 19 7 17 8 1 9 2 10 3 11 4 12
REMARK SMILES IDX 5 13 16 14 6 15 15 16 7 17 9 18 10 19 14 20 11 21 13 22
REMARK SMILES IDX 12 23 8 24 25 26 26 27 27 28 28 29 29 30 30 31 91 32 31 33
REMARK SMILES IDX 90 34 32 35 33 36 34 37 84 38 35 39 89 40 83 41 85 42 36 43
REMARK SMILES IDX 88 44 82 45 81 46 37 48 69 49 49 50 68 51 50 52 53 53 67 54
REMARK SMILES IDX 86 55 51 56 52 57 66 59 87 60 54 61 38 62 39 63 47 64 40 65
REMARK SMILES IDX 46 66 48 67 45 68 41 69 42 70 43 71 44 72 70 73 71 74 79 75
REMARK SMILES IDX 72 76 78 77 80 78 77 79 73 80 74 81 75 82 76 83 55 84 56 85
REMARK SMILES IDX 64 86 57 87 63 88 65 89 62 90 58 91 59 92 60 93 61 94
REMARK H PARENT 8 25 85 47 53 58
REMARK Flexibility Score: inf
ROOT
ATOM      1  C   UNL A   1      35.669  20.913  24.993  1.00  0.00     0.202 C 
ENDROOT
BRANCH   1   2
ATOM      2  O   UNL A   1      34.476  20.159  24.793  1.00  0.00    -0.374 OA
BRANCH   2   3
ATOM      3  C   UNL A   1      33.334  20.529  25.565  1.00  0.00     0.202 C 
BRANCH   3   4
ATOM      4  C   UNL A   1      32.202  21.230  24.810  1.00  0.00     0.261 C 
BRANCH   4   5
ATOM      5  O   UNL A   1      32.355  22.664  24.788  1.00  0.00    -0.463 OA
BRANCH   5   6
ATOM      6  C   UNL A   1      32.636  23.217  23.585  1.00  0.00     0.311 C 
ATOM      7  O   UNL A   1      33.375  22.717  22.744  1.00  0.00    -0.252 OA
BRANCH   6   8
ATOM      8  C   UNL A   1      32.035  24.595  23.396  1.00  0.00     0.131 C 
ATOM      9  C   UNL A   1      33.648  25.912  25.007  1.00  0.00     0.043 C 
ATOM     10  C   UNL A   1      32.223  25.691  24.480  1.00  0.00     0.077 C 
ATOM     11  C   UNL A   1      31.334  25.384  25.704  1.00  0.00     0.043 C 
ATOM     12  O   UNL A   1      31.691  26.957  24.032  1.00  0.00    -0.366 OA
ATOM     13  C   UNL A   1      31.975  27.449  22.717  1.00  0.00     0.092 C 
ATOM     14  C   UNL A   1      32.439  25.056  21.999  1.00  0.00     0.021 C 
ATOM     15  C   UNL A   1      33.429  27.936  22.582  1.00  0.00     0.045 C 
ATOM     16  C   UNL A   1      31.723  26.350  21.662  1.00  0.00     0.039 C 
BRANCH  13  17
ATOM     17  C   UNL A   1      30.924  28.596  22.456  1.00  0.00     0.149 C 
BRANCH  17  18
ATOM     18  C   UNL A   1      29.966  29.028  23.616  1.00  0.00     0.021 C 
ATOM     19  C   UNL A   1      29.778  30.523  23.899  1.00  0.00     0.006 C 
ATOM     20  C   UNL A   1      28.560  28.403  23.465  1.00  0.00     0.006 C 
ATOM     21  C   UNL A   1      29.007  31.252  22.809  1.00  0.00     0.000 C 
ATOM     22  C   UNL A   1      27.668  29.104  22.434  1.00  0.00     0.000 C 
ATOM     23  C   UNL A   1      27.636  30.623  22.585  1.00  0.00     0.000 C 
ENDBRANCH  17  18
BRANCH  17  24
ATOM     24  O   UNL A   1      31.526  29.699  21.780  1.00  0.00    -0.390 OA
ATOM     25  H   UNL A   1      31.807  30.362  22.429  1.00  0.00     0.211 HD
ENDBRANCH  17  24
ENDBRANCH  13  17
ENDBRANCH   6   8
ENDBRANCH   5   6
ENDBRANCH   4   5
ENDBRANCH   3   4
ENDBRANCH   2   3
ENDBRANCH   1   2
BRANCH   1  26
ATOM     26  C   UNL A   1      36.978  20.115  25.007  1.00  0.00     0.261 C 
BRANCH  26  27
ATOM     27  O   UNL A   1      38.128  20.980  24.950  1.00  0.00    -0.460 OA
BRANCH  27  28
ATOM     28  C   UNL A   1      39.104  20.669  25.841  1.00  0.00     0.338 C 
ATOM     29  O   UNL A   1      39.609  19.575  26.018  1.00  0.00    -0.246 OA
BRANCH  28  30
ATOM     30  C   UNL A   1      39.640  21.896  26.464  1.00  0.00     0.060 A 
ATOM     31  C   UNL A   1      39.072  23.110  26.059  1.00  0.00     0.016 A 
ATOM     32  C   UNL A   1      40.719  21.878  27.348  1.00  0.00     0.016 A 
ATOM     33  C   UNL A   1      39.614  24.316  26.498  1.00  0.00     0.010 A 
ATOM     34  C   UNL A   1      41.269  23.093  27.781  1.00  0.00     0.010 A 
ATOM     35  C   UNL A   1      40.740  24.317  27.332  1.00  0.00    -0.014 A 
BRANCH  35  36
ATOM     36  C   UNL A   1      41.428  25.604  27.613  1.00  0.00     0.031 A 
ATOM     37  C   UNL A   1      40.695  26.683  28.363  1.00  0.00     0.074 A 
ATOM     38  C   UNL A   1      42.712  25.785  27.261  1.00  0.00     0.049 A 
ATOM     39  N   UNL A   1      41.110  27.868  28.733  1.00  0.00    -0.248 NA
ATOM     40  C   UNL A   1      39.309  26.380  28.749  1.00  0.00     0.031 C 
ATOM     41  C   UNL A   1      43.547  24.795  26.584  1.00  0.00     0.029 A 
ATOM     42  N   UNL A   1      43.542  26.865  27.433  1.00  0.00    -0.354 N 
ATOM     43  C   UNL A   1      40.040  28.452  29.403  1.00  0.00     0.074 A 
ATOM     44  C   UNL A   1      38.944  27.506  29.343  1.00  0.00     0.031 C 
ATOM     45  C   UNL A   1      44.773  25.312  26.400  1.00  0.00     0.029 A 
ATOM     46  C   UNL A   1      44.800  26.682  26.909  1.00  0.00     0.049 A 
ATOM     47  H   UNL A   1      43.264  27.692  27.888  1.00  0.00     0.167 HD
ATOM     48  C   UNL A   1      39.981  29.658  30.023  1.00  0.00     0.034 A 
ATOM     49  C   UNL A   1      45.845  27.529  26.829  1.00  0.00     0.034 A 
ATOM     50  C   UNL A   1      41.074  30.602  30.054  1.00  0.00     0.049 A 
ATOM     51  C   UNL A   1      45.714  28.918  27.404  1.00  0.00     0.074 A 
ATOM     52  C   UNL A   1      41.130  31.838  30.675  1.00  0.00     0.029 A 
ATOM     53  N   UNL A   1      42.296  30.425  29.417  1.00  0.00    -0.354 N 
ATOM     54  N   UNL A   1      44.703  29.454  28.047  1.00  0.00    -0.248 NA
ATOM     55  C   UNL A   1      46.865  29.815  27.236  1.00  0.00     0.031 C 
ATOM     56  C   UNL A   1      42.349  32.442  30.343  1.00  0.00     0.029 A 
ATOM     57  C   UNL A   1      43.090  31.551  29.583  1.00  0.00     0.049 A 
ATOM     58  H   UNL A   1      42.561  29.618  28.920  1.00  0.00     0.167 HD
ATOM     59  C   UNL A   1      45.105  30.746  28.377  1.00  0.00     0.074 A 
ATOM     60  C   UNL A   1      46.455  30.902  27.875  1.00  0.00     0.031 C 
ATOM     61  C   UNL A   1      44.422  31.713  29.044  1.00  0.00     0.034 A 
BRANCH  48  62
ATOM     62  C   UNL A   1      38.665  30.039  30.661  1.00  0.00     0.023 A 
ATOM     63  C   UNL A   1      37.688  30.772  29.963  1.00  0.00     0.031 A 
ATOM     64  C   UNL A   1      38.405  29.712  32.003  1.00  0.00     0.131 A 
ATOM     65  C   UNL A   1      36.544  31.230  30.634  1.00  0.00     0.055 A 
ATOM     66  C   UNL A   1      37.224  30.098  32.641  1.00  0.00     0.041 A 
ATOM     67  F   UNL A   1      39.307  29.033  32.729  1.00  0.00    -0.206 F 
ATOM     68  C   UNL A   1      36.293  30.879  31.962  1.00  0.00     0.022 A 
BRANCH  65  69
ATOM     69  S   UNL A   1      35.477  32.439  29.800  1.00  0.00     0.124 S 
ATOM     70  O   UNL A   1      36.366  33.594  29.694  1.00  0.00    -0.237 OA
ATOM     71  O   UNL A   1      35.155  31.762  28.549  1.00  0.00    -0.237 OA
ATOM     72  O   UNL A   1      34.360  32.606  30.727  1.00  0.00    -0.744 OA
ENDBRANCH  65  69
ENDBRANCH  48  62
BRANCH  49  73
ATOM     73  C   UNL A   1      47.097  27.108  26.139  1.00  0.00     0.023 A 
ATOM     74  C   UNL A   1      48.121  26.444  26.831  1.00  0.00     0.031 A 
ATOM     75  C   UNL A   1      47.296  27.395  24.777  1.00  0.00     0.131 A 
ATOM     76  C   UNL A   1      49.310  26.110  26.164  1.00  0.00     0.055 A 
ATOM     77  C   UNL A   1      48.462  27.020  24.107  1.00  0.00     0.041 A 
ATOM     78  F   UNL A   1      46.347  28.030  24.070  1.00  0.00    -0.206 F 
ATOM     79  C   UNL A   1      49.481  26.381  24.804  1.00  0.00     0.022 A 
BRANCH  76  80
ATOM     80  S   UNL A   1      50.660  25.358  27.114  1.00  0.00     0.124 S 
ATOM     81  O   UNL A   1      49.975  24.258  27.782  1.00  0.00    -0.237 OA
ATOM     82  O   UNL A   1      51.599  24.985  26.061  1.00  0.00    -0.237 OA
ATOM     83  O   UNL A   1      51.106  26.441  27.987  1.00  0.00    -0.744 OA
ENDBRANCH  76  80
ENDBRANCH  49  73
BRANCH  61  84
ATOM     84  C   UNL A   1      45.138  33.024  29.276  1.00  0.00     0.023 A 
ATOM     85  C   UNL A   1      45.055  34.082  28.354  1.00  0.00     0.031 A 
ATOM     86  C   UNL A   1      45.918  33.213  30.431  1.00  0.00     0.131 A 
ATOM     87  C   UNL A   1      45.780  35.263  28.578  1.00  0.00     0.055 A 
ATOM     88  C   UNL A   1      46.588  34.412  30.677  1.00  0.00     0.041 A 
ATOM     89  F   UNL A   1      46.035  32.236  31.344  1.00  0.00    -0.206 F 
ATOM     90  C   UNL A   1      46.532  35.442  29.742  1.00  0.00     0.022 A 
BRANCH  87  91
ATOM     91  S   UNL A   1      45.791  36.538  27.287  1.00  0.00     0.124 S 
ATOM     92  O   UNL A   1      46.705  37.528  27.848  1.00  0.00    -0.237 OA
ATOM     93  O   UNL A   1      46.282  35.804  26.125  1.00  0.00    -0.237 OA
ATOM     94  O   UNL A   1      44.393  36.960  27.208  1.00  0.00    -0.744 OA
ENDBRANCH  87  91
ENDBRANCH  61  84
ENDBRANCH  35  36
ENDBRANCH  28  30
ENDBRANCH  27  28
ENDBRANCH  26  27
ENDBRANCH   1  26
TORSDOF 20
ENDMDL
MODEL 3
REMARK VINA RESULT:     -11.4      4.916     10.570
REMARK SMILES CC1(C)O[C@](C)([C@H](O)C2CCCCC2)CC[C@H]1C(=O)OCCOCCOC(=O)c1ccc(-c2c3nc(c(-c4cc(S(=O)(=O)[O-])ccc4F)c4ccc([nH]4)c(-c4cc(S(=O)(=O)[O-])ccc4F)c4nc(c(-c5cc(S(=O)(=O)[O-])ccc5F)c5ccc2[nH]5)C=C4)C=C3)cc1
REMARK SMILES IDX 24 1 23 2 22 3 21 4 20 5 18 6 19 7 17 8 1 9 2 10 3 11 4 12
REMARK SMILES IDX 5 13 16 14 6 15 15 16 7 17 9 18 10 19 14 20 11 21 13 22
REMARK SMILES IDX 12 23 8 24 25 26 26 27 27 28 28 29 29 30 30 31 91 32 31 33
REMARK SMILES IDX 90 34 32 35 33 36 34 37 84 38 35 39 89 40 83 41 85 42 36 43
REMARK SMILES IDX 88 44 82 45 81 46 37 48 69 49 49 50 68 51 50 52 53 53 67 54
REMARK SMILES IDX 86 55 51 56 52 57 66 59 87 60 54 61 38 62 39 63 47 64 40 65
REMARK SMILES IDX 46 66 48 67 45 68 41 69 42 70 43 71 44 72 70 73 71 74 79 75
REMARK SMILES IDX 72 76 78 77 80 78 77 79 73 80 74 81 75 82 76 83 55 84 56 85
REMARK SMILES IDX 64 86 57 87 63 88 65 89 62 90 58 91 59 92 60 93 61 94
REMARK H PARENT 8 25 85 47 53 58
REMARK Flexibility Score: inf
ROOT
ATOM      1  C   UNL A   1      31.095  30.188  24.936  1.00  0.00     0.202 C 
ENDROOT
BRANCH   1   2
ATOM      2  O   UNL A   1      29.910  30.380  24.166  1.00  0.00    -0.374 OA
BRANCH   2   3
ATOM      3  C   UNL A   1      29.971  30.041  22.781  1.00  0.00     0.202 C 
BRANCH   3   4
ATOM      4  C   UNL A   1      29.343  28.704  22.381  1.00  0.00     0.261 C 
BRANCH   4   5
ATOM      5  O   UNL A   1      30.247  27.593  22.549  1.00  0.00    -0.463 OA
BRANCH   5   6
ATOM      6  C   UNL A   1      29.945  26.719  23.536  1.00  0.00     0.311 C 
ATOM      7  O   UNL A   1      28.939  26.779  24.236  1.00  0.00    -0.252 OA
BRANCH   6   8
ATOM      8  C   UNL A   1      31.029  25.692  23.791  1.00  0.00     0.131 C 
ATOM      9  C   UNL A   1      30.763  25.531  26.405  1.00  0.00     0.043 C 
ATOM     10  C   UNL A   1      31.697  25.583  25.188  1.00  0.00     0.077 C 
ATOM     11  C   UNL A   1      32.658  26.771  25.410  1.00  0.00     0.043 C 
ATOM     12  O   UNL A   1      32.597  24.454  25.244  1.00  0.00    -0.366 OA
ATOM     13  C   UNL A   1      32.200  23.174  24.738  1.00  0.00     0.092 C 
ATOM     14  C   UNL A   1      30.495  24.359  23.274  1.00  0.00     0.021 C 
ATOM     15  C   UNL A   1      31.170  22.484  25.649  1.00  0.00     0.045 C 
ATOM     16  C   UNL A   1      31.593  23.315  23.325  1.00  0.00     0.039 C 
BRANCH  13  17
ATOM     17  C   UNL A   1      33.534  22.344  24.591  1.00  0.00     0.149 C 
BRANCH  17  18
ATOM     18  C   UNL A   1      34.767  22.724  25.477  1.00  0.00     0.021 C 
ATOM     19  C   UNL A   1      35.588  21.599  26.118  1.00  0.00     0.006 C 
ATOM     20  C   UNL A   1      35.753  23.649  24.726  1.00  0.00     0.006 C 
ATOM     21  C   UNL A   1      36.390  20.787  25.112  1.00  0.00     0.000 C 
ATOM     22  C   UNL A   1      36.661  22.923  23.729  1.00  0.00     0.000 C 
ATOM     23  C   UNL A   1      37.330  21.676  24.306  1.00  0.00     0.000 C 
ENDBRANCH  17  18
BRANCH  17  24
ATOM     24  O   UNL A   1      33.265  20.942  24.567  1.00  0.00    -0.390 OA
ATOM     25  H   UNL A   1      34.102  20.452  24.595  1.00  0.00     0.211 HD
ENDBRANCH  17  24
ENDBRANCH  13  17
ENDBRANCH   6   8
ENDBRANCH   5   6
ENDBRANCH   4   5
ENDBRANCH   3   4
ENDBRANCH   2   3
ENDBRANCH   1   2
BRANCH   1  26
ATOM     26  C   UNL A   1      31.302  31.154  26.108  1.00  0.00     0.261 C 
BRANCH  26  27
ATOM     27  O   UNL A   1      32.500  30.845  26.846  1.00  0.00    -0.460 OA
BRANCH  27  28
ATOM     28  C   UNL A   1      33.206  31.934  27.246  1.00  0.00     0.338 C 
ATOM     29  O   UNL A   1      32.791  33.074  27.350  1.00  0.00    -0.246 OA
BRANCH  28  30
ATOM     30  C   UNL A   1      34.536  31.529  27.742  1.00  0.00     0.060 A 
ATOM     31  C   UNL A   1      34.706  30.176  28.063  1.00  0.00     0.016 A 
ATOM     32  C   UNL A   1      35.561  32.447  27.974  1.00  0.00     0.016 A 
ATOM     33  C   UNL A   1      35.886  29.744  28.665  1.00  0.00     0.010 A 
ATOM     34  C   UNL A   1      36.743  32.011  28.588  1.00  0.00     0.010 A 
ATOM     35  C   UNL A   1      36.898  30.664  28.967  1.00  0.00    -0.014 A 
BRANCH  35  36
ATOM     36  C   UNL A   1      38.050  30.224  29.796  1.00  0.00     0.031 A 
ATOM     37  C   UNL A   1      39.053  29.265  29.214  1.00  0.00     0.074 A 
ATOM     38  C   UNL A   1      38.236  30.722  31.030  1.00  0.00     0.049 A 
ATOM     39  N   UNL A   1      40.139  28.769  29.751  1.00  0.00    -0.248 NA
ATOM     40  C   UNL A   1      38.794  28.807  27.841  1.00  0.00     0.031 C 
ATOM     41  C   UNL A   1      37.368  31.702  31.681  1.00  0.00     0.029 A 
ATOM     42  N   UNL A   1      39.222  30.479  31.953  1.00  0.00    -0.354 N 
ATOM     43  C   UNL A   1      40.701  27.947  28.779  1.00  0.00     0.074 A 
ATOM     44  C   UNL A   1      39.805  27.976  27.641  1.00  0.00     0.031 C 
ATOM     45  C   UNL A   1      37.862  31.979  32.900  1.00  0.00     0.029 A 
ATOM     46  C   UNL A   1      39.057  31.168  33.130  1.00  0.00     0.049 A 
ATOM     47  H   UNL A   1      39.976  29.868  31.788  1.00  0.00     0.167 HD
ATOM     48  C   UNL A   1      41.861  27.245  28.827  1.00  0.00     0.034 A 
ATOM     49  C   UNL A   1      39.774  31.134  34.271  1.00  0.00     0.034 A 
ATOM     50  C   UNL A   1      42.732  27.206  29.978  1.00  0.00     0.049 A 
ATOM     51  C   UNL A   1      40.986  30.240  34.353  1.00  0.00     0.074 A 
ATOM     52  C   UNL A   1      43.943  26.550  30.124  1.00  0.00     0.029 A 
ATOM     53  N   UNL A   1      42.474  27.831  31.192  1.00  0.00    -0.354 N 
ATOM     54  N   UNL A   1      41.516  29.478  33.425  1.00  0.00    -0.248 NA
ATOM     55  C   UNL A   1      41.694  30.200  35.640  1.00  0.00     0.031 C 
ATOM     56  C   UNL A   1      44.372  26.708  31.448  1.00  0.00     0.029 A 
ATOM     57  C   UNL A   1      43.473  27.530  32.108  1.00  0.00     0.049 A 
ATOM     58  H   UNL A   1      41.696  28.405  31.377  1.00  0.00     0.167 HD
ATOM     59  C   UNL A   1      42.630  28.882  34.011  1.00  0.00     0.074 A 
ATOM     60  C   UNL A   1      42.704  29.386  35.367  1.00  0.00     0.031 C 
ATOM     61  C   UNL A   1      43.517  28.006  33.472  1.00  0.00     0.034 A 
BRANCH  48  62
ATOM     62  C   UNL A   1      42.213  26.416  27.613  1.00  0.00     0.023 A 
ATOM     63  C   UNL A   1      41.756  25.094  27.461  1.00  0.00     0.031 A 
ATOM     64  C   UNL A   1      43.063  26.935  26.620  1.00  0.00     0.131 A 
ATOM     65  C   UNL A   1      42.221  24.311  26.394  1.00  0.00     0.055 A 
ATOM     66  C   UNL A   1      43.454  26.176  25.514  1.00  0.00     0.041 A 
ATOM     67  F   UNL A   1      43.549  28.182  26.720  1.00  0.00    -0.206 F 
ATOM     68  C   UNL A   1      43.049  24.849  25.406  1.00  0.00     0.022 A 
BRANCH  65  69
ATOM     69  S   UNL A   1      41.874  22.529  26.413  1.00  0.00     0.124 S 
ATOM     70  O   UNL A   1      40.416  22.511  26.314  1.00  0.00    -0.237 OA
ATOM     71  O   UNL A   1      42.601  22.055  25.241  1.00  0.00    -0.237 OA
ATOM     72  O   UNL A   1      42.408  22.091  27.701  1.00  0.00    -0.744 OA
ENDBRANCH  65  69
ENDBRANCH  48  62
BRANCH  49  73
ATOM     73  C   UNL A   1      39.342  31.936  35.450  1.00  0.00     0.023 A 
ATOM     74  C   UNL A   1      38.585  31.362  36.482  1.00  0.00     0.031 A 
ATOM     75  C   UNL A   1      39.659  33.303  35.543  1.00  0.00     0.131 A 
ATOM     76  C   UNL A   1      38.147  32.159  37.552  1.00  0.00     0.055 A 
ATOM     77  C   UNL A   1      39.260  34.081  36.631  1.00  0.00     0.041 A 
ATOM     78  F   UNL A   1      40.381  33.900  34.581  1.00  0.00    -0.206 F 
ATOM     79  C   UNL A   1      38.492  33.510  37.640  1.00  0.00     0.022 A 
BRANCH  76  80
ATOM     80  S   UNL A   1      37.072  31.416  38.810  1.00  0.00     0.124 S 
ATOM     81  O   UNL A   1      35.912  32.298  38.767  1.00  0.00    -0.237 OA
ATOM     82  O   UNL A   1      36.875  30.070  38.282  1.00  0.00    -0.237 OA
ATOM     83  O   UNL A   1      37.872  31.493  40.030  1.00  0.00    -0.744 OA
ENDBRANCH  76  80
ENDBRANCH  49  73
BRANCH  61  84
ATOM     84  C   UNL A   1      44.653  27.547  34.358  1.00  0.00     0.023 A 
ATOM     85  C   UNL A   1      44.584  26.343  35.081  1.00  0.00     0.031 A 
ATOM     86  C   UNL A   1      45.816  28.328  34.485  1.00  0.00     0.131 A 
ATOM     87  C   UNL A   1      45.636  25.979  35.935  1.00  0.00     0.055 A 
ATOM     88  C   UNL A   1      46.883  27.932  35.292  1.00  0.00     0.041 A 
ATOM     89  F   UNL A   1      45.935  29.489  33.821  1.00  0.00    -0.206 F 
ATOM     90  C   UNL A   1      46.793  26.757  36.032  1.00  0.00     0.022 A 
BRANCH  87  91
ATOM     91  S   UNL A   1      45.440  24.512  36.985  1.00  0.00     0.124 S 
ATOM     92  O   UNL A   1      44.712  25.052  38.128  1.00  0.00    -0.237 OA
ATOM     93  O   UNL A   1      44.690  23.606  36.121  1.00  0.00    -0.237 OA
ATOM     94  O   UNL A   1      46.817  24.103  37.263  1.00  0.00    -0.744 OA
ENDBRANCH  87  91
ENDBRANCH  61  84
ENDBRANCH  35  36
ENDBRANCH  28  30
ENDBRANCH  27  28
ENDBRANCH  26  27
ENDBRANCH   1  26
TORSDOF 20
ENDMDL
