MODEL 1
REMARK VINA RESULT:     -11.4      0.000      0.000
REMARK SMILES CC1(C)CCCC[C@@]1(C(=O)OCCOCCOC(=O)c1ccc(-c2c3nc(c(-c4cc(S(=O)(=O)[O-])ccc4F)c4ccc([nH]4)c(-c4cc(S(=O)(=O)[O-])ccc4F)c4nc(c(-c5cc(S(=O)(=O)[O-])ccc5F)c5ccc2[nH]5)C=C4)C=C3)cc1)[NH+]1CC[NH2+]CC1
REMARK SMILES IDX 15 1 14 2 13 3 12 4 11 5 9 6 10 7 8 8 1 9 2 10 3 11 4 12
REMARK SMILES IDX 5 13 7 14 6 15 83 16 84 17 88 18 85 20 87 21 86 22 16 25
REMARK SMILES IDX 17 26 18 27 19 28 20 29 21 30 82 31 22 32 81 33 23 34 24 35
REMARK SMILES IDX 25 36 75 37 26 38 80 39 74 40 76 41 27 42 79 43 73 44 72 45
REMARK SMILES IDX 28 47 60 48 40 49 59 50 41 51 44 52 58 53 77 54 42 55 43 56
REMARK SMILES IDX 57 58 78 59 45 60 29 61 30 62 38 63 31 64 37 65 39 66 36 67
REMARK SMILES IDX 32 68 33 69 34 70 35 71 61 72 62 73 70 74 63 75 69 76 71 77
REMARK SMILES IDX 68 78 64 79 65 80 66 81 67 82 46 83 47 84 55 85 48 86 54 87
REMARK SMILES IDX 56 88 53 89 49 90 50 91 51 92 52 93
REMARK H PARENT 83 19 86 23 86 24 76 46 44 57
REMARK Flexibility Score: inf
ROOT
ATOM      1  C   UNL A   1      35.878  21.176  25.483  1.00  0.00     0.202 C 
ENDROOT
BRANCH   1   2
ATOM      2  O   UNL A   1      34.856  21.388  24.510  1.00  0.00    -0.374 OA
BRANCH   2   3
ATOM      3  C   UNL A   1      34.624  22.718  24.064  1.00  0.00     0.202 C 
BRANCH   3   4
ATOM      4  C   UNL A   1      35.052  23.895  24.957  1.00  0.00     0.261 C 
BRANCH   4   5
ATOM      5  O   UNL A   1      34.580  25.200  24.590  1.00  0.00    -0.459 OA
BRANCH   5   6
ATOM      6  C   UNL A   1      33.440  25.576  25.249  1.00  0.00     0.368 C 
ATOM      7  O   UNL A   1      33.013  24.939  26.206  1.00  0.00    -0.245 OA
BRANCH   6   8
ATOM      8  C   UNL A   1      32.745  26.879  24.633  1.00  0.00     0.201 C 
ATOM      9  C   UNL A   1      30.370  27.558  23.544  1.00  0.00     0.018 C 
ATOM     10  C   UNL A   1      31.209  26.451  24.258  1.00  0.00     0.031 C 
ATOM     11  C   UNL A   1      30.363  26.023  25.489  1.00  0.00     0.018 C 
ATOM     12  C   UNL A   1      31.253  25.256  23.248  1.00  0.00     0.013 C 
ATOM     13  C   UNL A   1      32.008  25.597  21.967  1.00  0.00     0.001 C 
ATOM     14  C   UNL A   1      33.485  27.210  23.291  1.00  0.00     0.082 C 
ATOM     15  C   UNL A   1      33.416  26.099  22.239  1.00  0.00     0.007 C 
BRANCH   8  16
ATOM     16  N   UNL A   1      32.908  27.999  25.658  1.00  0.00    -0.311 N 
ATOM     17  C   UNL A   1      32.509  29.352  25.234  1.00  0.00     0.325 C 
ATOM     18  C   UNL A   1      34.265  28.098  26.263  1.00  0.00     0.325 C 
ATOM     19  H   UNL A   1      32.235  27.681  26.357  1.00  0.00     0.349 HD
ATOM     20  C   UNL A   1      32.671  30.445  26.323  1.00  0.00     0.322 C 
ATOM     21  C   UNL A   1      34.352  29.155  27.390  1.00  0.00     0.322 C 
ATOM     22  N   UNL A   1      34.012  30.504  26.916  1.00  0.00    -0.337 N 
ATOM     23  H   UNL A   1      34.017  31.158  27.698  1.00  0.00     0.346 HD
ATOM     24  H   UNL A   1      34.693  30.821  26.226  1.00  0.00     0.346 HD
ENDBRANCH   8  16
ENDBRANCH   6   8
ENDBRANCH   5   6
ENDBRANCH   4   5
ENDBRANCH   3   4
ENDBRANCH   2   3
ENDBRANCH   1   2
BRANCH   1  25
ATOM     25  C   UNL A   1      37.247  20.735  24.958  1.00  0.00     0.261 C 
BRANCH  25  26
ATOM     26  O   UNL A   1      38.230  21.781  25.103  1.00  0.00    -0.460 OA
BRANCH  26  27
ATOM     27  C   UNL A   1      39.229  21.472  25.966  1.00  0.00     0.338 C 
ATOM     28  O   UNL A   1      39.873  20.432  25.996  1.00  0.00    -0.246 OA
BRANCH  27  29
ATOM     29  C   UNL A   1      39.606  22.649  26.766  1.00  0.00     0.060 A 
ATOM     30  C   UNL A   1      38.890  23.831  26.541  1.00  0.00     0.016 A 
ATOM     31  C   UNL A   1      40.711  22.642  27.620  1.00  0.00     0.016 A 
ATOM     32  C   UNL A   1      39.317  25.026  27.113  1.00  0.00     0.010 A 
ATOM     33  C   UNL A   1      41.142  23.848  28.191  1.00  0.00     0.010 A 
ATOM     34  C   UNL A   1      40.476  25.054  27.902  1.00  0.00    -0.014 A 
BRANCH  34  35
ATOM     35  C   UNL A   1      41.053  26.374  28.264  1.00  0.00     0.031 A 
ATOM     36  C   UNL A   1      42.459  26.701  27.826  1.00  0.00     0.074 A 
ATOM     37  C   UNL A   1      40.309  27.302  28.896  1.00  0.00     0.049 A 
ATOM     38  N   UNL A   1      43.130  27.817  27.957  1.00  0.00    -0.248 NA
ATOM     39  C   UNL A   1      43.206  25.629  27.150  1.00  0.00     0.031 C 
ATOM     40  C   UNL A   1      38.930  27.112  29.343  1.00  0.00     0.029 A 
ATOM     41  N   UNL A   1      40.607  28.591  29.264  1.00  0.00    -0.354 N 
ATOM     42  C   UNL A   1      44.375  27.583  27.382  1.00  0.00     0.074 A 
ATOM     43  C   UNL A   1      44.377  26.209  26.929  1.00  0.00     0.031 C 
ATOM     44  C   UNL A   1      38.502  28.244  29.929  1.00  0.00     0.029 A 
ATOM     45  C   UNL A   1      39.580  29.230  29.920  1.00  0.00     0.049 A 
ATOM     46  H   UNL A   1      41.473  29.017  29.074  1.00  0.00     0.167 HD
ATOM     47  C   UNL A   1      45.417  28.438  27.239  1.00  0.00     0.034 A 
ATOM     48  C   UNL A   1      39.524  30.464  30.463  1.00  0.00     0.034 A 
ATOM     49  C   UNL A   1      45.402  29.810  27.684  1.00  0.00     0.049 A 
ATOM     50  C   UNL A   1      40.718  31.380  30.327  1.00  0.00     0.074 A 
ATOM     51  C   UNL A   1      46.385  30.774  27.532  1.00  0.00     0.029 A 
ATOM     52  N   UNL A   1      44.363  30.409  28.382  1.00  0.00    -0.354 N 
ATOM     53  N   UNL A   1      41.866  31.160  29.727  1.00  0.00    -0.248 NA
ATOM     54  C   UNL A   1      40.600  32.718  30.926  1.00  0.00     0.031 C 
ATOM     55  C   UNL A   1      45.972  31.930  28.203  1.00  0.00     0.029 A 
ATOM     56  C   UNL A   1      44.700  31.715  28.708  1.00  0.00     0.049 A 
ATOM     57  H   UNL A   1      43.512  29.972  28.612  1.00  0.00     0.167 HD
ATOM     58  C   UNL A   1      42.594  32.341  29.858  1.00  0.00     0.074 A 
ATOM     59  C   UNL A   1      41.746  33.276  30.566  1.00  0.00     0.031 C 
ATOM     60  C   UNL A   1      43.850  32.631  29.431  1.00  0.00     0.034 A 
BRANCH  47  61
ATOM     61  C   UNL A   1      46.684  27.904  26.619  1.00  0.00     0.023 A 
ATOM     62  C   UNL A   1      46.945  28.004  25.242  1.00  0.00     0.031 A 
ATOM     63  C   UNL A   1      47.658  27.298  27.433  1.00  0.00     0.131 A 
ATOM     64  C   UNL A   1      48.131  27.470  24.715  1.00  0.00     0.055 A 
ATOM     65  C   UNL A   1      48.863  26.824  26.913  1.00  0.00     0.041 A 
ATOM     66  F   UNL A   1      47.452  27.157  28.753  1.00  0.00    -0.206 F 
ATOM     67  C   UNL A   1      49.102  26.901  25.545  1.00  0.00     0.022 A 
BRANCH  64  68
ATOM     68  S   UNL A   1      48.355  27.444  22.915  1.00  0.00     0.124 S 
ATOM     69  O   UNL A   1      48.281  26.013  22.629  1.00  0.00    -0.237 OA
ATOM     70  O   UNL A   1      47.232  28.248  22.446  1.00  0.00    -0.237 OA
ATOM     71  O   UNL A   1      49.674  28.044  22.723  1.00  0.00    -0.744 OA
ENDBRANCH  64  68
ENDBRANCH  47  61
BRANCH  48  72
ATOM     72  C   UNL A   1      38.321  30.904  31.231  1.00  0.00     0.023 A 
ATOM     73  C   UNL A   1      37.233  31.527  30.600  1.00  0.00     0.031 A 
ATOM     74  C   UNL A   1      38.286  30.783  32.632  1.00  0.00     0.131 A 
ATOM     75  C   UNL A   1      36.187  32.060  31.371  1.00  0.00     0.055 A 
ATOM     76  C   UNL A   1      37.217  31.261  33.390  1.00  0.00     0.041 A 
ATOM     77  F   UNL A   1      39.300  30.197  33.289  1.00  0.00    -0.206 F 
ATOM     78  C   UNL A   1      36.167  31.922  32.761  1.00  0.00     0.022 A 
BRANCH  75  79
ATOM     79  S   UNL A   1      34.908  33.046  30.542  1.00  0.00     0.124 S 
ATOM     80  O   UNL A   1      34.409  32.107  29.544  1.00  0.00    -0.237 OA
ATOM     81  O   UNL A   1      34.003  33.351  31.646  1.00  0.00    -0.237 OA
ATOM     82  O   UNL A   1      35.650  34.187  30.011  1.00  0.00    -0.744 OA
ENDBRANCH  75  79
ENDBRANCH  48  72
BRANCH  60  83
ATOM     83  C   UNL A   1      44.361  34.026  29.700  1.00  0.00     0.023 A 
ATOM     84  C   UNL A   1      44.090  35.092  28.824  1.00  0.00     0.031 A 
ATOM     85  C   UNL A   1      45.153  34.287  30.833  1.00  0.00     0.131 A 
ATOM     86  C   UNL A   1      44.659  36.352  29.058  1.00  0.00     0.055 A 
ATOM     87  C   UNL A   1      45.664  35.559  31.094  1.00  0.00     0.041 A 
ATOM     88  F   UNL A   1      45.445  33.308  31.704  1.00  0.00    -0.206 F 
ATOM     89  C   UNL A   1      45.432  36.596  30.196  1.00  0.00     0.022 A 
BRANCH  86  90
ATOM     90  S   UNL A   1      44.466  37.642  27.797  1.00  0.00     0.124 S 
ATOM     91  O   UNL A   1      45.851  37.948  27.460  1.00  0.00    -0.237 OA
ATOM     92  O   UNL A   1      43.696  36.956  26.765  1.00  0.00    -0.237 OA
ATOM     93  O   UNL A   1      43.749  38.705  28.501  1.00  0.00    -0.744 OA
ENDBRANCH  86  90
ENDBRANCH  60  83
ENDBRANCH  34  35
ENDBRANCH  27  29
ENDBRANCH  26  27
ENDBRANCH  25  26
ENDBRANCH   1  25
TORSDOF 18
ENDMDL
MODEL 2
REMARK VINA RESULT:     -11.2      1.223      7.662
REMARK SMILES CC1(C)CCCC[C@@]1(C(=O)OCCOCCOC(=O)c1ccc(-c2c3nc(c(-c4cc(S(=O)(=O)[O-])ccc4F)c4ccc([nH]4)c(-c4cc(S(=O)(=O)[O-])ccc4F)c4nc(c(-c5cc(S(=O)(=O)[O-])ccc5F)c5ccc2[nH]5)C=C4)C=C3)cc1)[NH+]1CC[NH2+]CC1
REMARK SMILES IDX 15 1 14 2 13 3 12 4 11 5 9 6 10 7 8 8 1 9 2 10 3 11 4 12
REMARK SMILES IDX 5 13 7 14 6 15 83 16 84 17 88 18 85 20 87 21 86 22 16 25
REMARK SMILES IDX 17 26 18 27 19 28 20 29 21 30 82 31 22 32 81 33 23 34 24 35
REMARK SMILES IDX 25 36 75 37 26 38 80 39 74 40 76 41 27 42 79 43 73 44 72 45
REMARK SMILES IDX 28 47 60 48 40 49 59 50 41 51 44 52 58 53 77 54 42 55 43 56
REMARK SMILES IDX 57 58 78 59 45 60 29 61 30 62 38 63 31 64 37 65 39 66 36 67
REMARK SMILES IDX 32 68 33 69 34 70 35 71 61 72 62 73 70 74 63 75 69 76 71 77
REMARK SMILES IDX 68 78 64 79 65 80 66 81 67 82 46 83 47 84 55 85 48 86 54 87
REMARK SMILES IDX 56 88 53 89 49 90 50 91 51 92 52 93
REMARK H PARENT 83 19 86 23 86 24 76 46 44 57
REMARK Flexibility Score: inf
ROOT
ATOM      1  C   UNL A   1      35.595  20.691  25.229  1.00  0.00     0.202 C 
ENDROOT
BRANCH   1   2
ATOM      2  O   UNL A   1      35.434  21.802  26.111  1.00  0.00    -0.374 OA
BRANCH   2   3
ATOM      3  C   UNL A   1      34.401  21.737  27.085  1.00  0.00     0.202 C 
BRANCH   3   4
ATOM      4  C   UNL A   1      33.332  22.841  27.124  1.00  0.00     0.261 C 
BRANCH   4   5
ATOM      5  O   UNL A   1      33.585  24.024  26.349  1.00  0.00    -0.459 OA
BRANCH   5   6
ATOM      6  C   UNL A   1      32.447  24.632  25.890  1.00  0.00     0.368 C 
ATOM      7  O   UNL A   1      31.357  24.430  26.414  1.00  0.00    -0.245 OA
BRANCH   6   8
ATOM      8  C   UNL A   1      32.694  25.579  24.625  1.00  0.00     0.201 C 
ATOM      9  C   UNL A   1      31.650  25.946  22.162  1.00  0.00     0.018 C 
ATOM     10  C   UNL A   1      31.536  25.200  23.530  1.00  0.00     0.031 C 
ATOM     11  C   UNL A   1      30.091  25.476  24.029  1.00  0.00     0.018 C 
ATOM     12  C   UNL A   1      31.656  23.680  23.177  1.00  0.00     0.013 C 
ATOM     13  C   UNL A   1      33.025  23.315  22.611  1.00  0.00     0.001 C 
ATOM     14  C   UNL A   1      34.078  25.179  24.007  1.00  0.00     0.082 C 
ATOM     15  C   UNL A   1      34.163  23.726  23.530  1.00  0.00     0.007 C 
BRANCH   8  16
ATOM     16  N   UNL A   1      32.700  27.018  25.139  1.00  0.00    -0.311 N 
ATOM     17  C   UNL A   1      33.304  28.035  24.261  1.00  0.00     0.325 C 
ATOM     18  C   UNL A   1      33.282  27.191  26.498  1.00  0.00     0.325 C 
ATOM     19  H   UNL A   1      31.693  27.187  25.163  1.00  0.00     0.349 HD
ATOM     20  C   UNL A   1      33.259  29.481  24.821  1.00  0.00     0.322 C 
ATOM     21  C   UNL A   1      33.147  28.637  27.036  1.00  0.00     0.322 C 
ATOM     22  N   UNL A   1      33.819  29.617  26.170  1.00  0.00    -0.337 N 
ATOM     23  H   UNL A   1      33.653  30.560  26.521  1.00  0.00     0.346 HD
ATOM     24  H   UNL A   1      34.825  29.451  26.157  1.00  0.00     0.346 HD
ENDBRANCH   8  16
ENDBRANCH   6   8
ENDBRANCH   5   6
ENDBRANCH   4   5
ENDBRANCH   3   4
ENDBRANCH   2   3
ENDBRANCH   1   2
BRANCH   1  25
ATOM     25  C   UNL A   1      37.023  20.180  25.021  1.00  0.00     0.261 C 
BRANCH  25  26
ATOM     26  O   UNL A   1      37.985  21.253  25.095  1.00  0.00    -0.460 OA
BRANCH  26  27
ATOM     27  C   UNL A   1      39.036  20.985  25.909  1.00  0.00     0.338 C 
ATOM     28  O   UNL A   1      39.633  19.921  26.005  1.00  0.00    -0.246 OA
BRANCH  27  29
ATOM     29  C   UNL A   1      39.530  22.220  26.542  1.00  0.00     0.060 A 
ATOM     30  C   UNL A   1      38.926  23.423  26.154  1.00  0.00     0.016 A 
ATOM     31  C   UNL A   1      40.638  22.225  27.392  1.00  0.00     0.016 A 
ATOM     32  C   UNL A   1      39.470  24.639  26.559  1.00  0.00     0.010 A 
ATOM     33  C   UNL A   1      41.187  23.452  27.794  1.00  0.00     0.010 A 
ATOM     34  C   UNL A   1      40.634  24.664  27.340  1.00  0.00    -0.014 A 
BRANCH  34  35
ATOM     35  C   UNL A   1      41.337  25.961  27.520  1.00  0.00     0.031 A 
ATOM     36  C   UNL A   1      40.656  27.059  28.298  1.00  0.00     0.074 A 
ATOM     37  C   UNL A   1      42.596  26.130  27.073  1.00  0.00     0.049 A 
ATOM     38  N   UNL A   1      41.114  28.233  28.648  1.00  0.00    -0.248 NA
ATOM     39  C   UNL A   1      39.278  26.796  28.742  1.00  0.00     0.031 C 
ATOM     40  C   UNL A   1      43.368  25.131  26.334  1.00  0.00     0.029 A 
ATOM     41  N   UNL A   1      43.451  27.199  27.185  1.00  0.00    -0.354 N 
ATOM     42  C   UNL A   1      40.084  28.850  29.351  1.00  0.00     0.074 A 
ATOM     43  C   UNL A   1      38.966  27.931  29.350  1.00  0.00     0.031 C 
ATOM     44  C   UNL A   1      44.582  25.638  26.054  1.00  0.00     0.029 A 
ATOM     45  C   UNL A   1      44.667  27.002  26.573  1.00  0.00     0.049 A 
ATOM     46  H   UNL A   1      43.214  28.029  27.659  1.00  0.00     0.167 HD
ATOM     47  C   UNL A   1      40.074  30.067  29.948  1.00  0.00     0.034 A 
ATOM     48  C   UNL A   1      45.722  27.832  26.436  1.00  0.00     0.034 A 
ATOM     49  C   UNL A   1      41.197  30.972  29.952  1.00  0.00     0.049 A 
ATOM     50  C   UNL A   1      45.666  29.200  27.075  1.00  0.00     0.074 A 
ATOM     51  C   UNL A   1      41.307  32.202  30.579  1.00  0.00     0.029 A 
ATOM     52  N   UNL A   1      42.395  30.757  29.287  1.00  0.00    -0.354 N 
ATOM     53  N   UNL A   1      44.704  29.743  27.786  1.00  0.00    -0.248 NA
ATOM     54  C   UNL A   1      46.846  30.061  26.906  1.00  0.00     0.031 C 
ATOM     55  C   UNL A   1      42.541  32.762  30.230  1.00  0.00     0.029 A 
ATOM     56  C   UNL A   1      43.232  31.851  29.450  1.00  0.00     0.049 A 
ATOM     57  H   UNL A   1      42.619  29.947  28.775  1.00  0.00     0.167 HD
ATOM     58  C   UNL A   1      45.176  30.997  28.168  1.00  0.00     0.074 A 
ATOM     59  C   UNL A   1      46.515  31.117  27.633  1.00  0.00     0.031 C 
ATOM     60  C   UNL A   1      44.561  31.965  28.896  1.00  0.00     0.034 A 
BRANCH  47  61
ATOM     61  C   UNL A   1      38.793  30.518  30.603  1.00  0.00     0.023 A 
ATOM     62  C   UNL A   1      37.736  31.086  29.871  1.00  0.00     0.031 A 
ATOM     63  C   UNL A   1      38.623  30.356  31.990  1.00  0.00     0.131 A 
ATOM     64  C   UNL A   1      36.574  31.509  30.536  1.00  0.00     0.055 A 
ATOM     65  C   UNL A   1      37.441  30.721  32.636  1.00  0.00     0.041 A 
ATOM     66  F   UNL A   1      39.608  29.838  32.742  1.00  0.00    -0.206 F 
ATOM     67  C   UNL A   1      36.411  31.309  31.910  1.00  0.00     0.022 A 
BRANCH  64  68
ATOM     68  S   UNL A   1      35.309  32.408  29.598  1.00  0.00     0.124 S 
ATOM     69  O   UNL A   1      36.071  33.548  29.093  1.00  0.00    -0.237 OA
ATOM     70  O   UNL A   1      34.894  31.426  28.603  1.00  0.00    -0.237 OA
ATOM     71  O   UNL A   1      34.302  32.737  30.605  1.00  0.00    -0.744 OA
ENDBRANCH  64  68
ENDBRANCH  47  61
BRANCH  48  72
ATOM     72  C   UNL A   1      46.909  27.427  25.626  1.00  0.00     0.023 A 
ATOM     73  C   UNL A   1      47.092  27.884  24.311  1.00  0.00     0.031 A 
ATOM     74  C   UNL A   1      47.836  26.498  26.133  1.00  0.00     0.131 A 
ATOM     75  C   UNL A   1      48.137  27.366  23.529  1.00  0.00     0.055 A 
ATOM     76  C   UNL A   1      48.908  26.030  25.372  1.00  0.00     0.041 A 
ATOM     77  F   UNL A   1      47.709  26.024  27.383  1.00  0.00    -0.206 F 
ATOM     78  C   UNL A   1      49.052  26.451  24.054  1.00  0.00     0.022 A 
BRANCH  75  79
ATOM     79  S   UNL A   1      48.215  27.815  21.772  1.00  0.00     0.124 S 
ATOM     80  O   UNL A   1      46.894  28.395  21.554  1.00  0.00    -0.237 OA
ATOM     81  O   UNL A   1      49.337  28.748  21.750  1.00  0.00    -0.237 OA
ATOM     82  O   UNL A   1      48.454  26.537  21.105  1.00  0.00    -0.744 OA
ENDBRANCH  75  79
ENDBRANCH  48  72
BRANCH  60  83
ATOM     83  C   UNL A   1      45.351  33.221  29.172  1.00  0.00     0.023 A 
ATOM     84  C   UNL A   1      45.408  34.275  28.243  1.00  0.00     0.031 A 
ATOM     85  C   UNL A   1      46.078  33.355  30.369  1.00  0.00     0.131 A 
ATOM     86  C   UNL A   1      46.227  35.385  28.495  1.00  0.00     0.055 A 
ATOM     87  C   UNL A   1      46.842  34.491  30.642  1.00  0.00     0.041 A 
ATOM     88  F   UNL A   1      46.062  32.380  31.292  1.00  0.00    -0.206 F 
ATOM     89  C   UNL A   1      46.932  35.507  29.695  1.00  0.00     0.022 A 
BRANCH  86  90
ATOM     90  S   UNL A   1      46.445  36.620  27.184  1.00  0.00     0.124 S 
ATOM     91  O   UNL A   1      46.082  35.865  25.990  1.00  0.00    -0.237 OA
ATOM     92  O   UNL A   1      45.511  37.667  27.584  1.00  0.00    -0.237 OA
ATOM     93  O   UNL A   1      47.859  36.981  27.284  1.00  0.00    -0.744 OA
ENDBRANCH  86  90
ENDBRANCH  60  83
ENDBRANCH  34  35
ENDBRANCH  27  29
ENDBRANCH  26  27
ENDBRANCH  25  26
ENDBRANCH   1  25
TORSDOF 18
ENDMDL
MODEL 3
REMARK VINA RESULT:     -11.2      4.781     10.176
REMARK SMILES CC1(C)CCCC[C@@]1(C(=O)OCCOCCOC(=O)c1ccc(-c2c3nc(c(-c4cc(S(=O)(=O)[O-])ccc4F)c4ccc([nH]4)c(-c4cc(S(=O)(=O)[O-])ccc4F)c4nc(c(-c5cc(S(=O)(=O)[O-])ccc5F)c5ccc2[nH]5)C=C4)C=C3)cc1)[NH+]1CC[NH2+]CC1
REMARK SMILES IDX 15 1 14 2 13 3 12 4 11 5 9 6 10 7 8 8 1 9 2 10 3 11 4 12
REMARK SMILES IDX 5 13 7 14 6 15 83 16 84 17 88 18 85 20 87 21 86 22 16 25
REMARK SMILES IDX 17 26 18 27 19 28 20 29 21 30 82 31 22 32 81 33 23 34 24 35
REMARK SMILES IDX 25 36 75 37 26 38 80 39 74 40 76 41 27 42 79 43 73 44 72 45
REMARK SMILES IDX 28 47 60 48 40 49 59 50 41 51 44 52 58 53 77 54 42 55 43 56
REMARK SMILES IDX 57 58 78 59 45 60 29 61 30 62 38 63 31 64 37 65 39 66 36 67
REMARK SMILES IDX 32 68 33 69 34 70 35 71 61 72 62 73 70 74 63 75 69 76 71 77
REMARK SMILES IDX 68 78 64 79 65 80 66 81 67 82 46 83 47 84 55 85 48 86 54 87
REMARK SMILES IDX 56 88 53 89 49 90 50 91 51 92 52 93
REMARK H PARENT 83 19 86 23 86 24 76 46 44 57
REMARK Flexibility Score: inf
ROOT
ATOM      1  C   UNL A   1      32.555  29.695  25.432  1.00  0.00     0.202 C 
ENDROOT
BRANCH   1   2
ATOM      2  O   UNL A   1      31.832  29.235  24.291  1.00  0.00    -0.374 OA
BRANCH   2   3
ATOM      3  C   UNL A   1      32.014  27.884  23.885  1.00  0.00     0.202 C 
BRANCH   3   4
ATOM      4  C   UNL A   1      33.427  27.388  23.535  1.00  0.00     0.261 C 
BRANCH   4   5
ATOM      5  O   UNL A   1      33.916  26.245  24.253  1.00  0.00    -0.459 OA
BRANCH   5   6
ATOM      6  C   UNL A   1      33.527  25.049  23.710  1.00  0.00     0.368 C 
ATOM      7  O   UNL A   1      33.273  24.941  22.515  1.00  0.00    -0.245 OA
BRANCH   6   8
ATOM      8  C   UNL A   1      33.425  23.864  24.779  1.00  0.00     0.201 C 
ATOM      9  C   UNL A   1      31.750  21.828  25.360  1.00  0.00     0.018 C 
ATOM     10  C   UNL A   1      32.098  22.991  24.377  1.00  0.00     0.031 C 
ATOM     11  C   UNL A   1      32.189  22.330  22.974  1.00  0.00     0.018 C 
ATOM     12  C   UNL A   1      30.850  23.934  24.401  1.00  0.00     0.013 C 
ATOM     13  C   UNL A   1      30.630  24.585  25.764  1.00  0.00     0.001 C 
ATOM     14  C   UNL A   1      33.152  24.520  26.177  1.00  0.00     0.082 C 
ATOM     15  C   UNL A   1      31.857  25.335  26.252  1.00  0.00     0.007 C 
BRANCH   8  16
ATOM     16  N   UNL A   1      34.760  23.124  24.754  1.00  0.00    -0.311 N 
ATOM     17  C   UNL A   1      35.618  23.258  25.945  1.00  0.00     0.325 C 
ATOM     18  C   UNL A   1      35.603  23.399  23.558  1.00  0.00     0.325 C 
ATOM     19  H   UNL A   1      34.415  22.163  24.728  1.00  0.00     0.349 HD
ATOM     20  C   UNL A   1      36.949  22.464  25.876  1.00  0.00     0.322 C 
ATOM     21  C   UNL A   1      36.883  22.529  23.505  1.00  0.00     0.322 C 
ATOM     22  N   UNL A   1      37.746  22.739  24.676  1.00  0.00    -0.337 N 
ATOM     23  H   UNL A   1      38.544  22.104  24.636  1.00  0.00     0.346 HD
ATOM     24  H   UNL A   1      38.098  23.696  24.692  1.00  0.00     0.346 HD
ENDBRANCH   8  16
ENDBRANCH   6   8
ENDBRANCH   5   6
ENDBRANCH   4   5
ENDBRANCH   3   4
ENDBRANCH   2   3
ENDBRANCH   1   2
BRANCH   1  25
ATOM     25  C   UNL A   1      31.930  30.846  26.224  1.00  0.00     0.261 C 
BRANCH  25  26
ATOM     26  O   UNL A   1      32.544  30.991  27.521  1.00  0.00    -0.460 OA
BRANCH  26  27
ATOM     27  C   UNL A   1      33.404  32.036  27.602  1.00  0.00     0.338 C 
ATOM     28  O   UNL A   1      33.109  33.223  27.637  1.00  0.00    -0.246 OA
BRANCH  27  29
ATOM     29  C   UNL A   1      34.775  31.562  27.855  1.00  0.00     0.060 A 
ATOM     30  C   UNL A   1      34.947  30.190  28.078  1.00  0.00     0.016 A 
ATOM     31  C   UNL A   1      35.848  32.443  28.002  1.00  0.00     0.016 A 
ATOM     32  C   UNL A   1      36.174  29.702  28.516  1.00  0.00     0.010 A 
ATOM     33  C   UNL A   1      37.083  31.950  28.449  1.00  0.00     0.010 A 
ATOM     34  C   UNL A   1      37.237  30.584  28.754  1.00  0.00    -0.014 A 
BRANCH  34  35
ATOM     35  C   UNL A   1      38.432  30.074  29.477  1.00  0.00     0.031 A 
ATOM     36  C   UNL A   1      38.681  30.535  30.892  1.00  0.00     0.074 A 
ATOM     37  C   UNL A   1      39.233  29.148  28.916  1.00  0.00     0.049 A 
ATOM     38  N   UNL A   1      39.607  30.156  31.735  1.00  0.00    -0.248 NA
ATOM     39  C   UNL A   1      37.764  31.553  31.425  1.00  0.00     0.031 C 
ATOM     40  C   UNL A   1      39.076  28.606  27.567  1.00  0.00     0.029 A 
ATOM     41  N   UNL A   1      40.333  28.495  29.414  1.00  0.00    -0.354 N 
ATOM     42  C   UNL A   1      39.386  30.889  32.897  1.00  0.00     0.074 A 
ATOM     43  C   UNL A   1      38.258  31.757  32.638  1.00  0.00     0.031 C 
ATOM     44  C   UNL A   1      40.049  27.704  27.344  1.00  0.00     0.029 A 
ATOM     45  C   UNL A   1      40.910  27.621  28.522  1.00  0.00     0.049 A 
ATOM     46  H   UNL A   1      40.677  28.639  30.326  1.00  0.00     0.167 HD
ATOM     47  C   UNL A   1      40.059  30.838  34.073  1.00  0.00     0.034 A 
ATOM     48  C   UNL A   1      42.013  26.852  28.638  1.00  0.00     0.034 A 
ATOM     49  C   UNL A   1      41.177  29.962  34.325  1.00  0.00     0.049 A 
ATOM     50  C   UNL A   1      42.768  26.849  29.947  1.00  0.00     0.074 A 
ATOM     51  C   UNL A   1      41.887  29.792  35.501  1.00  0.00     0.029 A 
ATOM     52  N   UNL A   1      41.758  29.123  33.386  1.00  0.00    -0.354 N 
ATOM     53  N   UNL A   1      42.509  27.506  31.054  1.00  0.00    -0.248 NA
ATOM     54  C   UNL A   1      43.956  25.986  30.025  1.00  0.00     0.031 C 
ATOM     55  C   UNL A   1      42.943  28.909  35.252  1.00  0.00     0.029 A 
ATOM     56  C   UNL A   1      42.847  28.468  33.943  1.00  0.00     0.049 A 
ATOM     57  H   UNL A   1      41.445  29.008  32.460  1.00  0.00     0.167 HD
ATOM     58  C   UNL A   1      43.488  27.114  31.966  1.00  0.00     0.074 A 
ATOM     59  C   UNL A   1      44.322  26.145  31.288  1.00  0.00     0.031 C 
ATOM     60  C   UNL A   1      43.682  27.516  33.248  1.00  0.00     0.034 A 
BRANCH  47  61
ATOM     61  C   UNL A   1      39.640  31.791  35.164  1.00  0.00     0.023 A 
ATOM     62  C   UNL A   1      38.864  31.379  36.261  1.00  0.00     0.031 A 
ATOM     63  C   UNL A   1      40.045  33.137  35.110  1.00  0.00     0.131 A 
ATOM     64  C   UNL A   1      38.484  32.313  37.238  1.00  0.00     0.055 A 
ATOM     65  C   UNL A   1      39.715  34.047  36.114  1.00  0.00     0.041 A 
ATOM     66  F   UNL A   1      40.769  33.589  34.073  1.00  0.00    -0.206 F 
ATOM     67  C   UNL A   1      38.923  33.639  37.183  1.00  0.00     0.022 A 
BRANCH  64  68
ATOM     68  S   UNL A   1      37.329  31.798  38.538  1.00  0.00     0.124 S 
ATOM     69  O   UNL A   1      38.142  31.970  39.740  1.00  0.00    -0.237 OA
ATOM     70  O   UNL A   1      36.227  32.739  38.372  1.00  0.00    -0.237 OA
ATOM     71  O   UNL A   1      37.021  30.411  38.195  1.00  0.00    -0.744 OA
ENDBRANCH  64  68
ENDBRANCH  47  61
BRANCH  48  72
ATOM     72  C   UNL A   1      42.510  26.055  27.479  1.00  0.00     0.023 A 
ATOM     73  C   UNL A   1      42.083  24.736  27.255  1.00  0.00     0.031 A 
ATOM     74  C   UNL A   1      43.498  26.579  26.624  1.00  0.00     0.131 A 
ATOM     75  C   UNL A   1      42.684  23.968  26.244  1.00  0.00     0.055 A 
ATOM     76  C   UNL A   1      44.049  25.831  25.583  1.00  0.00     0.041 A 
ATOM     77  F   UNL A   1      43.946  27.834  26.793  1.00  0.00    -0.206 F 
ATOM     78  C   UNL A   1      43.656  24.510  25.400  1.00  0.00     0.022 A 
BRANCH  75  79
ATOM     79  S   UNL A   1      42.262  22.206  26.123  1.00  0.00     0.124 S 
ATOM     80  O   UNL A   1      40.820  22.259  25.907  1.00  0.00    -0.237 OA
ATOM     81  O   UNL A   1      43.067  21.783  24.982  1.00  0.00    -0.237 OA
ATOM     82  O   UNL A   1      42.681  21.668  27.415  1.00  0.00    -0.744 OA
ENDBRANCH  75  79
ENDBRANCH  48  72
BRANCH  60  83
ATOM     83  C   UNL A   1      44.827  26.882  34.000  1.00  0.00     0.023 A 
ATOM     84  C   UNL A   1      44.663  25.684  34.719  1.00  0.00     0.031 A 
ATOM     85  C   UNL A   1      46.092  27.496  34.020  1.00  0.00     0.131 A 
ATOM     86  C   UNL A   1      45.725  25.175  35.481  1.00  0.00     0.055 A 
ATOM     87  C   UNL A   1      47.163  26.950  34.729  1.00  0.00     0.041 A 
ATOM     88  F   UNL A   1      46.307  28.641  33.353  1.00  0.00    -0.206 F 
ATOM     89  C   UNL A   1      46.979  25.792  35.478  1.00  0.00     0.022 A 
BRANCH  86  90
ATOM     90  S   UNL A   1      45.415  23.753  36.564  1.00  0.00     0.124 S 
ATOM     91  O   UNL A   1      44.883  24.393  37.762  1.00  0.00    -0.237 OA
ATOM     92  O   UNL A   1      44.462  22.970  35.784  1.00  0.00    -0.237 OA
ATOM     93  O   UNL A   1      46.736  23.145  36.719  1.00  0.00    -0.744 OA
ENDBRANCH  86  90
ENDBRANCH  60  83
ENDBRANCH  34  35
ENDBRANCH  27  29
ENDBRANCH  26  27
ENDBRANCH  25  26
ENDBRANCH   1  25
TORSDOF 18
ENDMDL
