MODEL 1
REMARK VINA RESULT:     -11.1      0.000      0.000
REMARK SMILES Cc1cnn([C@H]2CC[C@@]([NH3+])(C(=O)OCCOCCOC(=O)c3ccc(-c4c5nc(c(-c6cc(S(=O)(=O)[O-])ccc6F)c6ccc([nH]6)c(-c6cc(S(=O)(=O)[O-])ccc6F)c6nc(c(-c7cc(S(=O)(=O)[O-])ccc7F)c7ccc4[nH]7)C=C6)C=C5)cc3)C2)c1
REMARK SMILES IDX 17 1 16 2 15 3 14 4 13 5 11 6 12 7 9 8 6 9 7 10 85 11 8 12
REMARK SMILES IDX 5 13 1 14 2 15 3 16 86 17 4 18 10 19 18 23 19 24 20 25 21 26
REMARK SMILES IDX 22 27 23 28 84 29 24 30 83 31 25 32 26 33 27 34 77 35 28 36
REMARK SMILES IDX 82 37 76 38 78 39 29 40 81 41 75 42 74 43 30 45 62 46 42 47
REMARK SMILES IDX 61 48 43 49 46 50 60 51 79 52 44 53 45 54 59 56 80 57 47 58
REMARK SMILES IDX 31 59 32 60 40 61 33 62 39 63 41 64 38 65 34 66 35 67 36 68
REMARK SMILES IDX 37 69 63 70 64 71 72 72 65 73 71 74 73 75 70 76 66 77 67 78
REMARK SMILES IDX 68 79 69 80 48 81 49 82 57 83 50 84 56 85 58 86 55 87 51 88
REMARK SMILES IDX 52 89 53 90 54 91
REMARK H PARENT 10 20 10 21 10 22 78 44 46 55
REMARK Flexibility Score: inf
ROOT
ATOM      1  C   UNL A   1      33.271  29.901  27.115  1.00  0.00     0.202 C 
ENDROOT
BRANCH   1   2
ATOM      2  O   UNL A   1      33.473  29.719  25.716  1.00  0.00    -0.374 OA
BRANCH   2   3
ATOM      3  C   UNL A   1      33.655  28.347  25.356  1.00  0.00     0.202 C 
BRANCH   3   4
ATOM      4  C   UNL A   1      33.018  27.980  24.014  1.00  0.00     0.261 C 
BRANCH   4   5
ATOM      5  O   UNL A   1      33.204  26.584  23.688  1.00  0.00    -0.459 OA
BRANCH   5   6
ATOM      6  C   UNL A   1      33.340  26.297  22.360  1.00  0.00     0.368 C 
ATOM      7  O   UNL A   1      34.079  26.909  21.593  1.00  0.00    -0.245 OA
BRANCH   6   8
ATOM      8  C   UNL A   1      32.351  25.189  21.870  1.00  0.00     0.194 C 
ATOM      9  C   UNL A   1      33.225  22.917  22.379  1.00  0.00     0.114 C 
ATOM     10  C   UNL A   1      31.922  23.120  23.172  1.00  0.00     0.034 C 
ATOM     11  C   UNL A   1      33.118  23.984  21.274  1.00  0.00     0.108 C 
ATOM     12  C   UNL A   1      31.441  24.560  22.939  1.00  0.00     0.083 C 
BRANCH   9  13
ATOM     13  N   UNL A   1      34.424  22.886  23.205  1.00  0.00    -0.269 N 
ATOM     14  C   UNL A   1      36.623  21.714  25.859  1.00  0.00     0.048 C 
ATOM     15  C   UNL A   1      35.938  22.360  24.716  1.00  0.00    -0.013 A 
ATOM     16  C   UNL A   1      36.518  22.878  23.541  1.00  0.00     0.138 A 
ATOM     17  C   UNL A   1      34.579  22.517  24.511  1.00  0.00     0.112 A 
ATOM     18  N   UNL A   1      35.600  23.237  22.639  1.00  0.00    -0.181 NA
ENDBRANCH   9  13
BRANCH   8  19
ATOM     19  N   UNL A   1      31.513  25.827  20.826  1.00  0.00    -0.343 N 
ATOM     20  H   UNL A   1      32.082  26.474  20.281  1.00  0.00     0.345 HD
ATOM     21  H   UNL A   1      30.748  26.337  21.268  1.00  0.00     0.345 HD
ATOM     22  H   UNL A   1      31.131  25.109  20.211  1.00  0.00     0.345 HD
ENDBRANCH   8  19
ENDBRANCH   6   8
ENDBRANCH   5   6
ENDBRANCH   4   5
ENDBRANCH   3   4
ENDBRANCH   2   3
ENDBRANCH   1   2
BRANCH   1  23
ATOM     23  C   UNL A   1      33.754  31.246  27.631  1.00  0.00     0.261 C 
BRANCH  23  24
ATOM     24  O   UNL A   1      35.167  31.254  27.555  1.00  0.00    -0.460 OA
BRANCH  24  25
ATOM     25  C   UNL A   1      35.787  32.203  28.286  1.00  0.00     0.338 C 
ATOM     26  O   UNL A   1      35.728  33.414  28.192  1.00  0.00    -0.246 OA
BRANCH  25  27
ATOM     27  C   UNL A   1      36.622  31.433  29.197  1.00  0.00     0.060 A 
ATOM     28  C   UNL A   1      37.872  31.991  29.390  1.00  0.00     0.016 A 
ATOM     29  C   UNL A   1      36.337  30.064  29.396  1.00  0.00     0.016 A 
ATOM     30  C   UNL A   1      38.917  31.113  29.474  1.00  0.00     0.010 A 
ATOM     31  C   UNL A   1      37.390  29.190  29.490  1.00  0.00     0.010 A 
ATOM     32  C   UNL A   1      38.668  29.727  29.424  1.00  0.00    -0.014 A 
BRANCH  32  33
ATOM     33  C   UNL A   1      39.828  28.877  29.504  1.00  0.00     0.031 A 
ATOM     34  C   UNL A   1      40.219  28.687  30.910  1.00  0.00     0.074 A 
ATOM     35  C   UNL A   1      40.494  28.360  28.460  1.00  0.00     0.049 A 
ATOM     36  N   UNL A   1      41.107  29.372  31.543  1.00  0.00    -0.248 NA
ATOM     37  C   UNL A   1      39.332  27.893  31.770  1.00  0.00     0.031 C 
ATOM     38  C   UNL A   1      40.113  28.276  27.054  1.00  0.00     0.029 A 
ATOM     39  N   UNL A   1      41.693  27.726  28.493  1.00  0.00    -0.354 N 
ATOM     40  C   UNL A   1      41.061  28.910  32.846  1.00  0.00     0.074 A 
ATOM     41  C   UNL A   1      39.810  28.215  32.973  1.00  0.00     0.031 C 
ATOM     42  C   UNL A   1      40.958  27.424  26.421  1.00  0.00     0.029 A 
ATOM     43  C   UNL A   1      42.009  27.018  27.344  1.00  0.00     0.049 A 
ATOM     44  H   UNL A   1      42.293  27.767  29.273  1.00  0.00     0.167 HD
ATOM     45  C   UNL A   1      42.185  28.903  33.607  1.00  0.00     0.034 A 
ATOM     46  C   UNL A   1      43.012  26.103  27.231  1.00  0.00     0.034 A 
ATOM     47  C   UNL A   1      43.201  29.768  33.037  1.00  0.00     0.049 A 
ATOM     48  C   UNL A   1      44.013  26.437  28.284  1.00  0.00     0.074 A 
ATOM     49  C   UNL A   1      43.258  31.116  32.731  1.00  0.00     0.029 A 
ATOM     50  N   UNL A   1      44.216  29.182  32.312  1.00  0.00    -0.354 N 
ATOM     51  N   UNL A   1      44.715  27.539  28.274  1.00  0.00    -0.248 NA
ATOM     52  C   UNL A   1      43.863  25.823  29.599  1.00  0.00     0.031 C 
ATOM     53  C   UNL A   1      43.960  31.185  31.491  1.00  0.00     0.029 A 
ATOM     54  C   UNL A   1      44.366  29.894  31.146  1.00  0.00     0.049 A 
ATOM     55  H   UNL A   1      44.741  28.394  32.581  1.00  0.00     0.167 HD
ATOM     56  C   UNL A   1      44.715  27.986  29.588  1.00  0.00     0.074 A 
ATOM     57  C   UNL A   1      44.247  26.843  30.373  1.00  0.00     0.031 C 
ATOM     58  C   UNL A   1      44.813  29.316  29.890  1.00  0.00     0.034 A 
BRANCH  45  59
ATOM     59  C   UNL A   1      42.507  27.815  34.601  1.00  0.00     0.023 A 
ATOM     60  C   UNL A   1      43.282  26.745  34.127  1.00  0.00     0.031 A 
ATOM     61  C   UNL A   1      41.875  27.614  35.851  1.00  0.00     0.131 A 
ATOM     62  C   UNL A   1      43.301  25.518  34.805  1.00  0.00     0.055 A 
ATOM     63  C   UNL A   1      41.955  26.413  36.558  1.00  0.00     0.041 A 
ATOM     64  F   UNL A   1      41.070  28.514  36.423  1.00  0.00    -0.206 F 
ATOM     65  C   UNL A   1      42.640  25.342  36.018  1.00  0.00     0.022 A 
BRANCH  62  66
ATOM     66  S   UNL A   1      44.052  24.102  33.973  1.00  0.00     0.124 S 
ATOM     67  O   UNL A   1      45.381  24.083  34.572  1.00  0.00    -0.237 OA
ATOM     68  O   UNL A   1      43.154  23.019  34.358  1.00  0.00    -0.237 OA
ATOM     69  O   UNL A   1      44.006  24.477  32.562  1.00  0.00    -0.744 OA
ENDBRANCH  62  66
ENDBRANCH  45  59
BRANCH  46  70
ATOM     70  C   UNL A   1      42.919  24.763  26.579  1.00  0.00     0.023 A 
ATOM     71  C   UNL A   1      43.954  24.231  25.776  1.00  0.00     0.031 A 
ATOM     72  C   UNL A   1      41.891  23.865  26.951  1.00  0.00     0.131 A 
ATOM     73  C   UNL A   1      43.931  22.867  25.388  1.00  0.00     0.055 A 
ATOM     74  C   UNL A   1      41.875  22.523  26.567  1.00  0.00     0.041 A 
ATOM     75  F   UNL A   1      40.904  24.235  27.782  1.00  0.00    -0.206 F 
ATOM     76  C   UNL A   1      42.901  22.015  25.792  1.00  0.00     0.022 A 
BRANCH  73  77
ATOM     77  S   UNL A   1      45.301  22.146  24.426  1.00  0.00     0.124 S 
ATOM     78  O   UNL A   1      44.620  21.129  23.634  1.00  0.00    -0.237 OA
ATOM     79  O   UNL A   1      45.819  23.299  23.697  1.00  0.00    -0.237 OA
ATOM     80  O   UNL A   1      46.202  21.622  25.454  1.00  0.00    -0.744 OA
ENDBRANCH  73  77
ENDBRANCH  46  70
BRANCH  58  81
ATOM     81  C   UNL A   1      45.232  30.281  28.794  1.00  0.00     0.023 A 
ATOM     82  C   UNL A   1      46.563  30.654  28.495  1.00  0.00     0.031 A 
ATOM     83  C   UNL A   1      44.218  30.764  27.947  1.00  0.00     0.131 A 
ATOM     84  C   UNL A   1      46.830  31.494  27.393  1.00  0.00     0.055 A 
ATOM     85  C   UNL A   1      44.488  31.572  26.844  1.00  0.00     0.041 A 
ATOM     86  F   UNL A   1      42.933  30.430  28.161  1.00  0.00    -0.206 F 
ATOM     87  C   UNL A   1      45.796  31.947  26.568  1.00  0.00     0.022 A 
BRANCH  84  88
ATOM     88  S   UNL A   1      48.528  32.047  27.025  1.00  0.00     0.124 S 
ATOM     89  O   UNL A   1      49.006  32.563  28.302  1.00  0.00    -0.237 OA
ATOM     90  O   UNL A   1      49.162  30.819  26.554  1.00  0.00    -0.237 OA
ATOM     91  O   UNL A   1      48.335  33.066  25.990  1.00  0.00    -0.744 OA
ENDBRANCH  84  88
ENDBRANCH  58  81
ENDBRANCH  32  33
ENDBRANCH  25  27
ENDBRANCH  24  25
ENDBRANCH  23  24
ENDBRANCH   1  23
TORSDOF 19
ENDMDL
MODEL 2
REMARK VINA RESULT:     -11.0      2.739      7.923
REMARK SMILES Cc1cnn([C@H]2CC[C@@]([NH3+])(C(=O)OCCOCCOC(=O)c3ccc(-c4c5nc(c(-c6cc(S(=O)(=O)[O-])ccc6F)c6ccc([nH]6)c(-c6cc(S(=O)(=O)[O-])ccc6F)c6nc(c(-c7cc(S(=O)(=O)[O-])ccc7F)c7ccc4[nH]7)C=C6)C=C5)cc3)C2)c1
REMARK SMILES IDX 17 1 16 2 15 3 14 4 13 5 11 6 12 7 9 8 6 9 7 10 85 11 8 12
REMARK SMILES IDX 5 13 1 14 2 15 3 16 86 17 4 18 10 19 18 23 19 24 20 25 21 26
REMARK SMILES IDX 22 27 23 28 84 29 24 30 83 31 25 32 26 33 27 34 77 35 28 36
REMARK SMILES IDX 82 37 76 38 78 39 29 40 81 41 75 42 74 43 30 45 62 46 42 47
REMARK SMILES IDX 61 48 43 49 46 50 60 51 79 52 44 53 45 54 59 56 80 57 47 58
REMARK SMILES IDX 31 59 32 60 40 61 33 62 39 63 41 64 38 65 34 66 35 67 36 68
REMARK SMILES IDX 37 69 63 70 64 71 72 72 65 73 71 74 73 75 70 76 66 77 67 78
REMARK SMILES IDX 68 79 69 80 48 81 49 82 57 83 50 84 56 85 58 86 55 87 51 88
REMARK SMILES IDX 52 89 53 90 54 91
REMARK H PARENT 10 20 10 21 10 22 78 44 46 55
REMARK Flexibility Score: inf
ROOT
ATOM      1  C   UNL A   1      34.898  31.838  27.770  1.00  0.00     0.202 C 
ENDROOT
BRANCH   1   2
ATOM      2  O   UNL A   1      34.351  30.659  27.184  1.00  0.00    -0.374 OA
BRANCH   2   3
ATOM      3  C   UNL A   1      32.921  30.651  27.187  1.00  0.00     0.202 C 
BRANCH   3   4
ATOM      4  C   UNL A   1      32.320  29.249  27.058  1.00  0.00     0.261 C 
BRANCH   4   5
ATOM      5  O   UNL A   1      31.899  28.961  25.705  1.00  0.00    -0.459 OA
BRANCH   5   6
ATOM      6  C   UNL A   1      32.779  28.241  24.949  1.00  0.00     0.368 C 
ATOM      7  O   UNL A   1      33.733  28.728  24.349  1.00  0.00    -0.245 OA
BRANCH   6   8
ATOM      8  C   UNL A   1      32.373  26.737  24.806  1.00  0.00     0.194 C 
ATOM      9  C   UNL A   1      30.218  26.502  23.588  1.00  0.00     0.114 C 
ATOM     10  C   UNL A   1      31.321  25.835  22.747  1.00  0.00     0.034 C 
ATOM     11  C   UNL A   1      30.848  26.554  24.992  1.00  0.00     0.108 C 
ATOM     12  C   UNL A   1      32.665  26.074  23.449  1.00  0.00     0.083 C 
BRANCH   9  13
ATOM     13  N   UNL A   1      29.694  27.734  23.012  1.00  0.00    -0.269 N 
ATOM     14  C   UNL A   1      27.704  30.778  22.878  1.00  0.00     0.048 C 
ATOM     15  C   UNL A   1      28.612  29.624  22.689  1.00  0.00    -0.013 A 
ATOM     16  C   UNL A   1      29.854  29.602  22.021  1.00  0.00     0.138 A 
ATOM     17  C   UNL A   1      28.486  28.344  23.197  1.00  0.00     0.112 A 
ATOM     18  N   UNL A   1      30.493  28.440  22.181  1.00  0.00    -0.181 NA
ENDBRANCH   9  13
BRANCH   8  19
ATOM     19  N   UNL A   1      33.108  26.016  25.873  1.00  0.00    -0.343 N 
ATOM     20  H   UNL A   1      33.880  26.593  26.204  1.00  0.00     0.345 HD
ATOM     21  H   UNL A   1      33.474  25.139  25.501  1.00  0.00     0.345 HD
ATOM     22  H   UNL A   1      32.474  25.818  26.648  1.00  0.00     0.345 HD
ENDBRANCH   8  19
ENDBRANCH   6   8
ENDBRANCH   5   6
ENDBRANCH   4   5
ENDBRANCH   3   4
ENDBRANCH   2   3
ENDBRANCH   1   2
BRANCH   1  23
ATOM     23  C   UNL A   1      36.164  31.589  28.572  1.00  0.00     0.261 C 
BRANCH  23  24
ATOM     24  O   UNL A   1      36.742  30.386  28.102  1.00  0.00    -0.460 OA
BRANCH  24  25
ATOM     25  C   UNL A   1      37.146  29.520  29.055  1.00  0.00     0.338 C 
ATOM     26  O   UNL A   1      36.799  29.431  30.216  1.00  0.00    -0.246 OA
BRANCH  25  27
ATOM     27  C   UNL A   1      38.172  28.736  28.382  1.00  0.00     0.060 A 
ATOM     28  C   UNL A   1      38.654  27.696  29.156  1.00  0.00     0.016 A 
ATOM     29  C   UNL A   1      38.896  29.321  27.320  1.00  0.00     0.016 A 
ATOM     30  C   UNL A   1      39.998  27.455  29.071  1.00  0.00     0.010 A 
ATOM     31  C   UNL A   1      40.241  29.067  27.235  1.00  0.00     0.010 A 
ATOM     32  C   UNL A   1      40.787  28.212  28.182  1.00  0.00    -0.014 A 
BRANCH  32  33
ATOM     33  C   UNL A   1      42.193  27.901  28.169  1.00  0.00     0.031 A 
ATOM     34  C   UNL A   1      42.432  26.675  27.390  1.00  0.00     0.074 A 
ATOM     35  C   UNL A   1      43.153  28.590  28.802  1.00  0.00     0.049 A 
ATOM     36  N   UNL A   1      42.527  25.485  27.872  1.00  0.00    -0.248 NA
ATOM     37  C   UNL A   1      42.229  26.731  25.937  1.00  0.00     0.031 C 
ATOM     38  C   UNL A   1      43.108  29.915  29.414  1.00  0.00     0.029 A 
ATOM     39  N   UNL A   1      44.446  28.217  28.973  1.00  0.00    -0.354 N 
ATOM     40  C   UNL A   1      42.649  24.657  26.771  1.00  0.00     0.074 A 
ATOM     41  C   UNL A   1      42.206  25.430  25.645  1.00  0.00     0.031 C 
ATOM     42  C   UNL A   1      44.376  30.320  29.677  1.00  0.00     0.029 A 
ATOM     43  C   UNL A   1      45.298  29.232  29.378  1.00  0.00     0.049 A 
ATOM     44  H   UNL A   1      44.756  27.294  28.820  1.00  0.00     0.167 HD
ATOM     45  C   UNL A   1      43.371  23.510  26.857  1.00  0.00     0.034 A 
ATOM     46  C   UNL A   1      46.659  29.174  29.365  1.00  0.00     0.034 A 
ATOM     47  C   UNL A   1      43.584  23.135  28.242  1.00  0.00     0.049 A 
ATOM     48  C   UNL A   1      47.024  27.729  29.428  1.00  0.00     0.074 A 
ATOM     49  C   UNL A   1      42.744  22.841  29.302  1.00  0.00     0.029 A 
ATOM     50  N   UNL A   1      44.805  23.429  28.811  1.00  0.00    -0.354 N 
ATOM     51  N   UNL A   1      46.780  26.980  30.470  1.00  0.00    -0.248 NA
ATOM     52  C   UNL A   1      47.174  27.000  28.173  1.00  0.00     0.031 C 
ATOM     53  C   UNL A   1      43.355  23.447  30.439  1.00  0.00     0.029 A 
ATOM     54  C   UNL A   1      44.570  24.005  30.038  1.00  0.00     0.049 A 
ATOM     55  H   UNL A   1      45.688  23.257  28.411  1.00  0.00     0.167 HD
ATOM     56  C   UNL A   1      46.314  25.777  29.955  1.00  0.00     0.074 A 
ATOM     57  C   UNL A   1      46.659  25.820  28.533  1.00  0.00     0.031 C 
ATOM     58  C   UNL A   1      45.441  24.992  30.654  1.00  0.00     0.034 A 
BRANCH  45  59
ATOM     59  C   UNL A   1      44.223  22.980  25.731  1.00  0.00     0.023 A 
ATOM     60  C   UNL A   1      44.046  21.629  25.395  1.00  0.00     0.031 A 
ATOM     61  C   UNL A   1      45.370  23.606  25.187  1.00  0.00     0.131 A 
ATOM     62  C   UNL A   1      45.030  20.934  24.676  1.00  0.00     0.055 A 
ATOM     63  C   UNL A   1      46.310  22.927  24.412  1.00  0.00     0.041 A 
ATOM     64  F   UNL A   1      45.707  24.874  25.442  1.00  0.00    -0.206 F 
ATOM     65  C   UNL A   1      46.164  21.573  24.183  1.00  0.00     0.022 A 
BRANCH  62  66
ATOM     66  S   UNL A   1      44.885  19.137  24.563  1.00  0.00     0.124 S 
ATOM     67  O   UNL A   1      45.639  18.710  25.737  1.00  0.00    -0.237 OA
ATOM     68  O   UNL A   1      43.440  18.950  24.621  1.00  0.00    -0.237 OA
ATOM     69  O   UNL A   1      45.503  18.830  23.276  1.00  0.00    -0.744 OA
ENDBRANCH  62  66
ENDBRANCH  45  59
BRANCH  46  70
ATOM     70  C   UNL A   1      47.586  30.237  28.873  1.00  0.00     0.023 A 
ATOM     71  C   UNL A   1      47.214  31.175  27.883  1.00  0.00     0.031 A 
ATOM     72  C   UNL A   1      48.789  30.502  29.568  1.00  0.00     0.131 A 
ATOM     73  C   UNL A   1      48.027  32.310  27.631  1.00  0.00     0.055 A 
ATOM     74  C   UNL A   1      49.584  31.622  29.315  1.00  0.00     0.041 A 
ATOM     75  F   UNL A   1      49.196  29.729  30.586  1.00  0.00    -0.206 F 
ATOM     76  C   UNL A   1      49.200  32.538  28.352  1.00  0.00     0.022 A 
BRANCH  73  77
ATOM     77  S   UNL A   1      47.518  33.573  26.418  1.00  0.00     0.124 S 
ATOM     78  O   UNL A   1      48.669  33.624  25.525  1.00  0.00    -0.237 OA
ATOM     79  O   UNL A   1      46.291  33.007  25.866  1.00  0.00    -0.237 OA
ATOM     80  O   UNL A   1      47.321  34.771  27.236  1.00  0.00    -0.744 OA
ENDBRANCH  73  77
ENDBRANCH  46  70
BRANCH  58  81
ATOM     81  C   UNL A   1      45.219  25.286  32.127  1.00  0.00     0.023 A 
ATOM     82  C   UNL A   1      46.013  24.793  33.190  1.00  0.00     0.031 A 
ATOM     83  C   UNL A   1      44.200  26.201  32.450  1.00  0.00     0.131 A 
ATOM     84  C   UNL A   1      45.757  25.211  34.514  1.00  0.00     0.055 A 
ATOM     85  C   UNL A   1      43.968  26.630  33.756  1.00  0.00     0.041 A 
ATOM     86  F   UNL A   1      43.423  26.724  31.486  1.00  0.00    -0.206 F 
ATOM     87  C   UNL A   1      44.741  26.129  34.794  1.00  0.00     0.022 A 
BRANCH  84  88
ATOM     88  S   UNL A   1      46.719  24.540  35.910  1.00  0.00     0.124 S 
ATOM     89  O   UNL A   1      48.020  25.184  35.774  1.00  0.00    -0.237 OA
ATOM     90  O   UNL A   1      45.921  24.947  37.064  1.00  0.00    -0.237 OA
ATOM     91  O   UNL A   1      46.724  23.097  35.655  1.00  0.00    -0.744 OA
ENDBRANCH  84  88
ENDBRANCH  58  81
ENDBRANCH  32  33
ENDBRANCH  25  27
ENDBRANCH  24  25
ENDBRANCH  23  24
ENDBRANCH   1  23
TORSDOF 19
ENDMDL
MODEL 3
REMARK VINA RESULT:     -10.9      2.133      3.516
REMARK SMILES Cc1cnn([C@H]2CC[C@@]([NH3+])(C(=O)OCCOCCOC(=O)c3ccc(-c4c5nc(c(-c6cc(S(=O)(=O)[O-])ccc6F)c6ccc([nH]6)c(-c6cc(S(=O)(=O)[O-])ccc6F)c6nc(c(-c7cc(S(=O)(=O)[O-])ccc7F)c7ccc4[nH]7)C=C6)C=C5)cc3)C2)c1
REMARK SMILES IDX 17 1 16 2 15 3 14 4 13 5 11 6 12 7 9 8 6 9 7 10 85 11 8 12
REMARK SMILES IDX 5 13 1 14 2 15 3 16 86 17 4 18 10 19 18 23 19 24 20 25 21 26
REMARK SMILES IDX 22 27 23 28 84 29 24 30 83 31 25 32 26 33 27 34 77 35 28 36
REMARK SMILES IDX 82 37 76 38 78 39 29 40 81 41 75 42 74 43 30 45 62 46 42 47
REMARK SMILES IDX 61 48 43 49 46 50 60 51 79 52 44 53 45 54 59 56 80 57 47 58
REMARK SMILES IDX 31 59 32 60 40 61 33 62 39 63 41 64 38 65 34 66 35 67 36 68
REMARK SMILES IDX 37 69 63 70 64 71 72 72 65 73 71 74 73 75 70 76 66 77 67 78
REMARK SMILES IDX 68 79 69 80 48 81 49 82 57 83 50 84 56 85 58 86 55 87 51 88
REMARK SMILES IDX 52 89 53 90 54 91
REMARK H PARENT 10 20 10 21 10 22 78 44 46 55
REMARK Flexibility Score: inf
ROOT
ATOM      1  C   UNL A   1      34.167  32.753  27.965  1.00  0.00     0.202 C 
ENDROOT
BRANCH   1   2
ATOM      2  O   UNL A   1      33.764  31.399  28.155  1.00  0.00    -0.374 OA
BRANCH   2   3
ATOM      3  C   UNL A   1      34.254  30.526  27.134  1.00  0.00     0.202 C 
BRANCH   3   4
ATOM      4  C   UNL A   1      33.436  29.241  26.987  1.00  0.00     0.261 C 
BRANCH   4   5
ATOM      5  O   UNL A   1      33.579  28.653  25.674  1.00  0.00    -0.459 OA
BRANCH   5   6
ATOM      6  C   UNL A   1      32.434  28.560  24.935  1.00  0.00     0.368 C 
ATOM      7  O   UNL A   1      31.623  29.473  24.803  1.00  0.00    -0.245 OA
BRANCH   6   8
ATOM      8  C   UNL A   1      32.181  27.121  24.378  1.00  0.00     0.194 C 
ATOM      9  C   UNL A   1      30.124  27.050  22.982  1.00  0.00     0.114 C 
ATOM     10  C   UNL A   1      31.328  26.716  22.082  1.00  0.00     0.034 C 
ATOM     11  C   UNL A   1      30.672  26.778  24.394  1.00  0.00     0.108 C 
ATOM     12  C   UNL A   1      32.605  26.865  22.922  1.00  0.00     0.083 C 
BRANCH   9  13
ATOM     13  N   UNL A   1      29.518  28.346  22.705  1.00  0.00    -0.269 N 
ATOM     14  C   UNL A   1      27.630  31.373  23.426  1.00  0.00     0.048 C 
ATOM     15  C   UNL A   1      28.441  30.258  22.886  1.00  0.00    -0.013 A 
ATOM     16  C   UNL A   1      29.501  30.330  21.958  1.00  0.00     0.138 A 
ATOM     17  C   UNL A   1      28.399  28.921  23.237  1.00  0.00     0.112 A 
ATOM     18  N   UNL A   1      30.128  29.160  21.816  1.00  0.00    -0.181 NA
ENDBRANCH   9  13
BRANCH   8  19
ATOM     19  N   UNL A   1      32.923  26.203  25.275  1.00  0.00    -0.343 N 
ATOM     20  H   UNL A   1      32.942  26.590  26.218  1.00  0.00     0.345 HD
ATOM     21  H   UNL A   1      33.878  26.091  24.934  1.00  0.00     0.345 HD
ATOM     22  H   UNL A   1      32.459  25.294  25.290  1.00  0.00     0.345 HD
ENDBRANCH   8  19
ENDBRANCH   6   8
ENDBRANCH   5   6
ENDBRANCH   4   5
ENDBRANCH   3   4
ENDBRANCH   2   3
ENDBRANCH   1   2
BRANCH   1  23
ATOM     23  C   UNL A   1      34.939  33.330  29.138  1.00  0.00     0.261 C 
BRANCH  23  24
ATOM     24  O   UNL A   1      35.124  32.293  30.084  1.00  0.00    -0.460 OA
BRANCH  24  25
ATOM     25  C   UNL A   1      36.267  32.350  30.799  1.00  0.00     0.338 C 
ATOM     26  O   UNL A   1      36.493  32.913  31.852  1.00  0.00    -0.246 OA
BRANCH  25  27
ATOM     27  C   UNL A   1      37.218  31.624  29.970  1.00  0.00     0.060 A 
ATOM     28  C   UNL A   1      36.885  30.293  29.801  1.00  0.00     0.016 A 
ATOM     29  C   UNL A   1      38.531  32.125  29.833  1.00  0.00     0.016 A 
ATOM     30  C   UNL A   1      37.926  29.406  29.812  1.00  0.00     0.010 A 
ATOM     31  C   UNL A   1      39.570  31.230  29.834  1.00  0.00     0.010 A 
ATOM     32  C   UNL A   1      39.247  29.883  29.927  1.00  0.00    -0.014 A 
BRANCH  32  33
ATOM     33  C   UNL A   1      40.279  28.879  29.944  1.00  0.00     0.031 A 
ATOM     34  C   UNL A   1      40.673  28.583  31.331  1.00  0.00     0.074 A 
ATOM     35  C   UNL A   1      40.841  28.316  28.865  1.00  0.00     0.049 A 
ATOM     36  N   UNL A   1      41.662  29.115  31.962  1.00  0.00    -0.248 NA
ATOM     37  C   UNL A   1      39.705  27.886  32.188  1.00  0.00     0.031 C 
ATOM     38  C   UNL A   1      40.420  28.338  27.468  1.00  0.00     0.029 A 
ATOM     39  N   UNL A   1      41.941  27.522  28.841  1.00  0.00    -0.354 N 
ATOM     40  C   UNL A   1      41.583  28.614  33.248  1.00  0.00     0.074 A 
ATOM     41  C   UNL A   1      40.251  28.094  33.387  1.00  0.00     0.031 C 
ATOM     42  C   UNL A   1      41.123  27.403  26.781  1.00  0.00     0.029 A 
ATOM     43  C   UNL A   1      42.129  26.821  27.660  1.00  0.00     0.049 A 
ATOM     44  H   UNL A   1      42.560  27.450  29.604  1.00  0.00     0.167 HD
ATOM     45  C   UNL A   1      42.713  28.424  33.977  1.00  0.00     0.034 A 
ATOM     46  C   UNL A   1      42.993  25.782  27.486  1.00  0.00     0.034 A 
ATOM     47  C   UNL A   1      43.825  29.161  33.408  1.00  0.00     0.049 A 
ATOM     48  C   UNL A   1      44.055  25.935  28.521  1.00  0.00     0.074 A 
ATOM     49  C   UNL A   1      44.061  30.500  33.147  1.00  0.00     0.029 A 
ATOM     50  N   UNL A   1      44.732  28.469  32.634  1.00  0.00    -0.354 N 
ATOM     51  N   UNL A   1      44.903  26.929  28.529  1.00  0.00    -0.248 NA
ATOM     52  C   UNL A   1      43.852  25.297  29.818  1.00  0.00     0.031 C 
ATOM     53  C   UNL A   1      44.736  30.518  31.890  1.00  0.00     0.029 A 
ATOM     54  C   UNL A   1      44.951  29.198  31.489  1.00  0.00     0.049 A 
ATOM     55  H   UNL A   1      45.148  27.607  32.861  1.00  0.00     0.167 HD
ATOM     56  C   UNL A   1      44.996  27.321  29.857  1.00  0.00     0.074 A 
ATOM     57  C   UNL A   1      44.392  26.224  30.615  1.00  0.00     0.031 C 
ATOM     58  C   UNL A   1      45.284  28.612  30.202  1.00  0.00     0.034 A 
BRANCH  45  59
ATOM     59  C   UNL A   1      42.904  27.265  34.922  1.00  0.00     0.023 A 
ATOM     60  C   UNL A   1      43.681  26.195  34.451  1.00  0.00     0.031 A 
ATOM     61  C   UNL A   1      42.154  27.013  36.096  1.00  0.00     0.131 A 
ATOM     62  C   UNL A   1      43.595  24.929  35.048  1.00  0.00     0.055 A 
ATOM     63  C   UNL A   1      42.127  25.769  36.728  1.00  0.00     0.041 A 
ATOM     64  F   UNL A   1      41.332  27.909  36.651  1.00  0.00    -0.206 F 
ATOM     65  C   UNL A   1      42.820  24.706  36.183  1.00  0.00     0.022 A 
BRANCH  62  66
ATOM     66  S   UNL A   1      44.368  23.536  34.195  1.00  0.00     0.124 S 
ATOM     67  O   UNL A   1      43.228  22.951  33.499  1.00  0.00    -0.237 OA
ATOM     68  O   UNL A   1      45.357  24.210  33.361  1.00  0.00    -0.237 OA
ATOM     69  O   UNL A   1      44.915  22.735  35.287  1.00  0.00    -0.744 OA
ENDBRANCH  62  66
ENDBRANCH  45  59
BRANCH  46  70
ATOM     70  C   UNL A   1      42.699  24.493  26.791  1.00  0.00     0.023 A 
ATOM     71  C   UNL A   1      43.650  23.827  25.984  1.00  0.00     0.031 A 
ATOM     72  C   UNL A   1      41.536  23.760  27.122  1.00  0.00     0.131 A 
ATOM     73  C   UNL A   1      43.418  22.496  25.554  1.00  0.00     0.055 A 
ATOM     74  C   UNL A   1      41.313  22.450  26.696  1.00  0.00     0.041 A 
ATOM     75  F   UNL A   1      40.606  24.258  27.952  1.00  0.00    -0.206 F 
ATOM     76  C   UNL A   1      42.259  21.807  25.918  1.00  0.00     0.022 A 
BRANCH  73  77
ATOM     77  S   UNL A   1      44.673  21.594  24.586  1.00  0.00     0.124 S 
ATOM     78  O   UNL A   1      44.634  22.290  23.306  1.00  0.00    -0.237 OA
ATOM     79  O   UNL A   1      45.879  21.772  25.386  1.00  0.00    -0.237 OA
ATOM     80  O   UNL A   1      44.159  20.223  24.555  1.00  0.00    -0.744 OA
ENDBRANCH  73  77
ENDBRANCH  46  70
BRANCH  58  81
ATOM     81  C   UNL A   1      45.806  29.551  29.129  1.00  0.00     0.023 A 
ATOM     82  C   UNL A   1      45.032  30.500  28.421  1.00  0.00     0.031 A 
ATOM     83  C   UNL A   1      47.194  29.542  28.892  1.00  0.00     0.131 A 
ATOM     84  C   UNL A   1      45.653  31.378  27.507  1.00  0.00     0.055 A 
ATOM     85  C   UNL A   1      47.806  30.427  28.007  1.00  0.00     0.041 A 
ATOM     86  F   UNL A   1      47.991  28.680  29.546  1.00  0.00    -0.206 F 
ATOM     87  C   UNL A   1      47.036  31.344  27.305  1.00  0.00     0.022 A 
BRANCH  84  88
ATOM     88  S   UNL A   1      44.670  32.563  26.531  1.00  0.00     0.124 S 
ATOM     89  O   UNL A   1      44.020  33.388  27.542  1.00  0.00    -0.237 OA
ATOM     90  O   UNL A   1      45.692  33.227  25.725  1.00  0.00    -0.237 OA
ATOM     91  O   UNL A   1      43.761  31.703  25.769  1.00  0.00    -0.744 OA
ENDBRANCH  84  88
ENDBRANCH  58  81
ENDBRANCH  32  33
ENDBRANCH  25  27
ENDBRANCH  24  25
ENDBRANCH  23  24
ENDBRANCH   1  23
TORSDOF 19
ENDMDL
