MODEL 1
REMARK VINA RESULT:     -11.5      0.000      0.000
REMARK SMILES COc1cc(/C=C2/N=C(c3ccccc3)OC2=O)ccc1OCC(=O)OCCOCCOC(=O)c1ccc(-c2c3nc(c(-c4cc(S(=O)(=O)[O-])ccc4F)c4ccc([nH]4)c(-c4cc(S(=O)(=O)[O-])ccc4F)c4nc(c(-c5cc(S(=O)(=O)[O-])ccc5F)c5ccc2[nH]5)C=C4)C=C3)cc1
REMARK SMILES IDX 28 1 27 2 26 3 24 4 25 5 23 6 22 7 21 8 3 9 4 10 5 11 20 12
REMARK SMILES IDX 19 13 2 14 1 15 6 16 7 17 8 18 17 19 9 20 16 21 18 22 10 23
REMARK SMILES IDX 11 24 15 25 12 26 14 27 13 28 29 29 30 30 31 31 32 32 33 33
REMARK SMILES IDX 34 34 35 35 36 36 97 37 37 38 96 39 38 40 39 41 40 42 90 43
REMARK SMILES IDX 41 44 95 45 89 46 91 47 42 48 94 49 88 50 87 51 43 53 75 54
REMARK SMILES IDX 55 55 74 56 56 57 59 58 73 59 92 60 57 61 58 62 72 64 93 65
REMARK SMILES IDX 60 66 44 67 45 68 53 69 46 70 52 71 54 72 51 73 47 74 48 75
REMARK SMILES IDX 49 76 50 77 76 78 77 79 85 80 78 81 84 82 86 83 83 84 79 85
REMARK SMILES IDX 80 86 81 87 82 88 61 89 62 90 70 91 63 92 69 93 71 94 68 95
REMARK SMILES IDX 64 96 65 97 66 98 67 99
REMARK H PARENT 91 52 59 63
REMARK Flexibility Score: inf
ROOT
ATOM      1  C   UNL A   1      41.725  22.018  27.748  1.00  0.00     0.202 C 
ENDROOT
BRANCH   1   2
ATOM      2  C   UNL A   1      40.794  20.853  27.383  1.00  0.00     0.261 C 
BRANCH   2   3
ATOM      3  O   UNL A   1      39.564  21.288  26.761  1.00  0.00    -0.461 OA
BRANCH   3   4
ATOM      4  C   UNL A   1      39.076  20.485  25.774  1.00  0.00     0.344 C 
ATOM      5  O   UNL A   1      39.504  19.364  25.511  1.00  0.00    -0.248 OA
BRANCH   4   6
ATOM      6  C   UNL A   1      37.951  21.132  24.955  1.00  0.00     0.352 C 
BRANCH   6   7
ATOM      7  O   UNL A   1      36.616  21.146  25.402  1.00  0.00    -0.478 OA
BRANCH   7   8
ATOM      8  C   UNL A   1      35.594  21.672  24.669  1.00  0.00     0.162 A 
ATOM      9  C   UNL A   1      34.278  21.223  24.487  1.00  0.00     0.161 A 
ATOM     10  C   UNL A   1      33.372  21.999  23.726  1.00  0.00     0.058 A 
ATOM     11  C   UNL A   1      33.789  23.193  23.107  1.00  0.00    -0.019 A 
ATOM     12  C   UNL A   1      36.004  22.833  23.996  1.00  0.00     0.051 A 
ATOM     13  C   UNL A   1      35.123  23.581  23.217  1.00  0.00     0.012 A 
BRANCH   9  14
ATOM     14  O   UNL A   1      33.915  19.942  24.812  1.00  0.00    -0.493 OA
ATOM     15  C   UNL A   1      32.516  19.714  24.944  1.00  0.00     0.278 C 
ENDBRANCH   9  14
BRANCH  11  16
ATOM     16  C   UNL A   1      32.879  24.073  22.362  1.00  0.00     0.044 C 
ATOM     17  C   UNL A   1      32.129  25.053  22.884  1.00  0.00     0.153 C 
ATOM     18  N   UNL A   1      31.247  25.822  22.157  1.00  0.00    -0.205 NA
ATOM     19  C   UNL A   1      32.153  25.505  24.306  1.00  0.00     0.363 C 
ATOM     20  C   UNL A   1      30.849  26.684  23.033  1.00  0.00     0.231 C 
ATOM     21  O   UNL A   1      31.319  26.579  24.296  1.00  0.00    -0.402 OA
ATOM     22  O   UNL A   1      32.769  25.079  25.263  1.00  0.00    -0.244 OA
BRANCH  20  23
ATOM     23  C   UNL A   1      29.929  27.806  22.856  1.00  0.00     0.037 A 
ATOM     24  C   UNL A   1      28.611  27.726  23.308  1.00  0.00     0.014 A 
ATOM     25  C   UNL A   1      30.394  28.965  22.223  1.00  0.00     0.014 A 
ATOM     26  C   UNL A   1      27.762  28.824  23.143  1.00  0.00     0.001 A 
ATOM     27  C   UNL A   1      29.537  30.050  22.046  1.00  0.00     0.001 A 
ATOM     28  C   UNL A   1      28.224  29.981  22.511  1.00  0.00     0.000 A 
ENDBRANCH  20  23
ENDBRANCH  11  16
ENDBRANCH   7   8
ENDBRANCH   6   7
ENDBRANCH   4   6
ENDBRANCH   3   4
ENDBRANCH   2   3
ENDBRANCH   1   2
BRANCH   1  29
ATOM     29  O   UNL A   1      43.084  21.897  27.323  1.00  0.00    -0.374 OA
BRANCH  29  30
ATOM     30  C   UNL A   1      43.291  21.397  26.005  1.00  0.00     0.202 C 
BRANCH  30  31
ATOM     31  C   UNL A   1      44.177  22.226  25.080  1.00  0.00     0.261 C 
BRANCH  31  32
ATOM     32  O   UNL A   1      43.510  23.414  24.652  1.00  0.00    -0.460 OA
BRANCH  32  33
ATOM     33  C   UNL A   1      44.179  24.545  24.965  1.00  0.00     0.338 C 
ATOM     34  O   UNL A   1      45.243  24.926  24.507  1.00  0.00    -0.246 OA
BRANCH  33  35
ATOM     35  C   UNL A   1      43.324  25.388  25.807  1.00  0.00     0.060 A 
ATOM     36  C   UNL A   1      43.858  26.623  26.186  1.00  0.00     0.016 A 
ATOM     37  C   UNL A   1      42.071  24.966  26.258  1.00  0.00     0.016 A 
ATOM     38  C   UNL A   1      43.179  27.406  27.102  1.00  0.00     0.010 A 
ATOM     39  C   UNL A   1      41.385  25.757  27.178  1.00  0.00     0.010 A 
ATOM     40  C   UNL A   1      41.969  26.949  27.642  1.00  0.00    -0.014 A 
BRANCH  40  41
ATOM     41  C   UNL A   1      41.446  27.642  28.835  1.00  0.00     0.031 A 
ATOM     42  C   UNL A   1      42.235  27.559  30.112  1.00  0.00     0.074 A 
ATOM     43  C   UNL A   1      40.359  28.422  28.728  1.00  0.00     0.049 A 
ATOM     44  N   UNL A   1      42.029  28.152  31.257  1.00  0.00    -0.248 NA
ATOM     45  C   UNL A   1      43.421  26.687  30.090  1.00  0.00     0.031 C 
ATOM     46  C   UNL A   1      39.577  28.603  27.504  1.00  0.00     0.029 A 
ATOM     47  N   UNL A   1      39.745  29.229  29.645  1.00  0.00    -0.354 N 
ATOM     48  C   UNL A   1      43.062  27.733  32.090  1.00  0.00     0.074 A 
ATOM     49  C   UNL A   1      43.856  26.788  31.335  1.00  0.00     0.031 C 
ATOM     50  C   UNL A   1      38.599  29.492  27.742  1.00  0.00     0.029 A 
ATOM     51  C   UNL A   1      38.664  29.909  29.140  1.00  0.00     0.049 A 
ATOM     52  H   UNL A   1      40.049  29.313  30.578  1.00  0.00     0.167 HD
ATOM     53  C   UNL A   1      43.329  28.119  33.361  1.00  0.00     0.034 A 
ATOM     54  C   UNL A   1      37.826  30.768  29.749  1.00  0.00     0.034 A 
ATOM     55  C   UNL A   1      42.496  29.046  34.089  1.00  0.00     0.049 A 
ATOM     56  C   UNL A   1      38.082  31.103  31.196  1.00  0.00     0.074 A 
ATOM     57  C   UNL A   1      42.637  29.503  35.386  1.00  0.00     0.029 A 
ATOM     58  N   UNL A   1      41.352  29.652  33.577  1.00  0.00    -0.354 N 
ATOM     59  N   UNL A   1      39.056  30.697  31.980  1.00  0.00    -0.248 NA
ATOM     60  C   UNL A   1      37.136  32.023  31.834  1.00  0.00     0.031 C 
ATOM     61  C   UNL A   1      41.538  30.319  35.682  1.00  0.00     0.029 A 
ATOM     62  C   UNL A   1      40.759  30.449  34.542  1.00  0.00     0.049 A 
ATOM     63  H   UNL A   1      41.014  29.531  32.660  1.00  0.00     0.167 HD
ATOM     64  C   UNL A   1      38.856  31.340  33.200  1.00  0.00     0.074 A 
ATOM     65  C   UNL A   1      37.682  32.175  33.031  1.00  0.00     0.031 C 
ATOM     66  C   UNL A   1      39.573  31.255  34.351  1.00  0.00     0.034 A 
BRANCH  53  67
ATOM     67  C   UNL A   1      44.523  27.484  34.039  1.00  0.00     0.023 A 
ATOM     68  C   UNL A   1      45.799  28.075  34.004  1.00  0.00     0.031 A 
ATOM     69  C   UNL A   1      44.402  26.231  34.667  1.00  0.00     0.131 A 
ATOM     70  C   UNL A   1      46.913  27.376  34.497  1.00  0.00     0.055 A 
ATOM     71  C   UNL A   1      45.498  25.582  35.240  1.00  0.00     0.041 A 
ATOM     72  F   UNL A   1      43.218  25.599  34.710  1.00  0.00    -0.206 F 
ATOM     73  C   UNL A   1      46.767  26.145  35.139  1.00  0.00     0.022 A 
BRANCH  70  74
ATOM     74  S   UNL A   1      48.572  28.010  34.124  1.00  0.00     0.124 S 
ATOM     75  O   UNL A   1      48.324  28.787  32.912  1.00  0.00    -0.237 OA
ATOM     76  O   UNL A   1      48.893  28.777  35.322  1.00  0.00    -0.237 OA
ATOM     77  O   UNL A   1      49.366  26.799  33.927  1.00  0.00    -0.744 OA
ENDBRANCH  70  74
ENDBRANCH  53  67
BRANCH  54  78
ATOM     78  C   UNL A   1      36.676  31.357  29.006  1.00  0.00     0.023 A 
ATOM     79  C   UNL A   1      35.612  30.556  28.564  1.00  0.00     0.031 A 
ATOM     80  C   UNL A   1      36.640  32.729  28.695  1.00  0.00     0.131 A 
ATOM     81  C   UNL A   1      34.579  31.124  27.802  1.00  0.00     0.055 A 
ATOM     82  C   UNL A   1      35.583  33.300  27.987  1.00  0.00     0.041 A 
ATOM     83  F   UNL A   1      37.632  33.542  29.093  1.00  0.00    -0.206 F 
ATOM     84  C   UNL A   1      34.548  32.492  27.524  1.00  0.00     0.022 A 
BRANCH  81  85
ATOM     85  S   UNL A   1      33.311  30.028  27.106  1.00  0.00     0.124 S 
ATOM     86  O   UNL A   1      33.739  29.926  25.715  1.00  0.00    -0.237 OA
ATOM     87  O   UNL A   1      33.473  28.827  27.918  1.00  0.00    -0.237 OA
ATOM     88  O   UNL A   1      32.068  30.764  27.326  1.00  0.00    -0.744 OA
ENDBRANCH  81  85
ENDBRANCH  54  78
BRANCH  66  89
ATOM     89  C   UNL A   1      39.114  32.125  35.496  1.00  0.00     0.023 A 
ATOM     90  C   UNL A   1      39.532  33.462  35.622  1.00  0.00     0.031 A 
ATOM     91  C   UNL A   1      38.278  31.597  36.496  1.00  0.00     0.131 A 
ATOM     92  C   UNL A   1      39.185  34.197  36.765  1.00  0.00     0.055 A 
ATOM     93  C   UNL A   1      37.870  32.360  37.591  1.00  0.00     0.041 A 
ATOM     94  F   UNL A   1      37.850  30.327  36.430  1.00  0.00    -0.206 F 
ATOM     95  C   UNL A   1      38.340  33.662  37.739  1.00  0.00     0.022 A 
BRANCH  92  96
ATOM     96  S   UNL A   1      39.968  35.811  37.025  1.00  0.00     0.124 S 
ATOM     97  O   UNL A   1      39.661  36.501  35.776  1.00  0.00    -0.237 OA
ATOM     98  O   UNL A   1      39.278  36.305  38.213  1.00  0.00    -0.237 OA
ATOM     99  O   UNL A   1      41.379  35.480  37.221  1.00  0.00    -0.744 OA
ENDBRANCH  92  96
ENDBRANCH  66  89
ENDBRANCH  40  41
ENDBRANCH  33  35
ENDBRANCH  32  33
ENDBRANCH  31  32
ENDBRANCH  30  31
ENDBRANCH  29  30
ENDBRANCH   1  29
TORSDOF 22
ENDMDL
MODEL 2
REMARK VINA RESULT:     -11.1      2.961      9.413
REMARK SMILES COc1cc(/C=C2/N=C(c3ccccc3)OC2=O)ccc1OCC(=O)OCCOCCOC(=O)c1ccc(-c2c3nc(c(-c4cc(S(=O)(=O)[O-])ccc4F)c4ccc([nH]4)c(-c4cc(S(=O)(=O)[O-])ccc4F)c4nc(c(-c5cc(S(=O)(=O)[O-])ccc5F)c5ccc2[nH]5)C=C4)C=C3)cc1
REMARK SMILES IDX 28 1 27 2 26 3 24 4 25 5 23 6 22 7 21 8 3 9 4 10 5 11 20 12
REMARK SMILES IDX 19 13 2 14 1 15 6 16 7 17 8 18 17 19 9 20 16 21 18 22 10 23
REMARK SMILES IDX 11 24 15 25 12 26 14 27 13 28 29 29 30 30 31 31 32 32 33 33
REMARK SMILES IDX 34 34 35 35 36 36 97 37 37 38 96 39 38 40 39 41 40 42 90 43
REMARK SMILES IDX 41 44 95 45 89 46 91 47 42 48 94 49 88 50 87 51 43 53 75 54
REMARK SMILES IDX 55 55 74 56 56 57 59 58 73 59 92 60 57 61 58 62 72 64 93 65
REMARK SMILES IDX 60 66 44 67 45 68 53 69 46 70 52 71 54 72 51 73 47 74 48 75
REMARK SMILES IDX 49 76 50 77 76 78 77 79 85 80 78 81 84 82 86 83 83 84 79 85
REMARK SMILES IDX 80 86 81 87 82 88 61 89 62 90 70 91 63 92 69 93 71 94 68 95
REMARK SMILES IDX 64 96 65 97 66 98 67 99
REMARK H PARENT 91 52 59 63
REMARK Flexibility Score: inf
ROOT
ATOM      1  C   UNL A   1      33.826  29.267  27.032  1.00  0.00     0.202 C 
ENDROOT
BRANCH   1   2
ATOM      2  C   UNL A   1      33.610  27.987  26.214  1.00  0.00     0.261 C 
BRANCH   2   3
ATOM      3  O   UNL A   1      32.245  27.826  25.767  1.00  0.00    -0.461 OA
BRANCH   3   4
ATOM      4  C   UNL A   1      31.409  27.171  26.620  1.00  0.00     0.344 C 
ATOM      5  O   UNL A   1      31.088  27.580  27.733  1.00  0.00    -0.248 OA
BRANCH   4   6
ATOM      6  C   UNL A   1      30.926  25.815  26.088  1.00  0.00     0.352 C 
BRANCH   6   7
ATOM      7  O   UNL A   1      31.248  25.365  24.793  1.00  0.00    -0.478 OA
BRANCH   7   8
ATOM      8  C   UNL A   1      32.254  24.478  24.546  1.00  0.00     0.162 A 
ATOM      9  C   UNL A   1      33.005  24.253  23.383  1.00  0.00     0.161 A 
ATOM     10  C   UNL A   1      34.063  23.314  23.403  1.00  0.00     0.058 A 
ATOM     11  C   UNL A   1      34.340  22.566  24.563  1.00  0.00    -0.019 A 
ATOM     12  C   UNL A   1      32.509  23.681  25.672  1.00  0.00     0.051 A 
ATOM     13  C   UNL A   1      33.528  22.731  25.684  1.00  0.00     0.012 A 
BRANCH   9  14
ATOM     14  O   UNL A   1      32.588  24.729  22.168  1.00  0.00    -0.493 OA
ATOM     15  C   UNL A   1      33.019  23.984  21.034  1.00  0.00     0.278 C 
ENDBRANCH   9  14
BRANCH  11  16
ATOM     16  C   UNL A   1      35.465  21.626  24.664  1.00  0.00     0.044 C 
ATOM     17  C   UNL A   1      36.699  21.920  25.095  1.00  0.00     0.153 C 
ATOM     18  N   UNL A   1      37.742  21.021  25.124  1.00  0.00    -0.205 NA
ATOM     19  C   UNL A   1      37.138  23.233  25.651  1.00  0.00     0.363 C 
ATOM     20  C   UNL A   1      38.675  21.701  25.704  1.00  0.00     0.231 C 
ATOM     21  O   UNL A   1      38.416  22.984  26.045  1.00  0.00    -0.402 OA
ATOM     22  O   UNL A   1      36.537  24.282  25.776  1.00  0.00    -0.244 OA
BRANCH  20  23
ATOM     23  C   UNL A   1      40.024  21.274  26.067  1.00  0.00     0.037 A 
ATOM     24  C   UNL A   1      41.035  22.213  26.282  1.00  0.00     0.014 A 
ATOM     25  C   UNL A   1      40.288  19.906  26.195  1.00  0.00     0.014 A 
ATOM     26  C   UNL A   1      42.311  21.775  26.648  1.00  0.00     0.001 A 
ATOM     27  C   UNL A   1      41.566  19.474  26.543  1.00  0.00     0.001 A 
ATOM     28  C   UNL A   1      42.575  20.409  26.775  1.00  0.00     0.000 A 
ENDBRANCH  20  23
ENDBRANCH  11  16
ENDBRANCH   7   8
ENDBRANCH   6   7
ENDBRANCH   4   6
ENDBRANCH   3   4
ENDBRANCH   2   3
ENDBRANCH   1   2
BRANCH   1  29
ATOM     29  O   UNL A   1      33.390  30.485  26.426  1.00  0.00    -0.374 OA
BRANCH  29  30
ATOM     30  C   UNL A   1      32.166  31.029  26.910  1.00  0.00     0.202 C 
BRANCH  30  31
ATOM     31  C   UNL A   1      32.117  32.537  27.131  1.00  0.00     0.261 C 
BRANCH  31  32
ATOM     32  O   UNL A   1      33.421  33.069  27.372  1.00  0.00    -0.460 OA
BRANCH  32  33
ATOM     33  C   UNL A   1      33.449  33.986  28.363  1.00  0.00     0.338 C 
ATOM     34  O   UNL A   1      32.633  34.866  28.582  1.00  0.00    -0.246 OA
BRANCH  33  35
ATOM     35  C   UNL A   1      34.523  33.643  29.301  1.00  0.00     0.060 A 
ATOM     36  C   UNL A   1      35.783  34.177  29.018  1.00  0.00     0.016 A 
ATOM     37  C   UNL A   1      34.321  32.785  30.385  1.00  0.00     0.016 A 
ATOM     38  C   UNL A   1      36.876  33.778  29.766  1.00  0.00     0.010 A 
ATOM     39  C   UNL A   1      35.423  32.385  31.140  1.00  0.00     0.010 A 
ATOM     40  C   UNL A   1      36.707  32.838  30.791  1.00  0.00    -0.014 A 
BRANCH  40  41
ATOM     41  C   UNL A   1      37.918  32.199  31.342  1.00  0.00     0.031 A 
ATOM     42  C   UNL A   1      38.378  32.608  32.713  1.00  0.00     0.074 A 
ATOM     43  C   UNL A   1      38.504  31.195  30.672  1.00  0.00     0.049 A 
ATOM     44  N   UNL A   1      39.351  32.130  33.441  1.00  0.00    -0.248 NA
ATOM     45  C   UNL A   1      37.634  33.707  33.350  1.00  0.00     0.031 C 
ATOM     46  C   UNL A   1      38.075  30.698  29.364  1.00  0.00     0.029 A 
ATOM     47  N   UNL A   1      39.559  30.393  31.009  1.00  0.00    -0.354 N 
ATOM     48  C   UNL A   1      39.333  32.862  34.624  1.00  0.00     0.074 A 
ATOM     49  C   UNL A   1      38.291  33.857  34.488  1.00  0.00     0.031 C 
ATOM     50  C   UNL A   1      38.846  29.655  29.021  1.00  0.00     0.029 A 
ATOM     51  C   UNL A   1      39.844  29.437  30.065  1.00  0.00     0.049 A 
ATOM     52  H   UNL A   1      40.065  30.492  31.848  1.00  0.00     0.167 HD
ATOM     53  C   UNL A   1      40.106  32.703  35.726  1.00  0.00     0.034 A 
ATOM     54  C   UNL A   1      40.809  28.498  30.054  1.00  0.00     0.034 A 
ATOM     55  C   UNL A   1      41.152  31.714  35.812  1.00  0.00     0.049 A 
ATOM     56  C   UNL A   1      41.724  28.407  31.248  1.00  0.00     0.074 A 
ATOM     57  C   UNL A   1      42.023  31.461  36.856  1.00  0.00     0.029 A 
ATOM     58  N   UNL A   1      41.477  30.816  34.799  1.00  0.00    -0.354 N 
ATOM     59  N   UNL A   1      41.706  29.109  32.361  1.00  0.00    -0.248 NA
ATOM     60  C   UNL A   1      42.777  27.390  31.192  1.00  0.00     0.031 C 
ATOM     61  C   UNL A   1      42.921  30.469  36.445  1.00  0.00     0.029 A 
ATOM     62  C   UNL A   1      42.556  30.034  35.179  1.00  0.00     0.049 A 
ATOM     63  H   UNL A   1      41.008  30.746  33.936  1.00  0.00     0.167 HD
ATOM     64  C   UNL A   1      42.729  28.593  33.152  1.00  0.00     0.074 A 
ATOM     65  C   UNL A   1      43.323  27.509  32.393  1.00  0.00     0.031 C 
ATOM     66  C   UNL A   1      43.141  28.972  34.390  1.00  0.00     0.034 A 
BRANCH  53  67
ATOM     67  C   UNL A   1      39.876  33.661  36.875  1.00  0.00     0.023 A 
ATOM     68  C   UNL A   1      40.706  34.776  37.089  1.00  0.00     0.031 A 
ATOM     69  C   UNL A   1      38.858  33.415  37.814  1.00  0.00     0.131 A 
ATOM     70  C   UNL A   1      40.567  35.543  38.258  1.00  0.00     0.055 A 
ATOM     71  C   UNL A   1      38.664  34.237  38.925  1.00  0.00     0.041 A 
ATOM     72  F   UNL A   1      38.050  32.351  37.683  1.00  0.00    -0.206 F 
ATOM     73  C   UNL A   1      39.534  35.298  39.164  1.00  0.00     0.022 A 
BRANCH  70  74
ATOM     74  S   UNL A   1      41.863  36.746  38.667  1.00  0.00     0.124 S 
ATOM     75  O   UNL A   1      42.667  35.996  39.629  1.00  0.00    -0.237 OA
ATOM     76  O   UNL A   1      42.482  36.996  37.371  1.00  0.00    -0.237 OA
ATOM     77  O   UNL A   1      41.120  37.871  39.233  1.00  0.00    -0.744 OA
ENDBRANCH  70  74
ENDBRANCH  53  67
BRANCH  54  78
ATOM     78  C   UNL A   1      40.962  27.587  28.885  1.00  0.00     0.023 A 
ATOM     79  C   UNL A   1      41.947  27.815  27.912  1.00  0.00     0.031 A 
ATOM     80  C   UNL A   1      40.101  26.488  28.704  1.00  0.00     0.131 A 
ATOM     81  C   UNL A   1      42.022  26.984  26.784  1.00  0.00     0.055 A 
ATOM     82  C   UNL A   1      40.216  25.631  27.610  1.00  0.00     0.041 A 
ATOM     83  F   UNL A   1      39.141  26.223  29.604  1.00  0.00    -0.206 F 
ATOM     84  C   UNL A   1      41.174  25.884  26.633  1.00  0.00     0.022 A 
BRANCH  81  85
ATOM     85  S   UNL A   1      43.195  27.411  25.468  1.00  0.00     0.124 S 
ATOM     86  O   UNL A   1      42.358  28.196  24.567  1.00  0.00    -0.237 OA
ATOM     87  O   UNL A   1      44.217  28.149  26.202  1.00  0.00    -0.237 OA
ATOM     88  O   UNL A   1      43.618  26.110  24.954  1.00  0.00    -0.744 OA
ENDBRANCH  81  85
ENDBRANCH  54  78
BRANCH  66  89
ATOM     89  C   UNL A   1      44.265  28.171  35.001  1.00  0.00     0.023 A 
ATOM     90  C   UNL A   1      44.033  26.938  35.637  1.00  0.00     0.031 A 
ATOM     91  C   UNL A   1      45.582  28.666  34.981  1.00  0.00     0.131 A 
ATOM     92  C   UNL A   1      45.083  26.287  36.300  1.00  0.00     0.055 A 
ATOM     93  C   UNL A   1      46.636  27.973  35.574  1.00  0.00     0.041 A 
ATOM     94  F   UNL A   1      45.862  29.839  34.391  1.00  0.00    -0.206 F 
ATOM     95  C   UNL A   1      46.387  26.785  36.255  1.00  0.00     0.022 A 
BRANCH  92  96
ATOM     96  S   UNL A   1      44.691  24.853  37.339  1.00  0.00     0.124 S 
ATOM     97  O   UNL A   1      45.407  25.167  38.571  1.00  0.00    -0.237 OA
ATOM     98  O   UNL A   1      43.235  24.912  37.415  1.00  0.00    -0.237 OA
ATOM     99  O   UNL A   1      45.227  23.724  36.580  1.00  0.00    -0.744 OA
ENDBRANCH  92  96
ENDBRANCH  66  89
ENDBRANCH  40  41
ENDBRANCH  33  35
ENDBRANCH  32  33
ENDBRANCH  31  32
ENDBRANCH  30  31
ENDBRANCH  29  30
ENDBRANCH   1  29
TORSDOF 22
ENDMDL
MODEL 3
REMARK VINA RESULT:     -10.9      4.497      7.703
REMARK SMILES COc1cc(/C=C2/N=C(c3ccccc3)OC2=O)ccc1OCC(=O)OCCOCCOC(=O)c1ccc(-c2c3nc(c(-c4cc(S(=O)(=O)[O-])ccc4F)c4ccc([nH]4)c(-c4cc(S(=O)(=O)[O-])ccc4F)c4nc(c(-c5cc(S(=O)(=O)[O-])ccc5F)c5ccc2[nH]5)C=C4)C=C3)cc1
REMARK SMILES IDX 28 1 27 2 26 3 24 4 25 5 23 6 22 7 21 8 3 9 4 10 5 11 20 12
REMARK SMILES IDX 19 13 2 14 1 15 6 16 7 17 8 18 17 19 9 20 16 21 18 22 10 23
REMARK SMILES IDX 11 24 15 25 12 26 14 27 13 28 29 29 30 30 31 31 32 32 33 33
REMARK SMILES IDX 34 34 35 35 36 36 97 37 37 38 96 39 38 40 39 41 40 42 90 43
REMARK SMILES IDX 41 44 95 45 89 46 91 47 42 48 94 49 88 50 87 51 43 53 75 54
REMARK SMILES IDX 55 55 74 56 56 57 59 58 73 59 92 60 57 61 58 62 72 64 93 65
REMARK SMILES IDX 60 66 44 67 45 68 53 69 46 70 52 71 54 72 51 73 47 74 48 75
REMARK SMILES IDX 49 76 50 77 76 78 77 79 85 80 78 81 84 82 86 83 83 84 79 85
REMARK SMILES IDX 80 86 81 87 82 88 61 89 62 90 70 91 63 92 69 93 71 94 68 95
REMARK SMILES IDX 64 96 65 97 66 98 67 99
REMARK H PARENT 91 52 59 63
REMARK Flexibility Score: inf
ROOT
ATOM      1  C   UNL A   1      33.897  21.192  25.353  1.00  0.00     0.202 C 
ENDROOT
BRANCH   1   2
ATOM      2  C   UNL A   1      33.928  22.579  24.697  1.00  0.00     0.261 C 
BRANCH   2   3
ATOM      3  O   UNL A   1      33.479  22.566  23.324  1.00  0.00    -0.461 OA
BRANCH   3   4
ATOM      4  C   UNL A   1      32.169  22.248  23.126  1.00  0.00     0.344 C 
ATOM      5  O   UNL A   1      31.771  21.376  22.358  1.00  0.00    -0.248 OA
BRANCH   4   6
ATOM      6  C   UNL A   1      31.196  23.129  23.920  1.00  0.00     0.352 C 
BRANCH   6   7
ATOM      7  O   UNL A   1      31.096  24.516  23.701  1.00  0.00    -0.478 OA
BRANCH   7   8
ATOM      8  C   UNL A   1      31.970  25.416  24.236  1.00  0.00     0.162 A 
ATOM      9  C   UNL A   1      33.007  26.145  23.637  1.00  0.00     0.161 A 
ATOM     10  C   UNL A   1      33.733  27.088  24.402  1.00  0.00     0.058 A 
ATOM     11  C   UNL A   1      33.462  27.267  25.772  1.00  0.00    -0.019 A 
ATOM     12  C   UNL A   1      31.755  25.567  25.614  1.00  0.00     0.051 A 
ATOM     13  C   UNL A   1      32.492  26.470  26.378  1.00  0.00     0.012 A 
BRANCH   9  14
ATOM     14  O   UNL A   1      33.500  25.797  22.407  1.00  0.00    -0.493 OA
ATOM     15  C   UNL A   1      32.979  26.532  21.304  1.00  0.00     0.278 C 
ENDBRANCH   9  14
BRANCH  11  16
ATOM     16  C   UNL A   1      34.136  28.274  26.601  1.00  0.00     0.044 C 
ATOM     17  C   UNL A   1      33.700  29.519  26.836  1.00  0.00     0.153 C 
ATOM     18  N   UNL A   1      34.389  30.453  27.577  1.00  0.00    -0.205 NA
ATOM     19  C   UNL A   1      32.395  30.085  26.385  1.00  0.00     0.363 C 
ATOM     20  C   UNL A   1      33.554  31.437  27.626  1.00  0.00     0.231 C 
ATOM     21  O   UNL A   1      32.379  31.314  26.969  1.00  0.00    -0.402 OA
ATOM     22  O   UNL A   1      31.517  29.603  25.697  1.00  0.00    -0.244 OA
BRANCH  20  23
ATOM     23  C   UNL A   1      33.691  32.718  28.316  1.00  0.00     0.037 A 
ATOM     24  C   UNL A   1      33.125  33.878  27.785  1.00  0.00     0.014 A 
ATOM     25  C   UNL A   1      34.403  32.762  29.520  1.00  0.00     0.014 A 
ATOM     26  C   UNL A   1      33.255  35.084  28.479  1.00  0.00     0.001 A 
ATOM     27  C   UNL A   1      34.545  33.971  30.199  1.00  0.00     0.001 A 
ATOM     28  C   UNL A   1      33.966  35.130  29.681  1.00  0.00     0.000 A 
ENDBRANCH  20  23
ENDBRANCH  11  16
ENDBRANCH   7   8
ENDBRANCH   6   7
ENDBRANCH   4   6
ENDBRANCH   3   4
ENDBRANCH   2   3
ENDBRANCH   1   2
BRANCH   1  29
ATOM     29  O   UNL A   1      35.154  20.525  25.483  1.00  0.00    -0.374 OA
BRANCH  29  30
ATOM     30  C   UNL A   1      36.289  21.210  24.960  1.00  0.00     0.202 C 
BRANCH  30  31
ATOM     31  C   UNL A   1      37.365  21.628  25.956  1.00  0.00     0.261 C 
BRANCH  31  32
ATOM     32  O   UNL A   1      38.635  21.768  25.317  1.00  0.00    -0.460 OA
BRANCH  32  33
ATOM     33  C   UNL A   1      39.676  21.472  26.125  1.00  0.00     0.338 C 
ATOM     34  O   UNL A   1      40.320  20.438  26.154  1.00  0.00    -0.246 OA
BRANCH  33  35
ATOM     35  C   UNL A   1      40.078  22.684  26.848  1.00  0.00     0.060 A 
ATOM     36  C   UNL A   1      39.495  23.880  26.420  1.00  0.00     0.016 A 
ATOM     37  C   UNL A   1      41.030  22.662  27.870  1.00  0.00     0.016 A 
ATOM     38  C   UNL A   1      39.936  25.080  26.948  1.00  0.00     0.010 A 
ATOM     39  C   UNL A   1      41.473  23.871  28.404  1.00  0.00     0.010 A 
ATOM     40  C   UNL A   1      40.965  25.081  27.899  1.00  0.00    -0.014 A 
BRANCH  40  41
ATOM     41  C   UNL A   1      41.625  26.368  28.194  1.00  0.00     0.031 A 
ATOM     42  C   UNL A   1      42.956  26.650  27.556  1.00  0.00     0.074 A 
ATOM     43  C   UNL A   1      40.978  27.296  28.916  1.00  0.00     0.049 A 
ATOM     44  N   UNL A   1      43.681  27.735  27.590  1.00  0.00    -0.248 NA
ATOM     45  C   UNL A   1      43.547  25.555  26.769  1.00  0.00     0.031 C 
ATOM     46  C   UNL A   1      39.654  27.119  29.515  1.00  0.00     0.029 A 
ATOM     47  N   UNL A   1      41.327  28.578  29.240  1.00  0.00    -0.354 N 
ATOM     48  C   UNL A   1      44.809  27.459  26.824  1.00  0.00     0.074 A 
ATOM     49  C   UNL A   1      44.699  26.083  26.391  1.00  0.00     0.031 C 
ATOM     50  C   UNL A   1      39.291  28.265  30.112  1.00  0.00     0.029 A 
ATOM     51  C   UNL A   1      40.370  29.238  29.971  1.00  0.00     0.049 A 
ATOM     52  H   UNL A   1      42.182  28.988  28.974  1.00  0.00     0.167 HD
ATOM     53  C   UNL A   1      45.832  28.288  26.500  1.00  0.00     0.034 A 
ATOM     54  C   UNL A   1      40.378  30.489  30.470  1.00  0.00     0.034 A 
ATOM     55  C   UNL A   1      45.917  29.648  26.974  1.00  0.00     0.049 A 
ATOM     56  C   UNL A   1      41.574  31.359  30.183  1.00  0.00     0.074 A 
ATOM     57  C   UNL A   1      46.907  30.587  26.743  1.00  0.00     0.029 A 
ATOM     58  N   UNL A   1      44.972  30.262  27.791  1.00  0.00    -0.354 N 
ATOM     59  N   UNL A   1      42.642  31.089  29.465  1.00  0.00    -0.248 NA
ATOM     60  C   UNL A   1      41.559  32.706  30.760  1.00  0.00     0.031 C 
ATOM     61  C   UNL A   1      46.599  31.735  27.483  1.00  0.00     0.029 A 
ATOM     62  C   UNL A   1      45.372  31.552  28.102  1.00  0.00     0.049 A 
ATOM     63  H   UNL A   1      44.139  29.840  28.103  1.00  0.00     0.167 HD
ATOM     64  C   UNL A   1      43.413  32.248  29.479  1.00  0.00     0.074 A 
ATOM     65  C   UNL A   1      42.671  33.221  30.258  1.00  0.00     0.031 C 
ATOM     66  C   UNL A   1      44.619  32.493  28.902  1.00  0.00     0.034 A 
BRANCH  53  67
ATOM     67  C   UNL A   1      46.947  27.712  25.656  1.00  0.00     0.023 A 
ATOM     68  C   UNL A   1      47.169  28.131  24.331  1.00  0.00     0.031 A 
ATOM     69  C   UNL A   1      47.754  26.674  26.155  1.00  0.00     0.131 A 
ATOM     70  C   UNL A   1      48.100  27.455  23.525  1.00  0.00     0.055 A 
ATOM     71  C   UNL A   1      48.745  26.069  25.379  1.00  0.00     0.041 A 
ATOM     72  F   UNL A   1      47.575  26.207  27.401  1.00  0.00    -0.206 F 
ATOM     73  C   UNL A   1      48.909  26.445  24.048  1.00  0.00     0.022 A 
BRANCH  70  74
ATOM     74  S   UNL A   1      48.110  27.790  21.742  1.00  0.00     0.124 S 
ATOM     75  O   UNL A   1      49.234  28.716  21.622  1.00  0.00    -0.237 OA
ATOM     76  O   UNL A   1      48.310  26.462  21.173  1.00  0.00    -0.237 OA
ATOM     77  O   UNL A   1      46.796  28.383  21.497  1.00  0.00    -0.744 OA
ENDBRANCH  70  74
ENDBRANCH  53  67
BRANCH  54  78
ATOM     78  C   UNL A   1      39.233  30.983  31.286  1.00  0.00     0.023 A 
ATOM     79  C   UNL A   1      39.340  31.113  32.679  1.00  0.00     0.031 A 
ATOM     80  C   UNL A   1      38.000  31.302  30.688  1.00  0.00     0.131 A 
ATOM     81  C   UNL A   1      38.224  31.511  33.432  1.00  0.00     0.055 A 
ATOM     82  C   UNL A   1      36.910  31.752  31.434  1.00  0.00     0.041 A 
ATOM     83  F   UNL A   1      37.842  31.196  29.358  1.00  0.00    -0.206 F 
ATOM     84  C   UNL A   1      37.015  31.846  32.818  1.00  0.00     0.022 A 
BRANCH  81  85
ATOM     85  S   UNL A   1      38.350  31.505  35.241  1.00  0.00     0.124 S 
ATOM     86  O   UNL A   1      37.206  32.326  35.622  1.00  0.00    -0.237 OA
ATOM     87  O   UNL A   1      38.250  30.082  35.545  1.00  0.00    -0.237 OA
ATOM     88  O   UNL A   1      39.660  32.102  35.493  1.00  0.00    -0.744 OA
ENDBRANCH  81  85
ENDBRANCH  54  78
BRANCH  66  89
ATOM     89  C   UNL A   1      45.176  33.886  29.070  1.00  0.00     0.023 A 
ATOM     90  C   UNL A   1      44.728  34.961  28.282  1.00  0.00     0.031 A 
ATOM     91  C   UNL A   1      46.197  34.133  30.005  1.00  0.00     0.131 A 
ATOM     92  C   UNL A   1      45.359  36.210  28.382  1.00  0.00     0.055 A 
ATOM     93  C   UNL A   1      46.765  35.398  30.157  1.00  0.00     0.041 A 
ATOM     94  F   UNL A   1      46.666  33.144  30.783  1.00  0.00    -0.206 F 
ATOM     95  C   UNL A   1      46.359  36.441  29.329  1.00  0.00     0.022 A 
BRANCH  92  96
ATOM     96  S   UNL A   1      44.947  37.486  27.162  1.00  0.00     0.124 S 
ATOM     97  O   UNL A   1      43.697  36.981  26.605  1.00  0.00    -0.237 OA
ATOM     98  O   UNL A   1      44.839  38.685  27.989  1.00  0.00    -0.237 OA
ATOM     99  O   UNL A   1      46.088  37.466  26.247  1.00  0.00    -0.744 OA
ENDBRANCH  92  96
ENDBRANCH  66  89
ENDBRANCH  40  41
ENDBRANCH  33  35
ENDBRANCH  32  33
ENDBRANCH  31  32
ENDBRANCH  30  31
ENDBRANCH  29  30
ENDBRANCH   1  29
TORSDOF 22
ENDMDL
