MODEL 1
REMARK VINA RESULT:     -11.7      0.000      0.000
REMARK SMILES O=C(OCCOCCOC(=O)[C@@H]1[C@H](C(=O)Nc2ccc(Cn3cncn3)cc2)[C@@H]2C=C[C@H]1CC2)c1ccc(-c2c3nc(c(-c4cc(S(=O)(=O)[O-])ccc4F)c4ccc([nH]4)c(-c4cc(S(=O)(=O)[O-])ccc4F)c4nc(c(-c5cc(S(=O)(=O)[O-])ccc5F)c5ccc2[nH]5)C=C4)C=C3)cc1
REMARK SMILES IDX 7 1 6 2 5 3 4 4 3 5 2 6 1 7 35 8 36 9 97 10 37 11 96 12
REMARK SMILES IDX 38 13 39 14 40 15 90 16 41 17 95 18 89 19 91 20 42 21 94 22
REMARK SMILES IDX 88 23 87 24 43 26 75 27 55 28 74 29 56 30 59 31 73 32 92 33
REMARK SMILES IDX 57 34 58 35 72 37 93 38 60 39 44 40 45 41 53 42 46 43 52 44
REMARK SMILES IDX 54 45 51 46 47 47 48 48 49 49 50 50 76 51 77 52 85 53 78 54
REMARK SMILES IDX 84 55 86 56 83 57 79 58 80 59 81 60 82 61 61 62 62 63 70 64
REMARK SMILES IDX 63 65 69 66 71 67 68 68 64 69 65 70 66 71 67 72 8 73 9 74
REMARK SMILES IDX 10 75 11 76 12 77 13 78 32 79 29 80 31 81 33 82 30 83 34 84
REMARK SMILES IDX 14 85 15 86 16 87 17 89 18 90 28 91 19 92 27 93 20 94 21 95
REMARK SMILES IDX 22 96 23 97 26 98 24 99 25 100
REMARK H PARENT 91 25 59 36 16 88
REMARK Flexibility Score: inf
ROOT
ATOM      1  C   UNL A   1      33.574  29.457  25.743  1.00  0.00     0.202 C 
ENDROOT
BRANCH   1   2
ATOM      2  O   UNL A   1      32.401  30.122  26.200  1.00  0.00    -0.374 OA
BRANCH   2   3
ATOM      3  C   UNL A   1      32.523  31.124  27.186  1.00  0.00     0.202 C 
BRANCH   3   4
ATOM      4  C   UNL A   1      33.917  31.593  27.564  1.00  0.00     0.261 C 
BRANCH   4   5
ATOM      5  O   UNL A   1      34.659  30.899  28.552  1.00  0.00    -0.460 OA
BRANCH   5   6
ATOM      6  C   UNL A   1      35.732  31.289  29.250  1.00  0.00     0.338 C 
ATOM      7  O   UNL A   1      35.614  32.210  30.046  1.00  0.00    -0.246 OA
BRANCH   6   8
ATOM      8  C   UNL A   1      37.021  30.579  29.143  1.00  0.00     0.060 A 
ATOM      9  C   UNL A   1      37.196  29.209  28.926  1.00  0.00     0.016 A 
ATOM     10  C   UNL A   1      38.129  31.383  29.446  1.00  0.00     0.016 A 
ATOM     11  C   UNL A   1      38.401  28.615  29.206  1.00  0.00     0.010 A 
ATOM     12  C   UNL A   1      39.350  30.805  29.677  1.00  0.00     0.010 A 
ATOM     13  C   UNL A   1      39.442  29.419  29.638  1.00  0.00    -0.014 A 
BRANCH  13  14
ATOM     14  C   UNL A   1      40.706  28.777  29.894  1.00  0.00     0.031 A 
ATOM     15  C   UNL A   1      40.983  28.658  31.350  1.00  0.00     0.074 A 
ATOM     16  C   UNL A   1      41.383  28.243  28.864  1.00  0.00     0.049 A 
ATOM     17  N   UNL A   1      41.961  29.167  32.024  1.00  0.00    -0.248 NA
ATOM     18  C   UNL A   1      39.901  28.118  32.201  1.00  0.00     0.031 C 
ATOM     19  C   UNL A   1      40.976  28.168  27.457  1.00  0.00     0.029 A 
ATOM     20  N   UNL A   1      42.509  27.500  28.882  1.00  0.00    -0.354 N 
ATOM     21  C   UNL A   1      41.749  28.757  33.339  1.00  0.00     0.074 A 
ATOM     22  C   UNL A   1      40.370  28.378  33.420  1.00  0.00     0.031 C 
ATOM     23  C   UNL A   1      41.673  27.185  26.847  1.00  0.00     0.029 A 
ATOM     24  C   UNL A   1      42.652  26.662  27.783  1.00  0.00     0.049 A 
ATOM     25  H   UNL A   1      43.171  27.547  29.609  1.00  0.00     0.167 HD
ATOM     26  C   UNL A   1      42.797  28.449  34.150  1.00  0.00     0.034 A 
ATOM     27  C   UNL A   1      43.429  25.547  27.728  1.00  0.00     0.034 A 
ATOM     28  C   UNL A   1      44.012  29.065  33.664  1.00  0.00     0.049 A 
ATOM     29  C   UNL A   1      44.409  25.669  28.847  1.00  0.00     0.074 A 
ATOM     30  C   UNL A   1      44.392  30.373  33.419  1.00  0.00     0.029 A 
ATOM     31  N   UNL A   1      44.900  28.284  32.954  1.00  0.00    -0.354 N 
ATOM     32  N   UNL A   1      45.303  26.623  28.904  1.00  0.00    -0.248 NA
ATOM     33  C   UNL A   1      44.050  25.092  30.139  1.00  0.00     0.031 C 
ATOM     34  C   UNL A   1      45.129  30.316  32.200  1.00  0.00     0.029 A 
ATOM     35  C   UNL A   1      45.249  28.976  31.818  1.00  0.00     0.049 A 
ATOM     36  H   UNL A   1      45.225  27.392  33.213  1.00  0.00     0.167 HD
ATOM     37  C   UNL A   1      45.299  27.054  30.225  1.00  0.00     0.074 A 
ATOM     38  C   UNL A   1      44.569  26.017  30.957  1.00  0.00     0.031 C 
ATOM     39  C   UNL A   1      45.597  28.349  30.554  1.00  0.00     0.034 A 
BRANCH  26  40
ATOM     40  C   UNL A   1      42.804  27.262  35.095  1.00  0.00     0.023 A 
ATOM     41  C   UNL A   1      43.606  26.170  34.722  1.00  0.00     0.031 A 
ATOM     42  C   UNL A   1      41.878  27.010  36.136  1.00  0.00     0.131 A 
ATOM     43  C   UNL A   1      43.375  24.890  35.253  1.00  0.00     0.055 A 
ATOM     44  C   UNL A   1      41.695  25.747  36.706  1.00  0.00     0.041 A 
ATOM     45  F   UNL A   1      41.033  27.929  36.613  1.00  0.00    -0.206 F 
ATOM     46  C   UNL A   1      42.418  24.668  36.237  1.00  0.00     0.022 A 
BRANCH  43  47
ATOM     47  S   UNL A   1      44.217  23.487  34.482  1.00  0.00     0.124 S 
ATOM     48  O   UNL A   1      45.411  24.127  33.939  1.00  0.00    -0.237 OA
ATOM     49  O   UNL A   1      44.423  22.601  35.623  1.00  0.00    -0.237 OA
ATOM     50  O   UNL A   1      43.252  23.018  33.492  1.00  0.00    -0.744 OA
ENDBRANCH  43  47
ENDBRANCH  26  40
BRANCH  27  51
ATOM     51  C   UNL A   1      43.050  24.264  27.062  1.00  0.00     0.023 A 
ATOM     52  C   UNL A   1      43.915  23.559  26.200  1.00  0.00     0.031 A 
ATOM     53  C   UNL A   1      41.856  23.601  27.434  1.00  0.00     0.131 A 
ATOM     54  C   UNL A   1      43.563  22.266  25.736  1.00  0.00     0.055 A 
ATOM     55  C   UNL A   1      41.510  22.330  26.968  1.00  0.00     0.041 A 
ATOM     56  F   UNL A   1      41.011  24.133  28.331  1.00  0.00    -0.206 F 
ATOM     57  C   UNL A   1      42.368  21.653  26.119  1.00  0.00     0.022 A 
BRANCH  54  58
ATOM     58  S   UNL A   1      44.701  21.322  24.671  1.00  0.00     0.124 S 
ATOM     59  O   UNL A   1      45.956  21.402  25.408  1.00  0.00    -0.237 OA
ATOM     60  O   UNL A   1      44.063  20.010  24.617  1.00  0.00    -0.237 OA
ATOM     61  O   UNL A   1      44.682  22.060  23.408  1.00  0.00    -0.744 OA
ENDBRANCH  54  58
ENDBRANCH  27  51
BRANCH  39  62
ATOM     62  C   UNL A   1      46.141  29.263  29.468  1.00  0.00     0.023 A 
ATOM     63  C   UNL A   1      45.353  30.072  28.613  1.00  0.00     0.031 A 
ATOM     64  C   UNL A   1      47.535  29.426  29.406  1.00  0.00     0.131 A 
ATOM     65  C   UNL A   1      45.970  30.988  27.734  1.00  0.00     0.055 A 
ATOM     66  C   UNL A   1      48.140  30.345  28.549  1.00  0.00     0.041 A 
ATOM     67  F   UNL A   1      48.339  28.719  30.218  1.00  0.00    -0.206 F 
ATOM     68  C   UNL A   1      47.361  31.126  27.705  1.00  0.00     0.022 A 
BRANCH  65  69
ATOM     69  S   UNL A   1      44.975  32.023  26.607  1.00  0.00     0.124 S 
ATOM     70  O   UNL A   1      43.747  31.258  26.437  1.00  0.00    -0.237 OA
ATOM     71  O   UNL A   1      44.856  33.276  27.350  1.00  0.00    -0.237 OA
ATOM     72  O   UNL A   1      45.808  32.113  25.404  1.00  0.00    -0.744 OA
ENDBRANCH  65  69
ENDBRANCH  39  62
ENDBRANCH  13  14
ENDBRANCH   6   8
ENDBRANCH   5   6
ENDBRANCH   4   5
ENDBRANCH   3   4
ENDBRANCH   2   3
ENDBRANCH   1   2
BRANCH   1  73
ATOM     73  C   UNL A   1      34.004  28.126  26.394  1.00  0.00     0.261 C 
BRANCH  73  74
ATOM     74  O   UNL A   1      33.820  26.885  25.648  1.00  0.00    -0.463 OA
BRANCH  74  75
ATOM     75  C   UNL A   1      32.769  26.095  26.017  1.00  0.00     0.310 C 
ATOM     76  O   UNL A   1      31.696  26.547  26.406  1.00  0.00    -0.252 OA
BRANCH  75  77
ATOM     77  C   UNL A   1      33.083  24.588  26.063  1.00  0.00     0.119 C 
ATOM     78  C   UNL A   1      33.681  23.741  24.903  1.00  0.00     0.100 C 
ATOM     79  C   UNL A   1      31.943  23.732  26.760  1.00  0.00     0.026 C 
ATOM     80  C   UNL A   1      33.245  22.244  25.070  1.00  0.00     0.025 C 
ATOM     81  C   UNL A   1      31.078  22.957  25.777  1.00  0.00    -0.027 C 
ATOM     82  C   UNL A   1      32.655  22.595  27.528  1.00  0.00     0.009 C 
ATOM     83  C   UNL A   1      31.748  22.172  24.918  1.00  0.00    -0.027 C 
ATOM     84  C   UNL A   1      33.522  21.780  26.527  1.00  0.00     0.009 C 
BRANCH  78  85
ATOM     85  C   UNL A   1      33.736  24.097  23.404  1.00  0.00     0.228 C 
ATOM     86  O   UNL A   1      34.702  23.661  22.758  1.00  0.00    -0.274 OA
ATOM     87  N   UNL A   1      32.744  24.668  22.657  1.00  0.00    -0.326 N 
ATOM     88  H   UNL A   1      32.771  24.383  21.715  1.00  0.00     0.169 HD
BRANCH  87  89
ATOM     89  C   UNL A   1      31.691  25.568  22.915  1.00  0.00     0.041 A 
ATOM     90  C   UNL A   1      31.913  26.937  22.794  1.00  0.00     0.026 A 
ATOM     91  C   UNL A   1      30.459  25.169  23.413  1.00  0.00     0.026 A 
ATOM     92  C   UNL A   1      30.857  27.844  22.994  1.00  0.00     0.008 A 
ATOM     93  C   UNL A   1      29.416  26.050  23.656  1.00  0.00     0.008 A 
ATOM     94  C   UNL A   1      29.580  27.394  23.364  1.00  0.00    -0.026 A 
BRANCH  94  95
ATOM     95  C   UNL A   1      28.366  28.279  23.374  1.00  0.00     0.181 C 
BRANCH  95  96
ATOM     96  N   UNL A   1      28.594  29.587  22.802  1.00  0.00    -0.249 N 
ATOM     97  C   UNL A   1      28.256  30.017  21.557  1.00  0.00     0.220 A 
ATOM     98  N   UNL A   1      28.988  30.619  23.580  1.00  0.00    -0.160 NA
ATOM     99  N   UNL A   1      28.421  31.316  21.483  1.00  0.00    -0.224 NA
ATOM    100  C   UNL A   1      28.874  31.642  22.729  1.00  0.00     0.246 A 
ENDBRANCH  95  96
ENDBRANCH  94  95
ENDBRANCH  87  89
ENDBRANCH  78  85
ENDBRANCH  75  77
ENDBRANCH  74  75
ENDBRANCH  73  74
ENDBRANCH   1  73
TORSDOF 21
ENDMDL
MODEL 2
REMARK VINA RESULT:     -11.6      2.614      7.636
REMARK SMILES O=C(OCCOCCOC(=O)[C@@H]1[C@H](C(=O)Nc2ccc(Cn3cncn3)cc2)[C@@H]2C=C[C@H]1CC2)c1ccc(-c2c3nc(c(-c4cc(S(=O)(=O)[O-])ccc4F)c4ccc([nH]4)c(-c4cc(S(=O)(=O)[O-])ccc4F)c4nc(c(-c5cc(S(=O)(=O)[O-])ccc5F)c5ccc2[nH]5)C=C4)C=C3)cc1
REMARK SMILES IDX 7 1 6 2 5 3 4 4 3 5 2 6 1 7 35 8 36 9 97 10 37 11 96 12
REMARK SMILES IDX 38 13 39 14 40 15 90 16 41 17 95 18 89 19 91 20 42 21 94 22
REMARK SMILES IDX 88 23 87 24 43 26 75 27 55 28 74 29 56 30 59 31 73 32 92 33
REMARK SMILES IDX 57 34 58 35 72 37 93 38 60 39 44 40 45 41 53 42 46 43 52 44
REMARK SMILES IDX 54 45 51 46 47 47 48 48 49 49 50 50 76 51 77 52 85 53 78 54
REMARK SMILES IDX 84 55 86 56 83 57 79 58 80 59 81 60 82 61 61 62 62 63 70 64
REMARK SMILES IDX 63 65 69 66 71 67 68 68 64 69 65 70 66 71 67 72 8 73 9 74
REMARK SMILES IDX 10 75 11 76 12 77 13 78 32 79 29 80 31 81 33 82 30 83 34 84
REMARK SMILES IDX 14 85 15 86 16 87 17 89 18 90 28 91 19 92 27 93 20 94 21 95
REMARK SMILES IDX 22 96 23 97 26 98 24 99 25 100
REMARK H PARENT 91 25 59 36 16 88
REMARK Flexibility Score: inf
ROOT
ATOM      1  C   UNL A   1      33.078  30.639  27.094  1.00  0.00     0.202 C 
ENDROOT
BRANCH   1   2
ATOM      2  O   UNL A   1      33.026  31.980  27.566  1.00  0.00    -0.374 OA
BRANCH   2   3
ATOM      3  C   UNL A   1      34.167  32.533  28.183  1.00  0.00     0.202 C 
BRANCH   3   4
ATOM      4  C   UNL A   1      35.507  31.858  27.949  1.00  0.00     0.261 C 
BRANCH   4   5
ATOM      5  O   UNL A   1      35.816  30.640  28.605  1.00  0.00    -0.460 OA
BRANCH   5   6
ATOM      6  C   UNL A   1      36.401  29.534  28.131  1.00  0.00     0.338 C 
ATOM      7  O   UNL A   1      35.717  28.719  27.528  1.00  0.00    -0.246 OA
BRANCH   6   8
ATOM      8  C   UNL A   1      37.856  29.323  28.244  1.00  0.00     0.060 A 
ATOM      9  C   UNL A   1      38.816  29.644  27.278  1.00  0.00     0.016 A 
ATOM     10  C   UNL A   1      38.229  28.592  29.381  1.00  0.00     0.016 A 
ATOM     11  C   UNL A   1      40.066  29.080  27.336  1.00  0.00     0.010 A 
ATOM     12  C   UNL A   1      39.492  28.067  29.471  1.00  0.00     0.010 A 
ATOM     13  C   UNL A   1      40.360  28.248  28.402  1.00  0.00    -0.014 A 
BRANCH  13  14
ATOM     14  C   UNL A   1      41.689  27.694  28.456  1.00  0.00     0.031 A 
ATOM     15  C   UNL A   1      41.764  26.365  27.794  1.00  0.00     0.074 A 
ATOM     16  C   UNL A   1      42.692  28.455  28.926  1.00  0.00     0.049 A 
ATOM     17  N   UNL A   1      42.082  25.227  28.315  1.00  0.00    -0.248 NA
ATOM     18  C   UNL A   1      41.165  26.248  26.447  1.00  0.00     0.031 C 
ATOM     19  C   UNL A   1      42.635  29.855  29.362  1.00  0.00     0.029 A 
ATOM     20  N   UNL A   1      44.015  28.194  28.957  1.00  0.00    -0.354 N 
ATOM     21  C   UNL A   1      41.992  24.310  27.269  1.00  0.00     0.074 A 
ATOM     22  C   UNL A   1      41.178  24.930  26.266  1.00  0.00     0.031 C 
ATOM     23  C   UNL A   1      43.877  30.383  29.315  1.00  0.00     0.029 A 
ATOM     24  C   UNL A   1      44.816  29.328  28.975  1.00  0.00     0.049 A 
ATOM     25  H   UNL A   1      44.381  27.280  28.965  1.00  0.00     0.167 HD
ATOM     26  C   UNL A   1      42.864  23.270  27.178  1.00  0.00     0.034 A 
ATOM     27  C   UNL A   1      46.123  29.386  28.601  1.00  0.00     0.034 A 
ATOM     28  C   UNL A   1      43.462  22.995  28.466  1.00  0.00     0.049 A 
ATOM     29  C   UNL A   1      46.625  27.981  28.630  1.00  0.00     0.074 A 
ATOM     30  C   UNL A   1      42.951  22.653  29.706  1.00  0.00     0.029 A 
ATOM     31  N   UNL A   1      44.735  23.468  28.708  1.00  0.00    -0.354 N 
ATOM     32  N   UNL A   1      46.685  27.273  29.729  1.00  0.00    -0.248 NA
ATOM     33  C   UNL A   1      46.533  27.196  27.403  1.00  0.00     0.031 C 
ATOM     34  C   UNL A   1      43.722  23.409  30.637  1.00  0.00     0.029 A 
ATOM     35  C   UNL A   1      44.722  24.089  29.935  1.00  0.00     0.049 A 
ATOM     36  H   UNL A   1      45.511  23.378  28.111  1.00  0.00     0.167 HD
ATOM     37  C   UNL A   1      46.215  26.011  29.381  1.00  0.00     0.074 A 
ATOM     38  C   UNL A   1      46.218  26.000  27.917  1.00  0.00     0.031 C 
ATOM     39  C   UNL A   1      45.569  25.217  30.288  1.00  0.00     0.034 A 
BRANCH  26  40
ATOM     40  C   UNL A   1      43.488  22.812  25.873  1.00  0.00     0.023 A 
ATOM     41  C   UNL A   1      43.573  21.423  25.672  1.00  0.00     0.031 A 
ATOM     42  C   UNL A   1      44.259  23.602  24.986  1.00  0.00     0.131 A 
ATOM     43  C   UNL A   1      44.484  20.881  24.752  1.00  0.00     0.055 A 
ATOM     44  C   UNL A   1      45.118  23.058  24.028  1.00  0.00     0.041 A 
ATOM     45  F   UNL A   1      44.304  24.938  25.035  1.00  0.00    -0.206 F 
ATOM     46  C   UNL A   1      45.266  21.689  23.933  1.00  0.00     0.022 A 
BRANCH  43  47
ATOM     47  S   UNL A   1      44.770  19.096  24.793  1.00  0.00     0.124 S 
ATOM     48  O   UNL A   1      44.862  18.783  23.370  1.00  0.00    -0.237 OA
ATOM     49  O   UNL A   1      46.012  19.011  25.553  1.00  0.00    -0.237 OA
ATOM     50  O   UNL A   1      43.584  18.580  25.472  1.00  0.00    -0.744 OA
ENDBRANCH  43  47
ENDBRANCH  26  40
BRANCH  27  51
ATOM     51  C   UNL A   1      46.751  30.500  27.829  1.00  0.00     0.023 A 
ATOM     52  C   UNL A   1      46.003  31.482  27.146  1.00  0.00     0.031 A 
ATOM     53  C   UNL A   1      48.146  30.723  27.920  1.00  0.00     0.131 A 
ATOM     54  C   UNL A   1      46.654  32.607  26.578  1.00  0.00     0.055 A 
ATOM     55  C   UNL A   1      48.783  31.829  27.350  1.00  0.00     0.041 A 
ATOM     56  F   UNL A   1      48.939  29.909  28.635  1.00  0.00    -0.206 F 
ATOM     57  C   UNL A   1      48.036  32.781  26.681  1.00  0.00     0.022 A 
BRANCH  54  58
ATOM     58  S   UNL A   1      45.690  33.912  25.746  1.00  0.00     0.124 S 
ATOM     59  O   UNL A   1      45.030  34.572  26.865  1.00  0.00    -0.237 OA
ATOM     60  O   UNL A   1      46.727  34.677  25.061  1.00  0.00    -0.237 OA
ATOM     61  O   UNL A   1      44.797  33.167  24.858  1.00  0.00    -0.744 OA
ENDBRANCH  54  58
ENDBRANCH  27  51
BRANCH  39  62
ATOM     62  C   UNL A   1      45.555  25.647  31.747  1.00  0.00     0.023 A 
ATOM     63  C   UNL A   1      46.628  25.477  32.657  1.00  0.00     0.031 A 
ATOM     64  C   UNL A   1      44.451  26.397  32.184  1.00  0.00     0.131 A 
ATOM     65  C   UNL A   1      46.558  26.040  33.949  1.00  0.00     0.055 A 
ATOM     66  C   UNL A   1      44.393  26.966  33.455  1.00  0.00     0.041 A 
ATOM     67  F   UNL A   1      43.417  26.629  31.357  1.00  0.00    -0.206 F 
ATOM     68  C   UNL A   1      45.444  26.785  34.345  1.00  0.00     0.022 A 
BRANCH  65  69
ATOM     69  S   UNL A   1      47.918  25.814  35.145  1.00  0.00     0.124 S 
ATOM     70  O   UNL A   1      47.614  24.533  35.769  1.00  0.00    -0.237 OA
ATOM     71  O   UNL A   1      49.101  25.849  34.289  1.00  0.00    -0.237 OA
ATOM     72  O   UNL A   1      47.783  26.971  36.035  1.00  0.00    -0.744 OA
ENDBRANCH  65  69
ENDBRANCH  39  62
ENDBRANCH  13  14
ENDBRANCH   6   8
ENDBRANCH   5   6
ENDBRANCH   4   5
ENDBRANCH   3   4
ENDBRANCH   2   3
ENDBRANCH   1   2
BRANCH   1  73
ATOM     73  C   UNL A   1      31.778  29.922  26.672  1.00  0.00     0.261 C 
BRANCH  73  74
ATOM     74  O   UNL A   1      31.416  28.673  27.335  1.00  0.00    -0.463 OA
BRANCH  74  75
ATOM     75  C   UNL A   1      31.590  27.523  26.620  1.00  0.00     0.310 C 
ATOM     76  O   UNL A   1      31.562  26.407  27.131  1.00  0.00    -0.252 OA
BRANCH  75  77
ATOM     77  C   UNL A   1      31.985  27.735  25.147  1.00  0.00     0.119 C 
ATOM     78  C   UNL A   1      31.127  27.358  23.905  1.00  0.00     0.100 C 
ATOM     79  C   UNL A   1      33.491  27.344  24.841  1.00  0.00     0.026 C 
ATOM     80  C   UNL A   1      32.068  27.102  22.677  1.00  0.00     0.025 C 
ATOM     81  C   UNL A   1      33.639  26.016  24.111  1.00  0.00    -0.027 C 
ATOM     82  C   UNL A   1      34.001  28.350  23.783  1.00  0.00     0.009 C 
ATOM     83  C   UNL A   1      32.922  25.899  22.983  1.00  0.00    -0.027 C 
ATOM     84  C   UNL A   1      33.073  28.280  22.537  1.00  0.00     0.009 C 
BRANCH  78  85
ATOM     85  C   UNL A   1      29.927  26.392  23.842  1.00  0.00     0.228 C 
ATOM     86  O   UNL A   1      28.814  26.892  23.615  1.00  0.00    -0.274 OA
ATOM     87  N   UNL A   1      29.971  25.026  23.809  1.00  0.00    -0.326 N 
ATOM     88  H   UNL A   1      29.216  24.638  23.311  1.00  0.00     0.169 HD
BRANCH  87  89
ATOM     89  C   UNL A   1      30.841  24.042  24.319  1.00  0.00     0.041 A 
ATOM     90  C   UNL A   1      31.370  23.081  23.461  1.00  0.00     0.026 A 
ATOM     91  C   UNL A   1      31.109  23.897  25.673  1.00  0.00     0.026 A 
ATOM     92  C   UNL A   1      32.283  22.128  23.945  1.00  0.00     0.008 A 
ATOM     93  C   UNL A   1      31.975  22.938  26.178  1.00  0.00     0.008 A 
ATOM     94  C   UNL A   1      32.640  22.096  25.302  1.00  0.00    -0.026 A 
BRANCH  94  95
ATOM     95  C   UNL A   1      33.768  21.259  25.837  1.00  0.00     0.181 C 
BRANCH  95  96
ATOM     96  N   UNL A   1      35.067  21.877  25.703  1.00  0.00    -0.249 N 
ATOM     97  C   UNL A   1      35.415  23.152  26.025  1.00  0.00     0.220 A 
ATOM     98  N   UNL A   1      36.161  21.129  25.437  1.00  0.00    -0.160 NA
ATOM     99  N   UNL A   1      36.720  23.275  25.975  1.00  0.00    -0.224 NA
ATOM    100  C   UNL A   1      37.135  22.028  25.607  1.00  0.00     0.246 A 
ENDBRANCH  95  96
ENDBRANCH  94  95
ENDBRANCH  87  89
ENDBRANCH  78  85
ENDBRANCH  75  77
ENDBRANCH  74  75
ENDBRANCH  73  74
ENDBRANCH   1  73
TORSDOF 21
ENDMDL
MODEL 3
REMARK VINA RESULT:     -11.4      2.210      4.635
REMARK SMILES O=C(OCCOCCOC(=O)[C@@H]1[C@H](C(=O)Nc2ccc(Cn3cncn3)cc2)[C@@H]2C=C[C@H]1CC2)c1ccc(-c2c3nc(c(-c4cc(S(=O)(=O)[O-])ccc4F)c4ccc([nH]4)c(-c4cc(S(=O)(=O)[O-])ccc4F)c4nc(c(-c5cc(S(=O)(=O)[O-])ccc5F)c5ccc2[nH]5)C=C4)C=C3)cc1
REMARK SMILES IDX 7 1 6 2 5 3 4 4 3 5 2 6 1 7 35 8 36 9 97 10 37 11 96 12
REMARK SMILES IDX 38 13 39 14 40 15 90 16 41 17 95 18 89 19 91 20 42 21 94 22
REMARK SMILES IDX 88 23 87 24 43 26 75 27 55 28 74 29 56 30 59 31 73 32 92 33
REMARK SMILES IDX 57 34 58 35 72 37 93 38 60 39 44 40 45 41 53 42 46 43 52 44
REMARK SMILES IDX 54 45 51 46 47 47 48 48 49 49 50 50 76 51 77 52 85 53 78 54
REMARK SMILES IDX 84 55 86 56 83 57 79 58 80 59 81 60 82 61 61 62 62 63 70 64
REMARK SMILES IDX 63 65 69 66 71 67 68 68 64 69 65 70 66 71 67 72 8 73 9 74
REMARK SMILES IDX 10 75 11 76 12 77 13 78 32 79 29 80 31 81 33 82 30 83 34 84
REMARK SMILES IDX 14 85 15 86 16 87 17 89 18 90 28 91 19 92 27 93 20 94 21 95
REMARK SMILES IDX 22 96 23 97 26 98 24 99 25 100
REMARK H PARENT 91 25 59 36 16 88
REMARK Flexibility Score: inf
ROOT
ATOM      1  C   UNL A   1      31.480  28.203  26.846  1.00  0.00     0.202 C 
ENDROOT
BRANCH   1   2
ATOM      2  O   UNL A   1      32.154  29.163  27.653  1.00  0.00    -0.374 OA
BRANCH   2   3
ATOM      3  C   UNL A   1      32.509  30.405  27.087  1.00  0.00     0.202 C 
BRANCH   3   4
ATOM      4  C   UNL A   1      33.984  30.752  26.989  1.00  0.00     0.261 C 
BRANCH   4   5
ATOM      5  O   UNL A   1      34.847  30.518  28.088  1.00  0.00    -0.460 OA
BRANCH   5   6
ATOM      6  C   UNL A   1      35.746  31.327  28.660  1.00  0.00     0.338 C 
ATOM      7  O   UNL A   1      35.483  32.517  28.768  1.00  0.00    -0.246 OA
BRANCH   6   8
ATOM      8  C   UNL A   1      36.998  30.802  29.237  1.00  0.00     0.060 A 
ATOM      9  C   UNL A   1      38.128  31.552  29.583  1.00  0.00     0.016 A 
ATOM     10  C   UNL A   1      37.053  29.402  29.275  1.00  0.00     0.016 A 
ATOM     11  C   UNL A   1      39.338  30.931  29.761  1.00  0.00     0.010 A 
ATOM     12  C   UNL A   1      38.249  28.771  29.503  1.00  0.00     0.010 A 
ATOM     13  C   UNL A   1      39.388  29.551  29.655  1.00  0.00    -0.014 A 
BRANCH  13  14
ATOM     14  C   UNL A   1      40.664  28.921  29.878  1.00  0.00     0.031 A 
ATOM     15  C   UNL A   1      40.972  28.788  31.327  1.00  0.00     0.074 A 
ATOM     16  C   UNL A   1      41.328  28.408  28.829  1.00  0.00     0.049 A 
ATOM     17  N   UNL A   1      41.956  29.300  31.988  1.00  0.00    -0.248 NA
ATOM     18  C   UNL A   1      39.913  28.225  32.192  1.00  0.00     0.031 C 
ATOM     19  C   UNL A   1      40.894  28.346  27.429  1.00  0.00     0.029 A 
ATOM     20  N   UNL A   1      42.463  27.679  28.815  1.00  0.00    -0.354 N 
ATOM     21  C   UNL A   1      41.775  28.872  33.301  1.00  0.00     0.074 A 
ATOM     22  C   UNL A   1      40.402  28.475  33.405  1.00  0.00     0.031 C 
ATOM     23  C   UNL A   1      41.590  27.379  26.793  1.00  0.00     0.029 A 
ATOM     24  C   UNL A   1      42.594  26.856  27.703  1.00  0.00     0.049 A 
ATOM     25  H   UNL A   1      43.139  27.725  29.530  1.00  0.00     0.167 HD
ATOM     26  C   UNL A   1      42.842  28.567  34.088  1.00  0.00     0.034 A 
ATOM     27  C   UNL A   1      43.383  25.751  27.620  1.00  0.00     0.034 A 
ATOM     28  C   UNL A   1      44.040  29.204  33.586  1.00  0.00     0.049 A 
ATOM     29  C   UNL A   1      44.384  25.872  28.721  1.00  0.00     0.074 A 
ATOM     30  C   UNL A   1      44.400  30.519  33.351  1.00  0.00     0.029 A 
ATOM     31  N   UNL A   1      44.923  28.442  32.850  1.00  0.00    -0.354 N 
ATOM     32  N   UNL A   1      45.266  26.836  28.772  1.00  0.00    -0.248 NA
ATOM     33  C   UNL A   1      44.057  25.275  30.012  1.00  0.00     0.031 C 
ATOM     34  C   UNL A   1      45.113  30.486  32.117  1.00  0.00     0.029 A 
ATOM     35  C   UNL A   1      45.241  29.153  31.716  1.00  0.00     0.049 A 
ATOM     36  H   UNL A   1      45.264  27.551  33.091  1.00  0.00     0.167 HD
ATOM     37  C   UNL A   1      45.283  27.251  30.099  1.00  0.00     0.074 A 
ATOM     38  C   UNL A   1      44.580  26.196  30.831  1.00  0.00     0.031 C 
ATOM     39  C   UNL A   1      45.573  28.545  30.438  1.00  0.00     0.034 A 
BRANCH  26  40
ATOM     40  C   UNL A   1      42.882  27.369  35.018  1.00  0.00     0.023 A 
ATOM     41  C   UNL A   1      43.675  26.283  34.607  1.00  0.00     0.031 A 
ATOM     42  C   UNL A   1      41.989  27.101  36.084  1.00  0.00     0.131 A 
ATOM     43  C   UNL A   1      43.464  24.996  35.129  1.00  0.00     0.055 A 
ATOM     44  C   UNL A   1      41.828  25.831  36.645  1.00  0.00     0.041 A 
ATOM     45  F   UNL A   1      41.157  28.012  36.598  1.00  0.00    -0.206 F 
ATOM     46  C   UNL A   1      42.538  24.760  36.140  1.00  0.00     0.022 A 
BRANCH  43  47
ATOM     47  S   UNL A   1      44.285  23.606  34.316  1.00  0.00     0.124 S 
ATOM     48  O   UNL A   1      44.823  22.876  35.459  1.00  0.00    -0.237 OA
ATOM     49  O   UNL A   1      43.173  22.975  33.613  1.00  0.00    -0.237 OA
ATOM     50  O   UNL A   1      45.277  24.252  33.462  1.00  0.00    -0.744 OA
ENDBRANCH  43  47
ENDBRANCH  26  40
BRANCH  27  51
ATOM     51  C   UNL A   1      43.007  24.472  26.945  1.00  0.00     0.023 A 
ATOM     52  C   UNL A   1      43.870  23.780  26.070  1.00  0.00     0.031 A 
ATOM     53  C   UNL A   1      41.819  23.799  27.320  1.00  0.00     0.131 A 
ATOM     54  C   UNL A   1      43.521  22.489  25.598  1.00  0.00     0.055 A 
ATOM     55  C   UNL A   1      41.477  22.531  26.845  1.00  0.00     0.041 A 
ATOM     56  F   UNL A   1      40.978  24.319  28.227  1.00  0.00    -0.206 F 
ATOM     57  C   UNL A   1      42.332  21.866  25.984  1.00  0.00     0.022 A 
BRANCH  54  58
ATOM     58  S   UNL A   1      44.658  21.560  24.516  1.00  0.00     0.124 S 
ATOM     59  O   UNL A   1      44.045  20.238  24.485  1.00  0.00    -0.237 OA
ATOM     60  O   UNL A   1      44.607  22.329  23.276  1.00  0.00    -0.237 OA
ATOM     61  O   UNL A   1      45.937  21.629  25.222  1.00  0.00    -0.744 OA
ENDBRANCH  54  58
ENDBRANCH  27  51
BRANCH  39  62
ATOM     62  C   UNL A   1      46.084  29.479  29.353  1.00  0.00     0.023 A 
ATOM     63  C   UNL A   1      45.271  30.304  28.537  1.00  0.00     0.031 A 
ATOM     64  C   UNL A   1      47.476  29.642  29.251  1.00  0.00     0.131 A 
ATOM     65  C   UNL A   1      45.863  31.236  27.658  1.00  0.00     0.055 A 
ATOM     66  C   UNL A   1      48.055  30.577  28.393  1.00  0.00     0.041 A 
ATOM     67  F   UNL A   1      48.303  28.920  30.025  1.00  0.00    -0.206 F 
ATOM     68  C   UNL A   1      47.252  31.373  27.589  1.00  0.00     0.022 A 
BRANCH  65  69
ATOM     69  S   UNL A   1      44.834  32.293  26.581  1.00  0.00     0.124 S 
ATOM     70  O   UNL A   1      45.790  32.838  25.626  1.00  0.00    -0.237 OA
ATOM     71  O   UNL A   1      43.859  31.345  26.046  1.00  0.00    -0.237 OA
ATOM     72  O   UNL A   1      44.271  33.277  27.509  1.00  0.00    -0.744 OA
ENDBRANCH  65  69
ENDBRANCH  39  62
ENDBRANCH  13  14
ENDBRANCH   6   8
ENDBRANCH   5   6
ENDBRANCH   4   5
ENDBRANCH   3   4
ENDBRANCH   2   3
ENDBRANCH   1   2
BRANCH   1  73
ATOM     73  C   UNL A   1      31.798  28.110  25.339  1.00  0.00     0.261 C 
BRANCH  73  74
ATOM     74  O   UNL A   1      30.713  27.813  24.408  1.00  0.00    -0.463 OA
BRANCH  74  75
ATOM     75  C   UNL A   1      30.325  26.508  24.310  1.00  0.00     0.310 C 
ATOM     76  O   UNL A   1      29.414  26.029  24.978  1.00  0.00    -0.252 OA
BRANCH  75  77
ATOM     77  C   UNL A   1      31.223  25.635  23.413  1.00  0.00     0.119 C 
ATOM     78  C   UNL A   1      32.015  24.373  23.860  1.00  0.00     0.100 C 
ATOM     79  C   UNL A   1      32.153  26.482  22.446  1.00  0.00     0.026 C 
ATOM     80  C   UNL A   1      33.258  24.177  22.925  1.00  0.00     0.025 C 
ATOM     81  C   UNL A   1      33.606  26.540  22.895  1.00  0.00    -0.027 C 
ATOM     82  C   UNL A   1      32.256  25.685  21.125  1.00  0.00     0.009 C 
ATOM     83  C   UNL A   1      34.183  25.349  23.121  1.00  0.00    -0.027 C 
ATOM     84  C   UNL A   1      32.810  24.267  21.438  1.00  0.00     0.009 C 
BRANCH  78  85
ATOM     85  C   UNL A   1      32.380  23.945  25.295  1.00  0.00     0.228 C 
ATOM     86  O   UNL A   1      32.366  24.829  26.166  1.00  0.00    -0.274 OA
ATOM     87  N   UNL A   1      32.523  22.668  25.762  1.00  0.00    -0.326 N 
ATOM     88  H   UNL A   1      32.282  22.587  26.713  1.00  0.00     0.169 HD
BRANCH  87  89
ATOM     89  C   UNL A   1      32.933  21.441  25.205  1.00  0.00     0.041 A 
ATOM     90  C   UNL A   1      34.188  20.928  25.521  1.00  0.00     0.026 A 
ATOM     91  C   UNL A   1      32.196  20.762  24.245  1.00  0.00     0.026 A 
ATOM     92  C   UNL A   1      34.588  19.678  25.017  1.00  0.00     0.008 A 
ATOM     93  C   UNL A   1      32.590  19.547  23.703  1.00  0.00     0.008 A 
ATOM     94  C   UNL A   1      33.756  18.949  24.153  1.00  0.00    -0.026 A 
BRANCH  94  95
ATOM     95  C   UNL A   1      34.022  17.523  23.763  1.00  0.00     0.181 C 
BRANCH  95  96
ATOM     96  N   UNL A   1      33.484  16.555  24.692  1.00  0.00    -0.249 N 
ATOM     97  C   UNL A   1      32.329  16.643  25.404  1.00  0.00     0.220 A 
ATOM     98  N   UNL A   1      34.007  15.311  24.767  1.00  0.00    -0.160 NA
ATOM     99  N   UNL A   1      32.069  15.483  25.960  1.00  0.00    -0.224 NA
ATOM    100  C   UNL A   1      33.115  14.704  25.556  1.00  0.00     0.246 A 
ENDBRANCH  95  96
ENDBRANCH  94  95
ENDBRANCH  87  89
ENDBRANCH  78  85
ENDBRANCH  75  77
ENDBRANCH  74  75
ENDBRANCH  73  74
ENDBRANCH   1  73
TORSDOF 21
ENDMDL
