MODEL 1
REMARK VINA RESULT:     -11.3      0.000      0.000
REMARK SMILES Cc1ccc(NS(=O)(=O)c2cc(C(=O)Nc3ccccc3C(=O)OCCOCCOC(=O)c3ccc(-c4c5nc(c(-c6cc(S(=O)(=O)[O-])ccc6F)c6ccc([nH]6)c(-c6cc(S(=O)(=O)[O-])ccc6F)c6nc(c(-c7cc(S(=O)(=O)[O-])ccc7F)c7ccc4[nH]7)C=C6)C=C5)cc3)ccc2Br)cc1
REMARK SMILES IDX 26 1 25 2 24 3 22 4 23 5 21 6 16 7 17 8 18 9 20 10 19 11
REMARK SMILES IDX 15 12 13 13 14 14 12 16 10 17 11 18 98 19 97 20 99 21 96 22
REMARK SMILES IDX 7 23 8 24 9 25 6 26 5 28 1 29 2 30 3 31 101 32 4 33 100 34
REMARK SMILES IDX 27 35 28 36 29 37 30 38 31 39 32 40 33 41 34 42 95 43 35 44
REMARK SMILES IDX 94 45 36 46 37 47 38 48 88 49 39 50 93 51 87 52 89 53 40 54
REMARK SMILES IDX 92 55 86 56 85 57 41 59 73 60 53 61 72 62 54 63 57 64 71 65
REMARK SMILES IDX 90 66 55 67 56 68 70 70 91 71 58 72 42 73 43 74 51 75 44 76
REMARK SMILES IDX 50 77 52 78 49 79 45 80 46 81 47 82 48 83 74 84 75 85 83 86
REMARK SMILES IDX 76 87 82 88 84 89 81 90 77 91 78 92 79 93 80 94 59 95 60 96
REMARK SMILES IDX 68 97 61 98 67 99 69 100 66 101 62 102 63 103 64 104 65 105
REMARK H PARENT 15 15 6 27 89 58 57 69
REMARK Flexibility Score: inf
ROOT
ATOM      1  C   UNL A   1      30.422  31.017  24.975  1.00  0.00     0.202 C 
ENDROOT
BRANCH   1   2
ATOM      2  C   UNL A   1      29.783  31.996  24.092  1.00  0.00     0.261 C 
BRANCH   2   3
ATOM      3  O   UNL A   1      28.780  31.509  23.231  1.00  0.00    -0.460 OA
BRANCH   3   4
ATOM      4  C   UNL A   1      29.064  30.744  22.178  1.00  0.00     0.340 C 
ATOM      5  O   UNL A   1      29.507  30.980  21.075  1.00  0.00    -0.246 OA
BRANCH   4   6
ATOM      6  C   UNL A   1      28.826  29.445  22.759  1.00  0.00     0.083 A 
ATOM      7  C   UNL A   1      30.147  28.222  22.922  1.00  0.00     0.056 A 
ATOM      8  C   UNL A   1      29.596  26.412  23.623  1.00  0.00     0.027 A 
ATOM      9  C   UNL A   1      27.892  26.147  24.160  1.00  0.00     0.002 A 
ATOM     10  C   UNL A   1      27.191  29.047  23.309  1.00  0.00     0.018 A 
ATOM     11  C   UNL A   1      26.751  27.468  23.986  1.00  0.00     0.001 A 
BRANCH   7  12
ATOM     12  N   UNL A   1      31.467  28.887  22.496  1.00  0.00    -0.321 N 
ATOM     13  C   UNL A   1      32.840  28.639  22.774  1.00  0.00     0.255 C 
ATOM     14  O   UNL A   1      33.713  29.331  22.249  1.00  0.00    -0.269 OA
ATOM     15  H   UNL A   1      31.332  29.657  21.897  1.00  0.00     0.170 HD
BRANCH  13  16
ATOM     16  C   UNL A   1      33.317  27.610  23.755  1.00  0.00     0.041 A 
ATOM     17  C   UNL A   1      33.709  25.178  23.913  1.00  0.00     0.102 A 
ATOM     18  C   UNL A   1      33.324  26.328  23.283  1.00  0.00     0.037 A 
ATOM     19  C   UNL A   1      33.802  25.249  25.285  1.00  0.00     0.038 A 
ATOM     20  C   UNL A   1      33.652  26.524  25.901  1.00  0.00     0.018 A 
ATOM     21  Br  UNL A   1      33.795  23.721  26.402  1.00  0.00    -0.049 Br
ATOM     22  C   UNL A   1      33.445  27.710  25.137  1.00  0.00     0.015 A 
BRANCH  17  23
ATOM     23  S   UNL A   1      33.644  23.788  22.831  1.00  0.00     0.263 S 
ATOM     24  O   UNL A   1      34.855  23.074  23.132  1.00  0.00    -0.201 OA
ATOM     25  O   UNL A   1      33.347  24.270  21.501  1.00  0.00    -0.201 OA
BRANCH  23  26
ATOM     26  N   UNL A   1      32.329  22.678  23.253  1.00  0.00    -0.280 N 
ATOM     27  H   UNL A   1      31.469  23.095  23.489  1.00  0.00     0.180 HD
BRANCH  26  28
ATOM     28  C   UNL A   1      32.371  21.103  23.294  1.00  0.00     0.049 A 
ATOM     29  C   UNL A   1      33.234  16.256  24.594  1.00  0.00     0.044 C 
ATOM     30  C   UNL A   1      32.679  17.618  24.265  1.00  0.00    -0.051 A 
ATOM     31  C   UNL A   1      32.789  18.933  25.465  1.00  0.00     0.005 A 
ATOM     32  C   UNL A   1      32.341  17.878  22.571  1.00  0.00     0.005 A 
ATOM     33  C   UNL A   1      32.611  20.645  25.040  1.00  0.00     0.027 A 
ATOM     34  C   UNL A   1      32.155  19.566  22.004  1.00  0.00     0.027 A 
ENDBRANCH  26  28
ENDBRANCH  23  26
ENDBRANCH  17  23
ENDBRANCH  13  16
ENDBRANCH   7  12
ENDBRANCH   4   6
ENDBRANCH   3   4
ENDBRANCH   2   3
ENDBRANCH   1   2
BRANCH   1  35
ATOM     35  O   UNL A   1      31.177  31.910  25.751  1.00  0.00    -0.374 OA
BRANCH  35  36
ATOM     36  C   UNL A   1      31.556  31.541  27.010  1.00  0.00     0.202 C 
BRANCH  36  37
ATOM     37  C   UNL A   1      32.833  30.758  26.932  1.00  0.00     0.261 C 
BRANCH  37  38
ATOM     38  O   UNL A   1      34.132  31.321  27.347  1.00  0.00    -0.460 OA
BRANCH  38  39
ATOM     39  C   UNL A   1      34.848  31.632  28.460  1.00  0.00     0.338 C 
ATOM     40  O   UNL A   1      34.460  32.542  29.189  1.00  0.00    -0.246 OA
BRANCH  39  41
ATOM     41  C   UNL A   1      36.111  30.938  28.824  1.00  0.00     0.060 A 
ATOM     42  C   UNL A   1      36.081  29.672  29.447  1.00  0.00     0.016 A 
ATOM     43  C   UNL A   1      37.279  31.648  28.824  1.00  0.00     0.016 A 
ATOM     44  C   UNL A   1      37.089  29.297  30.366  1.00  0.00     0.010 A 
ATOM     45  C   UNL A   1      38.107  31.384  29.904  1.00  0.00     0.010 A 
ATOM     46  C   UNL A   1      38.032  30.244  30.725  1.00  0.00    -0.014 A 
BRANCH  46  47
ATOM     47  C   UNL A   1      39.041  30.228  31.831  1.00  0.00     0.031 A 
ATOM     48  C   UNL A   1      38.677  31.256  32.864  1.00  0.00     0.074 A 
ATOM     49  C   UNL A   1      40.099  29.353  31.940  1.00  0.00     0.049 A 
ATOM     50  N   UNL A   1      39.457  32.209  33.250  1.00  0.00    -0.248 NA
ATOM     51  C   UNL A   1      37.294  31.514  33.361  1.00  0.00     0.031 C 
ATOM     52  C   UNL A   1      41.045  29.024  33.021  1.00  0.00     0.029 A 
ATOM     53  N   UNL A   1      40.564  28.425  30.990  1.00  0.00    -0.354 N 
ATOM     54  C   UNL A   1      38.828  32.746  34.359  1.00  0.00     0.074 A 
ATOM     55  C   UNL A   1      37.441  32.599  34.112  1.00  0.00     0.031 C 
ATOM     56  C   UNL A   1      42.129  28.363  32.524  1.00  0.00     0.029 A 
ATOM     57  C   UNL A   1      41.929  28.178  31.090  1.00  0.00     0.049 A 
ATOM     58  H   UNL A   1      39.982  27.994  30.323  1.00  0.00     0.167 HD
ATOM     59  C   UNL A   1      39.481  32.783  35.553  1.00  0.00     0.034 A 
ATOM     60  C   UNL A   1      42.697  28.451  30.004  1.00  0.00     0.034 A 
ATOM     61  C   UNL A   1      40.810  32.182  35.386  1.00  0.00     0.049 A 
ATOM     62  C   UNL A   1      43.308  29.776  30.405  1.00  0.00     0.074 A 
ATOM     63  C   UNL A   1      41.422  31.027  35.837  1.00  0.00     0.029 A 
ATOM     64  N   UNL A   1      41.593  32.640  34.337  1.00  0.00    -0.354 N 
ATOM     65  N   UNL A   1      42.729  30.601  31.250  1.00  0.00    -0.248 NA
ATOM     66  C   UNL A   1      44.704  30.105  30.154  1.00  0.00     0.031 C 
ATOM     67  C   UNL A   1      42.571  30.797  35.004  1.00  0.00     0.029 A 
ATOM     68  C   UNL A   1      42.606  31.769  34.013  1.00  0.00     0.049 A 
ATOM     69  H   UNL A   1      41.440  33.495  33.874  1.00  0.00     0.167 HD
ATOM     70  C   UNL A   1      43.688  31.373  31.832  1.00  0.00     0.074 A 
ATOM     71  C   UNL A   1      44.895  31.073  31.065  1.00  0.00     0.031 C 
ATOM     72  C   UNL A   1      43.516  32.153  32.943  1.00  0.00     0.034 A 
BRANCH  59  73
ATOM     73  C   UNL A   1      38.880  33.128  36.903  1.00  0.00     0.023 A 
ATOM     74  C   UNL A   1      38.108  32.129  37.520  1.00  0.00     0.031 A 
ATOM     75  C   UNL A   1      39.043  34.305  37.673  1.00  0.00     0.131 A 
ATOM     76  C   UNL A   1      37.558  32.296  38.801  1.00  0.00     0.055 A 
ATOM     77  C   UNL A   1      38.486  34.479  38.949  1.00  0.00     0.041 A 
ATOM     78  F   UNL A   1      39.766  35.353  37.274  1.00  0.00    -0.206 F 
ATOM     79  C   UNL A   1      37.744  33.466  39.528  1.00  0.00     0.022 A 
BRANCH  76  80
ATOM     80  S   UNL A   1      36.622  30.924  39.511  1.00  0.00     0.124 S 
ATOM     81  O   UNL A   1      36.766  29.897  38.483  1.00  0.00    -0.237 OA
ATOM     82  O   UNL A   1      37.325  30.688  40.766  1.00  0.00    -0.237 OA
ATOM     83  O   UNL A   1      35.274  31.472  39.653  1.00  0.00    -0.744 OA
ENDBRANCH  76  80
ENDBRANCH  59  73
BRANCH  60  84
ATOM     84  C   UNL A   1      41.994  28.011  28.723  1.00  0.00     0.023 A 
ATOM     85  C   UNL A   1      42.047  26.627  28.353  1.00  0.00     0.031 A 
ATOM     86  C   UNL A   1      40.941  28.755  28.169  1.00  0.00     0.131 A 
ATOM     87  C   UNL A   1      41.014  26.022  27.587  1.00  0.00     0.055 A 
ATOM     88  C   UNL A   1      39.911  28.147  27.421  1.00  0.00     0.041 A 
ATOM     89  F   UNL A   1      40.807  30.055  28.463  1.00  0.00    -0.206 F 
ATOM     90  C   UNL A   1      39.922  26.778  27.154  1.00  0.00     0.022 A 
BRANCH  87  91
ATOM     91  S   UNL A   1      40.891  24.186  27.489  1.00  0.00     0.124 S 
ATOM     92  O   UNL A   1      41.430  23.920  26.160  1.00  0.00    -0.237 OA
ATOM     93  O   UNL A   1      41.727  23.742  28.604  1.00  0.00    -0.237 OA
ATOM     94  O   UNL A   1      39.458  23.939  27.639  1.00  0.00    -0.744 OA
ENDBRANCH  87  91
ENDBRANCH  60  84
BRANCH  72  95
ATOM     95  C   UNL A   1      44.232  33.471  33.049  1.00  0.00     0.023 A 
ATOM     96  C   UNL A   1      44.030  34.461  32.092  1.00  0.00     0.031 A 
ATOM     97  C   UNL A   1      45.028  33.840  34.158  1.00  0.00     0.131 A 
ATOM     98  C   UNL A   1      44.750  35.648  32.122  1.00  0.00     0.055 A 
ATOM     99  C   UNL A   1      45.605  35.102  34.278  1.00  0.00     0.041 A 
ATOM    100  F   UNL A   1      45.274  33.014  35.184  1.00  0.00    -0.206 F 
ATOM    101  C   UNL A   1      45.514  36.000  33.227  1.00  0.00     0.022 A 
BRANCH  98 102
ATOM    102  S   UNL A   1      44.771  36.595  30.591  1.00  0.00     0.124 S 
ATOM    103  O   UNL A   1      45.669  35.792  29.763  1.00  0.00    -0.237 OA
ATOM    104  O   UNL A   1      43.369  36.582  30.190  1.00  0.00    -0.237 OA
ATOM    105  O   UNL A   1      45.296  37.893  31.004  1.00  0.00    -0.744 OA
ENDBRANCH  98 102
ENDBRANCH  72  95
ENDBRANCH  46  47
ENDBRANCH  39  41
ENDBRANCH  38  39
ENDBRANCH  37  38
ENDBRANCH  36  37
ENDBRANCH  35  36
ENDBRANCH   1  35
TORSDOF 22
ENDMDL
MODEL 2
REMARK VINA RESULT:     -10.7      7.477     12.293
REMARK SMILES Cc1ccc(NS(=O)(=O)c2cc(C(=O)Nc3ccccc3C(=O)OCCOCCOC(=O)c3ccc(-c4c5nc(c(-c6cc(S(=O)(=O)[O-])ccc6F)c6ccc([nH]6)c(-c6cc(S(=O)(=O)[O-])ccc6F)c6nc(c(-c7cc(S(=O)(=O)[O-])ccc7F)c7ccc4[nH]7)C=C6)C=C5)cc3)ccc2Br)cc1
REMARK SMILES IDX 26 1 25 2 24 3 22 4 23 5 21 6 16 7 17 8 18 9 20 10 19 11
REMARK SMILES IDX 15 12 13 13 14 14 12 16 10 17 11 18 98 19 97 20 99 21 96 22
REMARK SMILES IDX 7 23 8 24 9 25 6 26 5 28 1 29 2 30 3 31 101 32 4 33 100 34
REMARK SMILES IDX 27 35 28 36 29 37 30 38 31 39 32 40 33 41 34 42 95 43 35 44
REMARK SMILES IDX 94 45 36 46 37 47 38 48 88 49 39 50 93 51 87 52 89 53 40 54
REMARK SMILES IDX 92 55 86 56 85 57 41 59 73 60 53 61 72 62 54 63 57 64 71 65
REMARK SMILES IDX 90 66 55 67 56 68 70 70 91 71 58 72 42 73 43 74 51 75 44 76
REMARK SMILES IDX 50 77 52 78 49 79 45 80 46 81 47 82 48 83 74 84 75 85 83 86
REMARK SMILES IDX 76 87 82 88 84 89 81 90 77 91 78 92 79 93 80 94 59 95 60 96
REMARK SMILES IDX 68 97 61 98 67 99 69 100 66 101 62 102 63 103 64 104 65 105
REMARK H PARENT 15 15 6 27 89 58 57 69
REMARK Flexibility Score: inf
ROOT
ATOM      1  C   UNL A   1      47.493  25.046  25.640  1.00  0.00     0.202 C 
ENDROOT
BRANCH   1   2
ATOM      2  C   UNL A   1      46.608  24.269  24.767  1.00  0.00     0.261 C 
BRANCH   2   3
ATOM      3  O   UNL A   1      45.255  24.661  24.733  1.00  0.00    -0.460 OA
BRANCH   3   4
ATOM      4  C   UNL A   1      44.262  23.778  24.827  1.00  0.00     0.340 C 
ATOM      5  O   UNL A   1      43.792  22.971  24.056  1.00  0.00    -0.246 OA
BRANCH   4   6
ATOM      6  C   UNL A   1      43.943  23.930  26.227  1.00  0.00     0.083 A 
ATOM      7  C   UNL A   1      43.203  25.448  26.870  1.00  0.00     0.056 A 
ATOM      8  C   UNL A   1      42.962  25.537  28.872  1.00  0.00     0.027 A 
ATOM      9  C   UNL A   1      43.360  24.092  29.879  1.00  0.00     0.002 A 
ATOM     10  C   UNL A   1      44.302  22.594  27.331  1.00  0.00     0.018 A 
ATOM     11  C   UNL A   1      44.014  22.675  29.079  1.00  0.00     0.001 A 
BRANCH   7  12
ATOM     12  N   UNL A   1      42.880  26.364  25.677  1.00  0.00    -0.321 N 
ATOM     13  C   UNL A   1      42.410  27.701  25.549  1.00  0.00     0.255 C 
ATOM     14  O   UNL A   1      42.273  28.204  24.433  1.00  0.00    -0.269 OA
ATOM     15  H   UNL A   1      43.033  25.928  24.808  1.00  0.00     0.170 HD
BRANCH  13  16
ATOM     16  C   UNL A   1      41.978  28.545  26.710  1.00  0.00     0.041 A 
ATOM     17  C   UNL A   1      42.799  30.403  28.113  1.00  0.00     0.102 A 
ATOM     18  C   UNL A   1      42.891  29.481  27.109  1.00  0.00     0.037 A 
ATOM     19  C   UNL A   1      41.817  30.172  29.051  1.00  0.00     0.038 A 
ATOM     20  C   UNL A   1      40.898  29.111  28.811  1.00  0.00     0.018 A 
ATOM     21  Br  UNL A   1      41.820  30.967  30.769  1.00  0.00    -0.049 Br
ATOM     22  C   UNL A   1      40.955  28.319  27.626  1.00  0.00     0.015 A 
BRANCH  17  23
ATOM     23  S   UNL A   1      44.202  31.469  28.150  1.00  0.00     0.263 S 
ATOM     24  O   UNL A   1      43.716  32.636  28.833  1.00  0.00    -0.201 OA
ATOM     25  O   UNL A   1      44.751  31.533  26.815  1.00  0.00    -0.201 OA
BRANCH  23  26
ATOM     26  N   UNL A   1      45.495  30.829  29.180  1.00  0.00    -0.280 N 
ATOM     27  H   UNL A   1      46.183  30.289  28.727  1.00  0.00     0.180 HD
BRANCH  26  28
ATOM     28  C   UNL A   1      45.676  31.023  30.733  1.00  0.00     0.049 A 
ATOM     29  C   UNL A   1      46.661  30.316  35.679  1.00  0.00     0.044 C 
ATOM     30  C   UNL A   1      46.612  30.724  34.229  1.00  0.00    -0.051 A 
ATOM     31  C   UNL A   1      47.309  29.656  32.983  1.00  0.00     0.005 A 
ATOM     32  C   UNL A   1      45.506  32.030  33.877  1.00  0.00     0.005 A 
ATOM     33  C   UNL A   1      46.906  29.789  31.262  1.00  0.00     0.027 A 
ATOM     34  C   UNL A   1      45.002  32.265  32.175  1.00  0.00     0.027 A 
ENDBRANCH  26  28
ENDBRANCH  23  26
ENDBRANCH  17  23
ENDBRANCH  13  16
ENDBRANCH   7  12
ENDBRANCH   4   6
ENDBRANCH   3   4
ENDBRANCH   2   3
ENDBRANCH   1   2
BRANCH   1  35
ATOM     35  O   UNL A   1      46.908  26.307  25.449  1.00  0.00    -0.374 OA
BRANCH  35  36
ATOM     36  C   UNL A   1      46.916  27.207  26.475  1.00  0.00     0.202 C 
BRANCH  36  37
ATOM     37  C   UNL A   1      48.305  27.310  27.032  1.00  0.00     0.261 C 
BRANCH  37  38
ATOM     38  O   UNL A   1      48.576  27.806  28.394  1.00  0.00    -0.460 OA
BRANCH  38  39
ATOM     39  C   UNL A   1      49.017  27.385  29.609  1.00  0.00     0.338 C 
ATOM     40  O   UNL A   1      50.059  27.852  30.065  1.00  0.00    -0.246 OA
BRANCH  39  41
ATOM     41  C   UNL A   1      48.309  26.350  30.408  1.00  0.00     0.060 A 
ATOM     42  C   UNL A   1      47.136  25.741  29.915  1.00  0.00     0.016 A 
ATOM     43  C   UNL A   1      48.624  26.206  31.730  1.00  0.00     0.016 A 
ATOM     44  C   UNL A   1      46.118  25.316  30.799  1.00  0.00     0.010 A 
ATOM     45  C   UNL A   1      47.529  26.029  32.561  1.00  0.00     0.010 A 
ATOM     46  C   UNL A   1      46.250  25.620  32.144  1.00  0.00    -0.014 A 
BRANCH  46  47
ATOM     47  C   UNL A   1      45.251  25.530  33.254  1.00  0.00     0.031 A 
ATOM     48  C   UNL A   1      44.563  26.855  33.426  1.00  0.00     0.074 A 
ATOM     49  C   UNL A   1      44.939  24.392  33.964  1.00  0.00     0.049 A 
ATOM     50  N   UNL A   1      44.531  27.522  34.530  1.00  0.00    -0.248 NA
ATOM     51  C   UNL A   1      44.092  27.723  32.307  1.00  0.00     0.031 C 
ATOM     52  C   UNL A   1      43.864  24.040  34.909  1.00  0.00     0.029 A 
ATOM     53  N   UNL A   1      45.583  23.142  33.934  1.00  0.00    -0.354 N 
ATOM     54  C   UNL A   1      43.606  28.526  34.303  1.00  0.00     0.074 A 
ATOM     55  C   UNL A   1      43.718  28.836  32.926  1.00  0.00     0.031 C 
ATOM     56  C   UNL A   1      44.194  22.921  35.615  1.00  0.00     0.029 A 
ATOM     57  C   UNL A   1      45.489  22.449  35.136  1.00  0.00     0.049 A 
ATOM     58  H   UNL A   1      46.053  22.793  33.142  1.00  0.00     0.167 HD
ATOM     59  C   UNL A   1      42.518  28.637  35.115  1.00  0.00     0.034 A 
ATOM     60  C   UNL A   1      46.648  22.124  35.765  1.00  0.00     0.034 A 
ATOM     61  C   UNL A   1      42.569  27.570  36.123  1.00  0.00     0.049 A 
ATOM     62  C   UNL A   1      46.707  23.189  36.838  1.00  0.00     0.074 A 
ATOM     63  C   UNL A   1      41.820  26.436  36.381  1.00  0.00     0.029 A 
ATOM     64  N   UNL A   1      43.750  27.414  36.833  1.00  0.00    -0.354 N 
ATOM     65  N   UNL A   1      46.123  24.361  36.711  1.00  0.00    -0.248 NA
ATOM     66  C   UNL A   1      47.124  22.905  38.203  1.00  0.00     0.031 C 
ATOM     67  C   UNL A   1      42.606  25.590  37.237  1.00  0.00     0.029 A 
ATOM     68  C   UNL A   1      43.848  26.181  37.432  1.00  0.00     0.049 A 
ATOM     69  H   UNL A   1      44.442  28.110  36.900  1.00  0.00     0.167 HD
ATOM     70  C   UNL A   1      45.860  24.854  37.953  1.00  0.00     0.074 A 
ATOM     71  C   UNL A   1      46.565  23.941  38.850  1.00  0.00     0.031 C 
ATOM     72  C   UNL A   1      45.033  25.908  38.232  1.00  0.00     0.034 A 
BRANCH  59  73
ATOM     73  C   UNL A   1      41.308  29.523  34.891  1.00  0.00     0.023 A 
ATOM     74  C   UNL A   1      40.416  29.122  33.881  1.00  0.00     0.031 A 
ATOM     75  C   UNL A   1      40.905  30.677  35.606  1.00  0.00     0.131 A 
ATOM     76  C   UNL A   1      39.222  29.814  33.623  1.00  0.00     0.055 A 
ATOM     77  C   UNL A   1      39.718  31.376  35.344  1.00  0.00     0.041 A 
ATOM     78  F   UNL A   1      41.602  31.195  36.620  1.00  0.00    -0.206 F 
ATOM     79  C   UNL A   1      38.860  30.941  34.352  1.00  0.00     0.022 A 
BRANCH  76  80
ATOM     80  S   UNL A   1      38.132  29.178  32.330  1.00  0.00     0.124 S 
ATOM     81  O   UNL A   1      37.793  30.393  31.596  1.00  0.00    -0.237 OA
ATOM     82  O   UNL A   1      38.994  28.224  31.642  1.00  0.00    -0.237 OA
ATOM     83  O   UNL A   1      37.029  28.581  33.082  1.00  0.00    -0.744 OA
ENDBRANCH  76  80
ENDBRANCH  59  73
BRANCH  60  84
ATOM     84  C   UNL A   1      47.691  21.648  34.757  1.00  0.00     0.023 A 
ATOM     85  C   UNL A   1      48.946  22.338  34.691  1.00  0.00     0.031 A 
ATOM     86  C   UNL A   1      47.684  20.338  34.254  1.00  0.00     0.131 A 
ATOM     87  C   UNL A   1      50.135  21.683  34.273  1.00  0.00     0.055 A 
ATOM     88  C   UNL A   1      48.869  19.687  33.852  1.00  0.00     0.041 A 
ATOM     89  F   UNL A   1      46.558  19.613  34.280  1.00  0.00    -0.206 F 
ATOM     90  C   UNL A   1      50.102  20.340  33.890  1.00  0.00     0.022 A 
BRANCH  87  91
ATOM     91  S   UNL A   1      51.778  22.452  34.597  1.00  0.00     0.124 S 
ATOM     92  O   UNL A   1      52.353  21.530  35.571  1.00  0.00    -0.237 OA
ATOM     93  O   UNL A   1      52.409  22.444  33.279  1.00  0.00    -0.237 OA
ATOM     94  O   UNL A   1      51.431  23.771  35.123  1.00  0.00    -0.744 OA
ENDBRANCH  87  91
ENDBRANCH  60  84
BRANCH  72  95
ATOM     95  C   UNL A   1      45.375  26.849  39.353  1.00  0.00     0.023 A 
ATOM     96  C   UNL A   1      46.097  28.012  39.100  1.00  0.00     0.031 A 
ATOM     97  C   UNL A   1      44.892  26.700  40.674  1.00  0.00     0.131 A 
ATOM     98  C   UNL A   1      46.502  28.847  40.133  1.00  0.00     0.055 A 
ATOM     99  C   UNL A   1      45.145  27.637  41.674  1.00  0.00     0.041 A 
ATOM    100  F   UNL A   1      44.141  25.660  41.060  1.00  0.00    -0.206 F 
ATOM    101  C   UNL A   1      46.003  28.694  41.420  1.00  0.00     0.022 A 
BRANCH  98 102
ATOM    102  S   UNL A   1      47.825  30.003  39.740  1.00  0.00     0.124 S 
ATOM    103  O   UNL A   1      48.495  29.315  38.638  1.00  0.00    -0.237 OA
ATOM    104  O   UNL A   1      47.093  31.211  39.374  1.00  0.00    -0.237 OA
ATOM    105  O   UNL A   1      48.586  30.079  40.983  1.00  0.00    -0.744 OA
ENDBRANCH  98 102
ENDBRANCH  72  95
ENDBRANCH  46  47
ENDBRANCH  39  41
ENDBRANCH  38  39
ENDBRANCH  37  38
ENDBRANCH  36  37
ENDBRANCH  35  36
ENDBRANCH   1  35
TORSDOF 22
ENDMDL
MODEL 3
REMARK VINA RESULT:     -10.6      7.959     12.468
REMARK SMILES Cc1ccc(NS(=O)(=O)c2cc(C(=O)Nc3ccccc3C(=O)OCCOCCOC(=O)c3ccc(-c4c5nc(c(-c6cc(S(=O)(=O)[O-])ccc6F)c6ccc([nH]6)c(-c6cc(S(=O)(=O)[O-])ccc6F)c6nc(c(-c7cc(S(=O)(=O)[O-])ccc7F)c7ccc4[nH]7)C=C6)C=C5)cc3)ccc2Br)cc1
REMARK SMILES IDX 26 1 25 2 24 3 22 4 23 5 21 6 16 7 17 8 18 9 20 10 19 11
REMARK SMILES IDX 15 12 13 13 14 14 12 16 10 17 11 18 98 19 97 20 99 21 96 22
REMARK SMILES IDX 7 23 8 24 9 25 6 26 5 28 1 29 2 30 3 31 101 32 4 33 100 34
REMARK SMILES IDX 27 35 28 36 29 37 30 38 31 39 32 40 33 41 34 42 95 43 35 44
REMARK SMILES IDX 94 45 36 46 37 47 38 48 88 49 39 50 93 51 87 52 89 53 40 54
REMARK SMILES IDX 92 55 86 56 85 57 41 59 73 60 53 61 72 62 54 63 57 64 71 65
REMARK SMILES IDX 90 66 55 67 56 68 70 70 91 71 58 72 42 73 43 74 51 75 44 76
REMARK SMILES IDX 50 77 52 78 49 79 45 80 46 81 47 82 48 83 74 84 75 85 83 86
REMARK SMILES IDX 76 87 82 88 84 89 81 90 77 91 78 92 79 93 80 94 59 95 60 96
REMARK SMILES IDX 68 97 61 98 67 99 69 100 66 101 62 102 63 103 64 104 65 105
REMARK H PARENT 15 15 6 27 89 58 57 69
REMARK Flexibility Score: inf
ROOT
ATOM      1  C   UNL A   1      47.676  25.217  25.635  1.00  0.00     0.202 C 
ENDROOT
BRANCH   1   2
ATOM      2  C   UNL A   1      46.694  24.503  24.814  1.00  0.00     0.261 C 
BRANCH   2   3
ATOM      3  O   UNL A   1      45.353  24.921  24.928  1.00  0.00    -0.460 OA
BRANCH   3   4
ATOM      4  C   UNL A   1      44.346  24.051  24.982  1.00  0.00     0.340 C 
ATOM      5  O   UNL A   1      43.872  23.277  24.179  1.00  0.00    -0.246 OA
BRANCH   4   6
ATOM      6  C   UNL A   1      44.012  24.163  26.381  1.00  0.00     0.083 A 
ATOM      7  C   UNL A   1      43.109  25.588  27.030  1.00  0.00     0.056 A 
ATOM      8  C   UNL A   1      42.860  25.642  29.031  1.00  0.00     0.027 A 
ATOM      9  C   UNL A   1      43.416  24.247  30.034  1.00  0.00     0.002 A 
ATOM     10  C   UNL A   1      44.517  22.871  27.482  1.00  0.00     0.018 A 
ATOM     11  C   UNL A   1      44.223  22.914  29.230  1.00  0.00     0.001 A 
BRANCH   7  12
ATOM     12  N   UNL A   1      42.686  26.466  25.839  1.00  0.00    -0.321 N 
ATOM     13  C   UNL A   1      42.646  27.868  25.603  1.00  0.00     0.255 C 
ATOM     14  O   UNL A   1      42.286  28.301  24.508  1.00  0.00    -0.269 OA
ATOM     15  H   UNL A   1      42.374  25.939  25.068  1.00  0.00     0.170 HD
BRANCH  13  16
ATOM     16  C   UNL A   1      42.944  28.896  26.653  1.00  0.00     0.041 A 
ATOM     17  C   UNL A   1      44.716  30.491  27.296  1.00  0.00     0.102 A 
ATOM     18  C   UNL A   1      44.157  29.512  26.523  1.00  0.00     0.037 A 
ATOM     19  C   UNL A   1      44.151  30.667  28.540  1.00  0.00     0.038 A 
ATOM     20  C   UNL A   1      42.960  29.948  28.843  1.00  0.00     0.018 A 
ATOM     21  Br  UNL A   1      45.035  31.552  29.961  1.00  0.00    -0.049 Br
ATOM     22  C   UNL A   1      42.336  29.089  27.889  1.00  0.00     0.015 A 
BRANCH  17  23
ATOM     23  S   UNL A   1      46.257  31.041  26.640  1.00  0.00     0.263 S 
ATOM     24  O   UNL A   1      46.369  30.318  25.403  1.00  0.00    -0.201 OA
ATOM     25  O   UNL A   1      47.251  30.936  27.684  1.00  0.00    -0.201 OA
BRANCH  23  26
ATOM     26  N   UNL A   1      46.211  32.752  26.180  1.00  0.00    -0.280 N 
ATOM     27  H   UNL A   1      46.785  33.014  25.425  1.00  0.00     0.180 HD
BRANCH  26  28
ATOM     28  C   UNL A   1      45.358  33.904  26.836  1.00  0.00     0.049 A 
ATOM     29  C   UNL A   1      42.152  37.776  27.644  1.00  0.00     0.044 C 
ATOM     30  C   UNL A   1      42.900  36.469  27.585  1.00  0.00    -0.051 A 
ATOM     31  C   UNL A   1      42.749  35.426  26.147  1.00  0.00     0.005 A 
ATOM     32  C   UNL A   1      44.168  36.301  28.775  1.00  0.00     0.005 A 
ATOM     33  C   UNL A   1      43.908  34.140  25.761  1.00  0.00     0.027 A 
ATOM     34  C   UNL A   1      45.416  35.048  28.498  1.00  0.00     0.027 A 
ENDBRANCH  26  28
ENDBRANCH  23  26
ENDBRANCH  17  23
ENDBRANCH  13  16
ENDBRANCH   7  12
ENDBRANCH   4   6
ENDBRANCH   3   4
ENDBRANCH   2   3
ENDBRANCH   1   2
BRANCH   1  35
ATOM     35  O   UNL A   1      47.115  26.501  25.545  1.00  0.00    -0.374 OA
BRANCH  35  36
ATOM     36  C   UNL A   1      47.117  27.307  26.647  1.00  0.00     0.202 C 
BRANCH  36  37
ATOM     37  C   UNL A   1      48.530  27.518  27.103  1.00  0.00     0.261 C 
BRANCH  37  38
ATOM     38  O   UNL A   1      48.859  28.034  28.446  1.00  0.00    -0.460 OA
BRANCH  38  39
ATOM     39  C   UNL A   1      49.206  27.612  29.690  1.00  0.00     0.338 C 
ATOM     40  O   UNL A   1      50.189  28.105  30.240  1.00  0.00    -0.246 OA
BRANCH  39  41
ATOM     41  C   UNL A   1      48.464  26.545  30.414  1.00  0.00     0.060 A 
ATOM     42  C   UNL A   1      47.301  25.974  29.855  1.00  0.00     0.016 A 
ATOM     43  C   UNL A   1      48.737  26.331  31.735  1.00  0.00     0.016 A 
ATOM     44  C   UNL A   1      46.253  25.516  30.686  1.00  0.00     0.010 A 
ATOM     45  C   UNL A   1      47.616  26.124  32.523  1.00  0.00     0.010 A 
ATOM     46  C   UNL A   1      46.347  25.750  32.047  1.00  0.00    -0.014 A 
BRANCH  46  47
ATOM     47  C   UNL A   1      45.313  25.615  33.121  1.00  0.00     0.031 A 
ATOM     48  C   UNL A   1      44.577  26.915  33.283  1.00  0.00     0.074 A 
ATOM     49  C   UNL A   1      45.014  24.458  33.807  1.00  0.00     0.049 A 
ATOM     50  N   UNL A   1      44.486  27.567  34.393  1.00  0.00    -0.248 NA
ATOM     51  C   UNL A   1      44.117  27.780  32.159  1.00  0.00     0.031 C 
ATOM     52  C   UNL A   1      43.919  24.061  34.709  1.00  0.00     0.029 A 
ATOM     53  N   UNL A   1      45.700  23.230  33.785  1.00  0.00    -0.354 N 
ATOM     54  C   UNL A   1      43.537  28.543  34.145  1.00  0.00     0.074 A 
ATOM     55  C   UNL A   1      43.686  28.873  32.777  1.00  0.00     0.031 C 
ATOM     56  C   UNL A   1      44.261  22.945  35.415  1.00  0.00     0.029 A 
ATOM     57  C   UNL A   1      45.587  22.520  34.976  1.00  0.00     0.049 A 
ATOM     58  H   UNL A   1      46.207  22.906  33.006  1.00  0.00     0.167 HD
ATOM     59  C   UNL A   1      42.419  28.609  34.921  1.00  0.00     0.034 A 
ATOM     60  C   UNL A   1      46.733  22.224  35.641  1.00  0.00     0.034 A 
ATOM     61  C   UNL A   1      42.469  27.532  35.918  1.00  0.00     0.049 A 
ATOM     62  C   UNL A   1      46.720  23.277  36.727  1.00  0.00     0.074 A 
ATOM     63  C   UNL A   1      41.750  26.372  36.137  1.00  0.00     0.029 A 
ATOM     64  N   UNL A   1      43.630  27.406  36.666  1.00  0.00    -0.354 N 
ATOM     65  N   UNL A   1      46.104  24.431  36.593  1.00  0.00    -0.248 NA
ATOM     66  C   UNL A   1      47.099  22.990  38.102  1.00  0.00     0.031 C 
ATOM     67  C   UNL A   1      42.533  25.541  37.010  1.00  0.00     0.029 A 
ATOM     68  C   UNL A   1      43.747  26.169  37.255  1.00  0.00     0.049 A 
ATOM     69  H   UNL A   1      44.297  28.122  36.765  1.00  0.00     0.167 HD
ATOM     70  C   UNL A   1      45.782  24.900  37.830  1.00  0.00     0.074 A 
ATOM     71  C   UNL A   1      46.485  24.000  38.741  1.00  0.00     0.031 C 
ATOM     72  C   UNL A   1      44.912  25.923  38.093  1.00  0.00     0.034 A 
BRANCH  59  73
ATOM     73  C   UNL A   1      41.190  29.459  34.664  1.00  0.00     0.023 A 
ATOM     74  C   UNL A   1      40.336  29.031  33.632  1.00  0.00     0.031 A 
ATOM     75  C   UNL A   1      40.734  30.600  35.368  1.00  0.00     0.131 A 
ATOM     76  C   UNL A   1      39.129  29.688  33.342  1.00  0.00     0.055 A 
ATOM     77  C   UNL A   1      39.533  31.264  35.074  1.00  0.00     0.041 A 
ATOM     78  F   UNL A   1      41.388  31.139  36.400  1.00  0.00    -0.206 F 
ATOM     79  C   UNL A   1      38.715  30.803  34.061  1.00  0.00     0.022 A 
BRANCH  76  80
ATOM     80  S   UNL A   1      38.092  29.019  32.022  1.00  0.00     0.124 S 
ATOM     81  O   UNL A   1      38.556  29.776  30.863  1.00  0.00    -0.237 OA
ATOM     82  O   UNL A   1      38.434  27.602  32.051  1.00  0.00    -0.237 OA
ATOM     83  O   UNL A   1      36.735  29.335  32.465  1.00  0.00    -0.744 OA
ENDBRANCH  76  80
ENDBRANCH  59  73
BRANCH  60  84
ATOM     84  C   UNL A   1      47.825  21.794  34.665  1.00  0.00     0.023 A 
ATOM     85  C   UNL A   1      49.002  22.606  34.550  1.00  0.00     0.031 A 
ATOM     86  C   UNL A   1      47.957  20.461  34.249  1.00  0.00     0.131 A 
ATOM     87  C   UNL A   1      50.254  22.052  34.174  1.00  0.00     0.055 A 
ATOM     88  C   UNL A   1      49.205  19.911  33.889  1.00  0.00     0.041 A 
ATOM     89  F   UNL A   1      46.912  19.625  34.325  1.00  0.00    -0.206 F 
ATOM     90  C   UNL A   1      50.363  20.690  33.881  1.00  0.00     0.022 A 
BRANCH  87  91
ATOM     91  S   UNL A   1      51.806  23.008  34.444  1.00  0.00     0.124 S 
ATOM     92  O   UNL A   1      52.489  22.837  33.166  1.00  0.00    -0.237 OA
ATOM     93  O   UNL A   1      51.316  24.358  34.716  1.00  0.00    -0.237 OA
ATOM     94  O   UNL A   1      52.428  22.322  35.575  1.00  0.00    -0.744 OA
ENDBRANCH  87  91
ENDBRANCH  60  84
BRANCH  72  95
ATOM     95  C   UNL A   1      45.185  26.861  39.235  1.00  0.00     0.023 A 
ATOM     96  C   UNL A   1      45.718  28.125  38.996  1.00  0.00     0.031 A 
ATOM     97  C   UNL A   1      44.809  26.595  40.572  1.00  0.00     0.131 A 
ATOM     98  C   UNL A   1      46.062  28.970  40.044  1.00  0.00     0.055 A 
ATOM     99  C   UNL A   1      44.987  27.519  41.599  1.00  0.00     0.041 A 
ATOM    100  F   UNL A   1      44.239  25.443  40.950  1.00  0.00    -0.206 F 
ATOM    101  C   UNL A   1      45.669  28.699  41.348  1.00  0.00     0.022 A 
BRANCH  98 102
ATOM    102  S   UNL A   1      47.181  30.319  39.632  1.00  0.00     0.124 S 
ATOM    103  O   UNL A   1      48.165  30.221  40.708  1.00  0.00    -0.237 OA
ATOM    104  O   UNL A   1      47.660  29.941  38.307  1.00  0.00    -0.237 OA
ATOM    105  O   UNL A   1      46.320  31.497  39.678  1.00  0.00    -0.744 OA
ENDBRANCH  98 102
ENDBRANCH  72  95
ENDBRANCH  46  47
ENDBRANCH  39  41
ENDBRANCH  38  39
ENDBRANCH  37  38
ENDBRANCH  36  37
ENDBRANCH  35  36
ENDBRANCH   1  35
TORSDOF 22
ENDMDL
