MODEL 1
REMARK VINA RESULT:     -10.2      0.000      0.000
REMARK SMILES COCCCC(=O)N[C@H]1CC[C@@H](C(=O)OCCOCCOC(=O)c2ccc(-c3c4nc(c(-c5cc(S(=O)(=O)[O-])ccc5F)c5ccc([nH]5)c(-c5cc(S(=O)(=O)[O-])ccc5F)c5nc(c(-c6cc(S(=O)(=O)[O-])ccc6F)c6ccc3[nH]6)C=C5)C=C4)cc2)CC1
REMARK SMILES IDX 17 1 16 2 15 3 13 4 14 5 12 6 9 7 10 8 88 9 11 10 87 11 8 12
REMARK SMILES IDX 6 13 7 14 5 16 4 17 3 18 2 19 1 20 18 21 19 22 20 23 21 24
REMARK SMILES IDX 22 25 23 26 24 27 25 28 86 29 26 30 85 31 27 32 28 33 29 34
REMARK SMILES IDX 79 35 30 36 84 37 78 38 80 39 31 40 83 41 77 42 76 43 32 45
REMARK SMILES IDX 64 46 44 47 63 48 45 49 48 50 62 51 81 52 46 53 47 54 61 56
REMARK SMILES IDX 82 57 49 58 33 59 34 60 42 61 35 62 41 63 43 64 40 65 36 66
REMARK SMILES IDX 37 67 38 68 39 69 65 70 66 71 74 72 67 73 73 74 75 75 72 76
REMARK SMILES IDX 68 77 69 78 70 79 71 80 50 81 51 82 59 83 52 84 58 85 60 86
REMARK SMILES IDX 57 87 53 88 54 89 55 90 56 91
REMARK H PARENT 8 15 80 44 48 55
REMARK Flexibility Score: inf
ROOT
ATOM      1  C   UNL A   1      33.382  19.194  24.474  1.00  0.00     0.202 C 
ENDROOT
BRANCH   1   2
ATOM      2  C   UNL A   1      32.441  20.367  24.748  1.00  0.00     0.261 C 
BRANCH   2   3
ATOM      3  O   UNL A   1      31.980  20.953  23.519  1.00  0.00    -0.463 OA
BRANCH   3   4
ATOM      4  C   UNL A   1      32.305  22.252  23.308  1.00  0.00     0.309 C 
ATOM      5  O   UNL A   1      33.117  22.658  22.485  1.00  0.00    -0.252 OA
BRANCH   4   6
ATOM      6  C   UNL A   1      31.573  23.180  24.261  1.00  0.00     0.099 C 
ATOM      7  C   UNL A   1      32.440  26.013  24.417  1.00  0.00     0.082 C 
ATOM      8  C   UNL A   1      31.774  25.462  23.151  1.00  0.00     0.026 C 
ATOM      9  C   UNL A   1      33.277  24.939  25.103  1.00  0.00     0.026 C 
ATOM     10  C   UNL A   1      30.871  24.270  23.455  1.00  0.00     0.017 C 
ATOM     11  C   UNL A   1      32.399  23.728  25.438  1.00  0.00     0.017 C 
BRANCH   7  12
ATOM     12  N   UNL A   1      33.175  27.215  24.102  1.00  0.00    -0.353 N 
ATOM     13  C   UNL A   1      32.707  28.489  23.967  1.00  0.00     0.220 C 
ATOM     14  O   UNL A   1      33.420  29.307  23.386  1.00  0.00    -0.275 OA
ATOM     15  H   UNL A   1      34.144  27.100  23.966  1.00  0.00     0.163 HD
BRANCH  13  16
ATOM     16  C   UNL A   1      31.392  28.925  24.602  1.00  0.00     0.102 C 
BRANCH  16  17
ATOM     17  C   UNL A   1      30.355  29.621  23.716  1.00  0.00     0.038 C 
BRANCH  17  18
ATOM     18  C   UNL A   1      29.996  29.020  22.352  1.00  0.00     0.160 C 
BRANCH  18  19
ATOM     19  O   UNL A   1      28.720  29.339  21.805  1.00  0.00    -0.385 OA
ATOM     20  C   UNL A   1      27.619  29.374  22.694  1.00  0.00     0.194 C 
ENDBRANCH  18  19
ENDBRANCH  17  18
ENDBRANCH  16  17
ENDBRANCH  13  16
ENDBRANCH   7  12
ENDBRANCH   4   6
ENDBRANCH   3   4
ENDBRANCH   2   3
ENDBRANCH   1   2
BRANCH   1  21
ATOM     21  O   UNL A   1      34.728  19.351  24.924  1.00  0.00    -0.374 OA
BRANCH  21  22
ATOM     22  C   UNL A   1      35.384  20.577  24.609  1.00  0.00     0.202 C 
BRANCH  22  23
ATOM     23  C   UNL A   1      36.382  21.115  25.644  1.00  0.00     0.261 C 
BRANCH  23  24
ATOM     24  O   UNL A   1      37.625  21.539  25.052  1.00  0.00    -0.460 OA
BRANCH  24  25
ATOM     25  C   UNL A   1      38.728  21.199  25.765  1.00  0.00     0.338 C 
ATOM     26  O   UNL A   1      39.279  20.106  25.784  1.00  0.00    -0.246 OA
BRANCH  25  27
ATOM     27  C   UNL A   1      39.319  22.387  26.406  1.00  0.00     0.060 A 
ATOM     28  C   UNL A   1      38.797  23.637  26.050  1.00  0.00     0.016 A 
ATOM     29  C   UNL A   1      40.425  22.298  27.255  1.00  0.00     0.016 A 
ATOM     30  C   UNL A   1      39.404  24.805  26.505  1.00  0.00     0.010 A 
ATOM     31  C   UNL A   1      41.039  23.476  27.704  1.00  0.00     0.010 A 
ATOM     32  C   UNL A   1      40.552  24.734  27.306  1.00  0.00    -0.014 A 
BRANCH  32  33
ATOM     33  C   UNL A   1      41.302  25.981  27.610  1.00  0.00     0.031 A 
ATOM     34  C   UNL A   1      40.631  27.066  28.409  1.00  0.00     0.074 A 
ATOM     35  C   UNL A   1      42.583  26.121  27.219  1.00  0.00     0.049 A 
ATOM     36  N   UNL A   1      41.092  28.235  28.771  1.00  0.00    -0.248 NA
ATOM     37  C   UNL A   1      39.256  26.797  28.861  1.00  0.00     0.031 C 
ATOM     38  C   UNL A   1      43.351  25.120  26.479  1.00  0.00     0.029 A 
ATOM     39  N   UNL A   1      43.460  27.165  27.383  1.00  0.00    -0.354 N 
ATOM     40  C   UNL A   1      40.066  28.846  29.485  1.00  0.00     0.074 A 
ATOM     41  C   UNL A   1      38.948  27.925  29.484  1.00  0.00     0.031 C 
ATOM     42  C   UNL A   1      44.580  25.607  26.237  1.00  0.00     0.029 A 
ATOM     43  C   UNL A   1      44.676  26.964  26.770  1.00  0.00     0.049 A 
ATOM     44  H   UNL A   1      43.240  27.978  27.890  1.00  0.00     0.167 HD
ATOM     45  C   UNL A   1      40.060  30.060  30.088  1.00  0.00     0.034 A 
ATOM     46  C   UNL A   1      45.731  27.792  26.626  1.00  0.00     0.034 A 
ATOM     47  C   UNL A   1      41.182  30.968  30.082  1.00  0.00     0.049 A 
ATOM     48  C   UNL A   1      45.667  29.172  27.240  1.00  0.00     0.074 A 
ATOM     49  C   UNL A   1      41.292  32.202  30.699  1.00  0.00     0.029 A 
ATOM     50  N   UNL A   1      42.379  30.752  29.413  1.00  0.00    -0.354 N 
ATOM     51  N   UNL A   1      44.702  29.722  27.941  1.00  0.00    -0.248 NA
ATOM     52  C   UNL A   1      46.838  30.040  27.049  1.00  0.00     0.031 C 
ATOM     53  C   UNL A   1      42.521  32.765  30.340  1.00  0.00     0.029 A 
ATOM     54  C   UNL A   1      43.215  31.848  29.565  1.00  0.00     0.049 A 
ATOM     55  H   UNL A   1      42.603  29.939  28.905  1.00  0.00     0.167 HD
ATOM     56  C   UNL A   1      45.163  30.989  28.294  1.00  0.00     0.074 A 
ATOM     57  C   UNL A   1      46.498  31.110  27.750  1.00  0.00     0.031 C 
ATOM     58  C   UNL A   1      44.540  31.963  29.005  1.00  0.00     0.034 A 
BRANCH  45  59
ATOM     59  C   UNL A   1      38.784  30.506  30.759  1.00  0.00     0.023 A 
ATOM     60  C   UNL A   1      37.745  31.129  30.048  1.00  0.00     0.031 A 
ATOM     61  C   UNL A   1      38.604  30.287  32.136  1.00  0.00     0.131 A 
ATOM     62  C   UNL A   1      36.589  31.550  30.726  1.00  0.00     0.055 A 
ATOM     63  C   UNL A   1      37.425  30.648  32.792  1.00  0.00     0.041 A 
ATOM     64  F   UNL A   1      39.573  29.717  32.870  1.00  0.00    -0.206 F 
ATOM     65  C   UNL A   1      36.413  31.291  32.088  1.00  0.00     0.022 A 
BRANCH  62  66
ATOM     66  S   UNL A   1      35.358  32.531  29.825  1.00  0.00     0.124 S 
ATOM     67  O   UNL A   1      34.350  32.760  30.857  1.00  0.00    -0.237 OA
ATOM     68  O   UNL A   1      36.126  33.699  29.411  1.00  0.00    -0.237 OA
ATOM     69  O   UNL A   1      34.939  31.645  28.741  1.00  0.00    -0.744 OA
ENDBRANCH  62  66
ENDBRANCH  45  59
BRANCH  46  70
ATOM     70  C   UNL A   1      46.916  27.382  25.816  1.00  0.00     0.023 A 
ATOM     71  C   UNL A   1      47.108  27.851  24.507  1.00  0.00     0.031 A 
ATOM     72  C   UNL A   1      47.833  26.441  26.319  1.00  0.00     0.131 A 
ATOM     73  C   UNL A   1      48.156  27.336  23.726  1.00  0.00     0.055 A 
ATOM     74  C   UNL A   1      48.910  25.980  25.561  1.00  0.00     0.041 A 
ATOM     75  F   UNL A   1      47.692  25.952  27.560  1.00  0.00    -0.206 F 
ATOM     76  C   UNL A   1      49.066  26.415  24.250  1.00  0.00     0.022 A 
BRANCH  73  77
ATOM     77  S   UNL A   1      48.245  27.805  21.976  1.00  0.00     0.124 S 
ATOM     78  O   UNL A   1      49.484  28.572  21.935  1.00  0.00    -0.237 OA
ATOM     79  O   UNL A   1      48.273  26.505  21.316  1.00  0.00    -0.237 OA
ATOM     80  O   UNL A   1      47.023  28.580  21.769  1.00  0.00    -0.744 OA
ENDBRANCH  73  77
ENDBRANCH  46  70
BRANCH  58  81
ATOM     81  C   UNL A   1      45.320  33.230  29.265  1.00  0.00     0.023 A 
ATOM     82  C   UNL A   1      45.267  34.326  28.386  1.00  0.00     0.031 A 
ATOM     83  C   UNL A   1      46.140  33.336  30.403  1.00  0.00     0.131 A 
ATOM     84  C   UNL A   1      46.061  35.457  28.628  1.00  0.00     0.055 A 
ATOM     85  C   UNL A   1      46.880  34.489  30.672  1.00  0.00     0.041 A 
ATOM     86  F   UNL A   1      46.232  32.320  31.276  1.00  0.00    -0.206 F 
ATOM     87  C   UNL A   1      46.854  35.553  29.775  1.00  0.00     0.022 A 
BRANCH  84  88
ATOM     88  S   UNL A   1      46.117  36.769  27.376  1.00  0.00     0.124 S 
ATOM     89  O   UNL A   1      45.954  36.014  26.138  1.00  0.00    -0.237 OA
ATOM     90  O   UNL A   1      44.992  37.616  27.760  1.00  0.00    -0.237 OA
ATOM     91  O   UNL A   1      47.436  37.370  27.567  1.00  0.00    -0.744 OA
ENDBRANCH  84  88
ENDBRANCH  58  81
ENDBRANCH  32  33
ENDBRANCH  25  27
ENDBRANCH  24  25
ENDBRANCH  23  24
ENDBRANCH  22  23
ENDBRANCH  21  22
ENDBRANCH   1  21
TORSDOF 22
ENDMDL
MODEL 2
REMARK VINA RESULT:      -9.9      1.796      7.770
REMARK SMILES COCCCC(=O)N[C@H]1CC[C@@H](C(=O)OCCOCCOC(=O)c2ccc(-c3c4nc(c(-c5cc(S(=O)(=O)[O-])ccc5F)c5ccc([nH]5)c(-c5cc(S(=O)(=O)[O-])ccc5F)c5nc(c(-c6cc(S(=O)(=O)[O-])ccc6F)c6ccc3[nH]6)C=C5)C=C4)cc2)CC1
REMARK SMILES IDX 17 1 16 2 15 3 13 4 14 5 12 6 9 7 10 8 88 9 11 10 87 11 8 12
REMARK SMILES IDX 6 13 7 14 5 16 4 17 3 18 2 19 1 20 18 21 19 22 20 23 21 24
REMARK SMILES IDX 22 25 23 26 24 27 25 28 86 29 26 30 85 31 27 32 28 33 29 34
REMARK SMILES IDX 79 35 30 36 84 37 78 38 80 39 31 40 83 41 77 42 76 43 32 45
REMARK SMILES IDX 64 46 44 47 63 48 45 49 48 50 62 51 81 52 46 53 47 54 61 56
REMARK SMILES IDX 82 57 49 58 33 59 34 60 42 61 35 62 41 63 43 64 40 65 36 66
REMARK SMILES IDX 37 67 38 68 39 69 65 70 66 71 74 72 67 73 73 74 75 75 72 76
REMARK SMILES IDX 68 77 69 78 70 79 71 80 50 81 51 82 59 83 52 84 58 85 60 86
REMARK SMILES IDX 57 87 53 88 54 89 55 90 56 91
REMARK H PARENT 8 15 80 44 48 55
REMARK Flexibility Score: inf
ROOT
ATOM      1  C   UNL A   1      34.161  21.870  25.784  1.00  0.00     0.202 C 
ENDROOT
BRANCH   1   2
ATOM      2  C   UNL A   1      33.831  23.280  25.292  1.00  0.00     0.261 C 
BRANCH   2   3
ATOM      3  O   UNL A   1      33.157  23.236  24.024  1.00  0.00    -0.463 OA
BRANCH   3   4
ATOM      4  C   UNL A   1      33.810  23.788  22.972  1.00  0.00     0.309 C 
ATOM      5  O   UNL A   1      35.008  23.682  22.744  1.00  0.00    -0.252 OA
BRANCH   4   6
ATOM      6  C   UNL A   1      32.882  24.618  22.102  1.00  0.00     0.099 C 
ATOM      7  C   UNL A   1      31.799  27.148  23.211  1.00  0.00     0.082 C 
ATOM      8  C   UNL A   1      33.291  27.003  22.893  1.00  0.00     0.026 C 
ATOM      9  C   UNL A   1      31.209  25.820  23.672  1.00  0.00     0.026 C 
ATOM     10  C   UNL A   1      33.544  25.961  21.807  1.00  0.00     0.017 C 
ATOM     11  C   UNL A   1      31.430  24.750  22.598  1.00  0.00     0.017 C 
BRANCH   7  12
ATOM     12  N   UNL A   1      31.598  28.232  24.143  1.00  0.00    -0.353 N 
ATOM     13  C   UNL A   1      30.667  29.229  24.102  1.00  0.00     0.220 C 
ATOM     14  O   UNL A   1      30.860  30.227  24.797  1.00  0.00    -0.275 OA
ATOM     15  H   UNL A   1      32.215  28.256  24.910  1.00  0.00     0.163 HD
BRANCH  13  16
ATOM     16  C   UNL A   1      29.375  29.079  23.309  1.00  0.00     0.102 C 
BRANCH  16  17
ATOM     17  C   UNL A   1      28.690  30.348  22.793  1.00  0.00     0.038 C 
BRANCH  17  18
ATOM     18  C   UNL A   1      28.048  30.352  21.401  1.00  0.00     0.160 C 
BRANCH  18  19
ATOM     19  O   UNL A   1      27.776  31.616  20.803  1.00  0.00    -0.385 OA
ATOM     20  C   UNL A   1      28.172  32.774  21.515  1.00  0.00     0.194 C 
ENDBRANCH  18  19
ENDBRANCH  17  18
ENDBRANCH  16  17
ENDBRANCH  13  16
ENDBRANCH   7  12
ENDBRANCH   4   6
ENDBRANCH   3   4
ENDBRANCH   2   3
ENDBRANCH   1   2
BRANCH   1  21
ATOM     21  O   UNL A   1      34.863  21.033  24.865  1.00  0.00    -0.374 OA
BRANCH  21  22
ATOM     22  C   UNL A   1      35.906  20.217  25.389  1.00  0.00     0.202 C 
BRANCH  22  23
ATOM     23  C   UNL A   1      37.257  20.266  24.663  1.00  0.00     0.261 C 
BRANCH  23  24
ATOM     24  O   UNL A   1      38.053  21.406  25.041  1.00  0.00    -0.460 OA
BRANCH  24  25
ATOM     25  C   UNL A   1      39.041  21.128  25.928  1.00  0.00     0.338 C 
ATOM     26  O   UNL A   1      39.587  20.045  26.099  1.00  0.00    -0.246 OA
BRANCH  25  27
ATOM     27  C   UNL A   1      39.530  22.363  26.567  1.00  0.00     0.060 A 
ATOM     28  C   UNL A   1      38.915  23.565  26.197  1.00  0.00     0.016 A 
ATOM     29  C   UNL A   1      40.629  22.366  27.429  1.00  0.00     0.016 A 
ATOM     30  C   UNL A   1      39.423  24.780  26.651  1.00  0.00     0.010 A 
ATOM     31  C   UNL A   1      41.143  23.591  27.877  1.00  0.00     0.010 A 
ATOM     32  C   UNL A   1      40.564  24.805  27.465  1.00  0.00    -0.014 A 
BRANCH  32  33
ATOM     33  C   UNL A   1      41.209  26.108  27.769  1.00  0.00     0.031 A 
ATOM     34  C   UNL A   1      42.632  26.343  27.334  1.00  0.00     0.074 A 
ATOM     35  C   UNL A   1      40.519  27.087  28.383  1.00  0.00     0.049 A 
ATOM     36  N   UNL A   1      43.390  27.394  27.511  1.00  0.00    -0.248 NA
ATOM     37  C   UNL A   1      43.286  25.246  26.602  1.00  0.00     0.031 C 
ATOM     38  C   UNL A   1      39.124  26.991  28.810  1.00  0.00     0.029 A 
ATOM     39  N   UNL A   1      40.900  28.351  28.761  1.00  0.00    -0.354 N 
ATOM     40  C   UNL A   1      44.612  27.086  26.921  1.00  0.00     0.074 A 
ATOM     41  C   UNL A   1      44.500  25.739  26.402  1.00  0.00     0.031 C 
ATOM     42  C   UNL A   1      38.771  28.142  29.408  1.00  0.00     0.029 A 
ATOM     43  C   UNL A   1      39.922  29.041  29.440  1.00  0.00     0.049 A 
ATOM     44  H   UNL A   1      41.787  28.727  28.563  1.00  0.00     0.167 HD
ATOM     45  C   UNL A   1      45.722  27.858  26.820  1.00  0.00     0.034 A 
ATOM     46  C   UNL A   1      39.963  30.245  30.048  1.00  0.00     0.034 A 
ATOM     47  C   UNL A   1      45.820  29.200  27.341  1.00  0.00     0.049 A 
ATOM     48  C   UNL A   1      41.239  31.052  29.989  1.00  0.00     0.074 A 
ATOM     49  C   UNL A   1      46.883  30.082  27.253  1.00  0.00     0.029 A 
ATOM     50  N   UNL A   1      44.827  29.849  28.064  1.00  0.00    -0.354 N 
ATOM     51  N   UNL A   1      42.376  30.761  29.398  1.00  0.00    -0.248 NA
ATOM     52  C   UNL A   1      41.236  32.353  30.672  1.00  0.00     0.031 C 
ATOM     53  C   UNL A   1      46.565  31.229  27.986  1.00  0.00     0.029 A 
ATOM     54  C   UNL A   1      45.271  31.101  28.465  1.00  0.00     0.049 A 
ATOM     55  H   UNL A   1      43.938  29.476  28.262  1.00  0.00     0.167 HD
ATOM     56  C   UNL A   1      43.210  31.855  29.618  1.00  0.00     0.074 A 
ATOM     57  C   UNL A   1      42.439  32.819  30.374  1.00  0.00     0.031 C 
ATOM     58  C   UNL A   1      44.497  32.047  29.231  1.00  0.00     0.034 A 
BRANCH  45  59
ATOM     59  C   UNL A   1      46.942  27.255  26.168  1.00  0.00     0.023 A 
ATOM     60  C   UNL A   1      47.927  26.580  26.908  1.00  0.00     0.031 A 
ATOM     61  C   UNL A   1      47.109  27.346  24.775  1.00  0.00     0.131 A 
ATOM     62  C   UNL A   1      49.057  26.061  26.256  1.00  0.00     0.055 A 
ATOM     63  C   UNL A   1      48.202  26.770  24.124  1.00  0.00     0.041 A 
ATOM     64  F   UNL A   1      46.210  27.999  24.020  1.00  0.00    -0.206 F 
ATOM     65  C   UNL A   1      49.188  26.130  24.867  1.00  0.00     0.022 A 
BRANCH  62  66
ATOM     66  S   UNL A   1      50.407  25.380  27.259  1.00  0.00     0.124 S 
ATOM     67  O   UNL A   1      51.408  25.075  26.240  1.00  0.00    -0.237 OA
ATOM     68  O   UNL A   1      50.723  26.484  28.156  1.00  0.00    -0.237 OA
ATOM     69  O   UNL A   1      49.803  24.212  27.898  1.00  0.00    -0.744 OA
ENDBRANCH  62  66
ENDBRANCH  45  59
BRANCH  46  70
ATOM     70  C   UNL A   1      38.791  30.745  30.825  1.00  0.00     0.023 A 
ATOM     71  C   UNL A   1      37.729  31.418  30.200  1.00  0.00     0.031 A 
ATOM     72  C   UNL A   1      38.760  30.628  32.227  1.00  0.00     0.131 A 
ATOM     73  C   UNL A   1      36.712  31.996  30.978  1.00  0.00     0.055 A 
ATOM     74  C   UNL A   1      37.716  31.150  32.991  1.00  0.00     0.041 A 
ATOM     75  F   UNL A   1      39.754  30.003  32.877  1.00  0.00    -0.206 F 
ATOM     76  C   UNL A   1      36.692  31.854  32.367  1.00  0.00     0.022 A 
BRANCH  73  77
ATOM     77  S   UNL A   1      35.475  33.036  30.154  1.00  0.00     0.124 S 
ATOM     78  O   UNL A   1      34.819  32.077  29.272  1.00  0.00    -0.237 OA
ATOM     79  O   UNL A   1      34.684  33.515  31.282  1.00  0.00    -0.237 OA
ATOM     80  O   UNL A   1      36.280  34.054  29.482  1.00  0.00    -0.744 OA
ENDBRANCH  73  77
ENDBRANCH  46  70
BRANCH  58  81
ATOM     81  C   UNL A   1      45.132  33.370  29.588  1.00  0.00     0.023 A 
ATOM     82  C   UNL A   1      45.028  34.492  28.748  1.00  0.00     0.031 A 
ATOM     83  C   UNL A   1      45.864  33.505  30.782  1.00  0.00     0.131 A 
ATOM     84  C   UNL A   1      45.692  35.682  29.084  1.00  0.00     0.055 A 
ATOM     85  C   UNL A   1      46.469  34.710  31.142  1.00  0.00     0.041 A 
ATOM     86  F   UNL A   1      45.998  32.466  31.623  1.00  0.00    -0.206 F 
ATOM     87  C   UNL A   1      46.397  35.804  30.284  1.00  0.00     0.022 A 
BRANCH  84  88
ATOM     88  S   UNL A   1      45.699  37.045  27.887  1.00  0.00     0.124 S 
ATOM     89  O   UNL A   1      46.233  38.146  28.683  1.00  0.00    -0.237 OA
ATOM     90  O   UNL A   1      46.574  36.535  26.837  1.00  0.00    -0.237 OA
ATOM     91  O   UNL A   1      44.293  37.179  27.509  1.00  0.00    -0.744 OA
ENDBRANCH  84  88
ENDBRANCH  58  81
ENDBRANCH  32  33
ENDBRANCH  25  27
ENDBRANCH  24  25
ENDBRANCH  23  24
ENDBRANCH  22  23
ENDBRANCH  21  22
ENDBRANCH   1  21
TORSDOF 22
ENDMDL
MODEL 3
REMARK VINA RESULT:      -9.6      5.458     11.140
REMARK SMILES COCCCC(=O)N[C@H]1CC[C@@H](C(=O)OCCOCCOC(=O)c2ccc(-c3c4nc(c(-c5cc(S(=O)(=O)[O-])ccc5F)c5ccc([nH]5)c(-c5cc(S(=O)(=O)[O-])ccc5F)c5nc(c(-c6cc(S(=O)(=O)[O-])ccc6F)c6ccc3[nH]6)C=C5)C=C4)cc2)CC1
REMARK SMILES IDX 17 1 16 2 15 3 13 4 14 5 12 6 9 7 10 8 88 9 11 10 87 11 8 12
REMARK SMILES IDX 6 13 7 14 5 16 4 17 3 18 2 19 1 20 18 21 19 22 20 23 21 24
REMARK SMILES IDX 22 25 23 26 24 27 25 28 86 29 26 30 85 31 27 32 28 33 29 34
REMARK SMILES IDX 79 35 30 36 84 37 78 38 80 39 31 40 83 41 77 42 76 43 32 45
REMARK SMILES IDX 64 46 44 47 63 48 45 49 48 50 62 51 81 52 46 53 47 54 61 56
REMARK SMILES IDX 82 57 49 58 33 59 34 60 42 61 35 62 41 63 43 64 40 65 36 66
REMARK SMILES IDX 37 67 38 68 39 69 65 70 66 71 74 72 67 73 73 74 75 75 72 76
REMARK SMILES IDX 68 77 69 78 70 79 71 80 50 81 51 82 59 83 52 84 58 85 60 86
REMARK SMILES IDX 57 87 53 88 54 89 55 90 56 91
REMARK H PARENT 8 15 80 44 48 55
REMARK Flexibility Score: inf
ROOT
ATOM      1  C   UNL A   1      32.371  30.012  25.775  1.00  0.00     0.202 C 
ENDROOT
BRANCH   1   2
ATOM      2  C   UNL A   1      31.424  29.313  24.800  1.00  0.00     0.261 C 
BRANCH   2   3
ATOM      3  O   UNL A   1      32.159  28.576  23.809  1.00  0.00    -0.463 OA
BRANCH   3   4
ATOM      4  C   UNL A   1      31.966  27.234  23.784  1.00  0.00     0.309 C 
ATOM      5  O   UNL A   1      31.036  26.660  23.231  1.00  0.00    -0.252 OA
BRANCH   4   6
ATOM      6  C   UNL A   1      33.027  26.495  24.580  1.00  0.00     0.099 C 
ATOM      7  C   UNL A   1      32.571  23.635  25.222  1.00  0.00     0.082 C 
ATOM      8  C   UNL A   1      32.812  24.089  23.778  1.00  0.00     0.026 C 
ATOM      9  C   UNL A   1      31.824  24.704  26.011  1.00  0.00     0.026 C 
ATOM     10  C   UNL A   1      33.615  25.384  23.714  1.00  0.00     0.017 C 
ATOM     11  C   UNL A   1      32.610  26.019  25.982  1.00  0.00     0.017 C 
BRANCH   7  12
ATOM     12  N   UNL A   1      31.926  22.343  25.230  1.00  0.00    -0.353 N 
ATOM     13  C   UNL A   1      32.493  21.108  25.350  1.00  0.00     0.220 C 
ATOM     14  O   UNL A   1      31.825  20.131  25.013  1.00  0.00    -0.275 OA
ATOM     15  H   UNL A   1      30.945  22.355  25.137  1.00  0.00     0.163 HD
BRANCH  13  16
ATOM     16  C   UNL A   1      33.869  20.922  25.977  1.00  0.00     0.102 C 
BRANCH  16  17
ATOM     17  C   UNL A   1      35.055  20.635  25.052  1.00  0.00     0.038 C 
BRANCH  17  18
ATOM     18  C   UNL A   1      35.386  19.188  24.668  1.00  0.00     0.160 C 
BRANCH  18  19
ATOM     19  O   UNL A   1      34.339  18.226  24.756  1.00  0.00    -0.385 OA
ATOM     20  C   UNL A   1      34.245  17.266  23.720  1.00  0.00     0.194 C 
ENDBRANCH  18  19
ENDBRANCH  17  18
ENDBRANCH  16  17
ENDBRANCH  13  16
ENDBRANCH   7  12
ENDBRANCH   4   6
ENDBRANCH   3   4
ENDBRANCH   2   3
ENDBRANCH   1   2
BRANCH   1  21
ATOM     21  O   UNL A   1      31.756  30.685  26.873  1.00  0.00    -0.374 OA
BRANCH  21  22
ATOM     22  C   UNL A   1      31.794  32.110  26.869  1.00  0.00     0.202 C 
BRANCH  22  23
ATOM     23  C   UNL A   1      32.914  32.776  27.681  1.00  0.00     0.261 C 
BRANCH  23  24
ATOM     24  O   UNL A   1      32.682  34.181  27.904  1.00  0.00    -0.460 OA
BRANCH  24  25
ATOM     25  C   UNL A   1      33.185  34.651  29.073  1.00  0.00     0.338 C 
ATOM     26  O   UNL A   1      32.669  35.484  29.808  1.00  0.00    -0.246 OA
BRANCH  25  27
ATOM     27  C   UNL A   1      34.384  33.892  29.467  1.00  0.00     0.060 A 
ATOM     28  C   UNL A   1      34.214  32.856  30.393  1.00  0.00     0.016 A 
ATOM     29  C   UNL A   1      35.663  34.244  29.027  1.00  0.00     0.016 A 
ATOM     30  C   UNL A   1      35.322  32.194  30.917  1.00  0.00     0.010 A 
ATOM     31  C   UNL A   1      36.777  33.584  29.563  1.00  0.00     0.010 A 
ATOM     32  C   UNL A   1      36.615  32.579  30.534  1.00  0.00    -0.014 A 
BRANCH  32  33
ATOM     33  C   UNL A   1      37.783  32.008  31.253  1.00  0.00     0.031 A 
ATOM     34  C   UNL A   1      38.597  30.926  30.591  1.00  0.00     0.074 A 
ATOM     35  C   UNL A   1      38.143  32.482  32.460  1.00  0.00     0.049 A 
ATOM     36  N   UNL A   1      39.640  30.280  31.043  1.00  0.00    -0.248 NA
ATOM     37  C   UNL A   1      38.178  30.522  29.239  1.00  0.00     0.031 C 
ATOM     38  C   UNL A   1      37.459  33.556  33.179  1.00  0.00     0.029 A 
ATOM     39  N   UNL A   1      39.167  32.116  33.298  1.00  0.00    -0.354 N 
ATOM     40  C   UNL A   1      39.999  29.386  30.039  1.00  0.00     0.074 A 
ATOM     41  C   UNL A   1      39.046  29.559  28.962  1.00  0.00     0.031 C 
ATOM     42  C   UNL A   1      38.072  33.750  34.359  1.00  0.00     0.029 A 
ATOM     43  C   UNL A   1      39.167  32.792  34.497  1.00  0.00     0.049 A 
ATOM     44  H   UNL A   1      39.838  31.435  33.063  1.00  0.00     0.167 HD
ATOM     45  C   UNL A   1      41.032  28.508  30.017  1.00  0.00     0.034 A 
ATOM     46  C   UNL A   1      39.938  32.631  35.592  1.00  0.00     0.034 A 
ATOM     47  C   UNL A   1      41.975  28.346  31.096  1.00  0.00     0.049 A 
ATOM     48  C   UNL A   1      41.032  31.588  35.571  1.00  0.00     0.074 A 
ATOM     49  C   UNL A   1      43.080  27.515  31.156  1.00  0.00     0.029 A 
ATOM     50  N   UNL A   1      41.917  29.013  32.313  1.00  0.00    -0.354 N 
ATOM     51  N   UNL A   1      41.380  30.774  34.600  1.00  0.00    -0.248 NA
ATOM     52  C   UNL A   1      41.839  31.447  36.790  1.00  0.00     0.031 C 
ATOM     53  C   UNL A   1      43.642  27.621  32.432  1.00  0.00     0.029 A 
ATOM     54  C   UNL A   1      42.939  28.579  33.144  1.00  0.00     0.049 A 
ATOM     55  H   UNL A   1      41.248  29.695  32.551  1.00  0.00     0.167 HD
ATOM     56  C   UNL A   1      42.464  30.045  35.087  1.00  0.00     0.074 A 
ATOM     57  C   UNL A   1      42.724  30.532  36.424  1.00  0.00     0.031 C 
ATOM     58  C   UNL A   1      43.180  29.063  34.482  1.00  0.00     0.034 A 
BRANCH  45  59
ATOM     59  C   UNL A   1      41.166  27.610  28.811  1.00  0.00     0.023 A 
ATOM     60  C   UNL A   1      42.158  27.811  27.837  1.00  0.00     0.031 A 
ATOM     61  C   UNL A   1      40.290  26.523  28.646  1.00  0.00     0.131 A 
ATOM     62  C   UNL A   1      42.222  26.964  26.719  1.00  0.00     0.055 A 
ATOM     63  C   UNL A   1      40.400  25.644  27.567  1.00  0.00     0.041 A 
ATOM     64  F   UNL A   1      39.308  26.296  29.534  1.00  0.00    -0.206 F 
ATOM     65  C   UNL A   1      41.366  25.867  26.591  1.00  0.00     0.022 A 
BRANCH  62  66
ATOM     66  S   UNL A   1      43.377  27.371  25.381  1.00  0.00     0.124 S 
ATOM     67  O   UNL A   1      43.961  26.065  25.087  1.00  0.00    -0.237 OA
ATOM     68  O   UNL A   1      42.495  27.921  24.359  1.00  0.00    -0.237 OA
ATOM     69  O   UNL A   1      44.291  28.330  25.997  1.00  0.00    -0.744 OA
ENDBRANCH  62  66
ENDBRANCH  45  59
BRANCH  46  70
ATOM     70  C   UNL A   1      39.676  33.423  36.830  1.00  0.00     0.023 A 
ATOM     71  C   UNL A   1      38.948  32.886  37.904  1.00  0.00     0.031 A 
ATOM     72  C   UNL A   1      40.081  34.768  36.918  1.00  0.00     0.131 A 
ATOM     73  C   UNL A   1      38.601  33.703  38.992  1.00  0.00     0.055 A 
ATOM     74  C   UNL A   1      39.788  35.558  38.030  1.00  0.00     0.041 A 
ATOM     75  F   UNL A   1      40.771  35.335  35.917  1.00  0.00    -0.206 F 
ATOM     76  C   UNL A   1      39.028  35.030  39.068  1.00  0.00     0.022 A 
BRANCH  73  77
ATOM     77  S   UNL A   1      37.483  33.035  40.256  1.00  0.00     0.124 S 
ATOM     78  O   UNL A   1      37.410  34.142  41.203  1.00  0.00    -0.237 OA
ATOM     79  O   UNL A   1      36.275  32.772  39.482  1.00  0.00    -0.237 OA
ATOM     80  O   UNL A   1      38.184  31.847  40.736  1.00  0.00    -0.744 OA
ENDBRANCH  73  77
ENDBRANCH  46  70
BRANCH  58  81
ATOM     81  C   UNL A   1      44.339  28.481  35.257  1.00  0.00     0.023 A 
ATOM     82  C   UNL A   1      44.190  27.344  36.070  1.00  0.00     0.031 A 
ATOM     83  C   UNL A   1      45.608  29.083  35.190  1.00  0.00     0.131 A 
ATOM     84  C   UNL A   1      45.276  26.878  36.826  1.00  0.00     0.055 A 
ATOM     85  C   UNL A   1      46.701  28.577  35.896  1.00  0.00     0.041 A 
ATOM     86  F   UNL A   1      45.809  30.173  34.431  1.00  0.00    -0.206 F 
ATOM     87  C   UNL A   1      46.535  27.477  36.732  1.00  0.00     0.022 A 
BRANCH  84  88
ATOM     88  S   UNL A   1      45.000  25.532  38.010  1.00  0.00     0.124 S 
ATOM     89  O   UNL A   1      44.765  26.261  39.251  1.00  0.00    -0.237 OA
ATOM     90  O   UNL A   1      43.841  24.848  37.443  1.00  0.00    -0.237 OA
ATOM     91  O   UNL A   1      46.249  24.772  37.964  1.00  0.00    -0.744 OA
ENDBRANCH  84  88
ENDBRANCH  58  81
ENDBRANCH  32  33
ENDBRANCH  25  27
ENDBRANCH  24  25
ENDBRANCH  23  24
ENDBRANCH  22  23
ENDBRANCH  21  22
ENDBRANCH   1  21
TORSDOF 22
ENDMDL
