MODEL 1
REMARK VINA RESULT:     -10.8      0.000      0.000
REMARK SMILES CC(C)CSc1cc2c(cc1Cl)C=C(C(=O)OCCOCCOC(=O)c1ccc(-c3c4nc(c(-c5cc(S(=O)(=O)[O-])ccc5F)c5ccc([nH]5)c(-c5cc(S(=O)(=O)[O-])ccc5F)c5nc(c(-c6cc(S(=O)(=O)[O-])ccc6F)c6ccc3[nH]6)C=C5)C=C4)cc1)[C@@H](C(F)(F)F)O2
REMARK SMILES IDX 20 1 19 2 18 3 17 4 15 5 16 6 14 7 6 8 7 9 11 10 8 11 10 12
REMARK SMILES IDX 12 13 9 14 94 15 13 16 89 17 5 18 4 19 2 20 1 21 3 22 90 23
REMARK SMILES IDX 91 24 92 25 93 26 21 27 22 28 23 29 24 30 25 31 26 32 27 33
REMARK SMILES IDX 88 34 28 35 87 36 29 37 30 38 31 39 81 40 32 41 86 42 80 43
REMARK SMILES IDX 82 44 33 45 85 46 79 47 78 48 34 50 66 51 46 52 65 53 47 54
REMARK SMILES IDX 50 55 64 56 83 57 48 58 49 59 63 61 84 62 51 63 35 64 36 65
REMARK SMILES IDX 44 66 37 67 43 68 45 69 42 70 38 71 39 72 40 73 41 74 67 75
REMARK SMILES IDX 68 76 76 77 69 78 75 79 77 80 74 81 70 82 71 83 72 84 73 85
REMARK SMILES IDX 52 86 53 87 61 88 54 89 60 90 62 91 59 92 55 93 56 94 57 95
REMARK SMILES IDX 58 96
REMARK H PARENT 82 49 50 60
REMARK Flexibility Score: inf
ROOT
ATOM      1  O   UNL A   1      32.210  30.219  27.212  1.00  0.00    -0.374 OA
ENDROOT
BRANCH   1   2
ATOM      2  C   UNL A   1      32.489  29.311  26.148  1.00  0.00     0.202 C 
BRANCH   2   3
ATOM      3  C   UNL A   1      31.467  29.212  25.012  1.00  0.00     0.261 C 
BRANCH   3   4
ATOM      4  O   UNL A   1      31.286  27.857  24.577  1.00  0.00    -0.460 OA
BRANCH   4   5
ATOM      5  C   UNL A   1      32.314  27.353  23.856  1.00  0.00     0.338 C 
ATOM      6  O   UNL A   1      33.014  27.951  23.054  1.00  0.00    -0.246 OA
BRANCH   5   7
ATOM      7  C   UNL A   1      32.580  25.966  24.285  1.00  0.00     0.087 C 
ATOM      8  C   UNL A   1      34.657  21.486  24.941  1.00  0.00     0.030 A 
ATOM      9  C   UNL A   1      33.383  22.006  25.205  1.00  0.00     0.063 A 
ATOM     10  C   UNL A   1      35.713  22.373  24.678  1.00  0.00     0.055 A 
ATOM     11  C   UNL A   1      33.128  23.364  25.028  1.00  0.00     0.129 A 
ATOM     12  C   UNL A   1      35.469  23.746  24.576  1.00  0.00     0.033 A 
ATOM     13  Cl  UNL A   1      37.338  21.836  24.423  1.00  0.00    -0.083 Cl
ATOM     14  C   UNL A   1      34.166  24.234  24.695  1.00  0.00     0.019 A 
ATOM     15  O   UNL A   1      31.827  23.760  25.159  1.00  0.00    -0.475 OA
ATOM     16  C   UNL A   1      33.870  25.623  24.403  1.00  0.00     0.027 C 
ATOM     17  C   UNL A   1      31.436  25.023  24.547  1.00  0.00     0.316 C 
BRANCH   8  18
ATOM     18  S   UNL A   1      34.805  19.706  24.862  1.00  0.00    -0.124 SA
BRANCH  18  19
ATOM     19  C   UNL A   1      33.042  19.247  24.571  1.00  0.00     0.078 C 
BRANCH  19  20
ATOM     20  C   UNL A   1      32.856  17.948  23.757  1.00  0.00    -0.007 C 
ATOM     21  C   UNL A   1      32.311  18.194  22.347  1.00  0.00     0.008 C 
ATOM     22  C   UNL A   1      34.198  17.219  23.606  1.00  0.00     0.008 C 
ENDBRANCH  19  20
ENDBRANCH  18  19
ENDBRANCH   8  18
BRANCH  17  23
ATOM     23  C   UNL A   1      30.615  24.757  23.275  1.00  0.00     0.430 C 
ATOM     24  F   UNL A   1      31.315  25.070  22.159  1.00  0.00    -0.167 F 
ATOM     25  F   UNL A   1      30.267  23.454  23.173  1.00  0.00    -0.167 F 
ATOM     26  F   UNL A   1      29.473  25.485  23.253  1.00  0.00    -0.167 F 
ENDBRANCH  17  23
ENDBRANCH   5   7
ENDBRANCH   4   5
ENDBRANCH   3   4
ENDBRANCH   2   3
ENDBRANCH   1   2
BRANCH   1  27
ATOM     27  C   UNL A   1      32.435  31.611  26.996  1.00  0.00     0.202 C 
BRANCH  27  28
ATOM     28  C   UNL A   1      33.567  32.306  27.765  1.00  0.00     0.261 C 
BRANCH  28  29
ATOM     29  O   UNL A   1      33.457  33.738  27.755  1.00  0.00    -0.460 OA
BRANCH  29  30
ATOM     30  C   UNL A   1      33.437  34.314  28.984  1.00  0.00     0.338 C 
ATOM     31  O   UNL A   1      32.529  34.969  29.472  1.00  0.00    -0.246 OA
BRANCH  30  32
ATOM     32  C   UNL A   1      34.608  33.853  29.753  1.00  0.00     0.060 A 
ATOM     33  C   UNL A   1      34.461  33.056  30.889  1.00  0.00     0.016 A 
ATOM     34  C   UNL A   1      35.882  34.211  29.294  1.00  0.00     0.016 A 
ATOM     35  C   UNL A   1      35.603  32.599  31.553  1.00  0.00     0.010 A 
ATOM     36  C   UNL A   1      37.020  33.753  29.960  1.00  0.00     0.010 A 
ATOM     37  C   UNL A   1      36.889  32.928  31.086  1.00  0.00    -0.014 A 
BRANCH  37  38
ATOM     38  C   UNL A   1      38.088  32.296  31.693  1.00  0.00     0.031 A 
ATOM     39  C   UNL A   1      38.647  32.765  33.003  1.00  0.00     0.074 A 
ATOM     40  C   UNL A   1      38.687  31.291  31.023  1.00  0.00     0.049 A 
ATOM     41  N   UNL A   1      39.636  32.265  33.694  1.00  0.00    -0.248 NA
ATOM     42  C   UNL A   1      38.025  33.950  33.613  1.00  0.00     0.031 C 
ATOM     43  C   UNL A   1      38.254  30.791  29.718  1.00  0.00     0.029 A 
ATOM     44  N   UNL A   1      39.769  30.509  31.339  1.00  0.00    -0.354 N 
ATOM     45  C   UNL A   1      39.750  33.056  34.830  1.00  0.00     0.074 A 
ATOM     46  C   UNL A   1      38.758  34.105  34.708  1.00  0.00     0.031 C 
ATOM     47  C   UNL A   1      39.040  29.765  29.361  1.00  0.00     0.029 A 
ATOM     48  C   UNL A   1      40.058  29.557  30.389  1.00  0.00     0.049 A 
ATOM     49  H   UNL A   1      40.290  30.620  32.168  1.00  0.00     0.167 HD
ATOM     50  C   UNL A   1      40.590  32.904  35.881  1.00  0.00     0.034 A 
ATOM     51  C   UNL A   1      41.028  28.619  30.346  1.00  0.00     0.034 A 
ATOM     52  C   UNL A   1      41.574  31.853  35.977  1.00  0.00     0.049 A 
ATOM     53  C   UNL A   1      41.964  28.487  31.520  1.00  0.00     0.074 A 
ATOM     54  C   UNL A   1      42.430  31.583  37.031  1.00  0.00     0.029 A 
ATOM     55  N   UNL A   1      41.848  30.911  34.995  1.00  0.00    -0.354 N 
ATOM     56  N   UNL A   1      41.978  29.165  32.644  1.00  0.00    -0.248 NA
ATOM     57  C   UNL A   1      43.007  27.455  31.435  1.00  0.00     0.031 C 
ATOM     58  C   UNL A   1      43.275  30.540  36.654  1.00  0.00     0.029 A 
ATOM     59  C   UNL A   1      42.886  30.088  35.403  1.00  0.00     0.049 A 
ATOM     60  H   UNL A   1      41.374  30.839  34.134  1.00  0.00     0.167 HD
ATOM     61  C   UNL A   1      43.007  28.622  33.409  1.00  0.00     0.074 A 
ATOM     62  C   UNL A   1      43.575  27.542  32.632  1.00  0.00     0.031 C 
ATOM     63  C   UNL A   1      43.440  28.993  34.640  1.00  0.00     0.034 A 
BRANCH  50  64
ATOM     64  C   UNL A   1      40.490  33.858  37.048  1.00  0.00     0.023 A 
ATOM     65  C   UNL A   1      41.510  34.803  37.273  1.00  0.00     0.031 A 
ATOM     66  C   UNL A   1      39.496  33.707  38.029  1.00  0.00     0.131 A 
ATOM     67  C   UNL A   1      41.543  35.519  38.477  1.00  0.00     0.055 A 
ATOM     68  C   UNL A   1      39.506  34.458  39.207  1.00  0.00     0.041 A 
ATOM     69  F   UNL A   1      38.507  32.814  37.867  1.00  0.00    -0.206 F 
ATOM     70  C   UNL A   1      40.544  35.356  39.441  1.00  0.00     0.022 A 
BRANCH  67  71
ATOM     71  S   UNL A   1      42.931  36.616  38.879  1.00  0.00     0.124 S 
ATOM     72  O   UNL A   1      43.771  36.483  37.691  1.00  0.00    -0.237 OA
ATOM     73  O   UNL A   1      42.265  37.907  39.031  1.00  0.00    -0.237 OA
ATOM     74  O   UNL A   1      43.487  36.043  40.100  1.00  0.00    -0.744 OA
ENDBRANCH  67  71
ENDBRANCH  50  64
BRANCH  51  75
ATOM     75  C   UNL A   1      41.098  27.698  29.174  1.00  0.00     0.023 A 
ATOM     76  C   UNL A   1      42.076  27.871  28.177  1.00  0.00     0.031 A 
ATOM     77  C   UNL A   1      40.130  26.699  28.979  1.00  0.00     0.131 A 
ATOM     78  C   UNL A   1      42.019  27.108  27.003  1.00  0.00     0.055 A 
ATOM     79  C   UNL A   1      40.126  25.886  27.845  1.00  0.00     0.041 A 
ATOM     80  F   UNL A   1      39.165  26.506  29.892  1.00  0.00    -0.206 F 
ATOM     81  C   UNL A   1      41.064  26.102  26.840  1.00  0.00     0.022 A 
BRANCH  78  82
ATOM     82  S   UNL A   1      43.093  27.495  25.592  1.00  0.00     0.124 S 
ATOM     83  O   UNL A   1      42.218  28.317  24.761  1.00  0.00    -0.237 OA
ATOM     84  O   UNL A   1      44.194  28.202  26.241  1.00  0.00    -0.237 OA
ATOM     85  O   UNL A   1      43.433  26.186  25.048  1.00  0.00    -0.744 OA
ENDBRANCH  78  82
ENDBRANCH  51  75
BRANCH  63  86
ATOM     86  C   UNL A   1      44.586  28.234  35.272  1.00  0.00     0.023 A 
ATOM     87  C   UNL A   1      44.324  27.258  36.255  1.00  0.00     0.031 A 
ATOM     88  C   UNL A   1      45.925  28.591  35.037  1.00  0.00     0.131 A 
ATOM     89  C   UNL A   1      45.377  26.717  37.003  1.00  0.00     0.055 A 
ATOM     90  C   UNL A   1      46.977  28.004  35.743  1.00  0.00     0.041 A 
ATOM     91  F   UNL A   1      46.232  29.526  34.122  1.00  0.00    -0.206 F 
ATOM     92  C   UNL A   1      46.703  27.077  36.745  1.00  0.00     0.022 A 
BRANCH  89  93
ATOM     93  S   UNL A   1      45.058  25.615  38.409  1.00  0.00     0.124 S 
ATOM     94  O   UNL A   1      46.378  25.526  39.028  1.00  0.00    -0.237 OA
ATOM     95  O   UNL A   1      44.062  26.366  39.168  1.00  0.00    -0.237 OA
ATOM     96  O   UNL A   1      44.579  24.383  37.789  1.00  0.00    -0.744 OA
ENDBRANCH  89  93
ENDBRANCH  63  86
ENDBRANCH  37  38
ENDBRANCH  30  32
ENDBRANCH  29  30
ENDBRANCH  28  29
ENDBRANCH  27  28
ENDBRANCH   1  27
TORSDOF 21
ENDMDL
MODEL 2
REMARK VINA RESULT:     -10.7      0.905      7.364
REMARK SMILES CC(C)CSc1cc2c(cc1Cl)C=C(C(=O)OCCOCCOC(=O)c1ccc(-c3c4nc(c(-c5cc(S(=O)(=O)[O-])ccc5F)c5ccc([nH]5)c(-c5cc(S(=O)(=O)[O-])ccc5F)c5nc(c(-c6cc(S(=O)(=O)[O-])ccc6F)c6ccc3[nH]6)C=C5)C=C4)cc1)[C@@H](C(F)(F)F)O2
REMARK SMILES IDX 20 1 19 2 18 3 17 4 15 5 16 6 14 7 6 8 7 9 11 10 8 11 10 12
REMARK SMILES IDX 12 13 9 14 94 15 13 16 89 17 5 18 4 19 2 20 1 21 3 22 90 23
REMARK SMILES IDX 91 24 92 25 93 26 21 27 22 28 23 29 24 30 25 31 26 32 27 33
REMARK SMILES IDX 88 34 28 35 87 36 29 37 30 38 31 39 81 40 32 41 86 42 80 43
REMARK SMILES IDX 82 44 33 45 85 46 79 47 78 48 34 50 66 51 46 52 65 53 47 54
REMARK SMILES IDX 50 55 64 56 83 57 48 58 49 59 63 61 84 62 51 63 35 64 36 65
REMARK SMILES IDX 44 66 37 67 43 68 45 69 42 70 38 71 39 72 40 73 41 74 67 75
REMARK SMILES IDX 68 76 76 77 69 78 75 79 77 80 74 81 70 82 71 83 72 84 73 85
REMARK SMILES IDX 52 86 53 87 61 88 54 89 60 90 62 91 59 92 55 93 56 94 57 95
REMARK SMILES IDX 58 96
REMARK H PARENT 82 49 50 60
REMARK Flexibility Score: inf
ROOT
ATOM      1  O   UNL A   1      33.568  31.148  27.919  1.00  0.00    -0.374 OA
ENDROOT
BRANCH   1   2
ATOM      2  C   UNL A   1      33.220  29.968  27.197  1.00  0.00     0.202 C 
BRANCH   2   3
ATOM      3  C   UNL A   1      31.802  29.879  26.624  1.00  0.00     0.261 C 
BRANCH   3   4
ATOM      4  O   UNL A   1      31.510  28.564  26.132  1.00  0.00    -0.460 OA
BRANCH   4   5
ATOM      5  C   UNL A   1      32.365  28.111  25.187  1.00  0.00     0.338 C 
ATOM      6  O   UNL A   1      32.935  28.771  24.333  1.00  0.00    -0.246 OA
BRANCH   5   7
ATOM      7  C   UNL A   1      32.640  26.679  25.421  1.00  0.00     0.087 C 
ATOM      8  C   UNL A   1      34.728  22.156  25.422  1.00  0.00     0.030 A 
ATOM      9  C   UNL A   1      33.462  22.634  25.783  1.00  0.00     0.063 A 
ATOM     10  C   UNL A   1      35.778  23.073  25.254  1.00  0.00     0.055 A 
ATOM     11  C   UNL A   1      33.204  24.003  25.795  1.00  0.00     0.129 A 
ATOM     12  C   UNL A   1      35.534  24.447  25.343  1.00  0.00     0.033 A 
ATOM     13  Cl  UNL A   1      37.396  22.579  24.891  1.00  0.00    -0.083 Cl
ATOM     14  C   UNL A   1      34.234  24.912  25.556  1.00  0.00     0.019 A 
ATOM     15  O   UNL A   1      31.907  24.375  26.010  1.00  0.00    -0.475 OA
ATOM     16  C   UNL A   1      33.932  26.327  25.461  1.00  0.00     0.027 C 
ATOM     17  C   UNL A   1      31.502  25.707  25.581  1.00  0.00     0.316 C 
BRANCH   8  18
ATOM     18  S   UNL A   1      34.872  20.404  25.102  1.00  0.00    -0.124 SA
BRANCH  18  19
ATOM     19  C   UNL A   1      33.126  19.879  25.382  1.00  0.00     0.078 C 
BRANCH  19  20
ATOM     20  C   UNL A   1      32.530  19.036  24.232  1.00  0.00    -0.007 C 
ATOM     21  C   UNL A   1      32.216  19.861  22.982  1.00  0.00     0.008 C 
ATOM     22  C   UNL A   1      33.514  17.934  23.816  1.00  0.00     0.008 C 
ENDBRANCH  19  20
ENDBRANCH  18  19
ENDBRANCH   8  18
BRANCH  17  23
ATOM     23  C   UNL A   1      30.650  25.612  24.305  1.00  0.00     0.430 C 
ATOM     24  F   UNL A   1      29.588  26.449  24.354  1.00  0.00    -0.167 F 
ATOM     25  F   UNL A   1      31.367  25.943  23.206  1.00  0.00    -0.167 F 
ATOM     26  F   UNL A   1      30.170  24.360  24.114  1.00  0.00    -0.167 F 
ENDBRANCH  17  23
ENDBRANCH   5   7
ENDBRANCH   4   5
ENDBRANCH   3   4
ENDBRANCH   2   3
ENDBRANCH   1   2
BRANCH   1  27
ATOM     27  C   UNL A   1      33.537  32.399  27.235  1.00  0.00     0.202 C 
BRANCH  27  28
ATOM     28  C   UNL A   1      32.493  33.444  27.653  1.00  0.00     0.261 C 
BRANCH  28  29
ATOM     29  O   UNL A   1      33.070  34.720  27.973  1.00  0.00    -0.460 OA
BRANCH  29  30
ATOM     30  C   UNL A   1      33.256  34.941  29.300  1.00  0.00     0.338 C 
ATOM     31  O   UNL A   1      32.534  35.586  30.044  1.00  0.00    -0.246 OA
BRANCH  30  32
ATOM     32  C   UNL A   1      34.369  34.100  29.778  1.00  0.00     0.060 A 
ATOM     33  C   UNL A   1      35.668  34.277  29.300  1.00  0.00     0.016 A 
ATOM     34  C   UNL A   1      34.096  33.135  30.756  1.00  0.00     0.016 A 
ATOM     35  C   UNL A   1      36.700  33.493  29.822  1.00  0.00     0.010 A 
ATOM     36  C   UNL A   1      35.129  32.353  31.276  1.00  0.00     0.010 A 
ATOM     37  C   UNL A   1      36.443  32.539  30.825  1.00  0.00    -0.014 A 
BRANCH  37  38
ATOM     38  C   UNL A   1      37.568  31.838  31.494  1.00  0.00     0.031 A 
ATOM     39  C   UNL A   1      38.297  30.708  30.831  1.00  0.00     0.074 A 
ATOM     40  C   UNL A   1      37.914  32.229  32.737  1.00  0.00     0.049 A 
ATOM     41  N   UNL A   1      39.346  30.052  31.256  1.00  0.00    -0.248 NA
ATOM     42  C   UNL A   1      37.785  30.247  29.533  1.00  0.00     0.031 C 
ATOM     43  C   UNL A   1      37.237  33.284  33.492  1.00  0.00     0.029 A 
ATOM     44  N   UNL A   1      38.909  31.801  33.579  1.00  0.00    -0.354 N 
ATOM     45  C   UNL A   1      39.634  29.113  30.274  1.00  0.00     0.074 A 
ATOM     46  C   UNL A   1      38.615  29.250  29.254  1.00  0.00     0.031 C 
ATOM     47  C   UNL A   1      37.858  33.445  34.669  1.00  0.00     0.029 A 
ATOM     48  C   UNL A   1      38.952  32.481  34.774  1.00  0.00     0.049 A 
ATOM     49  H   UNL A   1      39.534  31.076  33.348  1.00  0.00     0.167 HD
ATOM     50  C   UNL A   1      40.666  28.237  30.225  1.00  0.00     0.034 A 
ATOM     51  C   UNL A   1      39.775  32.350  35.835  1.00  0.00     0.034 A 
ATOM     52  C   UNL A   1      41.666  28.116  31.258  1.00  0.00     0.049 A 
ATOM     53  C   UNL A   1      40.901  31.350  35.763  1.00  0.00     0.074 A 
ATOM     54  C   UNL A   1      42.783  27.297  31.268  1.00  0.00     0.029 A 
ATOM     55  N   UNL A   1      41.675  28.811  32.458  1.00  0.00    -0.354 N 
ATOM     56  N   UNL A   1      41.234  30.555  34.773  1.00  0.00    -0.248 NA
ATOM     57  C   UNL A   1      41.775  31.236  36.939  1.00  0.00     0.031 C 
ATOM     58  C   UNL A   1      43.414  27.433  32.503  1.00  0.00     0.029 A 
ATOM     59  C   UNL A   1      42.754  28.409  33.231  1.00  0.00     0.049 A 
ATOM     60  H   UNL A   1      41.013  29.490  32.723  1.00  0.00     0.167 HD
ATOM     61  C   UNL A   1      42.372  29.871  35.195  1.00  0.00     0.074 A 
ATOM     62  C   UNL A   1      42.685  30.366  36.518  1.00  0.00     0.031 C 
ATOM     63  C   UNL A   1      43.084  28.918  34.543  1.00  0.00     0.034 A 
BRANCH  50  64
ATOM     64  C   UNL A   1      40.817  27.345  29.015  1.00  0.00     0.023 A 
ATOM     65  C   UNL A   1      41.764  27.662  28.021  1.00  0.00     0.031 A 
ATOM     66  C   UNL A   1      39.908  26.305  28.758  1.00  0.00     0.131 A 
ATOM     67  C   UNL A   1      41.742  26.984  26.796  1.00  0.00     0.055 A 
ATOM     68  C   UNL A   1      39.922  25.599  27.554  1.00  0.00     0.041 A 
ATOM     69  F   UNL A   1      38.981  25.969  29.669  1.00  0.00    -0.206 F 
ATOM     70  C   UNL A   1      40.831  25.950  26.560  1.00  0.00     0.022 A 
BRANCH  67  71
ATOM     71  S   UNL A   1      42.828  27.478  25.430  1.00  0.00     0.124 S 
ATOM     72  O   UNL A   1      42.060  28.556  24.812  1.00  0.00    -0.237 OA
ATOM     73  O   UNL A   1      44.035  27.898  26.137  1.00  0.00    -0.237 OA
ATOM     74  O   UNL A   1      42.954  26.267  24.626  1.00  0.00    -0.744 OA
ENDBRANCH  67  71
ENDBRANCH  50  64
BRANCH  51  75
ATOM     75  C   UNL A   1      39.590  33.245  37.015  1.00  0.00     0.023 A 
ATOM     76  C   UNL A   1      40.388  34.391  37.185  1.00  0.00     0.031 A 
ATOM     77  C   UNL A   1      38.687  32.914  38.040  1.00  0.00     0.131 A 
ATOM     78  C   UNL A   1      40.319  35.120  38.379  1.00  0.00     0.055 A 
ATOM     79  C   UNL A   1      38.564  33.690  39.194  1.00  0.00     0.041 A 
ATOM     80  F   UNL A   1      37.916  31.821  37.934  1.00  0.00    -0.206 F 
ATOM     81  C   UNL A   1      39.397  34.790  39.375  1.00  0.00     0.022 A 
BRANCH  78  82
ATOM     82  S   UNL A   1      41.522  36.430  38.737  1.00  0.00     0.124 S 
ATOM     83  O   UNL A   1      40.657  37.584  38.967  1.00  0.00    -0.237 OA
ATOM     84  O   UNL A   1      42.196  35.900  39.920  1.00  0.00    -0.237 OA
ATOM     85  O   UNL A   1      42.341  36.486  37.531  1.00  0.00    -0.744 OA
ENDBRANCH  78  82
ENDBRANCH  51  75
BRANCH  63  86
ATOM     86  C   UNL A   1      44.300  28.323  35.217  1.00  0.00     0.023 A 
ATOM     87  C   UNL A   1      44.139  27.333  36.208  1.00  0.00     0.031 A 
ATOM     88  C   UNL A   1      45.588  28.847  35.011  1.00  0.00     0.131 A 
ATOM     89  C   UNL A   1      45.232  26.943  36.992  1.00  0.00     0.055 A 
ATOM     90  C   UNL A   1      46.686  28.410  35.754  1.00  0.00     0.041 A 
ATOM     91  F   UNL A   1      45.797  29.802  34.090  1.00  0.00    -0.206 F 
ATOM     92  C   UNL A   1      46.507  27.468  36.763  1.00  0.00     0.022 A 
BRANCH  89  93
ATOM     93  S   UNL A   1      45.019  25.826  38.407  1.00  0.00     0.124 S 
ATOM     94  O   UNL A   1      43.849  26.397  39.070  1.00  0.00    -0.237 OA
ATOM     95  O   UNL A   1      44.800  24.540  37.752  1.00  0.00    -0.237 OA
ATOM     96  O   UNL A   1      46.272  25.950  39.145  1.00  0.00    -0.744 OA
ENDBRANCH  89  93
ENDBRANCH  63  86
ENDBRANCH  37  38
ENDBRANCH  30  32
ENDBRANCH  29  30
ENDBRANCH  28  29
ENDBRANCH  27  28
ENDBRANCH   1  27
TORSDOF 21
ENDMDL
MODEL 3
REMARK VINA RESULT:     -10.4      1.634      2.012
REMARK SMILES CC(C)CSc1cc2c(cc1Cl)C=C(C(=O)OCCOCCOC(=O)c1ccc(-c3c4nc(c(-c5cc(S(=O)(=O)[O-])ccc5F)c5ccc([nH]5)c(-c5cc(S(=O)(=O)[O-])ccc5F)c5nc(c(-c6cc(S(=O)(=O)[O-])ccc6F)c6ccc3[nH]6)C=C5)C=C4)cc1)[C@@H](C(F)(F)F)O2
REMARK SMILES IDX 20 1 19 2 18 3 17 4 15 5 16 6 14 7 6 8 7 9 11 10 8 11 10 12
REMARK SMILES IDX 12 13 9 14 94 15 13 16 89 17 5 18 4 19 2 20 1 21 3 22 90 23
REMARK SMILES IDX 91 24 92 25 93 26 21 27 22 28 23 29 24 30 25 31 26 32 27 33
REMARK SMILES IDX 88 34 28 35 87 36 29 37 30 38 31 39 81 40 32 41 86 42 80 43
REMARK SMILES IDX 82 44 33 45 85 46 79 47 78 48 34 50 66 51 46 52 65 53 47 54
REMARK SMILES IDX 50 55 64 56 83 57 48 58 49 59 63 61 84 62 51 63 35 64 36 65
REMARK SMILES IDX 44 66 37 67 43 68 45 69 42 70 38 71 39 72 40 73 41 74 67 75
REMARK SMILES IDX 68 76 76 77 69 78 75 79 77 80 74 81 70 82 71 83 72 84 73 85
REMARK SMILES IDX 52 86 53 87 61 88 54 89 60 90 62 91 59 92 55 93 56 94 57 95
REMARK SMILES IDX 58 96
REMARK H PARENT 82 49 50 60
REMARK Flexibility Score: inf
ROOT
ATOM      1  O   UNL A   1      34.592  30.769  28.019  1.00  0.00    -0.374 OA
ENDROOT
BRANCH   1   2
ATOM      2  C   UNL A   1      33.820  29.832  27.272  1.00  0.00     0.202 C 
BRANCH   2   3
ATOM      3  C   UNL A   1      32.418  30.259  26.829  1.00  0.00     0.261 C 
BRANCH   3   4
ATOM      4  O   UNL A   1      31.662  29.152  26.320  1.00  0.00    -0.460 OA
BRANCH   4   5
ATOM      5  C   UNL A   1      32.063  28.701  25.109  1.00  0.00     0.338 C 
ATOM      6  O   UNL A   1      32.562  29.356  24.208  1.00  0.00    -0.246 OA
BRANCH   5   7
ATOM      7  C   UNL A   1      31.944  27.230  25.070  1.00  0.00     0.087 C 
ATOM      8  C   UNL A   1      32.804  22.391  24.260  1.00  0.00     0.030 A 
ATOM      9  C   UNL A   1      31.676  23.115  24.668  1.00  0.00     0.063 A 
ATOM     10  C   UNL A   1      34.063  23.010  24.306  1.00  0.00     0.055 A 
ATOM     11  C   UNL A   1      31.775  24.478  24.936  1.00  0.00     0.129 A 
ATOM     12  C   UNL A   1      34.170  24.361  24.652  1.00  0.00     0.033 A 
ATOM     13  Cl  UNL A   1      35.526  22.177  23.905  1.00  0.00    -0.083 Cl
ATOM     14  C   UNL A   1      33.019  25.108  24.910  1.00  0.00     0.019 A 
ATOM     15  O   UNL A   1      30.603  25.136  25.178  1.00  0.00    -0.475 OA
ATOM     16  C   UNL A   1      33.096  26.546  25.081  1.00  0.00     0.027 C 
ATOM     17  C   UNL A   1      30.587  26.583  25.003  1.00  0.00     0.316 C 
BRANCH   8  18
ATOM     18  S   UNL A   1      32.523  20.749  23.612  1.00  0.00    -0.124 SA
BRANCH  18  19
ATOM     19  C   UNL A   1      33.408  19.744  24.880  1.00  0.00     0.078 C 
BRANCH  19  20
ATOM     20  C   UNL A   1      33.838  18.344  24.388  1.00  0.00    -0.007 C 
ATOM     21  C   UNL A   1      35.322  18.052  24.624  1.00  0.00     0.008 C 
ATOM     22  C   UNL A   1      33.037  17.257  25.118  1.00  0.00     0.008 C 
ENDBRANCH  19  20
ENDBRANCH  18  19
ENDBRANCH   8  18
BRANCH  17  23
ATOM     23  C   UNL A   1      29.846  26.947  23.707  1.00  0.00     0.430 C 
ATOM     24  F   UNL A   1      29.397  28.223  23.733  1.00  0.00    -0.167 F 
ATOM     25  F   UNL A   1      30.652  26.831  22.626  1.00  0.00    -0.167 F 
ATOM     26  F   UNL A   1      28.773  26.145  23.500  1.00  0.00    -0.167 F 
ENDBRANCH  17  23
ENDBRANCH   5   7
ENDBRANCH   4   5
ENDBRANCH   3   4
ENDBRANCH   2   3
ENDBRANCH   1   2
BRANCH   1  27
ATOM     27  C   UNL A   1      34.561  32.142  27.630  1.00  0.00     0.202 C 
BRANCH  27  28
ATOM     28  C   UNL A   1      33.377  33.010  28.077  1.00  0.00     0.261 C 
BRANCH  28  29
ATOM     29  O   UNL A   1      33.772  34.323  28.505  1.00  0.00    -0.460 OA
BRANCH  29  30
ATOM     30  C   UNL A   1      33.680  34.535  29.843  1.00  0.00     0.338 C 
ATOM     31  O   UNL A   1      32.716  34.971  30.452  1.00  0.00    -0.246 OA
BRANCH  30  32
ATOM     32  C   UNL A   1      34.864  33.956  30.506  1.00  0.00     0.060 A 
ATOM     33  C   UNL A   1      34.735  32.983  31.498  1.00  0.00     0.016 A 
ATOM     34  C   UNL A   1      36.131  34.386  30.090  1.00  0.00     0.016 A 
ATOM     35  C   UNL A   1      35.886  32.424  32.059  1.00  0.00     0.010 A 
ATOM     36  C   UNL A   1      37.279  33.826  30.653  1.00  0.00     0.010 A 
ATOM     37  C   UNL A   1      37.165  32.828  31.630  1.00  0.00    -0.014 A 
BRANCH  37  38
ATOM     38  C   UNL A   1      38.373  32.106  32.106  1.00  0.00     0.031 A 
ATOM     39  C   UNL A   1      39.045  32.463  33.397  1.00  0.00     0.074 A 
ATOM     40  C   UNL A   1      38.874  31.123  31.331  1.00  0.00     0.049 A 
ATOM     41  N   UNL A   1      40.057  31.876  33.980  1.00  0.00    -0.248 NA
ATOM     42  C   UNL A   1      38.525  33.630  34.126  1.00  0.00     0.031 C 
ATOM     43  C   UNL A   1      38.327  30.730  30.032  1.00  0.00     0.029 A 
ATOM     44  N   UNL A   1      39.938  30.277  31.516  1.00  0.00    -0.354 N 
ATOM     45  C   UNL A   1      40.289  32.584  35.153  1.00  0.00     0.074 A 
ATOM     46  C   UNL A   1      39.342  33.680  35.171  1.00  0.00     0.031 C 
ATOM     47  C   UNL A   1      39.035  29.698  29.554  1.00  0.00     0.029 A 
ATOM     48  C   UNL A   1      40.113  29.378  30.488  1.00  0.00     0.049 A 
ATOM     49  H   UNL A   1      40.521  30.310  32.308  1.00  0.00     0.167 HD
ATOM     50  C   UNL A   1      41.194  32.326  36.126  1.00  0.00     0.034 A 
ATOM     51  C   UNL A   1      41.032  28.406  30.314  1.00  0.00     0.034 A 
ATOM     52  C   UNL A   1      42.132  31.230  36.082  1.00  0.00     0.049 A 
ATOM     53  C   UNL A   1      42.042  28.156  31.404  1.00  0.00     0.074 A 
ATOM     54  C   UNL A   1      43.047  30.854  37.051  1.00  0.00     0.029 A 
ATOM     55  N   UNL A   1      42.289  30.345  35.025  1.00  0.00    -0.354 N 
ATOM     56  N   UNL A   1      42.168  28.756  32.564  1.00  0.00    -0.248 NA
ATOM     57  C   UNL A   1      43.027  27.088  31.176  1.00  0.00     0.031 C 
ATOM     58  C   UNL A   1      43.812  29.804  36.546  1.00  0.00     0.029 A 
ATOM     59  C   UNL A   1      43.314  29.453  35.302  1.00  0.00     0.049 A 
ATOM     60  H   UNL A   1      41.753  30.351  34.199  1.00  0.00     0.167 HD
ATOM     61  C   UNL A   1      43.222  28.120  33.215  1.00  0.00     0.074 A 
ATOM     62  C   UNL A   1      43.681  27.071  32.331  1.00  0.00     0.031 C 
ATOM     63  C   UNL A   1      43.760  28.389  34.432  1.00  0.00     0.034 A 
BRANCH  50  64
ATOM     64  C   UNL A   1      41.223  33.204  37.355  1.00  0.00     0.023 A 
ATOM     65  C   UNL A   1      40.491  32.835  38.501  1.00  0.00     0.031 A 
ATOM     66  C   UNL A   1      41.812  34.479  37.326  1.00  0.00     0.131 A 
ATOM     67  C   UNL A   1      40.320  33.753  39.545  1.00  0.00     0.055 A 
ATOM     68  C   UNL A   1      41.679  35.374  38.391  1.00  0.00     0.041 A 
ATOM     69  F   UNL A   1      42.513  34.883  36.255  1.00  0.00    -0.206 F 
ATOM     70  C   UNL A   1      40.915  35.018  39.498  1.00  0.00     0.022 A 
BRANCH  67  71
ATOM     71  S   UNL A   1      39.243  33.381  40.956  1.00  0.00     0.124 S 
ATOM     72  O   UNL A   1      40.084  33.768  42.085  1.00  0.00    -0.237 OA
ATOM     73  O   UNL A   1      38.098  34.252  40.703  1.00  0.00    -0.237 OA
ATOM     74  O   UNL A   1      38.988  31.950  40.835  1.00  0.00    -0.744 OA
ENDBRANCH  67  71
ENDBRANCH  50  64
BRANCH  51  75
ATOM     75  C   UNL A   1      40.975  27.563  29.084  1.00  0.00     0.023 A 
ATOM     76  C   UNL A   1      41.892  27.753  28.034  1.00  0.00     0.031 A 
ATOM     77  C   UNL A   1      39.944  26.627  28.895  1.00  0.00     0.131 A 
ATOM     78  C   UNL A   1      41.717  27.075  26.821  1.00  0.00     0.055 A 
ATOM     79  C   UNL A   1      39.820  25.893  27.714  1.00  0.00     0.041 A 
ATOM     80  F   UNL A   1      39.033  26.421  29.859  1.00  0.00    -0.206 F 
ATOM     81  C   UNL A   1      40.700  26.129  26.662  1.00  0.00     0.022 A 
BRANCH  78  82
ATOM     82  S   UNL A   1      42.713  27.502  25.366  1.00  0.00     0.124 S 
ATOM     83  O   UNL A   1      43.983  27.891  25.970  1.00  0.00    -0.237 OA
ATOM     84  O   UNL A   1      42.723  26.240  24.631  1.00  0.00    -0.237 OA
ATOM     85  O   UNL A   1      41.958  28.579  24.735  1.00  0.00    -0.744 OA
ENDBRANCH  78  82
ENDBRANCH  51  75
BRANCH  63  86
ATOM     86  C   UNL A   1      44.911  27.542  34.928  1.00  0.00     0.023 A 
ATOM     87  C   UNL A   1      44.668  26.493  35.839  1.00  0.00     0.031 A 
ATOM     88  C   UNL A   1      46.246  27.874  34.643  1.00  0.00     0.131 A 
ATOM     89  C   UNL A   1      45.741  25.856  36.474  1.00  0.00     0.055 A 
ATOM     90  C   UNL A   1      47.314  27.194  35.233  1.00  0.00     0.041 A 
ATOM     91  F   UNL A   1      46.535  28.873  33.794  1.00  0.00    -0.206 F 
ATOM     92  C   UNL A   1      47.063  26.193  36.168  1.00  0.00     0.022 A 
BRANCH  89  93
ATOM     93  S   UNL A   1      45.463  24.647  37.798  1.00  0.00     0.124 S 
ATOM     94  O   UNL A   1      45.804  23.390  37.137  1.00  0.00    -0.237 OA
ATOM     95  O   UNL A   1      46.406  25.091  38.822  1.00  0.00    -0.237 OA
ATOM     96  O   UNL A   1      44.051  24.810  38.132  1.00  0.00    -0.744 OA
ENDBRANCH  89  93
ENDBRANCH  63  86
ENDBRANCH  37  38
ENDBRANCH  30  32
ENDBRANCH  29  30
ENDBRANCH  28  29
ENDBRANCH  27  28
ENDBRANCH   1  27
TORSDOF 21
ENDMDL
