MODEL 1
REMARK VINA RESULT:     -10.8      0.000      0.000
REMARK SMILES C[C@H](NC(=O)OCc1ccccc1)C(=O)NCC(=O)N1CCC[C@H]1C(=O)OCCOCCOC(=O)c1ccc(-c2c3nc(c(-c4cc(S(=O)(=O)[O-])ccc4F)c4ccc([nH]4)c(-c4cc(S(=O)(=O)[O-])ccc4F)c4nc(c(-c5cc(S(=O)(=O)[O-])ccc5F)c5ccc2[nH]5)C=C4)C=C3)cc1
REMARK SMILES IDX 28 1 27 2 25 3 26 4 24 5 20 6 21 7 22 8 23 9 18 10 19 11
REMARK SMILES IDX 17 12 16 13 14 14 15 15 2 17 1 18 3 19 4 20 5 22 6 23 7 24
REMARK SMILES IDX 8 25 9 26 13 27 10 28 12 29 11 30 29 31 30 32 31 33 32 34
REMARK SMILES IDX 33 35 34 36 35 37 36 38 37 39 98 40 38 41 97 42 39 43 40 44
REMARK SMILES IDX 41 45 91 46 42 47 96 48 90 49 92 50 43 51 95 52 89 53 88 54
REMARK SMILES IDX 44 56 76 57 56 58 75 59 57 60 60 61 74 62 93 63 58 64 59 65
REMARK SMILES IDX 73 67 94 68 61 69 45 70 46 71 54 72 47 73 53 74 55 75 52 76
REMARK SMILES IDX 48 77 49 78 50 79 51 80 77 81 78 82 86 83 79 84 85 85 87 86
REMARK SMILES IDX 84 87 80 88 81 89 82 90 83 91 62 92 63 93 71 94 64 95 70 96
REMARK SMILES IDX 72 97 69 98 65 99 66 100 67 101 68 102
REMARK H PARENT 16 16 3 21 92 55 60 66
REMARK Flexibility Score: inf
ROOT
ATOM      1  C   UNL A   1      33.506  21.030  26.461  1.00  0.00     0.261 C 
ENDROOT
BRANCH   1   2
ATOM      2  O   UNL A   1      33.557  22.456  26.647  1.00  0.00    -0.462 OA
BRANCH   2   3
ATOM      3  C   UNL A   1      32.355  23.085  26.762  1.00  0.00     0.328 C 
ATOM      4  O   UNL A   1      31.673  23.047  27.778  1.00  0.00    -0.250 OA
BRANCH   3   5
ATOM      5  C   UNL A   1      32.016  23.926  25.502  1.00  0.00     0.195 C 
ATOM      6  N   UNL A   1      33.131  24.193  24.554  1.00  0.00    -0.327 N 
ATOM      7  C   UNL A   1      32.746  23.824  23.200  1.00  0.00     0.120 C 
ATOM      8  C   UNL A   1      31.229  23.823  23.224  1.00  0.00     0.024 C 
ATOM      9  C   UNL A   1      30.908  23.318  24.621  1.00  0.00     0.039 C 
BRANCH   6  10
ATOM     10  C   UNL A   1      34.213  24.935  24.957  1.00  0.00     0.242 C 
ATOM     11  O   UNL A   1      35.362  24.502  24.819  1.00  0.00    -0.273 OA
BRANCH  10  12
ATOM     12  C   UNL A   1      34.083  26.269  25.715  1.00  0.00     0.216 C 
BRANCH  12  13
ATOM     13  N   UNL A   1      33.937  27.568  25.094  1.00  0.00    -0.345 N 
ATOM     14  C   UNL A   1      32.907  28.462  25.155  1.00  0.00     0.242 C 
ATOM     15  O   UNL A   1      33.152  29.617  24.795  1.00  0.00    -0.273 OA
ATOM     16  H   UNL A   1      34.700  27.851  24.541  1.00  0.00     0.164 HD
BRANCH  14  17
ATOM     17  C   UNL A   1      31.531  28.115  25.770  1.00  0.00     0.171 C 
ATOM     18  C   UNL A   1      31.638  27.730  27.244  1.00  0.00     0.042 C 
BRANCH  17  19
ATOM     19  N   UNL A   1      30.782  27.092  25.046  1.00  0.00    -0.310 N 
ATOM     20  C   UNL A   1      29.736  27.314  24.202  1.00  0.00     0.408 C 
ATOM     21  H   UNL A   1      31.058  26.157  25.179  1.00  0.00     0.167 HD
ATOM     22  O   UNL A   1      29.009  26.380  23.864  1.00  0.00    -0.225 OA
BRANCH  20  23
ATOM     23  O   UNL A   1      29.579  28.604  23.836  1.00  0.00    -0.445 OA
BRANCH  23  24
ATOM     24  C   UNL A   1      29.228  28.840  22.463  1.00  0.00     0.270 C 
BRANCH  24  25
ATOM     25  C   UNL A   1      28.771  30.252  22.178  1.00  0.00    -0.011 A 
ATOM     26  C   UNL A   1      28.964  31.270  23.124  1.00  0.00     0.007 A 
ATOM     27  C   UNL A   1      28.208  30.591  20.938  1.00  0.00     0.007 A 
ATOM     28  C   UNL A   1      28.611  32.589  22.840  1.00  0.00     0.000 A 
ATOM     29  C   UNL A   1      27.864  31.915  20.650  1.00  0.00     0.000 A 
ATOM     30  C   UNL A   1      28.065  32.914  21.601  1.00  0.00     0.000 A 
ENDBRANCH  24  25
ENDBRANCH  23  24
ENDBRANCH  20  23
ENDBRANCH  17  19
ENDBRANCH  14  17
ENDBRANCH  12  13
ENDBRANCH  10  12
ENDBRANCH   6  10
ENDBRANCH   3   5
ENDBRANCH   2   3
ENDBRANCH   1   2
BRANCH   1  31
ATOM     31  C   UNL A   1      33.689  20.701  24.979  1.00  0.00     0.202 C 
BRANCH  31  32
ATOM     32  O   UNL A   1      34.957  21.064  24.421  1.00  0.00    -0.374 OA
BRANCH  32  33
ATOM     33  C   UNL A   1      36.124  20.541  25.053  1.00  0.00     0.202 C 
BRANCH  33  34
ATOM     34  C   UNL A   1      37.005  21.542  25.810  1.00  0.00     0.261 C 
BRANCH  34  35
ATOM     35  O   UNL A   1      38.304  21.694  25.215  1.00  0.00    -0.460 OA
BRANCH  35  36
ATOM     36  C   UNL A   1      39.332  21.469  26.074  1.00  0.00     0.338 C 
ATOM     37  O   UNL A   1      39.954  20.428  26.208  1.00  0.00    -0.246 OA
BRANCH  36  38
ATOM     38  C   UNL A   1      39.742  22.726  26.731  1.00  0.00     0.060 A 
ATOM     39  C   UNL A   1      39.186  23.912  26.234  1.00  0.00     0.016 A 
ATOM     40  C   UNL A   1      40.696  22.763  27.750  1.00  0.00     0.016 A 
ATOM     41  C   UNL A   1      39.630  25.143  26.708  1.00  0.00     0.010 A 
ATOM     42  C   UNL A   1      41.147  24.003  28.221  1.00  0.00     0.010 A 
ATOM     43  C   UNL A   1      40.647  25.196  27.670  1.00  0.00    -0.014 A 
BRANCH  43  44
ATOM     44  C   UNL A   1      41.311  26.495  27.937  1.00  0.00     0.031 A 
ATOM     45  C   UNL A   1      40.533  27.565  28.656  1.00  0.00     0.074 A 
ATOM     46  C   UNL A   1      42.600  26.694  27.611  1.00  0.00     0.049 A 
ATOM     47  N   UNL A   1      40.904  28.766  29.017  1.00  0.00    -0.248 NA
ATOM     48  C   UNL A   1      39.147  27.229  29.013  1.00  0.00     0.031 C 
ATOM     49  C   UNL A   1      43.469  25.712  26.965  1.00  0.00     0.029 A 
ATOM     50  N   UNL A   1      43.407  27.790  27.791  1.00  0.00    -0.354 N 
ATOM     51  C   UNL A   1      39.801  29.327  29.654  1.00  0.00     0.074 A 
ATOM     52  C   UNL A   1      38.734  28.352  29.578  1.00  0.00     0.031 C 
ATOM     53  C   UNL A   1      44.691  26.249  26.806  1.00  0.00     0.029 A 
ATOM     54  C   UNL A   1      44.683  27.621  27.310  1.00  0.00     0.049 A 
ATOM     55  H   UNL A   1      43.100  28.619  28.224  1.00  0.00     0.167 HD
ATOM     56  C   UNL A   1      39.693  30.535  30.260  1.00  0.00     0.034 A 
ATOM     57  C   UNL A   1      45.719  28.483  27.270  1.00  0.00     0.034 A 
ATOM     58  C   UNL A   1      40.759  31.506  30.304  1.00  0.00     0.049 A 
ATOM     59  C   UNL A   1      45.545  29.863  27.855  1.00  0.00     0.074 A 
ATOM     60  C   UNL A   1      40.759  32.769  30.872  1.00  0.00     0.029 A 
ATOM     61  N   UNL A   1      42.018  31.325  29.744  1.00  0.00    -0.354 N 
ATOM     62  N   UNL A   1      44.495  30.386  28.447  1.00  0.00    -0.248 NA
ATOM     63  C   UNL A   1      46.700  30.767  27.773  1.00  0.00     0.031 C 
ATOM     64  C   UNL A   1      41.992  33.373  30.600  1.00  0.00     0.029 A 
ATOM     65  C   UNL A   1      42.791  32.463  29.927  1.00  0.00     0.049 A 
ATOM     66  H   UNL A   1      42.318  30.509  29.283  1.00  0.00     0.167 HD
ATOM     67  C   UNL A   1      44.877  31.666  28.838  1.00  0.00     0.074 A 
ATOM     68  C   UNL A   1      46.255  31.833  28.421  1.00  0.00     0.031 C 
ATOM     69  C   UNL A   1      44.160  32.616  29.493  1.00  0.00     0.034 A 
BRANCH  56  70
ATOM     70  C   UNL A   1      38.353  30.877  30.868  1.00  0.00     0.023 A 
ATOM     71  C   UNL A   1      37.324  31.458  30.104  1.00  0.00     0.031 A 
ATOM     72  C   UNL A   1      38.122  30.682  32.240  1.00  0.00     0.131 A 
ATOM     73  C   UNL A   1      36.150  31.902  30.732  1.00  0.00     0.055 A 
ATOM     74  C   UNL A   1      36.918  31.049  32.844  1.00  0.00     0.041 A 
ATOM     75  F   UNL A   1      39.074  30.155  33.026  1.00  0.00    -0.206 F 
ATOM     76  C   UNL A   1      35.930  31.680  32.093  1.00  0.00     0.022 A 
BRANCH  73  77
ATOM     77  S   UNL A   1      34.991  32.923  29.780  1.00  0.00     0.124 S 
ATOM     78  O   UNL A   1      35.893  33.894  29.163  1.00  0.00    -0.237 OA
ATOM     79  O   UNL A   1      34.383  31.953  28.879  1.00  0.00    -0.237 OA
ATOM     80  O   UNL A   1      34.101  33.473  30.800  1.00  0.00    -0.744 OA
ENDBRANCH  73  77
ENDBRANCH  56  70
BRANCH  57  81
ATOM     81  C   UNL A   1      47.009  28.084  26.637  1.00  0.00     0.023 A 
ATOM     82  C   UNL A   1      47.165  28.080  25.243  1.00  0.00     0.031 A 
ATOM     83  C   UNL A   1      48.092  27.651  27.425  1.00  0.00     0.131 A 
ATOM     84  C   UNL A   1      48.361  27.616  24.674  1.00  0.00     0.055 A 
ATOM     85  C   UNL A   1      49.297  27.235  26.856  1.00  0.00     0.041 A 
ATOM     86  F   UNL A   1      47.995  27.635  28.763  1.00  0.00    -0.206 F 
ATOM     87  C   UNL A   1      49.433  27.205  25.471  1.00  0.00     0.022 A 
BRANCH  84  88
ATOM     88  S   UNL A   1      48.475  27.490  22.868  1.00  0.00     0.124 S 
ATOM     89  O   UNL A   1      47.337  28.297  22.442  1.00  0.00    -0.237 OA
ATOM     90  O   UNL A   1      49.795  28.053  22.608  1.00  0.00    -0.237 OA
ATOM     91  O   UNL A   1      48.351  26.055  22.620  1.00  0.00    -0.744 OA
ENDBRANCH  84  88
ENDBRANCH  57  81
BRANCH  69  92
ATOM     92  C   UNL A   1      44.877  33.898  29.839  1.00  0.00     0.023 A 
ATOM     93  C   UNL A   1      45.569  34.057  31.053  1.00  0.00     0.031 A 
ATOM     94  C   UNL A   1      44.855  34.981  28.942  1.00  0.00     0.131 A 
ATOM     95  C   UNL A   1      46.164  35.290  31.360  1.00  0.00     0.055 A 
ATOM     96  C   UNL A   1      45.497  36.186  29.228  1.00  0.00     0.041 A 
ATOM     97  F   UNL A   1      44.210  34.882  27.769  1.00  0.00    -0.206 F 
ATOM     98  C   UNL A   1      46.145  36.350  30.449  1.00  0.00     0.022 A 
BRANCH  95  99
ATOM     99  S   UNL A   1      46.891  35.521  33.006  1.00  0.00     0.124 S 
ATOM    100  O   UNL A   1      46.807  36.969  33.175  1.00  0.00    -0.237 OA
ATOM    101  O   UNL A   1      46.006  34.728  33.852  1.00  0.00    -0.237 OA
ATOM    102  O   UNL A   1      48.246  34.991  32.860  1.00  0.00    -0.744 OA
ENDBRANCH  95  99
ENDBRANCH  69  92
ENDBRANCH  43  44
ENDBRANCH  36  38
ENDBRANCH  35  36
ENDBRANCH  34  35
ENDBRANCH  33  34
ENDBRANCH  32  33
ENDBRANCH  31  32
ENDBRANCH   1  31
TORSDOF 25
ENDMDL
MODEL 2
REMARK VINA RESULT:     -10.8      1.922      2.161
REMARK SMILES C[C@H](NC(=O)OCc1ccccc1)C(=O)NCC(=O)N1CCC[C@H]1C(=O)OCCOCCOC(=O)c1ccc(-c2c3nc(c(-c4cc(S(=O)(=O)[O-])ccc4F)c4ccc([nH]4)c(-c4cc(S(=O)(=O)[O-])ccc4F)c4nc(c(-c5cc(S(=O)(=O)[O-])ccc5F)c5ccc2[nH]5)C=C4)C=C3)cc1
REMARK SMILES IDX 28 1 27 2 25 3 26 4 24 5 20 6 21 7 22 8 23 9 18 10 19 11
REMARK SMILES IDX 17 12 16 13 14 14 15 15 2 17 1 18 3 19 4 20 5 22 6 23 7 24
REMARK SMILES IDX 8 25 9 26 13 27 10 28 12 29 11 30 29 31 30 32 31 33 32 34
REMARK SMILES IDX 33 35 34 36 35 37 36 38 37 39 98 40 38 41 97 42 39 43 40 44
REMARK SMILES IDX 41 45 91 46 42 47 96 48 90 49 92 50 43 51 95 52 89 53 88 54
REMARK SMILES IDX 44 56 76 57 56 58 75 59 57 60 60 61 74 62 93 63 58 64 59 65
REMARK SMILES IDX 73 67 94 68 61 69 45 70 46 71 54 72 47 73 53 74 55 75 52 76
REMARK SMILES IDX 48 77 49 78 50 79 51 80 77 81 78 82 86 83 79 84 85 85 87 86
REMARK SMILES IDX 84 87 80 88 81 89 82 90 83 91 62 92 63 93 71 94 64 95 70 96
REMARK SMILES IDX 72 97 69 98 65 99 66 100 67 101 68 102
REMARK H PARENT 16 16 3 21 92 55 60 66
REMARK Flexibility Score: inf
ROOT
ATOM      1  C   UNL A   1      33.265  20.980  26.545  1.00  0.00     0.261 C 
ENDROOT
BRANCH   1   2
ATOM      2  O   UNL A   1      33.369  22.412  26.643  1.00  0.00    -0.462 OA
BRANCH   2   3
ATOM      3  C   UNL A   1      32.192  23.096  26.648  1.00  0.00     0.328 C 
ATOM      4  O   UNL A   1      31.434  23.118  27.608  1.00  0.00    -0.250 OA
BRANCH   3   5
ATOM      5  C   UNL A   1      31.990  23.915  25.344  1.00  0.00     0.195 C 
ATOM      6  N   UNL A   1      33.197  24.153  24.508  1.00  0.00    -0.327 N 
ATOM      7  C   UNL A   1      32.946  23.760  23.129  1.00  0.00     0.120 C 
ATOM      8  C   UNL A   1      31.435  23.773  23.001  1.00  0.00     0.024 C 
ATOM      9  C   UNL A   1      30.970  23.298  24.368  1.00  0.00     0.039 C 
BRANCH   6  10
ATOM     10  C   UNL A   1      34.241  24.894  25.002  1.00  0.00     0.242 C 
ATOM     11  O   UNL A   1      35.397  24.461  24.961  1.00  0.00    -0.273 OA
BRANCH  10  12
ATOM     12  C   UNL A   1      34.048  26.225  25.751  1.00  0.00     0.216 C 
BRANCH  12  13
ATOM     13  N   UNL A   1      33.965  27.527  25.125  1.00  0.00    -0.345 N 
ATOM     14  C   UNL A   1      32.955  28.445  25.131  1.00  0.00     0.242 C 
ATOM     15  O   UNL A   1      33.247  29.594  24.786  1.00  0.00    -0.273 OA
ATOM     16  H   UNL A   1      34.764  27.792  24.613  1.00  0.00     0.164 HD
BRANCH  14  17
ATOM     17  C   UNL A   1      31.541  28.132  25.671  1.00  0.00     0.171 C 
ATOM     18  C   UNL A   1      31.552  27.799  27.162  1.00  0.00     0.042 C 
BRANCH  17  19
ATOM     19  N   UNL A   1      30.828  27.089  24.939  1.00  0.00    -0.310 N 
ATOM     20  C   UNL A   1      29.767  27.279  24.106  1.00  0.00     0.408 C 
ATOM     21  H   UNL A   1      31.143  26.164  25.057  1.00  0.00     0.167 HD
ATOM     22  O   UNL A   1      29.076  26.320  23.760  1.00  0.00    -0.225 OA
BRANCH  20  23
ATOM     23  O   UNL A   1      29.556  28.567  23.758  1.00  0.00    -0.445 OA
BRANCH  23  24
ATOM     24  C   UNL A   1      28.881  28.789  22.509  1.00  0.00     0.270 C 
BRANCH  24  25
ATOM     25  C   UNL A   1      28.542  30.236  22.241  1.00  0.00    -0.011 A 
ATOM     26  C   UNL A   1      28.744  31.212  23.229  1.00  0.00     0.007 A 
ATOM     27  C   UNL A   1      28.087  30.648  20.979  1.00  0.00     0.007 A 
ATOM     28  C   UNL A   1      28.502  32.560  22.965  1.00  0.00     0.000 A 
ATOM     29  C   UNL A   1      27.854  32.001  20.712  1.00  0.00     0.000 A 
ATOM     30  C   UNL A   1      28.062  32.957  21.705  1.00  0.00     0.000 A 
ENDBRANCH  24  25
ENDBRANCH  23  24
ENDBRANCH  20  23
ENDBRANCH  17  19
ENDBRANCH  14  17
ENDBRANCH  12  13
ENDBRANCH  10  12
ENDBRANCH   6  10
ENDBRANCH   3   5
ENDBRANCH   2   3
ENDBRANCH   1   2
BRANCH   1  31
ATOM     31  C   UNL A   1      33.432  20.554  25.086  1.00  0.00     0.202 C 
BRANCH  31  32
ATOM     32  O   UNL A   1      34.658  20.958  24.465  1.00  0.00    -0.374 OA
BRANCH  32  33
ATOM     33  C   UNL A   1      35.868  20.418  24.993  1.00  0.00     0.202 C 
BRANCH  33  34
ATOM     34  C   UNL A   1      36.775  21.384  25.764  1.00  0.00     0.261 C 
BRANCH  34  35
ATOM     35  O   UNL A   1      38.086  21.491  25.186  1.00  0.00    -0.460 OA
BRANCH  35  36
ATOM     36  C   UNL A   1      39.095  21.219  26.054  1.00  0.00     0.338 C 
ATOM     37  O   UNL A   1      39.619  20.134  26.244  1.00  0.00    -0.246 OA
BRANCH  36  38
ATOM     38  C   UNL A   1      39.623  22.467  26.639  1.00  0.00     0.060 A 
ATOM     39  C   UNL A   1      39.133  23.671  26.117  1.00  0.00     0.016 A 
ATOM     40  C   UNL A   1      40.623  22.473  27.615  1.00  0.00     0.016 A 
ATOM     41  C   UNL A   1      39.686  24.883  26.519  1.00  0.00     0.010 A 
ATOM     42  C   UNL A   1      41.182  23.694  28.014  1.00  0.00     0.010 A 
ATOM     43  C   UNL A   1      40.746  24.898  27.434  1.00  0.00    -0.014 A 
BRANCH  43  44
ATOM     44  C   UNL A   1      41.514  26.154  27.618  1.00  0.00     0.031 A 
ATOM     45  C   UNL A   1      40.858  27.297  28.346  1.00  0.00     0.074 A 
ATOM     46  C   UNL A   1      42.792  26.251  27.210  1.00  0.00     0.049 A 
ATOM     47  N   UNL A   1      41.333  28.478  28.644  1.00  0.00    -0.248 NA
ATOM     48  C   UNL A   1      39.477  27.071  28.796  1.00  0.00     0.031 C 
ATOM     49  C   UNL A   1      43.549  25.191  26.546  1.00  0.00     0.029 A 
ATOM     50  N   UNL A   1      43.682  27.292  27.305  1.00  0.00    -0.354 N 
ATOM     51  C   UNL A   1      40.313  29.134  29.326  1.00  0.00     0.074 A 
ATOM     52  C   UNL A   1      39.178  28.236  29.347  1.00  0.00     0.031 C 
ATOM     53  C   UNL A   1      44.793  25.634  26.297  1.00  0.00     0.029 A 
ATOM     54  C   UNL A   1      44.911  27.018  26.754  1.00  0.00     0.049 A 
ATOM     55  H   UNL A   1      43.460  28.153  27.727  1.00  0.00     0.167 HD
ATOM     56  C   UNL A   1      40.326  30.365  29.898  1.00  0.00     0.034 A 
ATOM     57  C   UNL A   1      46.000  27.802  26.624  1.00  0.00     0.034 A 
ATOM     58  C   UNL A   1      41.458  31.258  29.846  1.00  0.00     0.049 A 
ATOM     59  C   UNL A   1      45.959  29.208  27.173  1.00  0.00     0.074 A 
ATOM     60  C   UNL A   1      41.580  32.534  30.370  1.00  0.00     0.029 A 
ATOM     61  N   UNL A   1      42.665  30.972  29.218  1.00  0.00    -0.354 N 
ATOM     62  N   UNL A   1      44.986  29.821  27.808  1.00  0.00    -0.248 NA
ATOM     63  C   UNL A   1      47.166  30.024  26.992  1.00  0.00     0.031 C 
ATOM     64  C   UNL A   1      42.833  33.040  30.006  1.00  0.00     0.029 A 
ATOM     65  C   UNL A   1      43.524  32.056  29.317  1.00  0.00     0.049 A 
ATOM     66  H   UNL A   1      42.878  30.123  28.768  1.00  0.00     0.167 HD
ATOM     67  C   UNL A   1      45.480  31.081  28.133  1.00  0.00     0.074 A 
ATOM     68  C   UNL A   1      46.837  31.138  27.629  1.00  0.00     0.031 C 
ATOM     69  C   UNL A   1      44.872  32.098  28.797  1.00  0.00     0.034 A 
BRANCH  56  70
ATOM     70  C   UNL A   1      39.054  30.819  30.572  1.00  0.00     0.023 A 
ATOM     71  C   UNL A   1      37.968  31.326  29.834  1.00  0.00     0.031 A 
ATOM     72  C   UNL A   1      38.946  30.807  31.973  1.00  0.00     0.131 A 
ATOM     73  C   UNL A   1      36.864  31.879  30.500  1.00  0.00     0.055 A 
ATOM     74  C   UNL A   1      37.808  31.282  32.628  1.00  0.00     0.041 A 
ATOM     75  F   UNL A   1      39.958  30.359  32.733  1.00  0.00    -0.206 F 
ATOM     76  C   UNL A   1      36.766  31.839  31.892  1.00  0.00     0.022 A 
BRANCH  73  77
ATOM     77  S   UNL A   1      35.640  32.802  29.530  1.00  0.00     0.124 S 
ATOM     78  O   UNL A   1      36.284  34.108  29.410  1.00  0.00    -0.237 OA
ATOM     79  O   UNL A   1      35.552  32.017  28.305  1.00  0.00    -0.237 OA
ATOM     80  O   UNL A   1      34.447  32.780  30.374  1.00  0.00    -0.744 OA
ENDBRANCH  73  77
ENDBRANCH  56  70
BRANCH  57  81
ATOM     81  C   UNL A   1      47.217  27.294  25.930  1.00  0.00     0.023 A 
ATOM     82  C   UNL A   1      48.220  26.606  26.629  1.00  0.00     0.031 A 
ATOM     83  C   UNL A   1      47.416  27.536  24.557  1.00  0.00     0.131 A 
ATOM     84  C   UNL A   1      49.394  26.216  25.966  1.00  0.00     0.055 A 
ATOM     85  C   UNL A   1      48.565  27.105  23.892  1.00  0.00     0.041 A 
ATOM     86  F   UNL A   1      46.488  28.190  23.842  1.00  0.00    -0.206 F 
ATOM     87  C   UNL A   1      49.568  26.450  24.599  1.00  0.00     0.022 A 
BRANCH  84  88
ATOM     88  S   UNL A   1      50.728  25.457  26.932  1.00  0.00     0.124 S 
ATOM     89  O   UNL A   1      50.002  24.461  27.712  1.00  0.00    -0.237 OA
ATOM     90  O   UNL A   1      51.604  24.940  25.886  1.00  0.00    -0.237 OA
ATOM     91  O   UNL A   1      51.271  26.576  27.699  1.00  0.00    -0.744 OA
ENDBRANCH  84  88
ENDBRANCH  57  81
BRANCH  69  92
ATOM     92  C   UNL A   1      45.696  33.336  29.057  1.00  0.00     0.023 A 
ATOM     93  C   UNL A   1      45.808  34.365  28.106  1.00  0.00     0.031 A 
ATOM     94  C   UNL A   1      46.387  33.478  30.274  1.00  0.00     0.131 A 
ATOM     95  C   UNL A   1      46.639  35.466  28.366  1.00  0.00     0.055 A 
ATOM     96  C   UNL A   1      47.167  34.602  30.549  1.00  0.00     0.041 A 
ATOM     97  F   UNL A   1      46.314  32.525  31.216  1.00  0.00    -0.206 F 
ATOM     98  C   UNL A   1      47.307  35.598  29.587  1.00  0.00     0.022 A 
BRANCH  95  99
ATOM     99  S   UNL A   1      46.906  36.686  27.050  1.00  0.00     0.124 S 
ATOM    100  O   UNL A   1      47.435  35.858  25.970  1.00  0.00    -0.237 OA
ATOM    101  O   UNL A   1      45.564  37.222  26.844  1.00  0.00    -0.237 OA
ATOM    102  O   UNL A   1      47.862  37.623  27.638  1.00  0.00    -0.744 OA
ENDBRANCH  95  99
ENDBRANCH  69  92
ENDBRANCH  43  44
ENDBRANCH  36  38
ENDBRANCH  35  36
ENDBRANCH  34  35
ENDBRANCH  33  34
ENDBRANCH  32  33
ENDBRANCH  31  32
ENDBRANCH   1  31
TORSDOF 25
ENDMDL
MODEL 3
REMARK VINA RESULT:      -8.9      3.868      6.959
REMARK SMILES C[C@H](NC(=O)OCc1ccccc1)C(=O)NCC(=O)N1CCC[C@H]1C(=O)OCCOCCOC(=O)c1ccc(-c2c3nc(c(-c4cc(S(=O)(=O)[O-])ccc4F)c4ccc([nH]4)c(-c4cc(S(=O)(=O)[O-])ccc4F)c4nc(c(-c5cc(S(=O)(=O)[O-])ccc5F)c5ccc2[nH]5)C=C4)C=C3)cc1
REMARK SMILES IDX 28 1 27 2 25 3 26 4 24 5 20 6 21 7 22 8 23 9 18 10 19 11
REMARK SMILES IDX 17 12 16 13 14 14 15 15 2 17 1 18 3 19 4 20 5 22 6 23 7 24
REMARK SMILES IDX 8 25 9 26 13 27 10 28 12 29 11 30 29 31 30 32 31 33 32 34
REMARK SMILES IDX 33 35 34 36 35 37 36 38 37 39 98 40 38 41 97 42 39 43 40 44
REMARK SMILES IDX 41 45 91 46 42 47 96 48 90 49 92 50 43 51 95 52 89 53 88 54
REMARK SMILES IDX 44 56 76 57 56 58 75 59 57 60 60 61 74 62 93 63 58 64 59 65
REMARK SMILES IDX 73 67 94 68 61 69 45 70 46 71 54 72 47 73 53 74 55 75 52 76
REMARK SMILES IDX 48 77 49 78 50 79 51 80 77 81 78 82 86 83 79 84 85 85 87 86
REMARK SMILES IDX 84 87 80 88 81 89 82 90 83 91 62 92 63 93 71 94 64 95 70 96
REMARK SMILES IDX 72 97 69 98 65 99 66 100 67 101 68 102
REMARK H PARENT 16 16 3 21 92 55 60 66
REMARK Flexibility Score: inf
ROOT
ATOM      1  C   UNL A   1      38.478  29.375  29.067  1.00  0.00     0.261 C 
ENDROOT
BRANCH   1   2
ATOM      2  O   UNL A   1      37.068  29.150  29.239  1.00  0.00    -0.462 OA
BRANCH   2   3
ATOM      3  C   UNL A   1      36.342  30.220  29.666  1.00  0.00     0.328 C 
ATOM      4  O   UNL A   1      36.012  30.384  30.833  1.00  0.00    -0.250 OA
BRANCH   3   5
ATOM      5  C   UNL A   1      36.083  31.240  28.524  1.00  0.00     0.195 C 
ATOM      6  N   UNL A   1      34.687  31.339  28.018  1.00  0.00    -0.327 N 
ATOM      7  C   UNL A   1      34.244  32.725  28.020  1.00  0.00     0.120 C 
ATOM      8  C   UNL A   1      35.527  33.533  28.026  1.00  0.00     0.024 C 
ATOM      9  C   UNL A   1      36.460  32.691  28.880  1.00  0.00     0.039 C 
BRANCH   6  10
ATOM     10  C   UNL A   1      34.099  30.260  27.407  1.00  0.00     0.242 C 
ATOM     11  O   UNL A   1      34.787  29.384  26.872  1.00  0.00    -0.273 OA
BRANCH  10  12
ATOM     12  C   UNL A   1      32.577  30.124  27.224  1.00  0.00     0.216 C 
BRANCH  12  13
ATOM     13  N   UNL A   1      31.810  28.927  27.495  1.00  0.00    -0.345 N 
ATOM     14  C   UNL A   1      31.439  27.911  26.662  1.00  0.00     0.242 C 
ATOM     15  O   UNL A   1      31.060  26.865  27.196  1.00  0.00    -0.273 OA
ATOM     16  H   UNL A   1      31.508  28.830  28.427  1.00  0.00     0.164 HD
BRANCH  14  17
ATOM     17  C   UNL A   1      31.607  27.983  25.126  1.00  0.00     0.171 C 
ATOM     18  C   UNL A   1      31.035  29.274  24.543  1.00  0.00     0.042 C 
BRANCH  17  19
ATOM     19  N   UNL A   1      31.072  26.834  24.402  1.00  0.00    -0.310 N 
ATOM     20  C   UNL A   1      31.782  25.990  23.603  1.00  0.00     0.408 C 
ATOM     21  H   UNL A   1      30.109  26.652  24.499  1.00  0.00     0.167 HD
ATOM     22  O   UNL A   1      31.194  25.232  22.832  1.00  0.00    -0.225 OA
BRANCH  20  23
ATOM     23  O   UNL A   1      33.122  26.105  23.724  1.00  0.00    -0.445 OA
BRANCH  23  24
ATOM     24  C   UNL A   1      33.913  25.148  23.002  1.00  0.00     0.270 C 
BRANCH  24  25
ATOM     25  C   UNL A   1      34.720  24.225  23.884  1.00  0.00    -0.011 A 
ATOM     26  C   UNL A   1      34.679  24.355  25.280  1.00  0.00     0.007 A 
ATOM     27  C   UNL A   1      35.471  23.175  23.334  1.00  0.00     0.007 A 
ATOM     28  C   UNL A   1      35.364  23.461  26.105  1.00  0.00     0.000 A 
ATOM     29  C   UNL A   1      36.149  22.274  24.160  1.00  0.00     0.000 A 
ATOM     30  C   UNL A   1      36.095  22.417  25.546  1.00  0.00     0.000 A 
ENDBRANCH  24  25
ENDBRANCH  23  24
ENDBRANCH  20  23
ENDBRANCH  17  19
ENDBRANCH  14  17
ENDBRANCH  12  13
ENDBRANCH  10  12
ENDBRANCH   6  10
ENDBRANCH   3   5
ENDBRANCH   2   3
ENDBRANCH   1   2
BRANCH   1  31
ATOM     31  C   UNL A   1      39.118  28.142  28.426  1.00  0.00     0.202 C 
BRANCH  31  32
ATOM     32  O   UNL A   1      39.225  26.994  29.276  1.00  0.00    -0.374 OA
BRANCH  32  33
ATOM     33  C   UNL A   1      39.820  25.823  28.721  1.00  0.00     0.202 C 
BRANCH  33  34
ATOM     34  C   UNL A   1      40.327  25.925  27.278  1.00  0.00     0.261 C 
BRANCH  34  35
ATOM     35  O   UNL A   1      41.679  25.461  27.132  1.00  0.00    -0.460 OA
BRANCH  35  36
ATOM     36  C   UNL A   1      42.327  25.985  26.059  1.00  0.00     0.338 C 
ATOM     37  O   UNL A   1      42.384  25.506  24.938  1.00  0.00    -0.246 OA
BRANCH  36  38
ATOM     38  C   UNL A   1      42.830  27.338  26.370  1.00  0.00     0.060 A 
ATOM     39  C   UNL A   1      43.865  27.430  27.309  1.00  0.00     0.016 A 
ATOM     40  C   UNL A   1      42.264  28.492  25.824  1.00  0.00     0.016 A 
ATOM     41  C   UNL A   1      44.294  28.677  27.756  1.00  0.00     0.010 A 
ATOM     42  C   UNL A   1      42.691  29.745  26.279  1.00  0.00     0.010 A 
ATOM     43  C   UNL A   1      43.676  29.840  27.279  1.00  0.00    -0.014 A 
BRANCH  43  44
ATOM     44  C   UNL A   1      43.930  31.123  27.979  1.00  0.00     0.031 A 
ATOM     45  C   UNL A   1      43.041  31.498  29.135  1.00  0.00     0.074 A 
ATOM     46  C   UNL A   1      44.972  31.903  27.641  1.00  0.00     0.049 A 
ATOM     47  N   UNL A   1      43.079  32.550  29.910  1.00  0.00    -0.248 NA
ATOM     48  C   UNL A   1      41.962  30.552  29.456  1.00  0.00     0.031 C 
ATOM     49  C   UNL A   1      45.933  31.613  26.578  1.00  0.00     0.029 A 
ATOM     50  N   UNL A   1      45.400  33.095  28.168  1.00  0.00    -0.354 N 
ATOM     51  C   UNL A   1      42.038  32.390  30.818  1.00  0.00     0.074 A 
ATOM     52  C   UNL A   1      41.355  31.165  30.459  1.00  0.00     0.031 C 
ATOM     53  C   UNL A   1      46.843  32.601  26.533  1.00  0.00     0.029 A 
ATOM     54  C   UNL A   1      46.512  33.607  27.542  1.00  0.00     0.049 A 
ATOM     55  H   UNL A   1      44.954  33.542  28.922  1.00  0.00     0.167 HD
ATOM     56  C   UNL A   1      41.692  33.181  31.864  1.00  0.00     0.034 A 
ATOM     57  C   UNL A   1      47.176  34.761  27.753  1.00  0.00     0.034 A 
ATOM     58  C   UNL A   1      42.367  34.412  32.192  1.00  0.00     0.049 A 
ATOM     59  C   UNL A   1      46.710  35.681  28.855  1.00  0.00     0.074 A 
ATOM     60  C   UNL A   1      42.094  35.305  33.214  1.00  0.00     0.029 A 
ATOM     61  N   UNL A   1      43.449  34.934  31.492  1.00  0.00    -0.354 N 
ATOM     62  N   UNL A   1      45.717  35.524  29.701  1.00  0.00    -0.248 NA
ATOM     63  C   UNL A   1      47.459  36.932  29.033  1.00  0.00     0.031 C 
ATOM     64  C   UNL A   1      42.966  36.393  33.093  1.00  0.00     0.029 A 
ATOM     65  C   UNL A   1      43.834  36.148  32.041  1.00  0.00     0.049 A 
ATOM     66  H   UNL A   1      43.878  34.505  30.717  1.00  0.00     0.167 HD
ATOM     67  C   UNL A   1      45.748  36.639  30.534  1.00  0.00     0.074 A 
ATOM     68  C   UNL A   1      46.859  37.457  30.091  1.00  0.00     0.031 C 
ATOM     69  C   UNL A   1      44.939  36.956  31.578  1.00  0.00     0.034 A 
BRANCH  56  70
ATOM     70  C   UNL A   1      40.496  32.751  32.680  1.00  0.00     0.023 A 
ATOM     71  C   UNL A   1      40.643  32.066  33.900  1.00  0.00     0.031 A 
ATOM     72  C   UNL A   1      39.192  32.970  32.204  1.00  0.00     0.131 A 
ATOM     73  C   UNL A   1      39.516  31.548  34.554  1.00  0.00     0.055 A 
ATOM     74  C   UNL A   1      38.068  32.526  32.903  1.00  0.00     0.041 A 
ATOM     75  F   UNL A   1      38.987  33.596  31.034  1.00  0.00    -0.206 F 
ATOM     76  C   UNL A   1      38.227  31.794  34.077  1.00  0.00     0.022 A 
BRANCH  73  77
ATOM     77  S   UNL A   1      39.767  30.407  35.943  1.00  0.00     0.124 S 
ATOM     78  O   UNL A   1      40.340  29.245  35.268  1.00  0.00    -0.237 OA
ATOM     79  O   UNL A   1      40.670  31.156  36.807  1.00  0.00    -0.237 OA
ATOM     80  O   UNL A   1      38.419  30.208  36.471  1.00  0.00    -0.744 OA
ENDBRANCH  73  77
ENDBRANCH  56  70
BRANCH  57  81
ATOM     81  C   UNL A   1      48.338  35.131  26.896  1.00  0.00     0.023 A 
ATOM     82  C   UNL A   1      49.629  34.659  27.177  1.00  0.00     0.031 A 
ATOM     83  C   UNL A   1      48.178  36.007  25.806  1.00  0.00     0.131 A 
ATOM     84  C   UNL A   1      50.717  35.094  26.404  1.00  0.00     0.055 A 
ATOM     85  C   UNL A   1      49.256  36.400  25.012  1.00  0.00     0.041 A 
ATOM     86  F   UNL A   1      46.964  36.487  25.494  1.00  0.00    -0.206 F 
ATOM     87  C   UNL A   1      50.538  35.952  25.316  1.00  0.00     0.022 A 
BRANCH  84  88
ATOM     88  S   UNL A   1      52.388  34.578  26.886  1.00  0.00     0.124 S 
ATOM     89  O   UNL A   1      52.124  33.320  27.575  1.00  0.00    -0.237 OA
ATOM     90  O   UNL A   1      53.057  34.474  25.593  1.00  0.00    -0.237 OA
ATOM     91  O   UNL A   1      52.849  35.672  27.738  1.00  0.00    -0.744 OA
ENDBRANCH  84  88
ENDBRANCH  57  81
BRANCH  69  92
ATOM     92  C   UNL A   1      45.265  38.218  32.339  1.00  0.00     0.023 A 
ATOM     93  C   UNL A   1      44.635  39.441  32.051  1.00  0.00     0.031 A 
ATOM     94  C   UNL A   1      46.231  38.194  33.361  1.00  0.00     0.131 A 
ATOM     95  C   UNL A   1      45.018  40.602  32.741  1.00  0.00     0.055 A 
ATOM     96  C   UNL A   1      46.567  39.340  34.081  1.00  0.00     0.041 A 
ATOM     97  F   UNL A   1      46.862  37.052  33.676  1.00  0.00    -0.206 F 
ATOM     98  C   UNL A   1      45.969  40.556  33.763  1.00  0.00     0.022 A 
BRANCH  95  99
ATOM     99  S   UNL A   1      44.318  42.195  32.223  1.00  0.00     0.124 S 
ATOM    100  O   UNL A   1      45.283  42.639  31.222  1.00  0.00    -0.237 OA
ATOM    101  O   UNL A   1      43.005  41.809  31.717  1.00  0.00    -0.237 OA
ATOM    102  O   UNL A   1      44.300  42.979  33.457  1.00  0.00    -0.744 OA
ENDBRANCH  95  99
ENDBRANCH  69  92
ENDBRANCH  43  44
ENDBRANCH  36  38
ENDBRANCH  35  36
ENDBRANCH  34  35
ENDBRANCH  33  34
ENDBRANCH  32  33
ENDBRANCH  31  32
ENDBRANCH   1  31
TORSDOF 25
ENDMDL
