MODEL 1
REMARK VINA RESULT:     -11.7      0.000      0.000
REMARK SMILES CC(=O)Nc1cccc(-c2ccc(F)c(C(=O)OCCOCCOC(=O)c3ccc(-c4c5nc(c(-c6cc(S(=O)(=O)[O-])ccc6F)c6ccc([nH]6)c(-c6cc(S(=O)(=O)[O-])ccc6F)c6nc(c(-c7cc(S(=O)(=O)[O-])ccc7F)c7ccc4[nH]7)C=C6)C=C5)cc3)c2)c1
REMARK SMILES IDX 22 1 21 2 20 3 19 4 18 5 16 6 17 7 15 8 10 9 11 10 90 11
REMARK SMILES IDX 12 12 13 13 14 14 9 15 5 16 6 17 91 18 7 19 8 20 4 21 1 22
REMARK SMILES IDX 2 23 3 24 23 26 24 27 25 28 26 29 27 30 28 31 89 32 29 33
REMARK SMILES IDX 88 34 30 35 31 36 32 37 82 38 33 39 87 40 81 41 83 42 34 43
REMARK SMILES IDX 86 44 80 45 79 46 35 48 67 49 47 50 66 51 48 52 51 53 65 54
REMARK SMILES IDX 84 55 49 56 50 57 64 59 85 60 52 61 36 62 37 63 45 64 38 65
REMARK SMILES IDX 44 66 46 67 43 68 39 69 40 70 41 71 42 72 68 73 69 74 77 75
REMARK SMILES IDX 70 76 76 77 78 78 75 79 71 80 72 81 73 82 74 83 53 84 54 85
REMARK SMILES IDX 62 86 55 87 61 88 63 89 60 90 56 91 57 92 58 93 59 94
REMARK H PARENT 4 25 83 47 51 58
REMARK Flexibility Score: inf
ROOT
ATOM      1  C   UNL A   1      31.412  31.815  26.436  1.00  0.00     0.202 C 
ENDROOT
BRANCH   1   2
ATOM      2  O   UNL A   1      32.139  30.658  26.847  1.00  0.00    -0.374 OA
BRANCH   2   3
ATOM      3  C   UNL A   1      32.598  29.764  25.832  1.00  0.00     0.202 C 
BRANCH   3   4
ATOM      4  C   UNL A   1      32.916  28.329  26.265  1.00  0.00     0.261 C 
BRANCH   4   5
ATOM      5  O   UNL A   1      32.386  27.378  25.327  1.00  0.00    -0.460 OA
BRANCH   5   6
ATOM      6  C   UNL A   1      31.513  26.474  25.838  1.00  0.00     0.341 C 
ATOM      7  O   UNL A   1      30.756  26.635  26.779  1.00  0.00    -0.246 OA
BRANCH   6   8
ATOM      8  C   UNL A   1      31.523  25.268  24.986  1.00  0.00     0.096 A 
ATOM      9  C   UNL A   1      32.507  23.137  24.298  1.00  0.00    -0.017 A 
ATOM     10  C   UNL A   1      31.478  23.003  23.351  1.00  0.00     0.012 A 
ATOM     11  C   UNL A   1      32.530  24.299  25.096  1.00  0.00     0.027 A 
ATOM     12  C   UNL A   1      30.494  23.987  23.215  1.00  0.00     0.041 A 
ATOM     13  C   UNL A   1      30.518  25.107  24.039  1.00  0.00     0.137 A 
ATOM     14  F   UNL A   1      29.574  26.042  23.861  1.00  0.00    -0.206 F 
BRANCH   9  15
ATOM     15  C   UNL A   1      33.497  22.066  24.507  1.00  0.00    -0.016 A 
ATOM     16  C   UNL A   1      33.949  19.721  25.058  1.00  0.00     0.041 A 
ATOM     17  C   UNL A   1      35.318  19.970  24.977  1.00  0.00     0.026 A 
ATOM     18  C   UNL A   1      33.059  20.774  24.852  1.00  0.00     0.034 A 
ATOM     19  C   UNL A   1      35.780  21.236  24.611  1.00  0.00     0.003 A 
ATOM     20  C   UNL A   1      34.876  22.274  24.369  1.00  0.00     0.009 A 
BRANCH  16  21
ATOM     21  N   UNL A   1      33.527  18.426  25.400  1.00  0.00    -0.326 N 
ATOM     22  C   UNL A   1      33.629  17.336  23.160  1.00  0.00     0.114 C 
ATOM     23  C   UNL A   1      33.221  17.352  24.610  1.00  0.00     0.221 C 
ATOM     24  O   UNL A   1      32.683  16.366  25.118  1.00  0.00    -0.275 OA
ATOM     25  H   UNL A   1      33.437  18.265  26.367  1.00  0.00     0.169 HD
ENDBRANCH  16  21
ENDBRANCH   9  15
ENDBRANCH   6   8
ENDBRANCH   5   6
ENDBRANCH   4   5
ENDBRANCH   3   4
ENDBRANCH   2   3
ENDBRANCH   1   2
BRANCH   1  26
ATOM     26  C   UNL A   1      31.912  33.186  26.907  1.00  0.00     0.261 C 
BRANCH  26  27
ATOM     27  O   UNL A   1      32.531  33.149  28.203  1.00  0.00    -0.460 OA
BRANCH  27  28
ATOM     28  C   UNL A   1      33.600  33.978  28.322  1.00  0.00     0.338 C 
ATOM     29  O   UNL A   1      33.571  35.190  28.454  1.00  0.00    -0.246 OA
BRANCH  28  30
ATOM     30  C   UNL A   1      34.846  33.200  28.449  1.00  0.00     0.060 A 
ATOM     31  C   UNL A   1      34.724  31.855  28.821  1.00  0.00     0.016 A 
ATOM     32  C   UNL A   1      36.106  33.788  28.320  1.00  0.00     0.016 A 
ATOM     33  C   UNL A   1      35.858  31.115  29.147  1.00  0.00     0.010 A 
ATOM     34  C   UNL A   1      37.245  33.043  28.651  1.00  0.00     0.010 A 
ATOM     35  C   UNL A   1      37.120  31.721  29.117  1.00  0.00    -0.014 A 
BRANCH  35  36
ATOM     36  C   UNL A   1      38.264  31.035  29.773  1.00  0.00     0.031 A 
ATOM     37  C   UNL A   1      38.593  31.389  31.201  1.00  0.00     0.074 A 
ATOM     38  C   UNL A   1      38.946  30.063  29.141  1.00  0.00     0.049 A 
ATOM     39  N   UNL A   1      39.550  30.942  31.971  1.00  0.00    -0.248 NA
ATOM     40  C   UNL A   1      37.723  32.388  31.844  1.00  0.00     0.031 C 
ATOM     41  C   UNL A   1      38.678  29.588  27.784  1.00  0.00     0.029 A 
ATOM     42  N   UNL A   1      40.003  29.294  29.563  1.00  0.00    -0.354 N 
ATOM     43  C   UNL A   1      39.398  31.599  33.188  1.00  0.00     0.074 A 
ATOM     44  C   UNL A   1      38.288  32.515  33.035  1.00  0.00     0.031 C 
ATOM     45  C   UNL A   1      39.548  28.607  27.486  1.00  0.00     0.029 A 
ATOM     46  C   UNL A   1      40.459  28.411  28.612  1.00  0.00     0.049 A 
ATOM     47  H   UNL A   1      40.396  29.368  30.463  1.00  0.00     0.167 HD
ATOM     48  C   UNL A   1      40.105  31.441  34.334  1.00  0.00     0.034 A 
ATOM     49  C   UNL A   1      41.503  27.559  28.644  1.00  0.00     0.034 A 
ATOM     50  C   UNL A   1      41.213  30.528  34.473  1.00  0.00     0.049 A 
ATOM     51  C   UNL A   1      42.338  27.474  29.903  1.00  0.00     0.074 A 
ATOM     52  C   UNL A   1      42.013  30.304  35.581  1.00  0.00     0.029 A 
ATOM     53  N   UNL A   1      41.678  29.685  33.473  1.00  0.00    -0.354 N 
ATOM     54  N   UNL A   1      42.192  28.114  31.042  1.00  0.00    -0.248 NA
ATOM     55  C   UNL A   1      43.468  26.536  29.886  1.00  0.00     0.031 C 
ATOM     56  C   UNL A   1      43.001  29.377  35.230  1.00  0.00     0.029 A 
ATOM     57  C   UNL A   1      42.765  28.956  33.932  1.00  0.00     0.049 A 
ATOM     58  H   UNL A   1      41.293  29.615  32.570  1.00  0.00     0.167 HD
ATOM     59  C   UNL A   1      43.182  27.615  31.887  1.00  0.00     0.074 A 
ATOM     60  C   UNL A   1      43.903  26.612  31.133  1.00  0.00     0.031 C 
ATOM     61  C   UNL A   1      43.471  27.951  33.172  1.00  0.00     0.034 A 
BRANCH  48  62
ATOM     62  C   UNL A   1      39.722  32.303  35.513  1.00  0.00     0.023 A 
ATOM     63  C   UNL A   1      38.836  31.848  36.505  1.00  0.00     0.031 A 
ATOM     64  C   UNL A   1      40.240  33.605  35.641  1.00  0.00     0.131 A 
ATOM     65  C   UNL A   1      38.449  32.707  37.547  1.00  0.00     0.055 A 
ATOM     66  C   UNL A   1      39.914  34.424  36.722  1.00  0.00     0.041 A 
ATOM     67  F   UNL A   1      41.069  34.103  34.711  1.00  0.00    -0.206 F 
ATOM     68  C   UNL A   1      39.004  33.982  37.677  1.00  0.00     0.022 A 
BRANCH  65  69
ATOM     69  S   UNL A   1      37.116  32.179  38.657  1.00  0.00     0.124 S 
ATOM     70  O   UNL A   1      35.976  32.916  38.118  1.00  0.00    -0.237 OA
ATOM     71  O   UNL A   1      37.094  30.735  38.463  1.00  0.00    -0.237 OA
ATOM     72  O   UNL A   1      37.570  32.626  39.973  1.00  0.00    -0.744 OA
ENDBRANCH  65  69
ENDBRANCH  48  62
BRANCH  49  73
ATOM     73  C   UNL A   1      41.861  26.734  27.451  1.00  0.00     0.023 A 
ATOM     74  C   UNL A   1      41.505  25.378  27.375  1.00  0.00     0.031 A 
ATOM     75  C   UNL A   1      42.658  27.261  26.418  1.00  0.00     0.131 A 
ATOM     76  C   UNL A   1      42.008  24.578  26.337  1.00  0.00     0.055 A 
ATOM     77  C   UNL A   1      43.096  26.478  25.350  1.00  0.00     0.041 A 
ATOM     78  F   UNL A   1      43.033  28.550  26.441  1.00  0.00    -0.206 F 
ATOM     79  C   UNL A   1      42.790  25.121  25.317  1.00  0.00     0.022 A 
BRANCH  76  80
ATOM     80  S   UNL A   1      41.744  22.784  26.422  1.00  0.00     0.124 S 
ATOM     81  O   UNL A   1      40.291  22.704  26.511  1.00  0.00    -0.237 OA
ATOM     82  O   UNL A   1      42.337  22.333  25.168  1.00  0.00    -0.237 OA
ATOM     83  O   UNL A   1      42.468  22.391  27.629  1.00  0.00    -0.744 OA
ENDBRANCH  76  80
ENDBRANCH  49  73
BRANCH  61  84
ATOM     84  C   UNL A   1      44.565  27.168  33.859  1.00  0.00     0.023 A 
ATOM     85  C   UNL A   1      44.299  25.990  34.579  1.00  0.00     0.031 A 
ATOM     86  C   UNL A   1      45.893  27.631  33.822  1.00  0.00     0.131 A 
ATOM     87  C   UNL A   1      45.328  25.362  35.298  1.00  0.00     0.055 A 
ATOM     88  C   UNL A   1      46.927  26.960  34.478  1.00  0.00     0.041 A 
ATOM     89  F   UNL A   1      46.210  28.750  33.151  1.00  0.00    -0.206 F 
ATOM     90  C   UNL A   1      46.643  25.829  35.237  1.00  0.00     0.022 A 
BRANCH  87  91
ATOM     91  S   UNL A   1      44.899  24.002  36.421  1.00  0.00     0.124 S 
ATOM     92  O   UNL A   1      44.162  24.696  37.471  1.00  0.00    -0.237 OA
ATOM     93  O   UNL A   1      44.111  23.126  35.560  1.00  0.00    -0.237 OA
ATOM     94  O   UNL A   1      46.199  23.467  36.824  1.00  0.00    -0.744 OA
ENDBRANCH  87  91
ENDBRANCH  61  84
ENDBRANCH  35  36
ENDBRANCH  28  30
ENDBRANCH  27  28
ENDBRANCH  26  27
ENDBRANCH   1  26
TORSDOF 19
ENDMDL
MODEL 2
REMARK VINA RESULT:     -11.6      5.174      8.588
REMARK SMILES CC(=O)Nc1cccc(-c2ccc(F)c(C(=O)OCCOCCOC(=O)c3ccc(-c4c5nc(c(-c6cc(S(=O)(=O)[O-])ccc6F)c6ccc([nH]6)c(-c6cc(S(=O)(=O)[O-])ccc6F)c6nc(c(-c7cc(S(=O)(=O)[O-])ccc7F)c7ccc4[nH]7)C=C6)C=C5)cc3)c2)c1
REMARK SMILES IDX 22 1 21 2 20 3 19 4 18 5 16 6 17 7 15 8 10 9 11 10 90 11
REMARK SMILES IDX 12 12 13 13 14 14 9 15 5 16 6 17 91 18 7 19 8 20 4 21 1 22
REMARK SMILES IDX 2 23 3 24 23 26 24 27 25 28 26 29 27 30 28 31 89 32 29 33
REMARK SMILES IDX 88 34 30 35 31 36 32 37 82 38 33 39 87 40 81 41 83 42 34 43
REMARK SMILES IDX 86 44 80 45 79 46 35 48 67 49 47 50 66 51 48 52 51 53 65 54
REMARK SMILES IDX 84 55 49 56 50 57 64 59 85 60 52 61 36 62 37 63 45 64 38 65
REMARK SMILES IDX 44 66 46 67 43 68 39 69 40 70 41 71 42 72 68 73 69 74 77 75
REMARK SMILES IDX 70 76 76 77 78 78 75 79 71 80 72 81 73 82 74 83 53 84 54 85
REMARK SMILES IDX 62 86 55 87 61 88 63 89 60 90 56 91 57 92 58 93 59 94
REMARK H PARENT 4 25 83 47 51 58
REMARK Flexibility Score: inf
ROOT
ATOM      1  C   UNL A   1      35.488  20.406  25.026  1.00  0.00     0.202 C 
ENDROOT
BRANCH   1   2
ATOM      2  O   UNL A   1      35.171  21.193  26.173  1.00  0.00    -0.374 OA
BRANCH   2   3
ATOM      3  C   UNL A   1      34.788  22.553  25.962  1.00  0.00     0.202 C 
BRANCH   3   4
ATOM      4  C   UNL A   1      33.666  23.102  26.850  1.00  0.00     0.261 C 
BRANCH   4   5
ATOM      5  O   UNL A   1      32.465  22.328  26.700  1.00  0.00    -0.460 OA
BRANCH   5   6
ATOM      6  C   UNL A   1      31.307  23.032  26.719  1.00  0.00     0.341 C 
ATOM      7  O   UNL A   1      30.485  23.070  27.619  1.00  0.00    -0.246 OA
BRANCH   6   8
ATOM      8  C   UNL A   1      31.237  23.870  25.506  1.00  0.00     0.096 A 
ATOM      9  C   UNL A   1      31.034  26.049  24.413  1.00  0.00    -0.017 A 
ATOM     10  C   UNL A   1      31.123  25.400  23.170  1.00  0.00     0.012 A 
ATOM     11  C   UNL A   1      31.067  25.259  25.580  1.00  0.00     0.027 A 
ATOM     12  C   UNL A   1      31.256  24.010  23.094  1.00  0.00     0.041 A 
ATOM     13  C   UNL A   1      31.321  23.256  24.260  1.00  0.00     0.137 A 
ATOM     14  F   UNL A   1      31.421  21.924  24.148  1.00  0.00    -0.206 F 
BRANCH   9  15
ATOM     15  C   UNL A   1      30.981  27.519  24.505  1.00  0.00    -0.016 A 
ATOM     16  C   UNL A   1      30.296  29.649  23.504  1.00  0.00     0.041 A 
ATOM     17  C   UNL A   1      30.880  30.332  24.570  1.00  0.00     0.026 A 
ATOM     18  C   UNL A   1      30.380  28.258  23.470  1.00  0.00     0.034 A 
ATOM     19  C   UNL A   1      31.462  29.623  25.624  1.00  0.00     0.003 A 
ATOM     20  C   UNL A   1      31.503  28.227  25.597  1.00  0.00     0.009 A 
BRANCH  16  21
ATOM     21  N   UNL A   1      29.697  30.400  22.481  1.00  0.00    -0.326 N 
ATOM     22  C   UNL A   1      27.623  31.141  23.651  1.00  0.00     0.114 C 
ATOM     23  C   UNL A   1      28.457  30.974  22.407  1.00  0.00     0.221 C 
ATOM     24  O   UNL A   1      28.066  31.425  21.328  1.00  0.00    -0.275 OA
ATOM     25  H   UNL A   1      30.261  30.536  21.687  1.00  0.00     0.169 HD
ENDBRANCH  16  21
ENDBRANCH   9  15
ENDBRANCH   6   8
ENDBRANCH   5   6
ENDBRANCH   4   5
ENDBRANCH   3   4
ENDBRANCH   2   3
ENDBRANCH   1   2
BRANCH   1  26
ATOM     26  C   UNL A   1      36.960  20.060  24.773  1.00  0.00     0.261 C 
BRANCH  26  27
ATOM     27  O   UNL A   1      37.850  21.162  25.013  1.00  0.00    -0.460 OA
BRANCH  27  28
ATOM     28  C   UNL A   1      38.913  20.846  25.796  1.00  0.00     0.338 C 
ATOM     29  O   UNL A   1      39.503  19.779  25.828  1.00  0.00    -0.246 OA
BRANCH  28  30
ATOM     30  C   UNL A   1      39.404  22.040  26.509  1.00  0.00     0.060 A 
ATOM     31  C   UNL A   1      38.828  23.270  26.167  1.00  0.00     0.016 A 
ATOM     32  C   UNL A   1      40.473  21.982  27.407  1.00  0.00     0.016 A 
ATOM     33  C   UNL A   1      39.372  24.455  26.655  1.00  0.00     0.010 A 
ATOM     34  C   UNL A   1      41.019  23.175  27.895  1.00  0.00     0.010 A 
ATOM     35  C   UNL A   1      40.504  24.418  27.478  1.00  0.00    -0.014 A 
BRANCH  35  36
ATOM     36  C   UNL A   1      41.262  25.674  27.719  1.00  0.00     0.031 A 
ATOM     37  C   UNL A   1      40.592  26.781  28.493  1.00  0.00     0.074 A 
ATOM     38  C   UNL A   1      42.543  25.798  27.327  1.00  0.00     0.049 A 
ATOM     39  N   UNL A   1      41.043  27.967  28.808  1.00  0.00    -0.248 NA
ATOM     40  C   UNL A   1      39.227  26.511  28.972  1.00  0.00     0.031 C 
ATOM     41  C   UNL A   1      43.317  24.772  26.630  1.00  0.00     0.029 A 
ATOM     42  N   UNL A   1      43.422  26.843  27.468  1.00  0.00    -0.354 N 
ATOM     43  C   UNL A   1      40.021  28.584  29.524  1.00  0.00     0.074 A 
ATOM     44  C   UNL A   1      38.908  27.659  29.549  1.00  0.00     0.031 C 
ATOM     45  C   UNL A   1      44.558  25.239  26.405  1.00  0.00     0.029 A 
ATOM     46  C   UNL A   1      44.655  26.609  26.906  1.00  0.00     0.049 A 
ATOM     47  H   UNL A   1      43.191  27.682  27.931  1.00  0.00     0.167 HD
ATOM     48  C   UNL A   1      40.016  29.801  30.121  1.00  0.00     0.034 A 
ATOM     49  C   UNL A   1      45.729  27.417  26.792  1.00  0.00     0.034 A 
ATOM     50  C   UNL A   1      41.130  30.716  30.085  1.00  0.00     0.049 A 
ATOM     51  C   UNL A   1      45.662  28.808  27.382  1.00  0.00     0.074 A 
ATOM     52  C   UNL A   1      41.225  31.983  30.636  1.00  0.00     0.029 A 
ATOM     53  N   UNL A   1      42.345  30.465  29.462  1.00  0.00    -0.354 N 
ATOM     54  N   UNL A   1      44.682  29.384  28.043  1.00  0.00    -0.248 NA
ATOM     55  C   UNL A   1      46.854  29.651  27.227  1.00  0.00     0.031 C 
ATOM     56  C   UNL A   1      42.469  32.521  30.292  1.00  0.00     0.029 A 
ATOM     57  C   UNL A   1      43.186  31.559  29.600  1.00  0.00     0.049 A 
ATOM     58  H   UNL A   1      42.576  29.632  28.992  1.00  0.00     0.167 HD
ATOM     59  C   UNL A   1      45.165  30.636  28.421  1.00  0.00     0.074 A 
ATOM     60  C   UNL A   1      46.524  30.721  27.932  1.00  0.00     0.031 C 
ATOM     61  C   UNL A   1      44.544  31.628  29.114  1.00  0.00     0.034 A 
BRANCH  48  62
ATOM     62  C   UNL A   1      38.752  30.223  30.831  1.00  0.00     0.023 A 
ATOM     63  C   UNL A   1      37.709  30.883  30.156  1.00  0.00     0.031 A 
ATOM     64  C   UNL A   1      38.591  29.975  32.206  1.00  0.00     0.131 A 
ATOM     65  C   UNL A   1      36.582  31.322  30.867  1.00  0.00     0.055 A 
ATOM     66  C   UNL A   1      37.432  30.343  32.891  1.00  0.00     0.041 A 
ATOM     67  F   UNL A   1      39.563  29.372  32.909  1.00  0.00    -0.206 F 
ATOM     68  C   UNL A   1      36.424  31.032  32.224  1.00  0.00     0.022 A 
BRANCH  65  69
ATOM     69  S   UNL A   1      35.383  32.389  30.022  1.00  0.00     0.124 S 
ATOM     70  O   UNL A   1      34.991  31.551  28.892  1.00  0.00    -0.237 OA
ATOM     71  O   UNL A   1      34.368  32.599  31.046  1.00  0.00    -0.237 OA
ATOM     72  O   UNL A   1      36.168  33.571  29.668  1.00  0.00    -0.744 OA
ENDBRANCH  65  69
ENDBRANCH  48  62
BRANCH  49  73
ATOM     73  C   UNL A   1      46.956  26.969  26.068  1.00  0.00     0.023 A 
ATOM     74  C   UNL A   1      47.976  26.270  26.734  1.00  0.00     0.031 A 
ATOM     75  C   UNL A   1      47.176  27.327  24.726  1.00  0.00     0.131 A 
ATOM     76  C   UNL A   1      49.196  26.023  26.085  1.00  0.00     0.055 A 
ATOM     77  C   UNL A   1      48.364  27.015  24.062  1.00  0.00     0.041 A 
ATOM     78  F   UNL A   1      46.239  28.001  24.040  1.00  0.00    -0.206 F 
ATOM     79  C   UNL A   1      49.392  26.378  24.750  1.00  0.00     0.022 A 
BRANCH  76  80
ATOM     80  S   UNL A   1      50.574  25.357  27.060  1.00  0.00     0.124 S 
ATOM     81  O   UNL A   1      51.505  24.949  26.014  1.00  0.00    -0.237 OA
ATOM     82  O   UNL A   1      50.968  26.516  27.854  1.00  0.00    -0.237 OA
ATOM     83  O   UNL A   1      49.961  24.265  27.814  1.00  0.00    -0.744 OA
ENDBRANCH  76  80
ENDBRANCH  49  73
BRANCH  61  84
ATOM     84  C   UNL A   1      45.364  32.853  29.445  1.00  0.00     0.023 A 
ATOM     85  C   UNL A   1      45.417  33.969  28.591  1.00  0.00     0.031 A 
ATOM     86  C   UNL A   1      46.134  32.889  30.622  1.00  0.00     0.131 A 
ATOM     87  C   UNL A   1      46.283  35.034  28.884  1.00  0.00     0.055 A 
ATOM     88  C   UNL A   1      46.936  33.984  30.946  1.00  0.00     0.041 A 
ATOM     89  F   UNL A   1      46.125  31.854  31.479  1.00  0.00    -0.206 F 
ATOM     90  C   UNL A   1      47.029  35.057  30.064  1.00  0.00     0.022 A 
BRANCH  87  91
ATOM     91  S   UNL A   1      46.521  36.329  27.635  1.00  0.00     0.124 S 
ATOM     92  O   UNL A   1      46.516  37.540  28.448  1.00  0.00    -0.237 OA
ATOM     93  O   UNL A   1      47.804  35.961  27.046  1.00  0.00    -0.237 OA
ATOM     94  O   UNL A   1      45.367  36.169  26.751  1.00  0.00    -0.744 OA
ENDBRANCH  87  91
ENDBRANCH  61  84
ENDBRANCH  35  36
ENDBRANCH  28  30
ENDBRANCH  27  28
ENDBRANCH  26  27
ENDBRANCH   1  26
TORSDOF 19
ENDMDL
MODEL 3
REMARK VINA RESULT:     -11.5      5.166     10.654
REMARK SMILES CC(=O)Nc1cccc(-c2ccc(F)c(C(=O)OCCOCCOC(=O)c3ccc(-c4c5nc(c(-c6cc(S(=O)(=O)[O-])ccc6F)c6ccc([nH]6)c(-c6cc(S(=O)(=O)[O-])ccc6F)c6nc(c(-c7cc(S(=O)(=O)[O-])ccc7F)c7ccc4[nH]7)C=C6)C=C5)cc3)c2)c1
REMARK SMILES IDX 22 1 21 2 20 3 19 4 18 5 16 6 17 7 15 8 10 9 11 10 90 11
REMARK SMILES IDX 12 12 13 13 14 14 9 15 5 16 6 17 91 18 7 19 8 20 4 21 1 22
REMARK SMILES IDX 2 23 3 24 23 26 24 27 25 28 26 29 27 30 28 31 89 32 29 33
REMARK SMILES IDX 88 34 30 35 31 36 32 37 82 38 33 39 87 40 81 41 83 42 34 43
REMARK SMILES IDX 86 44 80 45 79 46 35 48 67 49 47 50 66 51 48 52 51 53 65 54
REMARK SMILES IDX 84 55 49 56 50 57 64 59 85 60 52 61 36 62 37 63 45 64 38 65
REMARK SMILES IDX 44 66 46 67 43 68 39 69 40 70 41 71 42 72 68 73 69 74 77 75
REMARK SMILES IDX 70 76 76 77 78 78 75 79 71 80 72 81 73 82 74 83 53 84 54 85
REMARK SMILES IDX 62 86 55 87 61 88 63 89 60 90 56 91 57 92 58 93 59 94
REMARK H PARENT 4 25 83 47 51 58
REMARK Flexibility Score: inf
ROOT
ATOM      1  C   UNL A   1      35.797  20.739  25.351  1.00  0.00     0.202 C 
ENDROOT
BRANCH   1   2
ATOM      2  O   UNL A   1      35.594  21.667  26.415  1.00  0.00    -0.374 OA
BRANCH   2   3
ATOM      3  C   UNL A   1      34.869  22.864  26.128  1.00  0.00     0.202 C 
BRANCH   3   4
ATOM      4  C   UNL A   1      33.708  23.212  27.065  1.00  0.00     0.261 C 
BRANCH   4   5
ATOM      5  O   UNL A   1      32.587  22.341  26.843  1.00  0.00    -0.460 OA
BRANCH   5   6
ATOM      6  C   UNL A   1      31.378  22.950  26.764  1.00  0.00     0.341 C 
ATOM      7  O   UNL A   1      30.511  22.974  27.621  1.00  0.00    -0.246 OA
BRANCH   6   8
ATOM      8  C   UNL A   1      31.306  23.706  25.498  1.00  0.00     0.096 A 
ATOM      9  C   UNL A   1      31.036  25.800  24.263  1.00  0.00    -0.017 A 
ATOM     10  C   UNL A   1      31.191  25.079  23.067  1.00  0.00     0.012 A 
ATOM     11  C   UNL A   1      31.070  25.087  25.479  1.00  0.00     0.027 A 
ATOM     12  C   UNL A   1      31.391  23.695  23.084  1.00  0.00     0.041 A 
ATOM     13  C   UNL A   1      31.456  23.020  24.297  1.00  0.00     0.137 A 
ATOM     14  F   UNL A   1      31.620  21.690  24.273  1.00  0.00    -0.206 F 
BRANCH   9  15
ATOM     15  C   UNL A   1      30.913  27.268  24.259  1.00  0.00    -0.016 A 
ATOM     16  C   UNL A   1      30.092  29.291  23.144  1.00  0.00     0.041 A 
ATOM     17  C   UNL A   1      30.674  30.071  24.141  1.00  0.00     0.026 A 
ATOM     18  C   UNL A   1      30.244  27.906  23.199  1.00  0.00     0.034 A 
ATOM     19  C   UNL A   1      31.322  29.464  25.220  1.00  0.00     0.003 A 
ATOM     20  C   UNL A   1      31.432  28.072  25.283  1.00  0.00     0.009 A 
BRANCH  16  21
ATOM     21  N   UNL A   1      29.425  29.941  22.094  1.00  0.00    -0.326 N 
ATOM     22  C   UNL A   1      27.625  31.095  23.378  1.00  0.00     0.114 C 
ATOM     23  C   UNL A   1      28.249  30.640  22.083  1.00  0.00     0.221 C 
ATOM     24  O   UNL A   1      27.751  30.963  21.003  1.00  0.00    -0.275 OA
ATOM     25  H   UNL A   1      29.878  29.885  21.222  1.00  0.00     0.169 HD
ENDBRANCH  16  21
ENDBRANCH   9  15
ENDBRANCH   6   8
ENDBRANCH   5   6
ENDBRANCH   4   5
ENDBRANCH   3   4
ENDBRANCH   2   3
ENDBRANCH   1   2
BRANCH   1  26
ATOM     26  C   UNL A   1      37.238  20.371  24.979  1.00  0.00     0.261 C 
BRANCH  26  27
ATOM     27  O   UNL A   1      38.160  21.462  25.134  1.00  0.00    -0.460 OA
BRANCH  27  28
ATOM     28  C   UNL A   1      39.212  21.178  25.943  1.00  0.00     0.338 C 
ATOM     29  O   UNL A   1      39.855  20.143  25.967  1.00  0.00    -0.246 OA
BRANCH  28  30
ATOM     30  C   UNL A   1      39.615  22.375  26.706  1.00  0.00     0.060 A 
ATOM     31  C   UNL A   1      38.935  23.568  26.429  1.00  0.00     0.016 A 
ATOM     32  C   UNL A   1      40.698  22.364  27.587  1.00  0.00     0.016 A 
ATOM     33  C   UNL A   1      39.388  24.770  26.965  1.00  0.00     0.010 A 
ATOM     34  C   UNL A   1      41.154  23.574  28.124  1.00  0.00     0.010 A 
ATOM     35  C   UNL A   1      40.533  24.788  27.772  1.00  0.00    -0.014 A 
BRANCH  35  36
ATOM     36  C   UNL A   1      41.189  26.089  28.062  1.00  0.00     0.031 A 
ATOM     37  C   UNL A   1      42.605  26.304  27.589  1.00  0.00     0.074 A 
ATOM     38  C   UNL A   1      40.517  27.088  28.664  1.00  0.00     0.049 A 
ATOM     39  N   UNL A   1      43.386  27.342  27.741  1.00  0.00    -0.248 NA
ATOM     40  C   UNL A   1      43.221  25.193  26.846  1.00  0.00     0.031 C 
ATOM     41  C   UNL A   1      39.125  27.021  29.107  1.00  0.00     0.029 A 
ATOM     42  N   UNL A   1      40.915  28.358  28.999  1.00  0.00    -0.354 N 
ATOM     43  C   UNL A   1      44.582  27.012  27.112  1.00  0.00     0.074 A 
ATOM     44  C   UNL A   1      44.441  25.657  26.623  1.00  0.00     0.031 C 
ATOM     45  C   UNL A   1      38.785  28.201  29.656  1.00  0.00     0.029 A 
ATOM     46  C   UNL A   1      39.944  29.092  29.639  1.00  0.00     0.049 A 
ATOM     47  H   UNL A   1      41.813  28.711  28.799  1.00  0.00     0.167 HD
ATOM     48  C   UNL A   1      45.691  27.773  26.940  1.00  0.00     0.034 A 
ATOM     49  C   UNL A   1      39.994  30.332  30.167  1.00  0.00     0.034 A 
ATOM     50  C   UNL A   1      45.821  29.122  27.435  1.00  0.00     0.049 A 
ATOM     51  C   UNL A   1      41.278  31.124  30.048  1.00  0.00     0.074 A 
ATOM     52  C   UNL A   1      46.907  29.975  27.338  1.00  0.00     0.029 A 
ATOM     53  N   UNL A   1      44.834  29.815  28.123  1.00  0.00    -0.354 N 
ATOM     54  N   UNL A   1      42.408  30.793  29.464  1.00  0.00    -0.248 NA
ATOM     55  C   UNL A   1      41.285  32.466  30.644  1.00  0.00     0.031 C 
ATOM     56  C   UNL A   1      46.601  31.157  28.022  1.00  0.00     0.029 A 
ATOM     57  C   UNL A   1      45.294  31.076  28.472  1.00  0.00     0.049 A 
ATOM     58  H   UNL A   1      43.940  29.463  28.333  1.00  0.00     0.167 HD
ATOM     59  C   UNL A   1      43.237  31.908  29.582  1.00  0.00     0.074 A 
ATOM     60  C   UNL A   1      42.471  32.921  30.275  1.00  0.00     0.031 C 
ATOM     61  C   UNL A   1      44.515  32.082  29.156  1.00  0.00     0.034 A 
BRANCH  48  62
ATOM     62  C   UNL A   1      46.860  27.148  26.217  1.00  0.00     0.023 A 
ATOM     63  C   UNL A   1      47.881  26.472  26.909  1.00  0.00     0.031 A 
ATOM     64  C   UNL A   1      46.963  27.241  24.818  1.00  0.00     0.131 A 
ATOM     65  C   UNL A   1      48.987  25.968  26.207  1.00  0.00     0.055 A 
ATOM     66  C   UNL A   1      48.026  26.667  24.118  1.00  0.00     0.041 A 
ATOM     67  F   UNL A   1      46.033  27.897  24.106  1.00  0.00    -0.206 F 
ATOM     68  C   UNL A   1      49.052  26.036  24.813  1.00  0.00     0.022 A 
BRANCH  65  69
ATOM     69  S   UNL A   1      50.399  25.333  27.151  1.00  0.00     0.124 S 
ATOM     70  O   UNL A   1      51.348  25.020  26.086  1.00  0.00    -0.237 OA
ATOM     71  O   UNL A   1      50.744  26.464  28.004  1.00  0.00    -0.237 OA
ATOM     72  O   UNL A   1      49.850  24.170  27.847  1.00  0.00    -0.744 OA
ENDBRANCH  65  69
ENDBRANCH  48  62
BRANCH  49  73
ATOM     73  C   UNL A   1      38.821  30.910  30.889  1.00  0.00     0.023 A 
ATOM     74  C   UNL A   1      37.811  31.595  30.197  1.00  0.00     0.031 A 
ATOM     75  C   UNL A   1      38.749  30.880  32.294  1.00  0.00     0.131 A 
ATOM     76  C   UNL A   1      36.818  32.287  30.908  1.00  0.00     0.055 A 
ATOM     77  C   UNL A   1      37.720  31.509  32.994  1.00  0.00     0.041 A 
ATOM     78  F   UNL A   1      39.691  30.244  33.009  1.00  0.00    -0.206 F 
ATOM     79  C   UNL A   1      36.758  32.238  32.302  1.00  0.00     0.022 A 
BRANCH  76  80
ATOM     80  S   UNL A   1      35.692  33.373  29.989  1.00  0.00     0.124 S 
ATOM     81  O   UNL A   1      35.116  34.176  31.060  1.00  0.00    -0.237 OA
ATOM     82  O   UNL A   1      36.609  34.066  29.089  1.00  0.00    -0.237 OA
ATOM     83  O   UNL A   1      34.773  32.439  29.341  1.00  0.00    -0.744 OA
ENDBRANCH  76  80
ENDBRANCH  49  73
BRANCH  61  84
ATOM     84  C   UNL A   1      45.129  33.448  29.361  1.00  0.00     0.023 A 
ATOM     85  C   UNL A   1      45.093  34.440  28.366  1.00  0.00     0.031 A 
ATOM     86  C   UNL A   1      45.794  33.747  30.564  1.00  0.00     0.131 A 
ATOM     87  C   UNL A   1      45.778  35.650  28.558  1.00  0.00     0.055 A 
ATOM     88  C   UNL A   1      46.411  34.981  30.779  1.00  0.00     0.041 A 
ATOM     89  F   UNL A   1      45.864  32.841  31.553  1.00  0.00    -0.206 F 
ATOM     90  C   UNL A   1      46.421  35.934  29.764  1.00  0.00     0.022 A 
BRANCH  87  91
ATOM     91  S   UNL A   1      45.929  36.795  27.157  1.00  0.00     0.124 S 
ATOM     92  O   UNL A   1      44.613  37.425  27.138  1.00  0.00    -0.237 OA
ATOM     93  O   UNL A   1      47.038  37.647  27.571  1.00  0.00    -0.237 OA
ATOM     94  O   UNL A   1      46.213  35.915  26.025  1.00  0.00    -0.744 OA
ENDBRANCH  87  91
ENDBRANCH  61  84
ENDBRANCH  35  36
ENDBRANCH  28  30
ENDBRANCH  27  28
ENDBRANCH  26  27
ENDBRANCH   1  26
TORSDOF 19
ENDMDL
