MODEL 1
REMARK VINA RESULT:     -10.9      0.000      0.000
REMARK SMILES Cc1cccc(-c2ncc(C[NH+]3CCC4(CC3)NC(=O)C[C@H]4C(=O)OCCOCCOC(=O)c3ccc(-c4c5nc(c(-c6cc(S(=O)(=O)[O-])ccc6F)c6ccc([nH]6)c(-c6cc(S(=O)(=O)[O-])ccc6F)c6nc(c(-c7cc(S(=O)(=O)[O-])ccc7F)c7ccc4[nH]7)C=C6)C=C5)cc3)cn2)c1
REMARK SMILES IDX 28 1 27 2 26 3 25 4 23 5 24 6 22 7 12 8 13 9 17 10 14 12
REMARK SMILES IDX 16 13 15 14 18 15 19 16 21 18 20 19 11 20 10 21 7 22 8 23
REMARK SMILES IDX 98 24 9 25 97 26 6 27 1 28 2 29 3 30 99 31 4 32 5 33 29 34
REMARK SMILES IDX 30 35 31 36 32 37 33 38 34 39 35 40 96 41 36 42 95 43 37 44
REMARK SMILES IDX 38 45 39 46 89 47 40 48 94 49 88 50 90 51 41 52 93 53 87 54
REMARK SMILES IDX 86 55 42 57 74 58 54 59 73 60 55 61 58 62 72 63 91 64 56 65
REMARK SMILES IDX 57 66 71 68 92 69 59 70 43 71 44 72 52 73 45 74 51 75 53 76
REMARK SMILES IDX 50 77 46 78 47 79 48 80 49 81 75 82 76 83 84 84 77 85 83 86
REMARK SMILES IDX 85 87 82 88 78 89 79 90 80 91 81 92 60 93 61 94 69 95 62 96
REMARK SMILES IDX 68 97 70 98 67 99 63 100 64 101 65 102 66 103
REMARK H PARENT 12 11 18 17 90 56 58 67
REMARK Flexibility Score: inf
ROOT
ATOM      1  O   UNL A   1      39.123  31.313  36.737  1.00  0.00    -0.374 OA
ENDROOT
BRANCH   1   2
ATOM      2  C   UNL A   1      38.104  31.505  35.766  1.00  0.00     0.202 C 
BRANCH   2   3
ATOM      3  C   UNL A   1      37.797  32.981  35.752  1.00  0.00     0.261 C 
BRANCH   3   4
ATOM      4  O   UNL A   1      37.434  33.653  34.517  1.00  0.00    -0.463 OA
BRANCH   4   5
ATOM      5  C   UNL A   1      36.143  33.768  34.110  1.00  0.00     0.311 C 
ATOM      6  O   UNL A   1      35.157  33.454  34.762  1.00  0.00    -0.252 OA
BRANCH   5   7
ATOM      7  C   UNL A   1      36.053  34.448  32.733  1.00  0.00     0.134 C 
ATOM      8  N   UNL A   1      37.766  31.713  30.309  1.00  0.00    -0.331 N 
ATOM      9  C   UNL A   1      37.538  33.073  29.809  1.00  0.00     0.264 C 
ATOM     10  C   UNL A   1      37.379  31.630  31.706  1.00  0.00     0.264 C 
ATOM     11  H   UNL A   1      38.773  31.604  30.192  1.00  0.00     0.348 HD
ATOM     12  C   UNL A   1      36.220  33.800  30.190  1.00  0.00     0.091 C 
ATOM     13  C   UNL A   1      35.928  32.025  31.850  1.00  0.00     0.091 C 
ATOM     14  C   UNL A   1      35.647  33.483  31.597  1.00  0.00     0.064 C 
ATOM     15  N   UNL A   1      34.210  33.673  31.568  1.00  0.00    -0.349 N 
ATOM     16  C   UNL A   1      33.759  34.820  32.180  1.00  0.00     0.221 C 
ATOM     17  H   UNL A   1      33.601  33.029  31.142  1.00  0.00     0.164 HD
ATOM     18  C   UNL A   1      34.971  35.542  32.715  1.00  0.00     0.117 C 
ATOM     19  O   UNL A   1      32.616  35.197  32.217  1.00  0.00    -0.275 OA
BRANCH   8  20
ATOM     20  C   UNL A   1      37.343  30.535  29.509  1.00  0.00     0.302 C 
BRANCH  20  21
ATOM     21  C   UNL A   1      38.329  29.416  29.283  1.00  0.00     0.043 A 
ATOM     22  C   UNL A   1      39.573  27.095  28.535  1.00  0.00     0.159 A 
ATOM     23  N   UNL A   1      39.589  28.132  27.671  1.00  0.00    -0.236 NA
ATOM     24  N   UNL A   1      39.126  27.192  29.803  1.00  0.00    -0.236 NA
ATOM     25  C   UNL A   1      38.994  29.273  28.083  1.00  0.00     0.124 A 
ATOM     26  C   UNL A   1      38.481  28.333  30.141  1.00  0.00     0.124 A 
BRANCH  22  27
ATOM     27  C   UNL A   1      39.991  25.774  28.028  1.00  0.00     0.019 A 
ATOM     28  C   UNL A   1      38.449  22.795  26.158  1.00  0.00     0.044 C 
ATOM     29  C   UNL A   1      39.460  23.673  26.840  1.00  0.00    -0.050 A 
ATOM     30  C   UNL A   1      40.717  23.170  27.173  1.00  0.00     0.003 A 
ATOM     31  C   UNL A   1      39.141  24.989  27.217  1.00  0.00     0.015 A 
ATOM     32  C   UNL A   1      41.596  23.939  27.936  1.00  0.00     0.001 A 
ATOM     33  C   UNL A   1      41.224  25.212  28.384  1.00  0.00     0.012 A 
ENDBRANCH  22  27
ENDBRANCH  20  21
ENDBRANCH   8  20
ENDBRANCH   5   7
ENDBRANCH   4   5
ENDBRANCH   3   4
ENDBRANCH   2   3
ENDBRANCH   1   2
BRANCH   1  34
ATOM     34  C   UNL A   1      39.831  32.448  37.194  1.00  0.00     0.202 C 
BRANCH  34  35
ATOM     35  C   UNL A   1      41.317  32.548  36.822  1.00  0.00     0.261 C 
BRANCH  35  36
ATOM     36  O   UNL A   1      41.491  33.057  35.480  1.00  0.00    -0.460 OA
BRANCH  36  37
ATOM     37  C   UNL A   1      41.701  34.400  35.365  1.00  0.00     0.338 C 
ATOM     38  O   UNL A   1      41.839  35.160  36.307  1.00  0.00    -0.246 OA
BRANCH  37  39
ATOM     39  C   UNL A   1      41.651  34.805  33.930  1.00  0.00     0.060 A 
ATOM     40  C   UNL A   1      40.754  34.191  33.036  1.00  0.00     0.016 A 
ATOM     41  C   UNL A   1      42.695  35.579  33.440  1.00  0.00     0.016 A 
ATOM     42  C   UNL A   1      41.003  34.230  31.654  1.00  0.00     0.010 A 
ATOM     43  C   UNL A   1      43.024  35.468  32.110  1.00  0.00     0.010 A 
ATOM     44  C   UNL A   1      42.190  34.795  31.200  1.00  0.00    -0.014 A 
BRANCH  44  45
ATOM     45  C   UNL A   1      42.751  34.710  29.843  1.00  0.00     0.031 A 
ATOM     46  C   UNL A   1      43.484  33.469  29.521  1.00  0.00     0.074 A 
ATOM     47  C   UNL A   1      42.420  35.567  28.842  1.00  0.00     0.049 A 
ATOM     48  N   UNL A   1      44.138  33.297  28.433  1.00  0.00    -0.248 NA
ATOM     49  C   UNL A   1      43.595  32.320  30.423  1.00  0.00     0.031 C 
ATOM     50  C   UNL A   1      42.500  35.372  27.390  1.00  0.00     0.029 A 
ATOM     51  N   UNL A   1      41.960  36.883  28.932  1.00  0.00    -0.354 N 
ATOM     52  C   UNL A   1      44.435  31.965  28.326  1.00  0.00     0.074 A 
ATOM     53  C   UNL A   1      44.213  31.433  29.642  1.00  0.00     0.031 C 
ATOM     54  C   UNL A   1      42.409  36.567  26.775  1.00  0.00     0.029 A 
ATOM     55  C   UNL A   1      42.414  37.585  27.809  1.00  0.00     0.049 A 
ATOM     56  H   UNL A   1      41.411  37.254  29.661  1.00  0.00     0.167 HD
ATOM     57  C   UNL A   1      44.713  31.485  27.084  1.00  0.00     0.034 A 
ATOM     58  C   UNL A   1      43.248  38.641  27.992  1.00  0.00     0.034 A 
ATOM     59  C   UNL A   1      44.917  32.607  26.135  1.00  0.00     0.049 A 
ATOM     60  C   UNL A   1      44.606  38.266  27.436  1.00  0.00     0.074 A 
ATOM     61  C   UNL A   1      44.261  33.114  25.028  1.00  0.00     0.029 A 
ATOM     62  N   UNL A   1      45.824  33.600  26.499  1.00  0.00    -0.354 N 
ATOM     63  N   UNL A   1      44.843  37.132  26.829  1.00  0.00    -0.248 NA
ATOM     64  C   UNL A   1      45.805  39.079  27.553  1.00  0.00     0.031 C 
ATOM     65  C   UNL A   1      44.757  34.445  24.785  1.00  0.00     0.029 A 
ATOM     66  C   UNL A   1      45.754  34.728  25.705  1.00  0.00     0.049 A 
ATOM     67  H   UNL A   1      46.454  33.508  27.250  1.00  0.00     0.167 HD
ATOM     68  C   UNL A   1      46.164  36.988  26.559  1.00  0.00     0.074 A 
ATOM     69  C   UNL A   1      46.733  38.247  27.044  1.00  0.00     0.031 C 
ATOM     70  C   UNL A   1      46.668  35.840  25.996  1.00  0.00     0.034 A 
BRANCH  57  71
ATOM     71  C   UNL A   1      44.675  30.018  26.694  1.00  0.00     0.023 A 
ATOM     72  C   UNL A   1      45.753  29.497  25.953  1.00  0.00     0.031 A 
ATOM     73  C   UNL A   1      43.622  29.098  26.928  1.00  0.00     0.131 A 
ATOM     74  C   UNL A   1      45.758  28.162  25.494  1.00  0.00     0.055 A 
ATOM     75  C   UNL A   1      43.648  27.761  26.509  1.00  0.00     0.041 A 
ATOM     76  F   UNL A   1      42.479  29.428  27.533  1.00  0.00    -0.206 F 
ATOM     77  C   UNL A   1      44.718  27.285  25.783  1.00  0.00     0.022 A 
BRANCH  74  78
ATOM     78  S   UNL A   1      47.140  27.586  24.477  1.00  0.00     0.124 S 
ATOM     79  O   UNL A   1      48.293  28.097  25.212  1.00  0.00    -0.237 OA
ATOM     80  O   UNL A   1      46.951  26.140  24.486  1.00  0.00    -0.237 OA
ATOM     81  O   UNL A   1      46.901  28.229  23.185  1.00  0.00    -0.744 OA
ENDBRANCH  74  78
ENDBRANCH  57  71
BRANCH  58  82
ATOM     82  C   UNL A   1      42.885  39.383  29.263  1.00  0.00     0.023 A 
ATOM     83  C   UNL A   1      43.822  39.324  30.337  1.00  0.00     0.031 A 
ATOM     84  C   UNL A   1      41.997  40.470  29.258  1.00  0.00     0.131 A 
ATOM     85  C   UNL A   1      43.959  40.403  31.236  1.00  0.00     0.055 A 
ATOM     86  C   UNL A   1      42.096  41.508  30.203  1.00  0.00     0.041 A 
ATOM     87  F   UNL A   1      41.124  40.633  28.255  1.00  0.00    -0.206 F 
ATOM     88  C   UNL A   1      43.107  41.504  31.161  1.00  0.00     0.022 A 
BRANCH  85  89
ATOM     89  S   UNL A   1      45.462  40.549  32.276  1.00  0.00     0.124 S 
ATOM     90  O   UNL A   1      45.211  39.537  33.294  1.00  0.00    -0.237 OA
ATOM     91  O   UNL A   1      46.536  40.290  31.321  1.00  0.00    -0.237 OA
ATOM     92  O   UNL A   1      45.406  41.938  32.736  1.00  0.00    -0.744 OA
ENDBRANCH  85  89
ENDBRANCH  58  82
BRANCH  70  93
ATOM     93  C   UNL A   1      48.148  35.664  25.767  1.00  0.00     0.023 A 
ATOM     94  C   UNL A   1      48.813  34.529  26.237  1.00  0.00     0.031 A 
ATOM     95  C   UNL A   1      48.942  36.597  25.062  1.00  0.00     0.131 A 
ATOM     96  C   UNL A   1      50.111  34.235  25.808  1.00  0.00     0.055 A 
ATOM     97  C   UNL A   1      50.279  36.362  24.744  1.00  0.00     0.041 A 
ATOM     98  F   UNL A   1      48.460  37.759  24.605  1.00  0.00    -0.206 F 
ATOM     99  C   UNL A   1      50.859  35.150  25.075  1.00  0.00     0.022 A 
BRANCH  96 100
ATOM    100  S   UNL A   1      50.731  32.566  26.106  1.00  0.00     0.124 S 
ATOM    101  O   UNL A   1      49.528  31.844  26.509  1.00  0.00    -0.237 OA
ATOM    102  O   UNL A   1      51.265  32.216  24.792  1.00  0.00    -0.237 OA
ATOM    103  O   UNL A   1      51.728  32.755  27.156  1.00  0.00    -0.744 OA
ENDBRANCH  96 100
ENDBRANCH  70  93
ENDBRANCH  44  45
ENDBRANCH  37  39
ENDBRANCH  36  37
ENDBRANCH  35  36
ENDBRANCH  34  35
ENDBRANCH   1  34
TORSDOF 20
ENDMDL
MODEL 2
REMARK VINA RESULT:     -10.9      6.460     14.166
REMARK SMILES Cc1cccc(-c2ncc(C[NH+]3CCC4(CC3)NC(=O)C[C@H]4C(=O)OCCOCCOC(=O)c3ccc(-c4c5nc(c(-c6cc(S(=O)(=O)[O-])ccc6F)c6ccc([nH]6)c(-c6cc(S(=O)(=O)[O-])ccc6F)c6nc(c(-c7cc(S(=O)(=O)[O-])ccc7F)c7ccc4[nH]7)C=C6)C=C5)cc3)cn2)c1
REMARK SMILES IDX 28 1 27 2 26 3 25 4 23 5 24 6 22 7 12 8 13 9 17 10 14 12
REMARK SMILES IDX 16 13 15 14 18 15 19 16 21 18 20 19 11 20 10 21 7 22 8 23
REMARK SMILES IDX 98 24 9 25 97 26 6 27 1 28 2 29 3 30 99 31 4 32 5 33 29 34
REMARK SMILES IDX 30 35 31 36 32 37 33 38 34 39 35 40 96 41 36 42 95 43 37 44
REMARK SMILES IDX 38 45 39 46 89 47 40 48 94 49 88 50 90 51 41 52 93 53 87 54
REMARK SMILES IDX 86 55 42 57 74 58 54 59 73 60 55 61 58 62 72 63 91 64 56 65
REMARK SMILES IDX 57 66 71 68 92 69 59 70 43 71 44 72 52 73 45 74 51 75 53 76
REMARK SMILES IDX 50 77 46 78 47 79 48 80 49 81 75 82 76 83 84 84 77 85 83 86
REMARK SMILES IDX 85 87 82 88 78 89 79 90 80 91 81 92 60 93 61 94 69 95 62 96
REMARK SMILES IDX 68 97 70 98 67 99 63 100 64 101 65 102 66 103
REMARK H PARENT 12 11 18 17 90 56 58 67
REMARK Flexibility Score: inf
ROOT
ATOM      1  O   UNL A   1      45.801  24.297  24.510  1.00  0.00    -0.374 OA
ENDROOT
BRANCH   1   2
ATOM      2  C   UNL A   1      46.406  23.366  25.397  1.00  0.00     0.202 C 
BRANCH   2   3
ATOM      3  C   UNL A   1      45.769  22.029  25.116  1.00  0.00     0.261 C 
BRANCH   3   4
ATOM      4  O   UNL A   1      44.878  21.413  26.083  1.00  0.00    -0.463 OA
BRANCH   4   5
ATOM      5  C   UNL A   1      43.726  20.795  25.713  1.00  0.00     0.311 C 
ATOM      6  O   UNL A   1      43.530  20.228  24.647  1.00  0.00    -0.252 OA
BRANCH   5   7
ATOM      7  C   UNL A   1      42.697  20.805  26.857  1.00  0.00     0.134 C 
ATOM      8  N   UNL A   1      42.064  24.753  27.409  1.00  0.00    -0.331 N 
ATOM      9  C   UNL A   1      41.590  23.802  28.419  1.00  0.00     0.264 C 
ATOM     10  C   UNL A   1      42.794  24.047  26.371  1.00  0.00     0.264 C 
ATOM     11  H   UNL A   1      42.678  25.360  27.952  1.00  0.00     0.348 HD
ATOM     12  C   UNL A   1      40.969  22.459  27.950  1.00  0.00     0.091 C 
ATOM     13  C   UNL A   1      41.901  22.999  25.752  1.00  0.00     0.091 C 
ATOM     14  C   UNL A   1      41.569  21.842  26.658  1.00  0.00     0.064 C 
ATOM     15  N   UNL A   1      40.555  21.032  26.013  1.00  0.00    -0.349 N 
ATOM     16  C   UNL A   1      40.715  19.673  26.151  1.00  0.00     0.221 C 
ATOM     17  H   UNL A   1      39.805  21.426  25.513  1.00  0.00     0.164 HD
ATOM     18  C   UNL A   1      41.965  19.457  26.968  1.00  0.00     0.117 C 
ATOM     19  O   UNL A   1      39.958  18.828  25.747  1.00  0.00    -0.275 OA
BRANCH   8  20
ATOM     20  C   UNL A   1      41.159  25.806  26.881  1.00  0.00     0.302 C 
BRANCH  20  21
ATOM     21  C   UNL A   1      40.638  26.860  27.826  1.00  0.00     0.043 A 
ATOM     22  C   UNL A   1      39.155  28.784  29.087  1.00  0.00     0.159 A 
ATOM     23  N   UNL A   1      38.905  27.492  29.385  1.00  0.00    -0.236 NA
ATOM     24  N   UNL A   1      40.199  29.184  28.332  1.00  0.00    -0.236 NA
ATOM     25  C   UNL A   1      39.675  26.569  28.770  1.00  0.00     0.124 A 
ATOM     26  C   UNL A   1      40.895  28.218  27.688  1.00  0.00     0.124 A 
BRANCH  22  27
ATOM     27  C   UNL A   1      38.183  29.794  29.546  1.00  0.00     0.019 A 
ATOM     28  C   UNL A   1      37.885  33.619  29.730  1.00  0.00     0.044 C 
ATOM     29  C   UNL A   1      37.537  32.161  29.842  1.00  0.00    -0.050 A 
ATOM     30  C   UNL A   1      36.406  31.762  30.554  1.00  0.00     0.003 A 
ATOM     31  C   UNL A   1      38.372  31.172  29.295  1.00  0.00     0.015 A 
ATOM     32  C   UNL A   1      36.169  30.406  30.781  1.00  0.00     0.001 A 
ATOM     33  C   UNL A   1      37.064  29.437  30.310  1.00  0.00     0.012 A 
ENDBRANCH  22  27
ENDBRANCH  20  21
ENDBRANCH   8  20
ENDBRANCH   5   7
ENDBRANCH   4   5
ENDBRANCH   3   4
ENDBRANCH   2   3
ENDBRANCH   1   2
BRANCH   1  34
ATOM     34  C   UNL A   1      45.491  25.584  25.004  1.00  0.00     0.202 C 
BRANCH  34  35
ATOM     35  C   UNL A   1      46.645  26.412  25.588  1.00  0.00     0.261 C 
BRANCH  35  36
ATOM     36  O   UNL A   1      46.484  26.610  27.011  1.00  0.00    -0.460 OA
BRANCH  36  37
ATOM     37  C   UNL A   1      47.471  26.108  27.807  1.00  0.00     0.338 C 
ATOM     38  O   UNL A   1      48.658  26.136  27.536  1.00  0.00    -0.246 OA
BRANCH  37  39
ATOM     39  C   UNL A   1      46.876  25.449  29.006  1.00  0.00     0.060 A 
ATOM     40  C   UNL A   1      45.606  24.846  28.945  1.00  0.00     0.016 A 
ATOM     41  C   UNL A   1      47.464  25.697  30.240  1.00  0.00     0.016 A 
ATOM     42  C   UNL A   1      44.868  24.641  30.123  1.00  0.00     0.010 A 
ATOM     43  C   UNL A   1      46.674  25.653  31.363  1.00  0.00     0.010 A 
ATOM     44  C   UNL A   1      45.370  25.128  31.325  1.00  0.00    -0.014 A 
BRANCH  44  45
ATOM     45  C   UNL A   1      44.654  25.243  32.603  1.00  0.00     0.031 A 
ATOM     46  C   UNL A   1      44.066  26.565  32.901  1.00  0.00     0.074 A 
ATOM     47  C   UNL A   1      44.305  24.172  33.364  1.00  0.00     0.049 A 
ATOM     48  N   UNL A   1      43.527  26.860  34.025  1.00  0.00    -0.248 NA
ATOM     49  C   UNL A   1      44.080  27.700  31.976  1.00  0.00     0.031 C 
ATOM     50  C   UNL A   1      43.240  24.054  34.366  1.00  0.00     0.029 A 
ATOM     51  N   UNL A   1      44.903  22.910  33.427  1.00  0.00    -0.354 N 
ATOM     52  C   UNL A   1      42.834  28.030  33.865  1.00  0.00     0.074 A 
ATOM     53  C   UNL A   1      43.327  28.583  32.634  1.00  0.00     0.031 C 
ATOM     54  C   UNL A   1      43.457  22.959  35.119  1.00  0.00     0.029 A 
ATOM     55  C   UNL A   1      44.743  22.413  34.726  1.00  0.00     0.049 A 
ATOM     56  H   UNL A   1      45.358  22.450  32.685  1.00  0.00     0.167 HD
ATOM     57  C   UNL A   1      41.841  28.295  34.756  1.00  0.00     0.034 A 
ATOM     58  C   UNL A   1      45.852  22.164  35.470  1.00  0.00     0.034 A 
ATOM     59  C   UNL A   1      41.924  27.364  35.907  1.00  0.00     0.049 A 
ATOM     60  C   UNL A   1      45.884  23.163  36.609  1.00  0.00     0.074 A 
ATOM     61  C   UNL A   1      41.155  26.336  36.422  1.00  0.00     0.029 A 
ATOM     62  N   UNL A   1      43.154  27.247  36.553  1.00  0.00    -0.354 N 
ATOM     63  N   UNL A   1      44.934  24.037  36.822  1.00  0.00    -0.248 NA
ATOM     64  C   UNL A   1      46.977  23.309  37.556  1.00  0.00     0.031 C 
ATOM     65  C   UNL A   1      41.973  25.578  37.334  1.00  0.00     0.029 A 
ATOM     66  C   UNL A   1      43.220  26.176  37.422  1.00  0.00     0.049 A 
ATOM     67  H   UNL A   1      43.904  27.867  36.402  1.00  0.00     0.167 HD
ATOM     68  C   UNL A   1      45.275  24.899  37.811  1.00  0.00     0.074 A 
ATOM     69  C   UNL A   1      46.583  24.400  38.240  1.00  0.00     0.031 C 
ATOM     70  C   UNL A   1      44.471  25.957  38.160  1.00  0.00     0.034 A 
BRANCH  57  71
ATOM     71  C   UNL A   1      40.724  29.300  34.535  1.00  0.00     0.023 A 
ATOM     72  C   UNL A   1      40.358  30.137  35.607  1.00  0.00     0.031 A 
ATOM     73  C   UNL A   1      39.931  29.454  33.371  1.00  0.00     0.131 A 
ATOM     74  C   UNL A   1      39.285  31.047  35.501  1.00  0.00     0.055 A 
ATOM     75  C   UNL A   1      38.893  30.388  33.252  1.00  0.00     0.041 A 
ATOM     76  F   UNL A   1      40.065  28.691  32.285  1.00  0.00    -0.206 F 
ATOM     77  C   UNL A   1      38.559  31.190  34.322  1.00  0.00     0.022 A 
BRANCH  74  78
ATOM     78  S   UNL A   1      38.819  32.032  36.947  1.00  0.00     0.124 S 
ATOM     79  O   UNL A   1      37.778  31.209  37.554  1.00  0.00    -0.237 OA
ATOM     80  O   UNL A   1      40.079  32.129  37.676  1.00  0.00    -0.237 OA
ATOM     81  O   UNL A   1      38.348  33.288  36.364  1.00  0.00    -0.744 OA
ENDBRANCH  74  78
ENDBRANCH  57  71
BRANCH  58  82
ATOM     82  C   UNL A   1      46.974  21.655  34.588  1.00  0.00     0.023 A 
ATOM     83  C   UNL A   1      48.100  22.512  34.414  1.00  0.00     0.031 A 
ATOM     84  C   UNL A   1      47.185  20.284  34.376  1.00  0.00     0.131 A 
ATOM     85  C   UNL A   1      49.392  21.977  34.218  1.00  0.00     0.055 A 
ATOM     86  C   UNL A   1      48.466  19.766  34.111  1.00  0.00     0.041 A 
ATOM     87  F   UNL A   1      46.194  19.403  34.575  1.00  0.00    -0.206 F 
ATOM     88  C   UNL A   1      49.579  20.603  34.083  1.00  0.00     0.022 A 
BRANCH  85  89
ATOM     89  S   UNL A   1      50.872  23.023  34.494  1.00  0.00     0.124 S 
ATOM     90  O   UNL A   1      51.830  22.046  34.996  1.00  0.00    -0.237 OA
ATOM     91  O   UNL A   1      51.116  23.586  33.169  1.00  0.00    -0.237 OA
ATOM     92  O   UNL A   1      50.398  24.006  35.471  1.00  0.00    -0.744 OA
ENDBRANCH  85  89
ENDBRANCH  58  82
BRANCH  70  93
ATOM     93  C   UNL A   1      44.895  26.950  39.212  1.00  0.00     0.023 A 
ATOM     94  C   UNL A   1      45.514  28.150  38.854  1.00  0.00     0.031 A 
ATOM     95  C   UNL A   1      44.685  26.754  40.597  1.00  0.00     0.131 A 
ATOM     96  C   UNL A   1      45.671  29.179  39.788  1.00  0.00     0.055 A 
ATOM     97  C   UNL A   1      44.963  27.735  41.548  1.00  0.00     0.041 A 
ATOM     98  F   UNL A   1      44.160  25.630  41.097  1.00  0.00    -0.206 F 
ATOM     99  C   UNL A   1      45.413  28.978  41.140  1.00  0.00     0.022 A 
BRANCH  96 100
ATOM    100  S   UNL A   1      46.071  30.824  39.160  1.00  0.00     0.124 S 
ATOM    101  O   UNL A   1      47.529  30.846  39.225  1.00  0.00    -0.237 OA
ATOM    102  O   UNL A   1      45.501  30.768  37.816  1.00  0.00    -0.237 OA
ATOM    103  O   UNL A   1      45.390  31.719  40.091  1.00  0.00    -0.744 OA
ENDBRANCH  96 100
ENDBRANCH  70  93
ENDBRANCH  44  45
ENDBRANCH  37  39
ENDBRANCH  36  37
ENDBRANCH  35  36
ENDBRANCH  34  35
ENDBRANCH   1  34
TORSDOF 20
ENDMDL
MODEL 3
REMARK VINA RESULT:     -10.1      5.612     12.670
REMARK SMILES Cc1cccc(-c2ncc(C[NH+]3CCC4(CC3)NC(=O)C[C@H]4C(=O)OCCOCCOC(=O)c3ccc(-c4c5nc(c(-c6cc(S(=O)(=O)[O-])ccc6F)c6ccc([nH]6)c(-c6cc(S(=O)(=O)[O-])ccc6F)c6nc(c(-c7cc(S(=O)(=O)[O-])ccc7F)c7ccc4[nH]7)C=C6)C=C5)cc3)cn2)c1
REMARK SMILES IDX 28 1 27 2 26 3 25 4 23 5 24 6 22 7 12 8 13 9 17 10 14 12
REMARK SMILES IDX 16 13 15 14 18 15 19 16 21 18 20 19 11 20 10 21 7 22 8 23
REMARK SMILES IDX 98 24 9 25 97 26 6 27 1 28 2 29 3 30 99 31 4 32 5 33 29 34
REMARK SMILES IDX 30 35 31 36 32 37 33 38 34 39 35 40 96 41 36 42 95 43 37 44
REMARK SMILES IDX 38 45 39 46 89 47 40 48 94 49 88 50 90 51 41 52 93 53 87 54
REMARK SMILES IDX 86 55 42 57 74 58 54 59 73 60 55 61 58 62 72 63 91 64 56 65
REMARK SMILES IDX 57 66 71 68 92 69 59 70 43 71 44 72 52 73 45 74 51 75 53 76
REMARK SMILES IDX 50 77 46 78 47 79 48 80 49 81 75 82 76 83 84 84 77 85 83 86
REMARK SMILES IDX 85 87 82 88 78 89 79 90 80 91 81 92 60 93 61 94 69 95 62 96
REMARK SMILES IDX 68 97 70 98 67 99 63 100 64 101 65 102 66 103
REMARK H PARENT 12 11 18 17 90 56 58 67
REMARK Flexibility Score: inf
ROOT
ATOM      1  O   UNL A   1      44.507  25.766  27.343  1.00  0.00    -0.374 OA
ENDROOT
BRANCH   1   2
ATOM      2  C   UNL A   1      45.503  24.931  27.914  1.00  0.00     0.202 C 
BRANCH   2   3
ATOM      3  C   UNL A   1      45.645  23.742  26.997  1.00  0.00     0.261 C 
BRANCH   3   4
ATOM      4  O   UNL A   1      44.927  23.688  25.737  1.00  0.00    -0.463 OA
BRANCH   4   5
ATOM      5  C   UNL A   1      44.988  22.606  24.917  1.00  0.00     0.311 C 
ATOM      6  O   UNL A   1      45.185  22.634  23.710  1.00  0.00    -0.252 OA
BRANCH   5   7
ATOM      7  C   UNL A   1      44.876  21.296  25.715  1.00  0.00     0.134 C 
ATOM      8  N   UNL A   1      40.982  21.269  26.778  1.00  0.00    -0.331 N 
ATOM      9  C   UNL A   1      41.911  20.338  27.429  1.00  0.00     0.264 C 
ATOM     10  C   UNL A   1      41.710  22.138  25.872  1.00  0.00     0.264 C 
ATOM     11  H   UNL A   1      40.603  21.787  27.570  1.00  0.00     0.348 HD
ATOM     12  C   UNL A   1      43.009  19.653  26.571  1.00  0.00     0.091 C 
ATOM     13  C   UNL A   1      42.442  21.300  24.851  1.00  0.00     0.091 C 
ATOM     14  C   UNL A   1      43.590  20.497  25.405  1.00  0.00     0.064 C 
ATOM     15  N   UNL A   1      44.062  19.598  24.370  1.00  0.00    -0.349 N 
ATOM     16  C   UNL A   1      45.428  19.453  24.298  1.00  0.00     0.221 C 
ATOM     17  H   UNL A   1      43.449  19.126  23.763  1.00  0.00     0.164 HD
ATOM     18  C   UNL A   1      46.022  20.328  25.373  1.00  0.00     0.117 C 
ATOM     19  O   UNL A   1      46.021  18.714  23.555  1.00  0.00    -0.275 OA
BRANCH   8  20
ATOM     20  C   UNL A   1      39.694  20.782  26.222  1.00  0.00     0.302 C 
BRANCH  20  21
ATOM     21  C   UNL A   1      38.651  21.791  25.810  1.00  0.00     0.043 A 
ATOM     22  C   UNL A   1      36.405  23.342  25.603  1.00  0.00     0.159 A 
ATOM     23  N   UNL A   1      37.389  23.756  26.429  1.00  0.00    -0.236 NA
ATOM     24  N   UNL A   1      36.535  22.301  24.755  1.00  0.00    -0.236 NA
ATOM     25  C   UNL A   1      38.497  22.984  26.484  1.00  0.00     0.124 A 
ATOM     26  C   UNL A   1      37.635  21.526  24.900  1.00  0.00     0.124 A 
BRANCH  22  27
ATOM     27  C   UNL A   1      35.098  24.018  25.702  1.00  0.00     0.019 A 
ATOM     28  C   UNL A   1      33.660  27.559  25.314  1.00  0.00     0.044 C 
ATOM     29  C   UNL A   1      33.736  26.074  25.537  1.00  0.00    -0.050 A 
ATOM     30  C   UNL A   1      32.632  25.380  26.030  1.00  0.00     0.003 A 
ATOM     31  C   UNL A   1      34.933  25.369  25.320  1.00  0.00     0.015 A 
ATOM     32  C   UNL A   1      32.753  24.034  26.375  1.00  0.00     0.001 A 
ATOM     33  C   UNL A   1      33.979  23.371  26.242  1.00  0.00     0.012 A 
ENDBRANCH  22  27
ENDBRANCH  20  21
ENDBRANCH   8  20
ENDBRANCH   5   7
ENDBRANCH   4   5
ENDBRANCH   3   4
ENDBRANCH   2   3
ENDBRANCH   1   2
BRANCH   1  34
ATOM     34  C   UNL A   1      44.815  26.448  26.143  1.00  0.00     0.202 C 
BRANCH  34  35
ATOM     35  C   UNL A   1      44.233  27.858  25.964  1.00  0.00     0.261 C 
BRANCH  35  36
ATOM     36  O   UNL A   1      43.001  27.827  25.210  1.00  0.00    -0.460 OA
BRANCH  36  37
ATOM     37  C   UNL A   1      41.885  27.438  25.891  1.00  0.00     0.338 C 
ATOM     38  O   UNL A   1      41.347  26.353  25.772  1.00  0.00    -0.246 OA
BRANCH  37  39
ATOM     39  C   UNL A   1      41.379  28.563  26.731  1.00  0.00     0.060 A 
ATOM     40  C   UNL A   1      42.261  29.339  27.508  1.00  0.00     0.016 A 
ATOM     41  C   UNL A   1      40.011  28.638  26.957  1.00  0.00     0.016 A 
ATOM     42  C   UNL A   1      41.774  30.065  28.608  1.00  0.00     0.010 A 
ATOM     43  C   UNL A   1      39.571  29.208  28.128  1.00  0.00     0.010 A 
ATOM     44  C   UNL A   1      40.439  29.925  28.969  1.00  0.00    -0.014 A 
BRANCH  44  45
ATOM     45  C   UNL A   1      39.803  30.385  30.212  1.00  0.00     0.031 A 
ATOM     46  C   UNL A   1      39.017  31.631  30.116  1.00  0.00     0.074 A 
ATOM     47  C   UNL A   1      39.700  29.616  31.329  1.00  0.00     0.049 A 
ATOM     48  N   UNL A   1      38.513  32.228  31.132  1.00  0.00    -0.248 NA
ATOM     49  C   UNL A   1      38.769  32.355  28.868  1.00  0.00     0.031 C 
ATOM     50  C   UNL A   1      38.743  29.714  32.436  1.00  0.00     0.029 A 
ATOM     51  N   UNL A   1      40.511  28.555  31.739  1.00  0.00    -0.354 N 
ATOM     52  C   UNL A   1      37.618  33.157  30.673  1.00  0.00     0.074 A 
ATOM     53  C   UNL A   1      37.921  33.300  29.276  1.00  0.00     0.031 C 
ATOM     54  C   UNL A   1      39.200  28.999  33.482  1.00  0.00     0.029 A 
ATOM     55  C   UNL A   1      40.531  28.534  33.139  1.00  0.00     0.049 A 
ATOM     56  H   UNL A   1      40.987  27.930  31.146  1.00  0.00     0.167 HD
ATOM     57  C   UNL A   1      36.658  33.580  31.539  1.00  0.00     0.034 A 
ATOM     58  C   UNL A   1      41.715  28.721  33.778  1.00  0.00     0.034 A 
ATOM     59  C   UNL A   1      36.982  33.139  32.918  1.00  0.00     0.049 A 
ATOM     60  C   UNL A   1      41.651  30.053  34.497  1.00  0.00     0.074 A 
ATOM     61  C   UNL A   1      36.440  32.264  33.842  1.00  0.00     0.029 A 
ATOM     62  N   UNL A   1      38.255  33.430  33.405  1.00  0.00    -0.354 N 
ATOM     63  N   UNL A   1      40.581  30.805  34.519  1.00  0.00    -0.248 NA
ATOM     64  C   UNL A   1      42.765  30.675  35.193  1.00  0.00     0.031 C 
ATOM     65  C   UNL A   1      37.440  32.001  34.847  1.00  0.00     0.029 A 
ATOM     66  C   UNL A   1      38.567  32.757  34.570  1.00  0.00     0.049 A 
ATOM     67  H   UNL A   1      38.873  34.055  32.960  1.00  0.00     0.167 HD
ATOM     68  C   UNL A   1      40.834  32.000  35.107  1.00  0.00     0.074 A 
ATOM     69  C   UNL A   1      42.235  31.872  35.511  1.00  0.00     0.031 C 
ATOM     70  C   UNL A   1      39.885  32.991  35.175  1.00  0.00     0.034 A 
BRANCH  57  71
ATOM     71  C   UNL A   1      35.371  34.276  31.133  1.00  0.00     0.023 A 
ATOM     72  C   UNL A   1      34.871  35.294  31.968  1.00  0.00     0.031 A 
ATOM     73  C   UNL A   1      34.546  33.968  30.022  1.00  0.00     0.131 A 
ATOM     74  C   UNL A   1      33.646  35.939  31.695  1.00  0.00     0.055 A 
ATOM     75  C   UNL A   1      33.351  34.638  29.728  1.00  0.00     0.041 A 
ATOM     76  F   UNL A   1      34.805  32.975  29.169  1.00  0.00    -0.206 F 
ATOM     77  C   UNL A   1      32.890  35.628  30.569  1.00  0.00     0.022 A 
BRANCH  74  78
ATOM     78  S   UNL A   1      33.026  37.180  32.857  1.00  0.00     0.124 S 
ATOM     79  O   UNL A   1      33.241  38.421  32.120  1.00  0.00    -0.237 OA
ATOM     80  O   UNL A   1      31.640  36.767  33.044  1.00  0.00    -0.237 OA
ATOM     81  O   UNL A   1      33.883  37.005  34.029  1.00  0.00    -0.744 OA
ENDBRANCH  74  78
ENDBRANCH  57  71
BRANCH  58  82
ATOM     82  C   UNL A   1      42.844  28.094  32.986  1.00  0.00     0.023 A 
ATOM     83  C   UNL A   1      43.678  28.975  32.237  1.00  0.00     0.031 A 
ATOM     84  C   UNL A   1      43.395  26.852  33.340  1.00  0.00     0.131 A 
ATOM     85  C   UNL A   1      45.041  28.676  32.027  1.00  0.00     0.055 A 
ATOM     86  C   UNL A   1      44.737  26.534  33.064  1.00  0.00     0.041 A 
ATOM     87  F   UNL A   1      42.701  25.988  34.095  1.00  0.00    -0.206 F 
ATOM     88  C   UNL A   1      45.577  27.463  32.454  1.00  0.00     0.022 A 
BRANCH  85  89
ATOM     89  S   UNL A   1      46.204  29.999  31.520  1.00  0.00     0.124 S 
ATOM     90  O   UNL A   1      47.328  29.222  31.015  1.00  0.00    -0.237 OA
ATOM     91  O   UNL A   1      45.421  30.758  30.550  1.00  0.00    -0.237 OA
ATOM     92  O   UNL A   1      46.444  30.719  32.773  1.00  0.00    -0.744 OA
ENDBRANCH  85  89
ENDBRANCH  58  82
BRANCH  70  93
ATOM     93  C   UNL A   1      40.201  34.341  35.766  1.00  0.00     0.023 A 
ATOM     94  C   UNL A   1      39.621  34.747  36.971  1.00  0.00     0.031 A 
ATOM     95  C   UNL A   1      41.098  35.259  35.173  1.00  0.00     0.131 A 
ATOM     96  C   UNL A   1      40.102  35.870  37.651  1.00  0.00     0.055 A 
ATOM     97  C   UNL A   1      41.481  36.448  35.794  1.00  0.00     0.041 A 
ATOM     98  F   UNL A   1      41.683  35.039  33.990  1.00  0.00    -0.206 F 
ATOM     99  C   UNL A   1      41.020  36.736  37.067  1.00  0.00     0.022 A 
BRANCH  96 100
ATOM    100  S   UNL A   1      39.608  36.076  39.376  1.00  0.00     0.124 S 
ATOM    101  O   UNL A   1      38.894  37.348  39.355  1.00  0.00    -0.237 OA
ATOM    102  O   UNL A   1      38.779  34.890  39.584  1.00  0.00    -0.237 OA
ATOM    103  O   UNL A   1      40.879  36.084  40.095  1.00  0.00    -0.744 OA
ENDBRANCH  96 100
ENDBRANCH  70  93
ENDBRANCH  44  45
ENDBRANCH  37  39
ENDBRANCH  36  37
ENDBRANCH  35  36
ENDBRANCH  34  35
ENDBRANCH   1  34
TORSDOF 20
ENDMDL
