MODEL 1
REMARK VINA RESULT:     -11.9      0.000      0.000
REMARK SMILES O=C(OCCOCCOC(=O)[C@@H]1CCCC[C@H]1C(=O)Nc1cccc(-c2nnc(-c3ccccc3)o2)c1)c1ccc(-c2c3nc(c(-c4cc(S(=O)(=O)[O-])ccc4F)c4ccc([nH]4)c(-c4cc(S(=O)(=O)[O-])ccc4F)c4nc(c(-c5cc(S(=O)(=O)[O-])ccc5F)c5ccc2[nH]5)C=C4)C=C3)cc1
REMARK SMILES IDX 7 1 6 2 5 3 4 4 3 5 2 6 1 7 38 8 39 9 100 10 40 11 99 12
REMARK SMILES IDX 41 13 42 14 43 15 93 16 44 17 98 18 92 19 94 20 45 21 97 22
REMARK SMILES IDX 91 23 90 24 46 26 78 27 58 28 77 29 59 30 62 31 76 32 95 33
REMARK SMILES IDX 60 34 61 35 75 37 96 38 63 39 47 40 48 41 56 42 49 43 55 44
REMARK SMILES IDX 57 45 54 46 50 47 51 48 52 49 53 50 79 51 80 52 88 53 81 54
REMARK SMILES IDX 87 55 89 56 86 57 82 58 83 59 84 60 85 61 64 62 65 63 73 64
REMARK SMILES IDX 66 65 72 66 74 67 71 68 67 69 68 70 69 71 70 72 8 73 9 74
REMARK SMILES IDX 10 75 11 76 12 77 13 78 17 79 14 80 16 81 15 82 18 83 19 84
REMARK SMILES IDX 20 85 21 87 22 88 37 89 23 90 25 91 24 92 26 93 27 94 36 95
REMARK SMILES IDX 28 96 29 97 30 98 31 99 35 100 32 101 34 102 33 103
REMARK H PARENT 94 25 62 36 20 86
REMARK Flexibility Score: inf
ROOT
ATOM      1  C   UNL A   1      34.614  29.834  27.279  1.00  0.00     0.202 C 
ENDROOT
BRANCH   1   2
ATOM      2  O   UNL A   1      34.242  31.161  27.631  1.00  0.00    -0.374 OA
BRANCH   2   3
ATOM      3  C   UNL A   1      32.882  31.511  27.412  1.00  0.00     0.202 C 
BRANCH   3   4
ATOM      4  C   UNL A   1      32.587  32.968  27.051  1.00  0.00     0.261 C 
BRANCH   4   5
ATOM      5  O   UNL A   1      32.399  33.759  28.241  1.00  0.00    -0.460 OA
BRANCH   5   6
ATOM      6  C   UNL A   1      33.340  34.543  28.828  1.00  0.00     0.338 C 
ATOM      7  O   UNL A   1      33.261  35.765  28.743  1.00  0.00    -0.246 OA
BRANCH   6   8
ATOM      8  C   UNL A   1      34.474  33.941  29.577  1.00  0.00     0.060 A 
ATOM      9  C   UNL A   1      34.276  32.988  30.570  1.00  0.00     0.016 A 
ATOM     10  C   UNL A   1      35.788  34.266  29.226  1.00  0.00     0.016 A 
ATOM     11  C   UNL A   1      35.307  32.441  31.289  1.00  0.00     0.010 A 
ATOM     12  C   UNL A   1      36.856  33.623  29.864  1.00  0.00     0.010 A 
ATOM     13  C   UNL A   1      36.605  32.696  30.887  1.00  0.00    -0.014 A 
BRANCH  13  14
ATOM     14  C   UNL A   1      37.652  31.922  31.563  1.00  0.00     0.031 A 
ATOM     15  C   UNL A   1      37.940  32.213  32.993  1.00  0.00     0.074 A 
ATOM     16  C   UNL A   1      38.207  30.887  30.903  1.00  0.00     0.049 A 
ATOM     17  N   UNL A   1      38.912  31.774  33.736  1.00  0.00    -0.248 NA
ATOM     18  C   UNL A   1      37.002  33.117  33.682  1.00  0.00     0.031 C 
ATOM     19  C   UNL A   1      37.828  30.443  29.553  1.00  0.00     0.029 A 
ATOM     20  N   UNL A   1      39.175  29.996  31.274  1.00  0.00    -0.354 N 
ATOM     21  C   UNL A   1      38.750  32.398  34.963  1.00  0.00     0.074 A 
ATOM     22  C   UNL A   1      37.562  33.217  34.879  1.00  0.00     0.031 C 
ATOM     23  C   UNL A   1      38.538  29.353  29.227  1.00  0.00     0.029 A 
ATOM     24  C   UNL A   1      39.509  29.105  30.279  1.00  0.00     0.049 A 
ATOM     25  H   UNL A   1      39.592  29.992  32.166  1.00  0.00     0.167 HD
ATOM     26  C   UNL A   1      39.566  32.308  36.038  1.00  0.00     0.034 A 
ATOM     27  C   UNL A   1      40.547  28.250  30.201  1.00  0.00     0.034 A 
ATOM     28  C   UNL A   1      40.736  31.466  36.044  1.00  0.00     0.049 A 
ATOM     29  C   UNL A   1      41.498  28.249  31.370  1.00  0.00     0.074 A 
ATOM     30  C   UNL A   1      41.695  31.318  37.026  1.00  0.00     0.029 A 
ATOM     31  N   UNL A   1      41.103  30.629  34.992  1.00  0.00    -0.354 N 
ATOM     32  N   UNL A   1      41.412  28.917  32.500  1.00  0.00    -0.248 NA
ATOM     33  C   UNL A   1      42.697  27.417  31.247  1.00  0.00     0.031 C 
ATOM     34  C   UNL A   1      42.672  30.438  36.543  1.00  0.00     0.029 A 
ATOM     35  C   UNL A   1      42.292  29.988  35.286  1.00  0.00     0.049 A 
ATOM     36  H   UNL A   1      40.589  30.511  34.161  1.00  0.00     0.167 HD
ATOM     37  C   UNL A   1      42.551  28.591  33.222  1.00  0.00     0.074 A 
ATOM     38  C   UNL A   1      43.284  27.632  32.414  1.00  0.00     0.031 C 
ATOM     39  C   UNL A   1      42.976  29.046  34.429  1.00  0.00     0.034 A 
BRANCH  26  40
ATOM     40  C   UNL A   1      39.285  33.233  37.189  1.00  0.00     0.023 A 
ATOM     41  C   UNL A   1      39.899  34.490  37.317  1.00  0.00     0.031 A 
ATOM     42  C   UNL A   1      38.442  32.800  38.230  1.00  0.00     0.131 A 
ATOM     43  C   UNL A   1      39.708  35.244  38.486  1.00  0.00     0.055 A 
ATOM     44  C   UNL A   1      38.203  33.584  39.359  1.00  0.00     0.041 A 
ATOM     45  F   UNL A   1      37.860  31.592  38.177  1.00  0.00    -0.206 F 
ATOM     46  C   UNL A   1      38.847  34.809  39.498  1.00  0.00     0.022 A 
BRANCH  43  47
ATOM     47  S   UNL A   1      40.689  36.751  38.727  1.00  0.00     0.124 S 
ATOM     48  O   UNL A   1      41.435  36.819  37.474  1.00  0.00    -0.237 OA
ATOM     49  O   UNL A   1      39.665  37.772  38.916  1.00  0.00    -0.237 OA
ATOM     50  O   UNL A   1      41.494  36.452  39.910  1.00  0.00    -0.744 OA
ENDBRANCH  43  47
ENDBRANCH  26  40
BRANCH  27  51
ATOM     51  C   UNL A   1      40.819  27.467  28.958  1.00  0.00     0.023 A 
ATOM     52  C   UNL A   1      41.811  27.861  28.048  1.00  0.00     0.031 A 
ATOM     53  C   UNL A   1      40.038  26.342  28.620  1.00  0.00     0.131 A 
ATOM     54  C   UNL A   1      41.964  27.172  26.832  1.00  0.00     0.055 A 
ATOM     55  C   UNL A   1      40.239  25.619  27.443  1.00  0.00     0.041 A 
ATOM     56  F   UNL A   1      39.059  25.921  29.437  1.00  0.00    -0.206 F 
ATOM     57  C   UNL A   1      41.196  26.045  26.531  1.00  0.00     0.022 A 
BRANCH  54  58
ATOM     58  S   UNL A   1      43.095  27.846  25.584  1.00  0.00     0.124 S 
ATOM     59  O   UNL A   1      43.737  26.637  25.078  1.00  0.00    -0.237 OA
ATOM     60  O   UNL A   1      42.173  28.513  24.670  1.00  0.00    -0.237 OA
ATOM     61  O   UNL A   1      43.961  28.736  26.353  1.00  0.00    -0.744 OA
ENDBRANCH  54  58
ENDBRANCH  27  51
BRANCH  39  62
ATOM     62  C   UNL A   1      44.278  28.484  34.921  1.00  0.00     0.023 A 
ATOM     63  C   UNL A   1      44.315  27.308  35.687  1.00  0.00     0.031 A 
ATOM     64  C   UNL A   1      45.486  29.134  34.625  1.00  0.00     0.131 A 
ATOM     65  C   UNL A   1      45.540  26.841  36.177  1.00  0.00     0.055 A 
ATOM     66  C   UNL A   1      46.708  28.633  35.066  1.00  0.00     0.041 A 
ATOM     67  F   UNL A   1      45.494  30.263  33.897  1.00  0.00    -0.206 F 
ATOM     68  C   UNL A   1      46.738  27.486  35.856  1.00  0.00     0.022 A 
BRANCH  65  69
ATOM     69  S   UNL A   1      45.538  25.420  37.300  1.00  0.00     0.124 S 
ATOM     70  O   UNL A   1      44.798  24.427  36.528  1.00  0.00    -0.237 OA
ATOM     71  O   UNL A   1      46.963  25.157  37.477  1.00  0.00    -0.237 OA
ATOM     72  O   UNL A   1      44.850  25.923  38.487  1.00  0.00    -0.744 OA
ENDBRANCH  65  69
ENDBRANCH  39  62
ENDBRANCH  13  14
ENDBRANCH   6   8
ENDBRANCH   5   6
ENDBRANCH   4   5
ENDBRANCH   3   4
ENDBRANCH   2   3
ENDBRANCH   1   2
BRANCH   1  73
ATOM     73  C   UNL A   1      33.358  29.101  26.827  1.00  0.00     0.261 C 
BRANCH  73  74
ATOM     74  O   UNL A   1      33.666  27.696  26.745  1.00  0.00    -0.463 OA
BRANCH  74  75
ATOM     75  C   UNL A   1      32.623  26.864  26.487  1.00  0.00     0.309 C 
ATOM     76  O   UNL A   1      31.501  26.970  26.965  1.00  0.00    -0.252 OA
BRANCH  75  77
ATOM     77  C   UNL A   1      33.012  25.763  25.512  1.00  0.00     0.111 C 
ATOM     78  C   UNL A   1      33.331  26.398  24.142  1.00  0.00     0.016 C 
ATOM     79  C   UNL A   1      31.986  24.618  25.411  1.00  0.00     0.093 C 
ATOM     80  C   UNL A   1      33.735  25.350  23.119  1.00  0.00     0.001 C 
ATOM     81  C   UNL A   1      32.336  23.629  24.284  1.00  0.00     0.014 C 
ATOM     82  C   UNL A   1      32.624  24.325  22.961  1.00  0.00     0.001 C 
BRANCH  79  83
ATOM     83  C   UNL A   1      31.531  23.751  26.613  1.00  0.00     0.228 C 
ATOM     84  O   UNL A   1      30.523  24.131  27.236  1.00  0.00    -0.274 OA
ATOM     85  N   UNL A   1      31.952  22.497  26.938  1.00  0.00    -0.326 N 
ATOM     86  H   UNL A   1      31.526  22.108  27.736  1.00  0.00     0.169 HD
BRANCH  85  87
ATOM     87  C   UNL A   1      32.893  21.682  26.316  1.00  0.00     0.041 A 
ATOM     88  C   UNL A   1      32.460  20.767  25.361  1.00  0.00     0.026 A 
ATOM     89  C   UNL A   1      34.242  21.805  26.591  1.00  0.00     0.040 A 
ATOM     90  C   UNL A   1      33.400  20.141  24.541  1.00  0.00     0.003 A 
ATOM     91  C   UNL A   1      35.188  21.294  25.702  1.00  0.00     0.041 A 
ATOM     92  C   UNL A   1      34.757  20.454  24.673  1.00  0.00     0.014 A 
BRANCH  91  93
ATOM     93  C   UNL A   1      36.510  21.898  25.682  1.00  0.00     0.248 A 
ATOM     94  N   UNL A   1      36.814  23.150  25.964  1.00  0.00    -0.107 NA
ATOM     95  O   UNL A   1      37.606  21.076  25.652  1.00  0.00    -0.416 OA
ATOM     96  N   UNL A   1      38.172  23.182  26.179  1.00  0.00    -0.107 NA
ATOM     97  C   UNL A   1      38.612  21.958  25.964  1.00  0.00     0.248 A 
BRANCH  97  98
ATOM     98  C   UNL A   1      39.973  21.455  26.007  1.00  0.00     0.039 A 
ATOM     99  C   UNL A   1      40.212  20.074  26.082  1.00  0.00     0.014 A 
ATOM    100  C   UNL A   1      41.059  22.336  26.071  1.00  0.00     0.014 A 
ATOM    101  C   UNL A   1      41.513  19.586  26.230  1.00  0.00     0.001 A 
ATOM    102  C   UNL A   1      42.358  21.847  26.238  1.00  0.00     0.001 A 
ATOM    103  C   UNL A   1      42.583  20.474  26.321  1.00  0.00     0.000 A 
ENDBRANCH  97  98
ENDBRANCH  91  93
ENDBRANCH  85  87
ENDBRANCH  79  83
ENDBRANCH  75  77
ENDBRANCH  74  75
ENDBRANCH  73  74
ENDBRANCH   1  73
TORSDOF 21
ENDMDL
MODEL 2
REMARK VINA RESULT:     -11.9      2.833      3.693
REMARK SMILES O=C(OCCOCCOC(=O)[C@@H]1CCCC[C@H]1C(=O)Nc1cccc(-c2nnc(-c3ccccc3)o2)c1)c1ccc(-c2c3nc(c(-c4cc(S(=O)(=O)[O-])ccc4F)c4ccc([nH]4)c(-c4cc(S(=O)(=O)[O-])ccc4F)c4nc(c(-c5cc(S(=O)(=O)[O-])ccc5F)c5ccc2[nH]5)C=C4)C=C3)cc1
REMARK SMILES IDX 7 1 6 2 5 3 4 4 3 5 2 6 1 7 38 8 39 9 100 10 40 11 99 12
REMARK SMILES IDX 41 13 42 14 43 15 93 16 44 17 98 18 92 19 94 20 45 21 97 22
REMARK SMILES IDX 91 23 90 24 46 26 78 27 58 28 77 29 59 30 62 31 76 32 95 33
REMARK SMILES IDX 60 34 61 35 75 37 96 38 63 39 47 40 48 41 56 42 49 43 55 44
REMARK SMILES IDX 57 45 54 46 50 47 51 48 52 49 53 50 79 51 80 52 88 53 81 54
REMARK SMILES IDX 87 55 89 56 86 57 82 58 83 59 84 60 85 61 64 62 65 63 73 64
REMARK SMILES IDX 66 65 72 66 74 67 71 68 67 69 68 70 69 71 70 72 8 73 9 74
REMARK SMILES IDX 10 75 11 76 12 77 13 78 17 79 14 80 16 81 15 82 18 83 19 84
REMARK SMILES IDX 20 85 21 87 22 88 37 89 23 90 25 91 24 92 26 93 27 94 36 95
REMARK SMILES IDX 28 96 29 97 30 98 31 99 35 100 32 101 34 102 33 103
REMARK H PARENT 94 25 62 36 20 86
REMARK Flexibility Score: inf
ROOT
ATOM      1  C   UNL A   1      30.136  29.556  23.616  1.00  0.00     0.202 C 
ENDROOT
BRANCH   1   2
ATOM      2  O   UNL A   1      31.309  30.018  24.275  1.00  0.00    -0.374 OA
BRANCH   2   3
ATOM      3  C   UNL A   1      31.134  30.507  25.599  1.00  0.00     0.202 C 
BRANCH   3   4
ATOM      4  C   UNL A   1      32.075  29.959  26.673  1.00  0.00     0.261 C 
BRANCH   4   5
ATOM      5  O   UNL A   1      33.401  30.502  26.512  1.00  0.00    -0.460 OA
BRANCH   5   6
ATOM      6  C   UNL A   1      34.024  31.339  27.380  1.00  0.00     0.338 C 
ATOM      7  O   UNL A   1      33.497  32.402  27.694  1.00  0.00    -0.246 OA
BRANCH   6   8
ATOM      8  C   UNL A   1      35.347  30.989  27.961  1.00  0.00     0.060 A 
ATOM      9  C   UNL A   1      36.316  31.952  28.215  1.00  0.00     0.016 A 
ATOM     10  C   UNL A   1      35.607  29.672  28.352  1.00  0.00     0.016 A 
ATOM     11  C   UNL A   1      37.551  31.646  28.727  1.00  0.00     0.010 A 
ATOM     12  C   UNL A   1      36.814  29.363  28.991  1.00  0.00     0.010 A 
ATOM     13  C   UNL A   1      37.777  30.363  29.191  1.00  0.00    -0.014 A 
BRANCH  13  14
ATOM     14  C   UNL A   1      39.037  30.152  29.911  1.00  0.00     0.031 A 
ATOM     15  C   UNL A   1      39.146  30.645  31.311  1.00  0.00     0.074 A 
ATOM     16  C   UNL A   1      39.987  29.397  29.328  1.00  0.00     0.049 A 
ATOM     17  N   UNL A   1      40.198  30.710  32.073  1.00  0.00    -0.248 NA
ATOM     18  C   UNL A   1      37.903  31.124  31.940  1.00  0.00     0.031 C 
ATOM     19  C   UNL A   1      39.857  28.734  28.021  1.00  0.00     0.029 A 
ATOM     20  N   UNL A   1      41.230  29.023  29.755  1.00  0.00    -0.354 N 
ATOM     21  C   UNL A   1      39.765  31.302  33.250  1.00  0.00     0.074 A 
ATOM     22  C   UNL A   1      38.344  31.540  33.118  1.00  0.00     0.031 C 
ATOM     23  C   UNL A   1      40.963  28.020  27.772  1.00  0.00     0.029 A 
ATOM     24  C   UNL A   1      41.927  28.281  28.827  1.00  0.00     0.049 A 
ATOM     25  H   UNL A   1      41.592  29.262  30.639  1.00  0.00     0.167 HD
ATOM     26  C   UNL A   1      40.521  31.642  34.318  1.00  0.00     0.034 A 
ATOM     27  C   UNL A   1      43.228  27.935  28.803  1.00  0.00     0.034 A 
ATOM     28  C   UNL A   1      41.934  31.370  34.374  1.00  0.00     0.049 A 
ATOM     29  C   UNL A   1      44.069  28.420  29.956  1.00  0.00     0.074 A 
ATOM     30  C   UNL A   1      42.847  31.711  35.353  1.00  0.00     0.029 A 
ATOM     31  N   UNL A   1      42.640  30.685  33.386  1.00  0.00    -0.354 N 
ATOM     32  N   UNL A   1      43.688  29.075  31.032  1.00  0.00    -0.248 NA
ATOM     33  C   UNL A   1      45.508  28.159  29.883  1.00  0.00     0.031 C 
ATOM     34  C   UNL A   1      44.113  31.286  34.927  1.00  0.00     0.029 A 
ATOM     35  C   UNL A   1      43.981  30.624  33.714  1.00  0.00     0.049 A 
ATOM     36  H   UNL A   1      42.240  30.301  32.574  1.00  0.00     0.167 HD
ATOM     37  C   UNL A   1      44.843  29.311  31.763  1.00  0.00     0.074 A 
ATOM     38  C   UNL A   1      45.927  28.687  31.023  1.00  0.00     0.031 C 
ATOM     39  C   UNL A   1      45.014  29.992  32.925  1.00  0.00     0.034 A 
BRANCH  26  40
ATOM     40  C   UNL A   1      39.855  32.450  35.397  1.00  0.00     0.023 A 
ATOM     41  C   UNL A   1      39.153  31.858  36.461  1.00  0.00     0.031 A 
ATOM     42  C   UNL A   1      39.854  33.855  35.305  1.00  0.00     0.131 A 
ATOM     43  C   UNL A   1      38.431  32.666  37.354  1.00  0.00     0.055 A 
ATOM     44  C   UNL A   1      39.189  34.654  36.234  1.00  0.00     0.041 A 
ATOM     45  F   UNL A   1      40.476  34.470  34.287  1.00  0.00    -0.206 F 
ATOM     46  C   UNL A   1      38.462  34.060  37.260  1.00  0.00     0.022 A 
BRANCH  43  47
ATOM     47  S   UNL A   1      37.349  31.870  38.576  1.00  0.00     0.124 S 
ATOM     48  O   UNL A   1      36.161  32.717  38.511  1.00  0.00    -0.237 OA
ATOM     49  O   UNL A   1      37.202  30.522  38.040  1.00  0.00    -0.237 OA
ATOM     50  O   UNL A   1      38.109  31.965  39.820  1.00  0.00    -0.744 OA
ENDBRANCH  43  47
ENDBRANCH  26  40
BRANCH  27  51
ATOM     51  C   UNL A   1      43.828  27.245  27.621  1.00  0.00     0.023 A 
ATOM     52  C   UNL A   1      44.045  25.859  27.615  1.00  0.00     0.031 A 
ATOM     53  C   UNL A   1      44.265  27.975  26.496  1.00  0.00     0.131 A 
ATOM     54  C   UNL A   1      44.717  25.256  26.538  1.00  0.00     0.055 A 
ATOM     55  C   UNL A   1      44.870  27.363  25.397  1.00  0.00     0.041 A 
ATOM     56  F   UNL A   1      44.106  29.307  26.443  1.00  0.00    -0.206 F 
ATOM     57  C   UNL A   1      45.117  25.996  25.422  1.00  0.00     0.022 A 
BRANCH  54  58
ATOM     58  S   UNL A   1      45.182  23.507  26.668  1.00  0.00     0.124 S 
ATOM     59  O   UNL A   1      44.310  22.892  25.673  1.00  0.00    -0.237 OA
ATOM     60  O   UNL A   1      46.603  23.547  26.340  1.00  0.00    -0.237 OA
ATOM     61  O   UNL A   1      44.873  23.175  28.057  1.00  0.00    -0.744 OA
ENDBRANCH  54  58
ENDBRANCH  27  51
BRANCH  39  62
ATOM     62  C   UNL A   1      46.421  30.065  33.442  1.00  0.00     0.023 A 
ATOM     63  C   UNL A   1      46.987  28.994  34.153  1.00  0.00     0.031 A 
ATOM     64  C   UNL A   1      47.195  31.215  33.227  1.00  0.00     0.131 A 
ATOM     65  C   UNL A   1      48.281  29.116  34.670  1.00  0.00     0.055 A 
ATOM     66  C   UNL A   1      48.505  31.308  33.693  1.00  0.00     0.041 A 
ATOM     67  F   UNL A   1      46.691  32.263  32.554  1.00  0.00    -0.206 F 
ATOM     68  C   UNL A   1      49.050  30.259  34.429  1.00  0.00     0.022 A 
BRANCH  65  69
ATOM     69  S   UNL A   1      48.921  27.789  35.723  1.00  0.00     0.124 S 
ATOM     70  O   UNL A   1      49.105  26.704  34.763  1.00  0.00    -0.237 OA
ATOM     71  O   UNL A   1      50.145  28.376  36.262  1.00  0.00    -0.237 OA
ATOM     72  O   UNL A   1      47.853  27.581  36.698  1.00  0.00    -0.744 OA
ENDBRANCH  65  69
ENDBRANCH  39  62
ENDBRANCH  13  14
ENDBRANCH   6   8
ENDBRANCH   5   6
ENDBRANCH   4   5
ENDBRANCH   3   4
ENDBRANCH   2   3
ENDBRANCH   1   2
BRANCH   1  73
ATOM     73  C   UNL A   1      30.474  28.237  22.933  1.00  0.00     0.261 C 
BRANCH  73  74
ATOM     74  O   UNL A   1      31.906  28.082  22.944  1.00  0.00    -0.463 OA
BRANCH  74  75
ATOM     75  C   UNL A   1      32.412  27.218  23.863  1.00  0.00     0.309 C 
ATOM     76  O   UNL A   1      33.556  27.242  24.298  1.00  0.00    -0.252 OA
BRANCH  75  77
ATOM     77  C   UNL A   1      31.375  26.196  24.303  1.00  0.00     0.111 C 
ATOM     78  C   UNL A   1      30.964  26.497  25.760  1.00  0.00     0.016 C 
ATOM     79  C   UNL A   1      31.807  24.731  24.098  1.00  0.00     0.093 C 
ATOM     80  C   UNL A   1      29.921  25.512  26.261  1.00  0.00     0.001 C 
ATOM     81  C   UNL A   1      30.805  23.743  24.723  1.00  0.00     0.014 C 
ATOM     82  C   UNL A   1      30.457  24.094  26.164  1.00  0.00     0.001 C 
BRANCH  79  83
ATOM     83  C   UNL A   1      32.201  24.126  22.726  1.00  0.00     0.228 C 
ATOM     84  O   UNL A   1      32.250  24.904  21.757  1.00  0.00    -0.274 OA
ATOM     85  N   UNL A   1      32.730  22.894  22.483  1.00  0.00    -0.326 N 
ATOM     86  H   UNL A   1      32.930  22.705  21.538  1.00  0.00     0.169 HD
BRANCH  85  87
ATOM     87  C   UNL A   1      33.032  21.863  23.367  1.00  0.00     0.041 A 
ATOM     88  C   UNL A   1      32.258  20.706  23.336  1.00  0.00     0.026 A 
ATOM     89  C   UNL A   1      34.111  21.947  24.227  1.00  0.00     0.040 A 
ATOM     90  C   UNL A   1      32.703  19.570  24.012  1.00  0.00     0.003 A 
ATOM     91  C   UNL A   1      34.642  20.792  24.801  1.00  0.00     0.041 A 
ATOM     92  C   UNL A   1      33.926  19.597  24.692  1.00  0.00     0.014 A 
BRANCH  91  93
ATOM     93  C   UNL A   1      36.040  20.803  25.201  1.00  0.00     0.248 A 
ATOM     94  N   UNL A   1      36.980  19.962  24.816  1.00  0.00    -0.107 NA
ATOM     95  O   UNL A   1      36.541  21.928  25.801  1.00  0.00    -0.416 OA
ATOM     96  N   UNL A   1      38.182  20.554  25.127  1.00  0.00    -0.107 NA
ATOM     97  C   UNL A   1      37.893  21.693  25.726  1.00  0.00     0.248 A 
BRANCH  97  98
ATOM     98  C   UNL A   1      38.792  22.678  26.297  1.00  0.00     0.039 A 
ATOM     99  C   UNL A   1      40.026  22.279  26.834  1.00  0.00     0.014 A 
ATOM    100  C   UNL A   1      38.406  24.020  26.408  1.00  0.00     0.014 A 
ATOM    101  C   UNL A   1      40.850  23.203  27.481  1.00  0.00     0.001 A 
ATOM    102  C   UNL A   1      39.223  24.939  27.071  1.00  0.00     0.001 A 
ATOM    103  C   UNL A   1      40.442  24.529  27.610  1.00  0.00     0.000 A 
ENDBRANCH  97  98
ENDBRANCH  91  93
ENDBRANCH  85  87
ENDBRANCH  79  83
ENDBRANCH  75  77
ENDBRANCH  74  75
ENDBRANCH  73  74
ENDBRANCH   1  73
TORSDOF 21
ENDMDL
MODEL 3
REMARK VINA RESULT:     -11.3      2.220      2.810
REMARK SMILES O=C(OCCOCCOC(=O)[C@@H]1CCCC[C@H]1C(=O)Nc1cccc(-c2nnc(-c3ccccc3)o2)c1)c1ccc(-c2c3nc(c(-c4cc(S(=O)(=O)[O-])ccc4F)c4ccc([nH]4)c(-c4cc(S(=O)(=O)[O-])ccc4F)c4nc(c(-c5cc(S(=O)(=O)[O-])ccc5F)c5ccc2[nH]5)C=C4)C=C3)cc1
REMARK SMILES IDX 7 1 6 2 5 3 4 4 3 5 2 6 1 7 38 8 39 9 100 10 40 11 99 12
REMARK SMILES IDX 41 13 42 14 43 15 93 16 44 17 98 18 92 19 94 20 45 21 97 22
REMARK SMILES IDX 91 23 90 24 46 26 78 27 58 28 77 29 59 30 62 31 76 32 95 33
REMARK SMILES IDX 60 34 61 35 75 37 96 38 63 39 47 40 48 41 56 42 49 43 55 44
REMARK SMILES IDX 57 45 54 46 50 47 51 48 52 49 53 50 79 51 80 52 88 53 81 54
REMARK SMILES IDX 87 55 89 56 86 57 82 58 83 59 84 60 85 61 64 62 65 63 73 64
REMARK SMILES IDX 66 65 72 66 74 67 71 68 67 69 68 70 69 71 70 72 8 73 9 74
REMARK SMILES IDX 10 75 11 76 12 77 13 78 17 79 14 80 16 81 15 82 18 83 19 84
REMARK SMILES IDX 20 85 21 87 22 88 37 89 23 90 25 91 24 92 26 93 27 94 36 95
REMARK SMILES IDX 28 96 29 97 30 98 31 99 35 100 32 101 34 102 33 103
REMARK H PARENT 94 25 62 36 20 86
REMARK Flexibility Score: inf
ROOT
ATOM      1  C   UNL A   1      33.215  29.996  27.077  1.00  0.00     0.202 C 
ENDROOT
BRANCH   1   2
ATOM      2  O   UNL A   1      33.777  31.282  27.313  1.00  0.00    -0.374 OA
BRANCH   2   3
ATOM      3  C   UNL A   1      32.854  32.340  27.531  1.00  0.00     0.202 C 
BRANCH   3   4
ATOM      4  C   UNL A   1      33.438  33.716  27.857  1.00  0.00     0.261 C 
BRANCH   4   5
ATOM      5  O   UNL A   1      32.720  34.328  28.946  1.00  0.00    -0.460 OA
BRANCH   5   6
ATOM      6  C   UNL A   1      33.281  34.907  30.038  1.00  0.00     0.338 C 
ATOM      7  O   UNL A   1      32.839  35.970  30.465  1.00  0.00    -0.246 OA
BRANCH   6   8
ATOM      8  C   UNL A   1      34.432  34.272  30.732  1.00  0.00     0.060 A 
ATOM      9  C   UNL A   1      34.343  33.002  31.291  1.00  0.00     0.016 A 
ATOM     10  C   UNL A   1      35.672  34.918  30.754  1.00  0.00     0.016 A 
ATOM     11  C   UNL A   1      35.386  32.409  31.956  1.00  0.00     0.010 A 
ATOM     12  C   UNL A   1      36.780  34.274  31.319  1.00  0.00     0.010 A 
ATOM     13  C   UNL A   1      36.631  33.008  31.905  1.00  0.00    -0.014 A 
BRANCH  13  14
ATOM     14  C   UNL A   1      37.743  32.227  32.456  1.00  0.00     0.031 A 
ATOM     15  C   UNL A   1      38.167  32.487  33.859  1.00  0.00     0.074 A 
ATOM     16  C   UNL A   1      38.238  31.213  31.721  1.00  0.00     0.049 A 
ATOM     17  N   UNL A   1      39.210  32.038  34.492  1.00  0.00    -0.248 NA
ATOM     18  C   UNL A   1      37.295  33.365  34.658  1.00  0.00     0.031 C 
ATOM     19  C   UNL A   1      37.732  30.799  30.403  1.00  0.00     0.029 A 
ATOM     20  N   UNL A   1      39.243  30.322  31.974  1.00  0.00    -0.354 N 
ATOM     21  C   UNL A   1      39.164  32.631  35.745  1.00  0.00     0.074 A 
ATOM     22  C   UNL A   1      37.968  33.442  35.797  1.00  0.00     0.031 C 
ATOM     23  C   UNL A   1      38.414  29.723  29.983  1.00  0.00     0.029 A 
ATOM     24  C   UNL A   1      39.484  29.458  30.929  1.00  0.00     0.049 A 
ATOM     25  H   UNL A   1      39.745  30.300  32.821  1.00  0.00     0.167 HD
ATOM     26  C   UNL A   1      40.082  32.522  36.733  1.00  0.00     0.034 A 
ATOM     27  C   UNL A   1      40.515  28.614  30.730  1.00  0.00     0.034 A 
ATOM     28  C   UNL A   1      41.251  31.691  36.604  1.00  0.00     0.049 A 
ATOM     29  C   UNL A   1      41.575  28.593  31.800  1.00  0.00     0.074 A 
ATOM     30  C   UNL A   1      42.302  31.527  37.485  1.00  0.00     0.029 A 
ATOM     31  N   UNL A   1      41.519  30.882  35.502  1.00  0.00    -0.354 N 
ATOM     32  N   UNL A   1      41.595  29.233  32.950  1.00  0.00    -0.248 NA
ATOM     33  C   UNL A   1      42.762  27.775  31.541  1.00  0.00     0.031 C 
ATOM     34  C   UNL A   1      43.233  30.667  36.888  1.00  0.00     0.029 A 
ATOM     35  C   UNL A   1      42.735  30.244  35.663  1.00  0.00     0.049 A 
ATOM     36  H   UNL A   1      40.928  30.780  34.721  1.00  0.00     0.167 HD
ATOM     37  C   UNL A   1      42.801  28.899  33.550  1.00  0.00     0.074 A 
ATOM     38  C   UNL A   1      43.458  27.967  32.651  1.00  0.00     0.031 C 
ATOM     39  C   UNL A   1      43.338  29.329  34.720  1.00  0.00     0.034 A 
BRANCH  26  40
ATOM     40  C   UNL A   1      39.908  33.417  37.929  1.00  0.00     0.023 A 
ATOM     41  C   UNL A   1      39.137  33.047  39.044  1.00  0.00     0.031 A 
ATOM     42  C   UNL A   1      40.463  34.710  37.907  1.00  0.00     0.131 A 
ATOM     43  C   UNL A   1      38.893  33.983  40.063  1.00  0.00     0.055 A 
ATOM     44  C   UNL A   1      40.272  35.611  38.954  1.00  0.00     0.041 A 
ATOM     45  F   UNL A   1      41.175  35.127  36.849  1.00  0.00    -0.206 F 
ATOM     46  C   UNL A   1      39.473  35.254  40.035  1.00  0.00     0.022 A 
BRANCH  43  47
ATOM     47  S   UNL A   1      37.710  33.562  41.374  1.00  0.00     0.124 S 
ATOM     48  O   UNL A   1      38.567  32.868  42.331  1.00  0.00    -0.237 OA
ATOM     49  O   UNL A   1      37.218  34.870  41.790  1.00  0.00    -0.237 OA
ATOM     50  O   UNL A   1      36.731  32.716  40.694  1.00  0.00    -0.744 OA
ENDBRANCH  43  47
ENDBRANCH  26  40
BRANCH  27  51
ATOM     51  C   UNL A   1      40.669  27.864  29.447  1.00  0.00     0.023 A 
ATOM     52  C   UNL A   1      41.624  28.239  28.491  1.00  0.00     0.031 A 
ATOM     53  C   UNL A   1      39.810  26.793  29.122  1.00  0.00     0.131 A 
ATOM     54  C   UNL A   1      41.667  27.587  27.246  1.00  0.00     0.055 A 
ATOM     55  C   UNL A   1      39.901  26.104  27.912  1.00  0.00     0.041 A 
ATOM     56  F   UNL A   1      38.861  26.393  29.983  1.00  0.00    -0.206 F 
ATOM     57  C   UNL A   1      40.823  26.512  26.956  1.00  0.00     0.022 A 
BRANCH  54  58
ATOM     58  S   UNL A   1      42.756  28.247  25.953  1.00  0.00     0.124 S 
ATOM     59  O   UNL A   1      42.201  27.630  24.752  1.00  0.00    -0.237 OA
ATOM     60  O   UNL A   1      42.548  29.685  26.089  1.00  0.00    -0.237 OA
ATOM     61  O   UNL A   1      44.079  27.769  26.345  1.00  0.00    -0.744 OA
ENDBRANCH  54  58
ENDBRANCH  27  51
BRANCH  39  62
ATOM     62  C   UNL A   1      44.685  28.766  35.069  1.00  0.00     0.023 A 
ATOM     63  C   UNL A   1      45.866  29.424  34.687  1.00  0.00     0.031 A 
ATOM     64  C   UNL A   1      44.786  27.561  35.781  1.00  0.00     0.131 A 
ATOM     65  C   UNL A   1      47.105  28.844  34.979  1.00  0.00     0.055 A 
ATOM     66  C   UNL A   1      46.023  27.018  36.121  1.00  0.00     0.041 A 
ATOM     67  F   UNL A   1      43.681  26.899  36.164  1.00  0.00    -0.206 F 
ATOM     68  C   UNL A   1      47.191  27.654  35.709  1.00  0.00     0.022 A 
BRANCH  65  69
ATOM     69  S   UNL A   1      48.603  29.628  34.328  1.00  0.00     0.124 S 
ATOM     70  O   UNL A   1      48.543  30.950  34.944  1.00  0.00    -0.237 OA
ATOM     71  O   UNL A   1      49.658  28.745  34.817  1.00  0.00    -0.237 OA
ATOM     72  O   UNL A   1      48.399  29.606  32.881  1.00  0.00    -0.744 OA
ENDBRANCH  65  69
ENDBRANCH  39  62
ENDBRANCH  13  14
ENDBRANCH   6   8
ENDBRANCH   5   6
ENDBRANCH   4   5
ENDBRANCH   3   4
ENDBRANCH   2   3
ENDBRANCH   1   2
BRANCH   1  73
ATOM     73  C   UNL A   1      34.331  29.080  26.593  1.00  0.00     0.261 C 
BRANCH  73  74
ATOM     74  O   UNL A   1      33.730  27.982  25.881  1.00  0.00    -0.463 OA
BRANCH  74  75
ATOM     75  C   UNL A   1      33.629  28.119  24.533  1.00  0.00     0.309 C 
ATOM     76  O   UNL A   1      34.509  28.551  23.800  1.00  0.00    -0.252 OA
BRANCH  75  77
ATOM     77  C   UNL A   1      32.270  27.663  24.024  1.00  0.00     0.111 C 
ATOM     78  C   UNL A   1      31.874  28.529  22.809  1.00  0.00     0.016 C 
ATOM     79  C   UNL A   1      31.173  27.620  25.105  1.00  0.00     0.093 C 
ATOM     80  C   UNL A   1      30.524  28.120  22.246  1.00  0.00     0.001 C 
ATOM     81  C   UNL A   1      29.785  27.331  24.506  1.00  0.00     0.014 C 
ATOM     82  C   UNL A   1      29.457  28.232  23.323  1.00  0.00     0.001 C 
BRANCH  79  83
ATOM     83  C   UNL A   1      31.263  26.772  26.400  1.00  0.00     0.228 C 
ATOM     84  O   UNL A   1      30.917  27.321  27.462  1.00  0.00    -0.274 OA
ATOM     85  N   UNL A   1      31.452  25.427  26.500  1.00  0.00    -0.326 N 
ATOM     86  H   UNL A   1      31.462  25.074  27.419  1.00  0.00     0.169 HD
BRANCH  85  87
ATOM     87  C   UNL A   1      31.632  24.475  25.502  1.00  0.00     0.041 A 
ATOM     88  C   UNL A   1      30.633  24.304  24.549  1.00  0.00     0.026 A 
ATOM     89  C   UNL A   1      32.802  23.743  25.412  1.00  0.00     0.040 A 
ATOM     90  C   UNL A   1      30.905  23.561  23.400  1.00  0.00     0.003 A 
ATOM     91  C   UNL A   1      33.141  23.106  24.218  1.00  0.00     0.041 A 
ATOM     92  C   UNL A   1      32.179  23.016  23.208  1.00  0.00     0.014 A 
BRANCH  91  93
ATOM     93  C   UNL A   1      34.547  22.854  23.947  1.00  0.00     0.248 A 
ATOM     94  N   UNL A   1      35.240  23.266  22.903  1.00  0.00    -0.107 NA
ATOM     95  O   UNL A   1      35.339  22.399  24.968  1.00  0.00    -0.416 OA
ATOM     96  N   UNL A   1      36.567  23.128  23.237  1.00  0.00    -0.107 NA
ATOM     97  C   UNL A   1      36.593  22.594  24.443  1.00  0.00     0.248 A 
BRANCH  97  98
ATOM     98  C   UNL A   1      37.739  22.197  25.241  1.00  0.00     0.039 A 
ATOM     99  C   UNL A   1      38.389  23.136  26.056  1.00  0.00     0.014 A 
ATOM    100  C   UNL A   1      38.269  20.905  25.139  1.00  0.00     0.014 A 
ATOM    101  C   UNL A   1      39.555  22.791  26.745  1.00  0.00     0.001 A 
ATOM    102  C   UNL A   1      39.444  20.566  25.814  1.00  0.00     0.001 A 
ATOM    103  C   UNL A   1      40.088  21.510  26.613  1.00  0.00     0.000 A 
ENDBRANCH  97  98
ENDBRANCH  91  93
ENDBRANCH  85  87
ENDBRANCH  79  83
ENDBRANCH  75  77
ENDBRANCH  74  75
ENDBRANCH  73  74
ENDBRANCH   1  73
TORSDOF 21
ENDMDL
