MODEL 1
REMARK VINA RESULT:     -12.0      0.000      0.000
REMARK SMILES O=C(OCCOCCOC(=O)[C@@H]1[C@@H](C(=O)Nc2cccc([N+](=O)[O-])c2)[C@@H]2C=C[C@H]1O2)c1ccc(-c2c3nc(c(-c4cc(S(=O)(=O)[O-])ccc4F)c4ccc([nH]4)c(-c4cc(S(=O)(=O)[O-])ccc4F)c4nc(c(-c5cc(S(=O)(=O)[O-])ccc5F)c5ccc2[nH]5)C=C4)C=C3)cc1
REMARK SMILES IDX 6 1 5 2 4 3 3 4 2 5 1 6 31 7 32 8 93 9 33 10 92 11 34 12
REMARK SMILES IDX 35 13 36 14 86 15 37 16 91 17 85 18 87 19 38 20 90 21 84 22
REMARK SMILES IDX 83 23 39 25 71 26 51 27 70 28 52 29 55 30 69 31 88 32 53 33
REMARK SMILES IDX 54 34 68 36 89 37 56 38 40 39 41 40 49 41 42 42 48 43 50 44
REMARK SMILES IDX 47 45 43 46 44 47 45 48 46 49 72 50 73 51 81 52 74 53 80 54
REMARK SMILES IDX 82 55 79 56 75 57 76 58 77 59 78 60 57 61 58 62 66 63 59 64
REMARK SMILES IDX 65 65 67 66 64 67 60 68 61 69 62 70 63 71 7 72 8 73 9 74
REMARK SMILES IDX 10 75 11 76 12 77 13 78 29 79 26 80 28 81 30 82 27 83 14 84
REMARK SMILES IDX 15 85 16 86 17 88 18 89 25 90 19 91 21 92 20 93 22 94 23 95
REMARK SMILES IDX 24 96
REMARK H PARENT 87 24 55 35 16 87
REMARK Flexibility Score: inf
ROOT
ATOM      1  O   UNL A   1      31.408  27.734  23.852  1.00  0.00    -0.374 OA
ENDROOT
BRANCH   1   2
ATOM      2  C   UNL A   1      31.705  29.128  23.903  1.00  0.00     0.202 C 
BRANCH   2   3
ATOM      3  C   UNL A   1      31.640  29.802  25.269  1.00  0.00     0.261 C 
BRANCH   3   4
ATOM      4  O   UNL A   1      32.956  30.048  25.773  1.00  0.00    -0.460 OA
BRANCH   4   5
ATOM      5  C   UNL A   1      33.254  30.916  26.772  1.00  0.00     0.338 C 
ATOM      6  O   UNL A   1      32.494  31.848  27.017  1.00  0.00    -0.246 OA
BRANCH   5   7
ATOM      7  C   UNL A   1      34.454  30.721  27.626  1.00  0.00     0.060 A 
ATOM      8  C   UNL A   1      34.803  29.490  28.179  1.00  0.00     0.016 A 
ATOM      9  C   UNL A   1      35.312  31.806  27.821  1.00  0.00     0.016 A 
ATOM     10  C   UNL A   1      35.905  29.337  28.985  1.00  0.00     0.010 A 
ATOM     11  C   UNL A   1      36.492  31.639  28.550  1.00  0.00     0.010 A 
ATOM     12  C   UNL A   1      36.788  30.394  29.123  1.00  0.00    -0.014 A 
BRANCH  12  13
ATOM     13  C   UNL A   1      38.000  30.133  29.908  1.00  0.00     0.031 A 
ATOM     14  C   UNL A   1      39.061  29.281  29.302  1.00  0.00     0.074 A 
ATOM     15  C   UNL A   1      38.166  30.788  31.075  1.00  0.00     0.049 A 
ATOM     16  N   UNL A   1      40.142  28.807  29.849  1.00  0.00    -0.248 NA
ATOM     17  C   UNL A   1      38.882  28.916  27.887  1.00  0.00     0.031 C 
ATOM     18  C   UNL A   1      37.228  31.773  31.632  1.00  0.00     0.029 A 
ATOM     19  N   UNL A   1      39.187  30.762  31.983  1.00  0.00    -0.354 N 
ATOM     20  C   UNL A   1      40.746  28.037  28.864  1.00  0.00     0.074 A 
ATOM     21  C   UNL A   1      39.921  28.123  27.681  1.00  0.00     0.031 C 
ATOM     22  C   UNL A   1      37.734  32.273  32.769  1.00  0.00     0.029 A 
ATOM     23  C   UNL A   1      38.961  31.558  33.082  1.00  0.00     0.049 A 
ATOM     24  H   UNL A   1      40.004  30.225  31.861  1.00  0.00     0.167 HD
ATOM     25  C   UNL A   1      41.881  27.310  28.976  1.00  0.00     0.034 A 
ATOM     26  C   UNL A   1      39.641  31.634  34.242  1.00  0.00     0.034 A 
ATOM     27  C   UNL A   1      42.652  27.276  30.193  1.00  0.00     0.049 A 
ATOM     28  C   UNL A   1      40.838  30.729  34.377  1.00  0.00     0.074 A 
ATOM     29  C   UNL A   1      43.778  26.532  30.486  1.00  0.00     0.029 A 
ATOM     30  N   UNL A   1      42.364  28.033  31.326  1.00  0.00    -0.354 N 
ATOM     31  N   UNL A   1      41.356  29.910  33.486  1.00  0.00    -0.248 NA
ATOM     32  C   UNL A   1      41.532  30.736  35.667  1.00  0.00     0.031 C 
ATOM     33  C   UNL A   1      44.129  26.790  31.815  1.00  0.00     0.029 A 
ATOM     34  C   UNL A   1      43.274  27.756  32.329  1.00  0.00     0.049 A 
ATOM     35  H   UNL A   1      41.620  28.673  31.401  1.00  0.00     0.167 HD
ATOM     36  C   UNL A   1      42.449  29.317  34.104  1.00  0.00     0.074 A 
ATOM     37  C   UNL A   1      42.530  29.898  35.431  1.00  0.00     0.031 C 
ATOM     38  C   UNL A   1      43.305  28.372  33.636  1.00  0.00     0.034 A 
BRANCH  25  39
ATOM     39  C   UNL A   1      42.249  26.427  27.814  1.00  0.00     0.023 A 
ATOM     40  C   UNL A   1      41.753  25.119  27.677  1.00  0.00     0.031 A 
ATOM     41  C   UNL A   1      43.184  26.880  26.867  1.00  0.00     0.131 A 
ATOM     42  C   UNL A   1      42.243  24.290  26.654  1.00  0.00     0.055 A 
ATOM     43  C   UNL A   1      43.610  26.077  25.808  1.00  0.00     0.041 A 
ATOM     44  F   UNL A   1      43.723  28.106  26.972  1.00  0.00    -0.206 F 
ATOM     45  C   UNL A   1      43.149  24.769  25.704  1.00  0.00     0.022 A 
BRANCH  42  46
ATOM     46  S   UNL A   1      41.786  22.535  26.660  1.00  0.00     0.124 S 
ATOM     47  O   UNL A   1      40.333  22.609  26.794  1.00  0.00    -0.237 OA
ATOM     48  O   UNL A   1      42.284  22.072  25.371  1.00  0.00    -0.237 OA
ATOM     49  O   UNL A   1      42.486  22.002  27.828  1.00  0.00    -0.744 OA
ENDBRANCH  42  46
ENDBRANCH  25  39
BRANCH  26  50
ATOM     50  C   UNL A   1      39.159  32.480  35.376  1.00  0.00     0.023 A 
ATOM     51  C   UNL A   1      39.634  33.787  35.564  1.00  0.00     0.031 A 
ATOM     52  C   UNL A   1      38.269  31.969  36.341  1.00  0.00     0.131 A 
ATOM     53  C   UNL A   1      39.272  34.510  36.712  1.00  0.00     0.055 A 
ATOM     54  C   UNL A   1      37.852  32.717  37.444  1.00  0.00     0.041 A 
ATOM     55  F   UNL A   1      37.784  30.720  36.231  1.00  0.00    -0.206 F 
ATOM     56  C   UNL A   1      38.372  33.990  37.645  1.00  0.00     0.022 A 
BRANCH  53  57
ATOM     57  S   UNL A   1      40.102  36.088  37.042  1.00  0.00     0.124 S 
ATOM     58  O   UNL A   1      41.435  35.645  37.436  1.00  0.00    -0.237 OA
ATOM     59  O   UNL A   1      40.003  36.758  35.750  1.00  0.00    -0.237 OA
ATOM     60  O   UNL A   1      39.299  36.677  38.112  1.00  0.00    -0.744 OA
ENDBRANCH  53  57
ENDBRANCH  26  50
BRANCH  38  61
ATOM     61  C   UNL A   1      44.416  27.968  34.563  1.00  0.00     0.023 A 
ATOM     62  C   UNL A   1      44.215  27.021  35.580  1.00  0.00     0.031 A 
ATOM     63  C   UNL A   1      45.689  28.548  34.428  1.00  0.00     0.131 A 
ATOM     64  C   UNL A   1      45.259  26.725  36.464  1.00  0.00     0.055 A 
ATOM     65  C   UNL A   1      46.744  28.196  35.267  1.00  0.00     0.041 A 
ATOM     66  F   UNL A   1      45.927  29.460  33.471  1.00  0.00    -0.206 F 
ATOM     67  C   UNL A   1      46.528  27.290  36.302  1.00  0.00     0.022 A 
BRANCH  64  68
ATOM     68  S   UNL A   1      44.907  25.666  37.892  1.00  0.00     0.124 S 
ATOM     69  O   UNL A   1      46.210  25.596  38.545  1.00  0.00    -0.237 OA
ATOM     70  O   UNL A   1      43.880  26.423  38.599  1.00  0.00    -0.237 OA
ATOM     71  O   UNL A   1      44.449  24.417  37.286  1.00  0.00    -0.744 OA
ENDBRANCH  64  68
ENDBRANCH  38  61
ENDBRANCH  12  13
ENDBRANCH   5   7
ENDBRANCH   4   5
ENDBRANCH   3   4
ENDBRANCH   2   3
ENDBRANCH   1   2
BRANCH   1  72
ATOM     72  C   UNL A   1      31.826  27.057  22.671  1.00  0.00     0.202 C 
BRANCH  72  73
ATOM     73  C   UNL A   1      33.331  26.806  22.743  1.00  0.00     0.261 C 
BRANCH  73  74
ATOM     74  O   UNL A   1      33.660  26.225  24.025  1.00  0.00    -0.463 OA
BRANCH  74  75
ATOM     75  C   UNL A   1      33.491  24.873  24.102  1.00  0.00     0.312 C 
ATOM     76  O   UNL A   1      33.431  24.120  23.136  1.00  0.00    -0.252 OA
BRANCH  75  77
ATOM     77  C   UNL A   1      33.261  24.437  25.528  1.00  0.00     0.147 C 
ATOM     78  C   UNL A   1      32.980  22.928  25.747  1.00  0.00     0.129 C 
ATOM     79  C   UNL A   1      31.950  25.036  26.067  1.00  0.00     0.157 C 
ATOM     80  C   UNL A   1      31.691  22.935  26.573  1.00  0.00     0.155 C 
ATOM     81  C   UNL A   1      30.726  24.565  25.327  1.00  0.00     0.004 C 
ATOM     82  O   UNL A   1      31.808  24.211  27.260  1.00  0.00    -0.365 OA
ATOM     83  C   UNL A   1      30.553  23.278  25.656  1.00  0.00     0.004 C 
BRANCH  78  84
ATOM     84  C   UNL A   1      34.143  22.059  26.206  1.00  0.00     0.231 C 
ATOM     85  O   UNL A   1      35.044  22.559  26.889  1.00  0.00    -0.274 OA
ATOM     86  N   UNL A   1      34.181  20.713  26.021  1.00  0.00    -0.325 N 
ATOM     87  H   UNL A   1      34.685  20.204  26.696  1.00  0.00     0.169 HD
BRANCH  86  88
ATOM     88  C   UNL A   1      33.602  19.959  25.007  1.00  0.00     0.048 A 
ATOM     89  C   UNL A   1      32.697  20.577  24.148  1.00  0.00     0.026 A 
ATOM     90  C   UNL A   1      33.872  18.598  24.890  1.00  0.00     0.111 A 
ATOM     91  C   UNL A   1      32.159  19.862  23.078  1.00  0.00     0.009 A 
ATOM     92  C   UNL A   1      33.331  17.882  23.821  1.00  0.00     0.271 A 
ATOM     93  C   UNL A   1      32.485  18.515  22.900  1.00  0.00     0.086 A 
BRANCH  92  94
ATOM     94  N   UNL A   1      33.649  16.459  23.673  1.00  0.00     0.062 N 
ATOM     95  O   UNL A   1      33.177  15.676  24.509  1.00  0.00    -0.258 OA
ATOM     96  O   UNL A   1      34.401  16.127  22.745  1.00  0.00    -0.258 OA
ENDBRANCH  92  94
ENDBRANCH  86  88
ENDBRANCH  78  84
ENDBRANCH  75  77
ENDBRANCH  74  75
ENDBRANCH  73  74
ENDBRANCH  72  73
ENDBRANCH   1  72
TORSDOF 20
ENDMDL
MODEL 2
REMARK VINA RESULT:     -11.3      4.836      7.358
REMARK SMILES O=C(OCCOCCOC(=O)[C@@H]1[C@@H](C(=O)Nc2cccc([N+](=O)[O-])c2)[C@@H]2C=C[C@H]1O2)c1ccc(-c2c3nc(c(-c4cc(S(=O)(=O)[O-])ccc4F)c4ccc([nH]4)c(-c4cc(S(=O)(=O)[O-])ccc4F)c4nc(c(-c5cc(S(=O)(=O)[O-])ccc5F)c5ccc2[nH]5)C=C4)C=C3)cc1
REMARK SMILES IDX 6 1 5 2 4 3 3 4 2 5 1 6 31 7 32 8 93 9 33 10 92 11 34 12
REMARK SMILES IDX 35 13 36 14 86 15 37 16 91 17 85 18 87 19 38 20 90 21 84 22
REMARK SMILES IDX 83 23 39 25 71 26 51 27 70 28 52 29 55 30 69 31 88 32 53 33
REMARK SMILES IDX 54 34 68 36 89 37 56 38 40 39 41 40 49 41 42 42 48 43 50 44
REMARK SMILES IDX 47 45 43 46 44 47 45 48 46 49 72 50 73 51 81 52 74 53 80 54
REMARK SMILES IDX 82 55 79 56 75 57 76 58 77 59 78 60 57 61 58 62 66 63 59 64
REMARK SMILES IDX 65 65 67 66 64 67 60 68 61 69 62 70 63 71 7 72 8 73 9 74
REMARK SMILES IDX 10 75 11 76 12 77 13 78 29 79 26 80 28 81 30 82 27 83 14 84
REMARK SMILES IDX 15 85 16 86 17 88 18 89 25 90 19 91 21 92 20 93 22 94 23 95
REMARK SMILES IDX 24 96
REMARK H PARENT 87 24 55 35 16 87
REMARK Flexibility Score: inf
ROOT
ATOM      1  O   UNL A   1      37.388  22.179  23.947  1.00  0.00    -0.374 OA
ENDROOT
BRANCH   1   2
ATOM      2  C   UNL A   1      36.912  21.329  24.988  1.00  0.00     0.202 C 
BRANCH   2   3
ATOM      3  C   UNL A   1      37.785  20.137  25.365  1.00  0.00     0.261 C 
BRANCH   3   4
ATOM      4  O   UNL A   1      39.165  20.513  25.392  1.00  0.00    -0.460 OA
BRANCH   4   5
ATOM      5  C   UNL A   1      39.873  20.787  26.516  1.00  0.00     0.338 C 
ATOM      6  O   UNL A   1      40.227  19.872  27.253  1.00  0.00    -0.246 OA
BRANCH   5   7
ATOM      7  C   UNL A   1      40.290  22.177  26.841  1.00  0.00     0.060 A 
ATOM      8  C   UNL A   1      41.385  22.472  27.650  1.00  0.00     0.016 A 
ATOM      9  C   UNL A   1      39.597  23.233  26.245  1.00  0.00     0.016 A 
ATOM     10  C   UNL A   1      41.740  23.764  27.956  1.00  0.00     0.010 A 
ATOM     11  C   UNL A   1      40.013  24.549  26.463  1.00  0.00     0.010 A 
ATOM     12  C   UNL A   1      41.096  24.807  27.315  1.00  0.00    -0.014 A 
BRANCH  12  13
ATOM     13  C   UNL A   1      41.593  26.157  27.602  1.00  0.00     0.031 A 
ATOM     14  C   UNL A   1      42.910  26.558  27.033  1.00  0.00     0.074 A 
ATOM     15  C   UNL A   1      40.781  27.021  28.244  1.00  0.00     0.049 A 
ATOM     16  N   UNL A   1      43.607  27.633  27.259  1.00  0.00    -0.248 NA
ATOM     17  C   UNL A   1      43.522  25.624  26.073  1.00  0.00     0.031 C 
ATOM     18  C   UNL A   1      39.406  26.728  28.673  1.00  0.00     0.029 A 
ATOM     19  N   UNL A   1      40.965  28.323  28.613  1.00  0.00    -0.354 N 
ATOM     20  C   UNL A   1      44.770  27.481  26.518  1.00  0.00     0.074 A 
ATOM     21  C   UNL A   1      44.677  26.218  25.820  1.00  0.00     0.031 C 
ATOM     22  C   UNL A   1      38.869  27.828  29.220  1.00  0.00     0.029 A 
ATOM     23  C   UNL A   1      39.894  28.856  29.293  1.00  0.00     0.049 A 
ATOM     24  H   UNL A   1      41.786  28.830  28.413  1.00  0.00     0.167 HD
ATOM     25  C   UNL A   1      45.823  28.328  26.465  1.00  0.00     0.034 A 
ATOM     26  C   UNL A   1      39.794  30.020  29.962  1.00  0.00     0.034 A 
ATOM     27  C   UNL A   1      45.842  29.573  27.190  1.00  0.00     0.049 A 
ATOM     28  C   UNL A   1      41.023  30.893  29.976  1.00  0.00     0.074 A 
ATOM     29  C   UNL A   1      46.860  30.500  27.298  1.00  0.00     0.029 A 
ATOM     30  N   UNL A   1      44.773  30.062  27.938  1.00  0.00    -0.354 N 
ATOM     31  N   UNL A   1      42.173  30.703  29.366  1.00  0.00    -0.248 NA
ATOM     32  C   UNL A   1      40.957  32.118  30.776  1.00  0.00     0.031 C 
ATOM     33  C   UNL A   1      46.429  31.512  28.162  1.00  0.00     0.029 A 
ATOM     34  C   UNL A   1      45.114  31.263  28.531  1.00  0.00     0.049 A 
ATOM     35  H   UNL A   1      43.900  29.615  28.030  1.00  0.00     0.167 HD
ATOM     36  C   UNL A   1      42.963  31.797  29.695  1.00  0.00     0.074 A 
ATOM     37  C   UNL A   1      42.143  32.654  30.531  1.00  0.00     0.031 C 
ATOM     38  C   UNL A   1      44.249  32.074  29.355  1.00  0.00     0.034 A 
BRANCH  25  39
ATOM     39  C   UNL A   1      47.042  27.865  25.713  1.00  0.00     0.023 A 
ATOM     40  C   UNL A   1      47.234  28.139  24.348  1.00  0.00     0.031 A 
ATOM     41  C   UNL A   1      47.994  27.059  26.364  1.00  0.00     0.131 A 
ATOM     42  C   UNL A   1      48.315  27.558  23.665  1.00  0.00     0.055 A 
ATOM     43  C   UNL A   1      49.108  26.548  25.697  1.00  0.00     0.041 A 
ATOM     44  F   UNL A   1      47.841  26.732  27.657  1.00  0.00    -0.206 F 
ATOM     45  C   UNL A   1      49.266  26.786  24.336  1.00  0.00     0.022 A 
BRANCH  42  46
ATOM     46  S   UNL A   1      48.388  27.712  21.859  1.00  0.00     0.124 S 
ATOM     47  O   UNL A   1      49.501  28.643  21.687  1.00  0.00    -0.237 OA
ATOM     48  O   UNL A   1      48.633  26.340  21.432  1.00  0.00    -0.237 OA
ATOM     49  O   UNL A   1      47.075  28.250  21.507  1.00  0.00    -0.744 OA
ENDBRANCH  42  46
ENDBRANCH  25  39
BRANCH  26  50
ATOM     50  C   UNL A   1      38.571  30.366  30.750  1.00  0.00     0.023 A 
ATOM     51  C   UNL A   1      37.510  31.079  30.172  1.00  0.00     0.031 A 
ATOM     52  C   UNL A   1      38.475  30.056  32.121  1.00  0.00     0.131 A 
ATOM     53  C   UNL A   1      36.437  31.511  30.968  1.00  0.00     0.055 A 
ATOM     54  C   UNL A   1      37.371  30.423  32.893  1.00  0.00     0.041 A 
ATOM     55  F   UNL A   1      39.461  29.386  32.742  1.00  0.00    -0.206 F 
ATOM     56  C   UNL A   1      36.352  31.175  32.321  1.00  0.00     0.022 A 
BRANCH  53  57
ATOM     57  S   UNL A   1      35.217  32.640  30.242  1.00  0.00     0.124 S 
ATOM     58  O   UNL A   1      34.667  31.827  29.162  1.00  0.00    -0.237 OA
ATOM     59  O   UNL A   1      34.329  32.893  31.371  1.00  0.00    -0.237 OA
ATOM     60  O   UNL A   1      36.022  33.782  29.815  1.00  0.00    -0.744 OA
ENDBRANCH  53  57
ENDBRANCH  26  50
BRANCH  38  61
ATOM     61  C   UNL A   1      44.799  33.380  29.858  1.00  0.00     0.023 A 
ATOM     62  C   UNL A   1      44.660  34.567  29.122  1.00  0.00     0.031 A 
ATOM     63  C   UNL A   1      45.478  33.428  31.088  1.00  0.00     0.131 A 
ATOM     64  C   UNL A   1      45.247  35.746  29.594  1.00  0.00     0.055 A 
ATOM     65  C   UNL A   1      45.998  34.620  31.587  1.00  0.00     0.041 A 
ATOM     66  F   UNL A   1      45.637  32.318  31.826  1.00  0.00    -0.206 F 
ATOM     67  C   UNL A   1      45.897  35.786  30.832  1.00  0.00     0.022 A 
BRANCH  64  68
ATOM     68  S   UNL A   1      45.236  37.206  28.522  1.00  0.00     0.124 S 
ATOM     69  O   UNL A   1      43.817  37.545  28.489  1.00  0.00    -0.237 OA
ATOM     70  O   UNL A   1      46.095  38.135  29.247  1.00  0.00    -0.237 OA
ATOM     71  O   UNL A   1      45.785  36.709  27.262  1.00  0.00    -0.744 OA
ENDBRANCH  64  68
ENDBRANCH  38  61
ENDBRANCH  12  13
ENDBRANCH   5   7
ENDBRANCH   4   5
ENDBRANCH   3   4
ENDBRANCH   2   3
ENDBRANCH   1   2
BRANCH   1  72
ATOM     72  C   UNL A   1      36.393  22.937  23.265  1.00  0.00     0.202 C 
BRANCH  72  73
ATOM     73  C   UNL A   1      35.080  22.852  24.041  1.00  0.00     0.261 C 
BRANCH  73  74
ATOM     74  O   UNL A   1      34.260  23.999  23.725  1.00  0.00    -0.463 OA
BRANCH  74  75
ATOM     75  C   UNL A   1      34.216  24.957  24.695  1.00  0.00     0.312 C 
ATOM     76  O   UNL A   1      34.968  25.007  25.663  1.00  0.00    -0.252 OA
BRANCH  75  77
ATOM     77  C   UNL A   1      33.039  25.879  24.492  1.00  0.00     0.147 C 
ATOM     78  C   UNL A   1      31.718  25.213  24.029  1.00  0.00     0.129 C 
ATOM     79  C   UNL A   1      33.295  26.824  23.306  1.00  0.00     0.157 C 
ATOM     80  C   UNL A   1      31.327  26.042  22.802  1.00  0.00     0.155 C 
ATOM     81  C   UNL A   1      33.443  26.107  21.989  1.00  0.00     0.004 C 
ATOM     82  O   UNL A   1      31.938  27.321  23.125  1.00  0.00    -0.365 OA
ATOM     83  C   UNL A   1      32.228  25.645  21.668  1.00  0.00     0.004 C 
BRANCH  78  84
ATOM     84  C   UNL A   1      30.665  24.934  25.093  1.00  0.00     0.231 C 
ATOM     85  O   UNL A   1      29.752  25.747  25.274  1.00  0.00    -0.274 OA
ATOM     86  N   UNL A   1      30.591  23.759  25.771  1.00  0.00    -0.325 N 
ATOM     87  H   UNL A   1      29.691  23.494  26.070  1.00  0.00     0.169 HD
BRANCH  86  88
ATOM     88  C   UNL A   1      31.616  22.879  26.101  1.00  0.00     0.048 A 
ATOM     89  C   UNL A   1      32.479  23.219  27.140  1.00  0.00     0.026 A 
ATOM     90  C   UNL A   1      31.815  21.712  25.368  1.00  0.00     0.111 A 
ATOM     91  C   UNL A   1      33.469  22.320  27.538  1.00  0.00     0.009 A 
ATOM     92  C   UNL A   1      32.808  20.815  25.766  1.00  0.00     0.271 A 
ATOM     93  C   UNL A   1      33.628  21.107  26.863  1.00  0.00     0.086 A 
BRANCH  92  94
ATOM     94  N   UNL A   1      32.990  19.566  25.020  1.00  0.00     0.062 N 
ATOM     95  O   UNL A   1      34.024  19.445  24.349  1.00  0.00    -0.258 OA
ATOM     96  O   UNL A   1      32.084  18.722  25.074  1.00  0.00    -0.258 OA
ENDBRANCH  92  94
ENDBRANCH  86  88
ENDBRANCH  78  84
ENDBRANCH  75  77
ENDBRANCH  74  75
ENDBRANCH  73  74
ENDBRANCH  72  73
ENDBRANCH   1  72
TORSDOF 20
ENDMDL
MODEL 3
REMARK VINA RESULT:     -11.3      4.983      9.731
REMARK SMILES O=C(OCCOCCOC(=O)[C@@H]1[C@@H](C(=O)Nc2cccc([N+](=O)[O-])c2)[C@@H]2C=C[C@H]1O2)c1ccc(-c2c3nc(c(-c4cc(S(=O)(=O)[O-])ccc4F)c4ccc([nH]4)c(-c4cc(S(=O)(=O)[O-])ccc4F)c4nc(c(-c5cc(S(=O)(=O)[O-])ccc5F)c5ccc2[nH]5)C=C4)C=C3)cc1
REMARK SMILES IDX 6 1 5 2 4 3 3 4 2 5 1 6 31 7 32 8 93 9 33 10 92 11 34 12
REMARK SMILES IDX 35 13 36 14 86 15 37 16 91 17 85 18 87 19 38 20 90 21 84 22
REMARK SMILES IDX 83 23 39 25 71 26 51 27 70 28 52 29 55 30 69 31 88 32 53 33
REMARK SMILES IDX 54 34 68 36 89 37 56 38 40 39 41 40 49 41 42 42 48 43 50 44
REMARK SMILES IDX 47 45 43 46 44 47 45 48 46 49 72 50 73 51 81 52 74 53 80 54
REMARK SMILES IDX 82 55 79 56 75 57 76 58 77 59 78 60 57 61 58 62 66 63 59 64
REMARK SMILES IDX 65 65 67 66 64 67 60 68 61 69 62 70 63 71 7 72 8 73 9 74
REMARK SMILES IDX 10 75 11 76 12 77 13 78 29 79 26 80 28 81 30 82 27 83 14 84
REMARK SMILES IDX 15 85 16 86 17 88 18 89 25 90 19 91 21 92 20 93 22 94 23 95
REMARK SMILES IDX 24 96
REMARK H PARENT 87 24 55 35 16 87
REMARK Flexibility Score: inf
ROOT
ATOM      1  O   UNL A   1      35.613  23.467  25.174  1.00  0.00    -0.374 OA
ENDROOT
BRANCH   1   2
ATOM      2  C   UNL A   1      35.607  22.330  24.313  1.00  0.00     0.202 C 
BRANCH   2   3
ATOM      3  C   UNL A   1      36.607  21.222  24.620  1.00  0.00     0.261 C 
BRANCH   3   4
ATOM      4  O   UNL A   1      37.243  21.452  25.881  1.00  0.00    -0.460 OA
BRANCH   4   5
ATOM      5  C   UNL A   1      38.584  21.481  26.079  1.00  0.00     0.338 C 
ATOM      6  O   UNL A   1      39.263  20.496  25.801  1.00  0.00    -0.246 OA
BRANCH   5   7
ATOM      7  C   UNL A   1      39.264  22.711  26.563  1.00  0.00     0.060 A 
ATOM      8  C   UNL A   1      40.394  22.685  27.377  1.00  0.00     0.016 A 
ATOM      9  C   UNL A   1      38.790  23.947  26.119  1.00  0.00     0.016 A 
ATOM     10  C   UNL A   1      40.993  23.836  27.831  1.00  0.00     0.010 A 
ATOM     11  C   UNL A   1      39.454  25.120  26.487  1.00  0.00     0.010 A 
ATOM     12  C   UNL A   1      40.565  25.055  27.339  1.00  0.00    -0.014 A 
BRANCH  12  13
ATOM     13  C   UNL A   1      41.316  26.237  27.779  1.00  0.00     0.031 A 
ATOM     14  C   UNL A   1      40.640  27.200  28.692  1.00  0.00     0.074 A 
ATOM     15  C   UNL A   1      42.622  26.328  27.458  1.00  0.00     0.049 A 
ATOM     16  N   UNL A   1      41.047  28.368  29.098  1.00  0.00    -0.248 NA
ATOM     17  C   UNL A   1      39.329  26.792  29.224  1.00  0.00     0.031 C 
ATOM     18  C   UNL A   1      43.380  25.317  26.706  1.00  0.00     0.029 A 
ATOM     19  N   UNL A   1      43.555  27.282  27.749  1.00  0.00    -0.354 N 
ATOM     20  C   UNL A   1      40.018  28.863  29.886  1.00  0.00     0.074 A 
ATOM     21  C   UNL A   1      38.976  27.863  29.918  1.00  0.00     0.031 C 
ATOM     22  C   UNL A   1      44.663  25.696  26.623  1.00  0.00     0.029 A 
ATOM     23  C   UNL A   1      44.791  27.024  27.200  1.00  0.00     0.049 A 
ATOM     24  H   UNL A   1      43.362  28.077  28.297  1.00  0.00     0.167 HD
ATOM     25  C   UNL A   1      39.965  30.068  30.499  1.00  0.00     0.034 A 
ATOM     26  C   UNL A   1      45.875  27.817  27.116  1.00  0.00     0.034 A 
ATOM     27  C   UNL A   1      41.048  31.015  30.422  1.00  0.00     0.049 A 
ATOM     28  C   UNL A   1      45.746  29.196  27.712  1.00  0.00     0.074 A 
ATOM     29  C   UNL A   1      41.115  32.300  30.923  1.00  0.00     0.029 A 
ATOM     30  N   UNL A   1      42.267  30.765  29.795  1.00  0.00    -0.354 N 
ATOM     31  N   UNL A   1      44.731  29.717  28.367  1.00  0.00    -0.248 NA
ATOM     32  C   UNL A   1      46.887  30.099  27.546  1.00  0.00     0.031 C 
ATOM     33  C   UNL A   1      42.345  32.847  30.541  1.00  0.00     0.029 A 
ATOM     34  C   UNL A   1      43.082  31.879  29.873  1.00  0.00     0.049 A 
ATOM     35  H   UNL A   1      42.512  29.916  29.359  1.00  0.00     0.167 HD
ATOM     36  C   UNL A   1      45.119  31.006  28.708  1.00  0.00     0.074 A 
ATOM     37  C   UNL A   1      46.473  31.167  28.211  1.00  0.00     0.031 C 
ATOM     38  C   UNL A   1      44.428  31.978  29.358  1.00  0.00     0.034 A 
BRANCH  25  39
ATOM     39  C   UNL A   1      38.670  30.443  31.167  1.00  0.00     0.023 A 
ATOM     40  C   UNL A   1      37.657  31.153  30.500  1.00  0.00     0.031 A 
ATOM     41  C   UNL A   1      38.483  30.152  32.530  1.00  0.00     0.131 A 
ATOM     42  C   UNL A   1      36.533  31.603  31.214  1.00  0.00     0.055 A 
ATOM     43  C   UNL A   1      37.329  30.535  33.216  1.00  0.00     0.041 A 
ATOM     44  F   UNL A   1      39.434  29.511  33.228  1.00  0.00    -0.206 F 
ATOM     45  C   UNL A   1      36.352  31.277  32.560  1.00  0.00     0.022 A 
BRANCH  42  46
ATOM     46  S   UNL A   1      35.378  32.737  30.396  1.00  0.00     0.124 S 
ATOM     47  O   UNL A   1      35.104  32.029  29.148  1.00  0.00    -0.237 OA
ATOM     48  O   UNL A   1      34.274  32.806  31.345  1.00  0.00    -0.237 OA
ATOM     49  O   UNL A   1      36.152  33.968  30.249  1.00  0.00    -0.744 OA
ENDBRANCH  42  46
ENDBRANCH  25  39
BRANCH  26  50
ATOM     50  C   UNL A   1      47.095  27.395  26.362  1.00  0.00     0.023 A 
ATOM     51  C   UNL A   1      47.290  27.768  25.023  1.00  0.00     0.031 A 
ATOM     52  C   UNL A   1      48.054  26.542  26.944  1.00  0.00     0.131 A 
ATOM     53  C   UNL A   1      48.373  27.244  24.297  1.00  0.00     0.055 A 
ATOM     54  C   UNL A   1      49.170  26.083  26.241  1.00  0.00     0.041 A 
ATOM     55  F   UNL A   1      47.923  26.135  28.218  1.00  0.00    -0.206 F 
ATOM     56  C   UNL A   1      49.323  26.418  24.901  1.00  0.00     0.022 A 
BRANCH  53  57
ATOM     57  S   UNL A   1      48.448  27.549  22.511  1.00  0.00     0.124 S 
ATOM     58  O   UNL A   1      48.511  26.191  21.982  1.00  0.00    -0.237 OA
ATOM     59  O   UNL A   1      47.204  28.273  22.275  1.00  0.00    -0.237 OA
ATOM     60  O   UNL A   1      49.668  28.338  22.351  1.00  0.00    -0.744 OA
ENDBRANCH  53  57
ENDBRANCH  26  50
BRANCH  38  61
ATOM     61  C   UNL A   1      45.165  33.266  29.598  1.00  0.00     0.023 A 
ATOM     62  C   UNL A   1      45.162  34.301  28.650  1.00  0.00     0.031 A 
ATOM     63  C   UNL A   1      45.885  33.450  30.791  1.00  0.00     0.131 A 
ATOM     64  C   UNL A   1      45.919  35.455  28.884  1.00  0.00     0.055 A 
ATOM     65  C   UNL A   1      46.578  34.631  31.049  1.00  0.00     0.041 A 
ATOM     66  F   UNL A   1      45.919  32.487  31.726  1.00  0.00    -0.206 F 
ATOM     67  C   UNL A   1      46.609  35.636  30.086  1.00  0.00     0.022 A 
BRANCH  64  68
ATOM     68  S   UNL A   1      46.067  36.675  27.552  1.00  0.00     0.124 S 
ATOM     69  O   UNL A   1      47.037  37.613  28.109  1.00  0.00    -0.237 OA
ATOM     70  O   UNL A   1      46.536  35.863  26.435  1.00  0.00    -0.237 OA
ATOM     71  O   UNL A   1      44.709  37.196  27.413  1.00  0.00    -0.744 OA
ENDBRANCH  64  68
ENDBRANCH  38  61
ENDBRANCH  12  13
ENDBRANCH   5   7
ENDBRANCH   4   5
ENDBRANCH   3   4
ENDBRANCH   2   3
ENDBRANCH   1   2
BRANCH   1  72
ATOM     72  C   UNL A   1      34.931  24.617  24.683  1.00  0.00     0.202 C 
BRANCH  72  73
ATOM     73  C   UNL A   1      33.992  25.143  25.766  1.00  0.00     0.261 C 
BRANCH  73  74
ATOM     74  O   UNL A   1      33.130  26.157  25.204  1.00  0.00    -0.463 OA
BRANCH  74  75
ATOM     75  C   UNL A   1      32.258  26.724  26.087  1.00  0.00     0.312 C 
ATOM     76  O   UNL A   1      32.144  26.396  27.264  1.00  0.00    -0.252 OA
BRANCH  75  77
ATOM     77  C   UNL A   1      31.360  27.721  25.398  1.00  0.00     0.147 C 
ATOM     78  C   UNL A   1      31.064  27.457  23.900  1.00  0.00     0.129 C 
ATOM     79  C   UNL A   1      32.055  29.090  25.299  1.00  0.00     0.157 C 
ATOM     80  C   UNL A   1      31.415  28.793  23.239  1.00  0.00     0.155 C 
ATOM     81  C   UNL A   1      33.306  29.068  24.461  1.00  0.00     0.004 C 
ATOM     82  O   UNL A   1      31.163  29.718  24.333  1.00  0.00    -0.365 OA
ATOM     83  C   UNL A   1      32.912  28.908  23.191  1.00  0.00     0.004 C 
BRANCH  78  84
ATOM     84  C   UNL A   1      29.738  26.793  23.554  1.00  0.00     0.231 C 
ATOM     85  O   UNL A   1      28.749  27.495  23.316  1.00  0.00    -0.274 OA
ATOM     86  N   UNL A   1      29.609  25.455  23.356  1.00  0.00    -0.325 N 
ATOM     87  H   UNL A   1      28.898  25.182  22.732  1.00  0.00     0.169 HD
BRANCH  86  88
ATOM     88  C   UNL A   1      30.347  24.418  23.916  1.00  0.00     0.048 A 
ATOM     89  C   UNL A   1      31.138  23.635  23.079  1.00  0.00     0.026 A 
ATOM     90  C   UNL A   1      30.251  24.128  25.274  1.00  0.00     0.111 A 
ATOM     91  C   UNL A   1      31.945  22.636  23.626  1.00  0.00     0.009 A 
ATOM     92  C   UNL A   1      31.056  23.126  25.819  1.00  0.00     0.271 A 
ATOM     93  C   UNL A   1      31.920  22.388  25.000  1.00  0.00     0.086 A 
BRANCH  92  94
ATOM     94  N   UNL A   1      30.986  22.849  27.257  1.00  0.00     0.062 N 
ATOM     95  O   UNL A   1      29.866  22.851  27.787  1.00  0.00    -0.258 OA
ATOM     96  O   UNL A   1      32.051  22.668  27.864  1.00  0.00    -0.258 OA
ENDBRANCH  92  94
ENDBRANCH  86  88
ENDBRANCH  78  84
ENDBRANCH  75  77
ENDBRANCH  74  75
ENDBRANCH  73  74
ENDBRANCH  72  73
ENDBRANCH   1  72
TORSDOF 20
ENDMDL
