MODEL 1
REMARK VINA RESULT:     -10.4      0.000      0.000
REMARK SMILES O=C(COc1cccc(NC(=O)c2ccc3c(c2)C(=O)N(c2ccccc2-c2ccccc2)C3=O)c1)OCCOCCOC(=O)c1ccc(-c2c3nc(c(-c4cc(S(=O)(=O)[O-])ccc4F)c4ccc([nH]4)c(-c4cc(S(=O)(=O)[O-])ccc4F)c4nc(c(-c5cc(S(=O)(=O)[O-])ccc5F)c5ccc2[nH]5)C=C4)C=C3)cc1
REMARK SMILES IDX 38 1 37 2 2 3 1 4 3 5 4 6 5 7 6 8 36 9 7 10 9 11 8 12 10 13
REMARK SMILES IDX 11 14 12 16 13 17 14 18 18 19 15 20 17 21 16 22 19 23 34 24
REMARK SMILES IDX 20 25 21 26 35 27 22 28 23 29 27 30 24 31 26 32 25 33 28 34
REMARK SMILES IDX 29 35 33 36 30 37 32 38 31 39 39 40 40 41 41 42 42 43 43 44
REMARK SMILES IDX 44 45 45 46 46 47 47 48 108 49 48 50 107 51 49 52 50 53
REMARK SMILES IDX 51 54 101 55 52 56 106 57 100 58 102 59 53 60 105 61 99 62
REMARK SMILES IDX 98 63 54 65 86 66 66 67 85 68 67 69 70 70 84 71 103 72 68 73
REMARK SMILES IDX 69 74 83 76 104 77 71 78 55 79 56 80 64 81 57 82 63 83 65 84
REMARK SMILES IDX 62 85 58 86 59 87 60 88 61 89 87 90 88 91 96 92 89 93 95 94
REMARK SMILES IDX 97 95 94 96 90 97 91 98 92 99 93 100 72 101 73 102 81 103
REMARK SMILES IDX 74 104 80 105 82 106 79 107 75 108 76 109 77 110 78 111
REMARK H PARENT 10 15 102 64 70 75
REMARK Flexibility Score: inf
ROOT
ATOM      1  C   UNL A   1      43.423  42.828  21.625  1.00  0.00     0.261 C 
ENDROOT
BRANCH   1   2
ATOM      2  O   UNL A   1      42.933  43.825  20.715  1.00  0.00    -0.461 OA
BRANCH   2   3
ATOM      3  C   UNL A   1      43.375  43.985  19.445  1.00  0.00     0.344 C 
ATOM      4  O   UNL A   1      44.563  43.795  19.183  1.00  0.00    -0.248 OA
BRANCH   3   5
ATOM      5  C   UNL A   1      42.403  44.412  18.350  1.00  0.00     0.351 C 
BRANCH   5   6
ATOM      6  O   UNL A   1      42.866  44.859  17.093  1.00  0.00    -0.482 OA
BRANCH   6   7
ATOM      7  C   UNL A   1      43.212  46.178  17.011  1.00  0.00     0.122 A 
ATOM      8  C   UNL A   1      42.142  47.059  17.131  1.00  0.00     0.046 A 
ATOM      9  C   UNL A   1      44.498  46.663  16.743  1.00  0.00     0.072 A 
ATOM     10  C   UNL A   1      42.357  48.421  16.988  1.00  0.00     0.006 A 
ATOM     11  C   UNL A   1      44.740  48.034  16.661  1.00  0.00     0.045 A 
ATOM     12  C   UNL A   1      43.646  48.897  16.738  1.00  0.00     0.026 A 
BRANCH  11  13
ATOM     13  N   UNL A   1      46.075  48.463  16.452  1.00  0.00    -0.322 N 
ATOM     14  C   UNL A   1      47.019  48.933  17.351  1.00  0.00     0.255 C 
ATOM     15  H   UNL A   1      46.380  48.419  15.516  1.00  0.00     0.170 HD
ATOM     16  O   UNL A   1      48.096  49.396  16.997  1.00  0.00    -0.269 OA
BRANCH  14  17
ATOM     17  C   UNL A   1      46.787  48.681  18.786  1.00  0.00     0.041 A 
ATOM     18  C   UNL A   1      45.523  48.944  19.354  1.00  0.00     0.015 A 
ATOM     19  C   UNL A   1      47.737  47.885  19.428  1.00  0.00     0.028 A 
ATOM     20  C   UNL A   1      45.106  48.210  20.476  1.00  0.00     0.015 A 
ATOM     21  C   UNL A   1      47.284  47.183  20.519  1.00  0.00     0.054 A 
ATOM     22  C   UNL A   1      45.994  47.273  20.984  1.00  0.00     0.053 A 
ATOM     23  C   UNL A   1      47.908  46.040  21.145  1.00  0.00     0.266 C 
ATOM     24  C   UNL A   1      45.784  46.109  21.851  1.00  0.00     0.266 C 
ATOM     25  O   UNL A   1      49.115  45.908  21.079  1.00  0.00    -0.268 OA
ATOM     26  N   UNL A   1      46.897  45.300  21.725  1.00  0.00    -0.242 N 
ATOM     27  O   UNL A   1      44.793  46.052  22.557  1.00  0.00    -0.268 OA
BRANCH  26  28
ATOM     28  C   UNL A   1      47.050  43.911  22.087  1.00  0.00     0.060 A 
ATOM     29  C   UNL A   1      47.090  42.949  21.045  1.00  0.00     0.027 A 
ATOM     30  C   UNL A   1      47.037  43.396  23.412  1.00  0.00     0.006 A 
ATOM     31  C   UNL A   1      47.119  41.569  21.264  1.00  0.00     0.002 A 
ATOM     32  C   UNL A   1      47.100  41.987  23.609  1.00  0.00     0.011 A 
ATOM     33  C   UNL A   1      47.134  41.083  22.553  1.00  0.00     0.001 A 
BRANCH  30  34
ATOM     34  C   UNL A   1      46.825  44.160  24.650  1.00  0.00    -0.016 A 
ATOM     35  C   UNL A   1      47.883  44.860  25.254  1.00  0.00     0.009 A 
ATOM     36  C   UNL A   1      45.595  44.099  25.325  1.00  0.00     0.009 A 
ATOM     37  C   UNL A   1      47.697  45.530  26.466  1.00  0.00     0.001 A 
ATOM     38  C   UNL A   1      45.412  44.760  26.542  1.00  0.00     0.001 A 
ATOM     39  C   UNL A   1      46.461  45.485  27.106  1.00  0.00     0.000 A 
ENDBRANCH  30  34
ENDBRANCH  26  28
ENDBRANCH  14  17
ENDBRANCH  11  13
ENDBRANCH   6   7
ENDBRANCH   5   6
ENDBRANCH   3   5
ENDBRANCH   2   3
ENDBRANCH   1   2
BRANCH   1  40
ATOM     40  C   UNL A   1      42.851  42.930  23.039  1.00  0.00     0.202 C 
BRANCH  40  41
ATOM     41  O   UNL A   1      42.311  41.742  23.605  1.00  0.00    -0.374 OA
BRANCH  41  42
ATOM     42  C   UNL A   1      42.428  41.563  25.022  1.00  0.00     0.202 C 
BRANCH  42  43
ATOM     43  C   UNL A   1      41.218  41.010  25.779  1.00  0.00     0.261 C 
BRANCH  43  44
ATOM     44  O   UNL A   1      41.475  39.688  26.282  1.00  0.00    -0.460 OA
BRANCH  44  45
ATOM     45  C   UNL A   1      41.829  39.630  27.589  1.00  0.00     0.338 C 
ATOM     46  O   UNL A   1      41.547  40.436  28.460  1.00  0.00    -0.246 OA
BRANCH  45  47
ATOM     47  C   UNL A   1      42.431  38.313  27.874  1.00  0.00     0.060 A 
ATOM     48  C   UNL A   1      42.254  37.294  26.927  1.00  0.00     0.016 A 
ATOM     49  C   UNL A   1      43.097  38.065  29.075  1.00  0.00     0.016 A 
ATOM     50  C   UNL A   1      42.683  35.999  27.208  1.00  0.00     0.010 A 
ATOM     51  C   UNL A   1      43.516  36.766  29.361  1.00  0.00     0.010 A 
ATOM     52  C   UNL A   1      43.268  35.724  28.449  1.00  0.00    -0.014 A 
BRANCH  52  53
ATOM     53  C   UNL A   1      43.423  34.325  28.907  1.00  0.00     0.031 A 
ATOM     54  C   UNL A   1      42.256  33.681  29.600  1.00  0.00     0.074 A 
ATOM     55  C   UNL A   1      44.587  33.675  28.762  1.00  0.00     0.049 A 
ATOM     56  N   UNL A   1      42.194  32.554  30.258  1.00  0.00    -0.248 NA
ATOM     57  C   UNL A   1      40.992  34.431  29.561  1.00  0.00     0.031 C 
ATOM     58  C   UNL A   1      45.764  34.198  28.072  1.00  0.00     0.029 A 
ATOM     59  N   UNL A   1      44.981  32.445  29.224  1.00  0.00    -0.354 N 
ATOM     60  C   UNL A   1      40.890  32.471  30.735  1.00  0.00     0.074 A 
ATOM     61  C   UNL A   1      40.208  33.676  30.313  1.00  0.00     0.031 C 
ATOM     62  C   UNL A   1      46.768  33.313  28.198  1.00  0.00     0.029 A 
ATOM     63  C   UNL A   1      46.314  32.188  29.014  1.00  0.00     0.049 A 
ATOM     64  H   UNL A   1      44.369  31.810  29.663  1.00  0.00     0.167 HD
ATOM     65  C   UNL A   1      40.320  31.479  31.463  1.00  0.00     0.034 A 
ATOM     66  C   UNL A   1      47.088  31.187  29.477  1.00  0.00     0.034 A 
ATOM     67  C   UNL A   1      41.036  30.300  31.886  1.00  0.00     0.049 A 
ATOM     68  C   UNL A   1      46.461  30.122  30.340  1.00  0.00     0.074 A 
ATOM     69  C   UNL A   1      40.568  29.214  32.603  1.00  0.00     0.029 A 
ATOM     70  N   UNL A   1      42.385  30.065  31.644  1.00  0.00    -0.354 N 
ATOM     71  N   UNL A   1      45.224  30.037  30.780  1.00  0.00    -0.248 NA
ATOM     72  C   UNL A   1      47.328  29.015  30.764  1.00  0.00     0.031 C 
ATOM     73  C   UNL A   1      41.648  28.360  32.855  1.00  0.00     0.029 A 
ATOM     74  C   UNL A   1      42.774  28.871  32.227  1.00  0.00     0.049 A 
ATOM     75  H   UNL A   1      42.978  30.663  31.133  1.00  0.00     0.167 HD
ATOM     76  C   UNL A   1      45.160  28.854  31.511  1.00  0.00     0.074 A 
ATOM     77  C   UNL A   1      46.480  28.259  31.450  1.00  0.00     0.031 C 
ATOM     78  C   UNL A   1      44.102  28.302  32.161  1.00  0.00     0.034 A 
BRANCH  65  79
ATOM     79  C   UNL A   1      38.887  31.682  31.898  1.00  0.00     0.023 A 
ATOM     80  C   UNL A   1      38.548  32.542  32.960  1.00  0.00     0.031 A 
ATOM     81  C   UNL A   1      37.852  30.941  31.301  1.00  0.00     0.131 A 
ATOM     82  C   UNL A   1      37.235  32.560  33.457  1.00  0.00     0.055 A 
ATOM     83  C   UNL A   1      36.530  31.034  31.740  1.00  0.00     0.041 A 
ATOM     84  F   UNL A   1      38.113  30.086  30.300  1.00  0.00    -0.206 F 
ATOM     85  C   UNL A   1      36.218  31.829  32.838  1.00  0.00     0.022 A 
BRANCH  82  86
ATOM     86  S   UNL A   1      36.920  33.399  35.034  1.00  0.00     0.124 S 
ATOM     87  O   UNL A   1      37.794  34.565  34.929  1.00  0.00    -0.237 OA
ATOM     88  O   UNL A   1      35.488  33.665  34.968  1.00  0.00    -0.237 OA
ATOM     89  O   UNL A   1      37.328  32.414  36.034  1.00  0.00    -0.744 OA
ENDBRANCH  82  86
ENDBRANCH  65  79
BRANCH  66  90
ATOM     90  C   UNL A   1      48.547  31.188  29.182  1.00  0.00     0.023 A 
ATOM     91  C   UNL A   1      49.053  30.636  27.996  1.00  0.00     0.031 A 
ATOM     92  C   UNL A   1      49.459  31.760  30.089  1.00  0.00     0.131 A 
ATOM     93  C   UNL A   1      50.436  30.653  27.755  1.00  0.00     0.055 A 
ATOM     94  C   UNL A   1      50.827  31.809  29.827  1.00  0.00     0.041 A 
ATOM     95  F   UNL A   1      49.021  32.308  31.234  1.00  0.00    -0.206 F 
ATOM     96  C   UNL A   1      51.324  31.247  28.655  1.00  0.00     0.022 A 
BRANCH  93  97
ATOM     97  S   UNL A   1      51.066  29.859  26.251  1.00  0.00     0.124 S 
ATOM     98  O   UNL A   1      51.333  31.010  25.396  1.00  0.00    -0.237 OA
ATOM     99  O   UNL A   1      52.237  29.146  26.751  1.00  0.00    -0.237 OA
ATOM    100  O   UNL A   1      49.957  29.007  25.824  1.00  0.00    -0.744 OA
ENDBRANCH  93  97
ENDBRANCH  66  90
BRANCH  78 101
ATOM    101  C   UNL A   1      44.320  26.959  32.811  1.00  0.00     0.023 A 
ATOM    102  C   UNL A   1      44.577  26.829  34.186  1.00  0.00     0.031 A 
ATOM    103  C   UNL A   1      44.242  25.787  32.036  1.00  0.00     0.131 A 
ATOM    104  C   UNL A   1      44.785  25.555  34.738  1.00  0.00     0.055 A 
ATOM    105  C   UNL A   1      44.397  24.522  32.599  1.00  0.00     0.041 A 
ATOM    106  F   UNL A   1      43.998  25.857  30.717  1.00  0.00    -0.206 F 
ATOM    107  C   UNL A   1      44.679  24.401  33.957  1.00  0.00     0.022 A 
BRANCH 104 108
ATOM    108  S   UNL A   1      45.257  25.425  36.484  1.00  0.00     0.124 S 
ATOM    109  O   UNL A   1      43.992  25.057  37.113  1.00  0.00    -0.237 OA
ATOM    110  O   UNL A   1      46.282  24.386  36.456  1.00  0.00    -0.237 OA
ATOM    111  O   UNL A   1      45.744  26.764  36.808  1.00  0.00    -0.744 OA
ENDBRANCH 104 108
ENDBRANCH  78 101
ENDBRANCH  52  53
ENDBRANCH  45  47
ENDBRANCH  44  45
ENDBRANCH  43  44
ENDBRANCH  42  43
ENDBRANCH  41  42
ENDBRANCH  40  41
ENDBRANCH   1  40
TORSDOF 23
ENDMDL
MODEL 2
REMARK VINA RESULT:     -10.3      1.852      7.001
REMARK SMILES O=C(COc1cccc(NC(=O)c2ccc3c(c2)C(=O)N(c2ccccc2-c2ccccc2)C3=O)c1)OCCOCCOC(=O)c1ccc(-c2c3nc(c(-c4cc(S(=O)(=O)[O-])ccc4F)c4ccc([nH]4)c(-c4cc(S(=O)(=O)[O-])ccc4F)c4nc(c(-c5cc(S(=O)(=O)[O-])ccc5F)c5ccc2[nH]5)C=C4)C=C3)cc1
REMARK SMILES IDX 38 1 37 2 2 3 1 4 3 5 4 6 5 7 6 8 36 9 7 10 9 11 8 12 10 13
REMARK SMILES IDX 11 14 12 16 13 17 14 18 18 19 15 20 17 21 16 22 19 23 34 24
REMARK SMILES IDX 20 25 21 26 35 27 22 28 23 29 27 30 24 31 26 32 25 33 28 34
REMARK SMILES IDX 29 35 33 36 30 37 32 38 31 39 39 40 40 41 41 42 42 43 43 44
REMARK SMILES IDX 44 45 45 46 46 47 47 48 108 49 48 50 107 51 49 52 50 53
REMARK SMILES IDX 51 54 101 55 52 56 106 57 100 58 102 59 53 60 105 61 99 62
REMARK SMILES IDX 98 63 54 65 86 66 66 67 85 68 67 69 70 70 84 71 103 72 68 73
REMARK SMILES IDX 69 74 83 76 104 77 71 78 55 79 56 80 64 81 57 82 63 83 65 84
REMARK SMILES IDX 62 85 58 86 59 87 60 88 61 89 87 90 88 91 96 92 89 93 95 94
REMARK SMILES IDX 97 95 94 96 90 97 91 98 92 99 93 100 72 101 73 102 81 103
REMARK SMILES IDX 74 104 80 105 82 106 79 107 75 108 76 109 77 110 78 111
REMARK H PARENT 10 15 102 64 70 75
REMARK Flexibility Score: inf
ROOT
ATOM      1  C   UNL A   1      43.155  42.585  21.463  1.00  0.00     0.261 C 
ENDROOT
BRANCH   1   2
ATOM      2  O   UNL A   1      42.311  42.486  20.306  1.00  0.00    -0.461 OA
BRANCH   2   3
ATOM      3  C   UNL A   1      42.181  43.455  19.369  1.00  0.00     0.344 C 
ATOM      4  O   UNL A   1      41.068  43.721  18.915  1.00  0.00    -0.248 OA
BRANCH   3   5
ATOM      5  C   UNL A   1      43.415  44.200  18.871  1.00  0.00     0.351 C 
BRANCH   5   6
ATOM      6  O   UNL A   1      43.557  44.557  17.511  1.00  0.00    -0.482 OA
BRANCH   6   7
ATOM      7  C   UNL A   1      43.597  45.894  17.239  1.00  0.00     0.122 A 
ATOM      8  C   UNL A   1      42.348  46.499  17.150  1.00  0.00     0.046 A 
ATOM      9  C   UNL A   1      44.759  46.632  16.975  1.00  0.00     0.072 A 
ATOM     10  C   UNL A   1      42.258  47.838  16.803  1.00  0.00     0.006 A 
ATOM     11  C   UNL A   1      44.686  47.995  16.687  1.00  0.00     0.045 A 
ATOM     12  C   UNL A   1      43.422  48.570  16.558  1.00  0.00     0.026 A 
BRANCH  11  13
ATOM     13  N   UNL A   1      45.901  48.699  16.492  1.00  0.00    -0.322 N 
ATOM     14  C   UNL A   1      46.732  49.327  17.408  1.00  0.00     0.255 C 
ATOM     15  H   UNL A   1      46.203  48.750  15.556  1.00  0.00     0.170 HD
ATOM     16  O   UNL A   1      47.688  50.015  17.069  1.00  0.00    -0.269 OA
BRANCH  14  17
ATOM     17  C   UNL A   1      46.568  48.986  18.833  1.00  0.00     0.041 A 
ATOM     18  C   UNL A   1      45.331  49.209  19.474  1.00  0.00     0.015 A 
ATOM     19  C   UNL A   1      47.546  48.155  19.380  1.00  0.00     0.028 A 
ATOM     20  C   UNL A   1      44.966  48.406  20.566  1.00  0.00     0.015 A 
ATOM     21  C   UNL A   1      47.144  47.386  20.446  1.00  0.00     0.054 A 
ATOM     22  C   UNL A   1      45.878  47.443  20.974  1.00  0.00     0.053 A 
ATOM     23  C   UNL A   1      47.798  46.209  20.971  1.00  0.00     0.266 C 
ATOM     24  C   UNL A   1      45.709  46.227  21.778  1.00  0.00     0.266 C 
ATOM     25  O   UNL A   1      49.001  46.085  20.841  1.00  0.00    -0.268 OA
ATOM     26  N   UNL A   1      46.816  45.431  21.551  1.00  0.00    -0.242 N 
ATOM     27  O   UNL A   1      44.752  46.124  22.523  1.00  0.00    -0.268 OA
BRANCH  26  28
ATOM     28  C   UNL A   1      46.986  44.023  21.819  1.00  0.00     0.060 A 
ATOM     29  C   UNL A   1      46.946  43.124  20.723  1.00  0.00     0.027 A 
ATOM     30  C   UNL A   1      47.064  43.431  23.109  1.00  0.00     0.006 A 
ATOM     31  C   UNL A   1      46.981  41.734  20.858  1.00  0.00     0.002 A 
ATOM     32  C   UNL A   1      47.134  42.014  23.218  1.00  0.00     0.011 A 
ATOM     33  C   UNL A   1      47.086  41.173  22.112  1.00  0.00     0.001 A 
BRANCH  30  34
ATOM     34  C   UNL A   1      46.947  44.122  24.402  1.00  0.00    -0.016 A 
ATOM     35  C   UNL A   1      45.702  44.253  25.038  1.00  0.00     0.009 A 
ATOM     36  C   UNL A   1      48.055  44.778  24.963  1.00  0.00     0.009 A 
ATOM     37  C   UNL A   1      45.582  44.968  26.233  1.00  0.00     0.001 A 
ATOM     38  C   UNL A   1      47.933  45.502  26.152  1.00  0.00     0.001 A 
ATOM     39  C   UNL A   1      46.697  45.586  26.792  1.00  0.00     0.000 A 
ENDBRANCH  30  34
ENDBRANCH  26  28
ENDBRANCH  14  17
ENDBRANCH  11  13
ENDBRANCH   6   7
ENDBRANCH   5   6
ENDBRANCH   3   5
ENDBRANCH   2   3
ENDBRANCH   1   2
BRANCH   1  40
ATOM     40  C   UNL A   1      42.469  43.175  22.695  1.00  0.00     0.202 C 
BRANCH  40  41
ATOM     41  O   UNL A   1      41.693  42.288  23.491  1.00  0.00    -0.374 OA
BRANCH  41  42
ATOM     42  C   UNL A   1      42.302  41.736  24.665  1.00  0.00     0.202 C 
BRANCH  42  43
ATOM     43  C   UNL A   1      41.404  40.999  25.661  1.00  0.00     0.261 C 
BRANCH  43  44
ATOM     44  O   UNL A   1      42.048  39.820  26.174  1.00  0.00    -0.460 OA
BRANCH  44  45
ATOM     45  C   UNL A   1      42.384  39.874  27.486  1.00  0.00     0.338 C 
ATOM     46  O   UNL A   1      42.134  40.776  28.268  1.00  0.00    -0.246 OA
BRANCH  45  47
ATOM     47  C   UNL A   1      42.915  38.564  27.908  1.00  0.00     0.060 A 
ATOM     48  C   UNL A   1      42.864  37.509  26.986  1.00  0.00     0.016 A 
ATOM     49  C   UNL A   1      43.391  38.358  29.204  1.00  0.00     0.016 A 
ATOM     50  C   UNL A   1      43.225  36.222  27.378  1.00  0.00     0.010 A 
ATOM     51  C   UNL A   1      43.741  37.068  29.600  1.00  0.00     0.010 A 
ATOM     52  C   UNL A   1      43.614  35.992  28.702  1.00  0.00    -0.014 A 
BRANCH  52  53
ATOM     53  C   UNL A   1      43.677  34.611  29.232  1.00  0.00     0.031 A 
ATOM     54  C   UNL A   1      45.006  33.912  29.212  1.00  0.00     0.074 A 
ATOM     55  C   UNL A   1      42.571  33.985  29.662  1.00  0.00     0.049 A 
ATOM     56  N   UNL A   1      45.292  32.657  29.435  1.00  0.00    -0.248 NA
ATOM     57  C   UNL A   1      46.166  34.747  28.868  1.00  0.00     0.031 C 
ATOM     58  C   UNL A   1      41.244  34.589  29.757  1.00  0.00     0.029 A 
ATOM     59  N   UNL A   1      42.385  32.686  30.062  1.00  0.00    -0.354 N 
ATOM     60  C   UNL A   1      46.664  32.545  29.231  1.00  0.00     0.074 A 
ATOM     61  C   UNL A   1      47.142  33.854  28.841  1.00  0.00     0.031 C 
ATOM     62  C   UNL A   1      40.367  33.646  30.143  1.00  0.00     0.029 A 
ATOM     63  C   UNL A   1      41.066  32.369  30.276  1.00  0.00     0.049 A 
ATOM     64  H   UNL A   1      43.123  32.046  30.183  1.00  0.00     0.167 HD
ATOM     65  C   UNL A   1      47.447  31.445  29.357  1.00  0.00     0.034 A 
ATOM     66  C   UNL A   1      40.486  31.172  30.497  1.00  0.00     0.034 A 
ATOM     67  C   UNL A   1      46.934  30.149  29.727  1.00  0.00     0.049 A 
ATOM     68  C   UNL A   1      41.358  29.944  30.571  1.00  0.00     0.074 A 
ATOM     69  C   UNL A   1      47.625  28.964  29.913  1.00  0.00     0.029 A 
ATOM     70  N   UNL A   1      45.591  29.864  29.950  1.00  0.00    -0.354 N 
ATOM     71  N   UNL A   1      42.657  29.841  30.391  1.00  0.00    -0.248 NA
ATOM     72  C   UNL A   1      40.690  28.675  30.882  1.00  0.00     0.031 C 
ATOM     73  C   UNL A   1      46.694  27.953  30.177  1.00  0.00     0.029 A 
ATOM     74  C   UNL A   1      45.428  28.519  30.236  1.00  0.00     0.049 A 
ATOM     75  H   UNL A   1      44.862  30.525  29.909  1.00  0.00     0.167 HD
ATOM     76  C   UNL A   1      42.964  28.499  30.595  1.00  0.00     0.074 A 
ATOM     77  C   UNL A   1      41.716  27.833  30.911  1.00  0.00     0.031 C 
ATOM     78  C   UNL A   1      44.170  27.875  30.539  1.00  0.00     0.034 A 
BRANCH  65  79
ATOM     79  C   UNL A   1      48.912  31.601  29.014  1.00  0.00     0.023 A 
ATOM     80  C   UNL A   1      49.429  31.199  27.769  1.00  0.00     0.031 A 
ATOM     81  C   UNL A   1      49.819  32.080  29.976  1.00  0.00     0.131 A 
ATOM     82  C   UNL A   1      50.817  31.184  27.557  1.00  0.00     0.055 A 
ATOM     83  C   UNL A   1      51.190  32.150  29.725  1.00  0.00     0.041 A 
ATOM     84  F   UNL A   1      49.391  32.457  31.191  1.00  0.00    -0.206 F 
ATOM     85  C   UNL A   1      51.700  31.680  28.519  1.00  0.00     0.022 A 
BRANCH  82  86
ATOM     86  S   UNL A   1      51.459  30.332  26.090  1.00  0.00     0.124 S 
ATOM     87  O   UNL A   1      51.616  31.439  25.150  1.00  0.00    -0.237 OA
ATOM     88  O   UNL A   1      52.693  29.735  26.586  1.00  0.00    -0.237 OA
ATOM     89  O   UNL A   1      50.398  29.385  25.751  1.00  0.00    -0.744 OA
ENDBRANCH  82  86
ENDBRANCH  65  79
BRANCH  66  90
ATOM     90  C   UNL A   1      39.004  31.080  30.601  1.00  0.00     0.023 A 
ATOM     91  C   UNL A   1      38.208  30.807  29.479  1.00  0.00     0.031 A 
ATOM     92  C   UNL A   1      38.364  31.253  31.843  1.00  0.00     0.131 A 
ATOM     93  C   UNL A   1      36.813  30.731  29.618  1.00  0.00     0.055 A 
ATOM     94  C   UNL A   1      36.981  31.138  31.982  1.00  0.00     0.041 A 
ATOM     95  F   UNL A   1      39.085  31.508  32.947  1.00  0.00    -0.206 F 
ATOM     96  C   UNL A   1      36.196  30.881  30.863  1.00  0.00     0.022 A 
BRANCH  93  97
ATOM     97  S   UNL A   1      35.805  30.458  28.135  1.00  0.00     0.124 S 
ATOM     98  O   UNL A   1      36.825  30.186  27.128  1.00  0.00    -0.237 OA
ATOM     99  O   UNL A   1      34.980  29.323  28.533  1.00  0.00    -0.237 OA
ATOM    100  O   UNL A   1      35.088  31.720  27.972  1.00  0.00    -0.744 OA
ENDBRANCH  93  97
ENDBRANCH  66  90
BRANCH  78 101
ATOM    101  C   UNL A   1      44.201  26.407  30.882  1.00  0.00     0.023 A 
ATOM    102  C   UNL A   1      44.333  25.953  32.205  1.00  0.00     0.031 A 
ATOM    103  C   UNL A   1      44.070  25.448  29.861  1.00  0.00     0.131 A 
ATOM    104  C   UNL A   1      44.369  24.574  32.468  1.00  0.00     0.055 A 
ATOM    105  C   UNL A   1      44.054  24.081  30.133  1.00  0.00     0.041 A 
ATOM    106  F   UNL A   1      43.941  25.830  28.579  1.00  0.00    -0.206 F 
ATOM    107  C   UNL A   1      44.213  23.637  31.443  1.00  0.00     0.022 A 
BRANCH 104 108
ATOM    108  S   UNL A   1      44.684  24.016  34.164  1.00  0.00     0.124 S 
ATOM    109  O   UNL A   1      46.037  23.476  34.058  1.00  0.00    -0.237 OA
ATOM    110  O   UNL A   1      44.546  25.249  34.932  1.00  0.00    -0.237 OA
ATOM    111  O   UNL A   1      43.638  23.022  34.397  1.00  0.00    -0.744 OA
ENDBRANCH 104 108
ENDBRANCH  78 101
ENDBRANCH  52  53
ENDBRANCH  45  47
ENDBRANCH  44  45
ENDBRANCH  43  44
ENDBRANCH  42  43
ENDBRANCH  41  42
ENDBRANCH  40  41
ENDBRANCH   1  40
TORSDOF 23
ENDMDL
MODEL 3
REMARK VINA RESULT:     -10.2     11.792     17.292
REMARK SMILES O=C(COc1cccc(NC(=O)c2ccc3c(c2)C(=O)N(c2ccccc2-c2ccccc2)C3=O)c1)OCCOCCOC(=O)c1ccc(-c2c3nc(c(-c4cc(S(=O)(=O)[O-])ccc4F)c4ccc([nH]4)c(-c4cc(S(=O)(=O)[O-])ccc4F)c4nc(c(-c5cc(S(=O)(=O)[O-])ccc5F)c5ccc2[nH]5)C=C4)C=C3)cc1
REMARK SMILES IDX 38 1 37 2 2 3 1 4 3 5 4 6 5 7 6 8 36 9 7 10 9 11 8 12 10 13
REMARK SMILES IDX 11 14 12 16 13 17 14 18 18 19 15 20 17 21 16 22 19 23 34 24
REMARK SMILES IDX 20 25 21 26 35 27 22 28 23 29 27 30 24 31 26 32 25 33 28 34
REMARK SMILES IDX 29 35 33 36 30 37 32 38 31 39 39 40 40 41 41 42 42 43 43 44
REMARK SMILES IDX 44 45 45 46 46 47 47 48 108 49 48 50 107 51 49 52 50 53
REMARK SMILES IDX 51 54 101 55 52 56 106 57 100 58 102 59 53 60 105 61 99 62
REMARK SMILES IDX 98 63 54 65 86 66 66 67 85 68 67 69 70 70 84 71 103 72 68 73
REMARK SMILES IDX 69 74 83 76 104 77 71 78 55 79 56 80 64 81 57 82 63 83 65 84
REMARK SMILES IDX 62 85 58 86 59 87 60 88 61 89 87 90 88 91 96 92 89 93 95 94
REMARK SMILES IDX 97 95 94 96 90 97 91 98 92 99 93 100 72 101 73 102 81 103
REMARK SMILES IDX 74 104 80 105 82 106 79 107 75 108 76 109 77 110 78 111
REMARK H PARENT 10 15 102 64 70 75
REMARK Flexibility Score: inf
ROOT
ATOM      1  C   UNL A   1      41.544  23.971  26.826  1.00  0.00     0.261 C 
ENDROOT
BRANCH   1   2
ATOM      2  O   UNL A   1      41.022  22.675  26.495  1.00  0.00    -0.461 OA
BRANCH   2   3
ATOM      3  C   UNL A   1      39.703  22.381  26.411  1.00  0.00     0.344 C 
ATOM      4  O   UNL A   1      39.340  21.204  26.384  1.00  0.00    -0.248 OA
BRANCH   3   5
ATOM      5  C   UNL A   1      38.676  23.506  26.336  1.00  0.00     0.351 C 
BRANCH   5   6
ATOM      6  O   UNL A   1      37.325  23.290  26.687  1.00  0.00    -0.482 OA
BRANCH   6   7
ATOM      7  C   UNL A   1      36.492  22.908  25.674  1.00  0.00     0.122 A 
ATOM      8  C   UNL A   1      36.478  23.776  24.587  1.00  0.00     0.046 A 
ATOM      9  C   UNL A   1      35.636  21.799  25.703  1.00  0.00     0.072 A 
ATOM     10  C   UNL A   1      35.614  23.535  23.529  1.00  0.00     0.006 A 
ATOM     11  C   UNL A   1      34.809  21.510  24.618  1.00  0.00     0.045 A 
ATOM     12  C   UNL A   1      34.776  22.418  23.559  1.00  0.00     0.026 A 
BRANCH  11  13
ATOM     13  N   UNL A   1      34.013  20.338  24.682  1.00  0.00    -0.322 N 
ATOM     14  C   UNL A   1      32.757  20.134  25.233  1.00  0.00     0.255 C 
ATOM     15  H   UNL A   1      34.418  19.541  24.269  1.00  0.00     0.170 HD
ATOM     16  O   UNL A   1      32.251  19.023  25.330  1.00  0.00    -0.269 OA
BRANCH  14  17
ATOM     17  C   UNL A   1      31.933  21.322  25.526  1.00  0.00     0.041 A 
ATOM     18  C   UNL A   1      31.837  21.805  26.848  1.00  0.00     0.015 A 
ATOM     19  C   UNL A   1      31.561  22.095  24.426  1.00  0.00     0.028 A 
ATOM     20  C   UNL A   1      31.586  23.169  27.066  1.00  0.00     0.015 A 
ATOM     21  C   UNL A   1      31.328  23.424  24.685  1.00  0.00     0.054 A 
ATOM     22  C   UNL A   1      31.414  23.967  25.944  1.00  0.00     0.053 A 
ATOM     23  C   UNL A   1      31.285  24.507  23.730  1.00  0.00     0.266 C 
ATOM     24  C   UNL A   1      31.517  25.419  25.762  1.00  0.00     0.266 C 
ATOM     25  O   UNL A   1      30.959  24.278  22.580  1.00  0.00    -0.268 OA
ATOM     26  N   UNL A   1      31.655  25.652  24.407  1.00  0.00    -0.242 N 
ATOM     27  O   UNL A   1      31.399  26.158  26.723  1.00  0.00    -0.268 OA
BRANCH  26  28
ATOM     28  C   UNL A   1      32.121  26.843  23.738  1.00  0.00     0.060 A 
ATOM     29  C   UNL A   1      33.520  27.062  23.661  1.00  0.00     0.027 A 
ATOM     30  C   UNL A   1      31.297  27.895  23.254  1.00  0.00     0.006 A 
ATOM     31  C   UNL A   1      34.096  28.226  23.144  1.00  0.00     0.002 A 
ATOM     32  C   UNL A   1      31.908  29.057  22.701  1.00  0.00     0.011 A 
ATOM     33  C   UNL A   1      33.287  29.227  22.652  1.00  0.00     0.001 A 
BRANCH  30  34
ATOM     34  C   UNL A   1      29.835  27.994  23.375  1.00  0.00    -0.016 A 
ATOM     35  C   UNL A   1      29.069  26.886  23.775  1.00  0.00     0.009 A 
ATOM     36  C   UNL A   1      29.163  29.158  22.969  1.00  0.00     0.009 A 
ATOM     37  C   UNL A   1      27.675  26.962  23.825  1.00  0.00     0.001 A 
ATOM     38  C   UNL A   1      27.768  29.231  23.010  1.00  0.00     0.001 A 
ATOM     39  C   UNL A   1      27.026  28.136  23.448  1.00  0.00     0.000 A 
ENDBRANCH  30  34
ENDBRANCH  26  28
ENDBRANCH  14  17
ENDBRANCH  11  13
ENDBRANCH   6   7
ENDBRANCH   5   6
ENDBRANCH   3   5
ENDBRANCH   2   3
ENDBRANCH   1   2
BRANCH   1  40
ATOM     40  C   UNL A   1      42.921  23.946  27.488  1.00  0.00     0.202 C 
BRANCH  40  41
ATOM     41  O   UNL A   1      44.046  24.189  26.651  1.00  0.00    -0.374 OA
BRANCH  41  42
ATOM     42  C   UNL A   1      43.825  24.888  25.420  1.00  0.00     0.202 C 
BRANCH  42  43
ATOM     43  C   UNL A   1      44.244  26.358  25.344  1.00  0.00     0.261 C 
BRANCH  43  44
ATOM     44  O   UNL A   1      43.580  27.145  26.347  1.00  0.00    -0.460 OA
BRANCH  44  45
ATOM     45  C   UNL A   1      42.719  28.077  25.871  1.00  0.00     0.338 C 
ATOM     46  O   UNL A   1      42.394  28.245  24.707  1.00  0.00    -0.246 OA
BRANCH  45  47
ATOM     47  C   UNL A   1      42.040  28.737  27.002  1.00  0.00     0.060 A 
ATOM     48  C   UNL A   1      42.642  29.877  27.552  1.00  0.00     0.016 A 
ATOM     49  C   UNL A   1      40.872  28.208  27.554  1.00  0.00     0.016 A 
ATOM     50  C   UNL A   1      42.115  30.456  28.705  1.00  0.00     0.010 A 
ATOM     51  C   UNL A   1      40.352  28.781  28.714  1.00  0.00     0.010 A 
ATOM     52  C   UNL A   1      40.999  29.876  29.316  1.00  0.00    -0.014 A 
BRANCH  52  53
ATOM     53  C   UNL A   1      40.624  30.252  30.697  1.00  0.00     0.031 A 
ATOM     54  C   UNL A   1      39.363  31.044  30.891  1.00  0.00     0.074 A 
ATOM     55  C   UNL A   1      41.417  29.947  31.736  1.00  0.00     0.049 A 
ATOM     56  N   UNL A   1      38.915  31.654  31.956  1.00  0.00    -0.248 NA
ATOM     57  C   UNL A   1      38.503  31.182  29.706  1.00  0.00     0.031 C 
ATOM     58  C   UNL A   1      42.639  29.151  31.658  1.00  0.00     0.029 A 
ATOM     59  N   UNL A   1      41.327  30.307  33.057  1.00  0.00    -0.354 N 
ATOM     60  C   UNL A   1      37.733  32.273  31.563  1.00  0.00     0.074 A 
ATOM     61  C   UNL A   1      37.552  31.984  30.156  1.00  0.00     0.031 C 
ATOM     62  C   UNL A   1      43.215  29.123  32.872  1.00  0.00     0.029 A 
ATOM     63  C   UNL A   1      42.424  29.935  33.795  1.00  0.00     0.049 A 
ATOM     64  H   UNL A   1      40.554  30.784  33.437  1.00  0.00     0.167 HD
ATOM     65  C   UNL A   1      36.881  33.017  32.312  1.00  0.00     0.034 A 
ATOM     66  C   UNL A   1      42.774  30.263  35.055  1.00  0.00     0.034 A 
ATOM     67  C   UNL A   1      37.103  33.303  33.707  1.00  0.00     0.049 A 
ATOM     68  C   UNL A   1      41.852  31.144  35.860  1.00  0.00     0.074 A 
ATOM     69  C   UNL A   1      36.306  34.020  34.582  1.00  0.00     0.029 A 
ATOM     70  N   UNL A   1      38.221  32.899  34.430  1.00  0.00    -0.354 N 
ATOM     71  N   UNL A   1      40.727  31.718  35.491  1.00  0.00    -0.248 NA
ATOM     72  C   UNL A   1      42.241  31.417  37.248  1.00  0.00     0.031 C 
ATOM     73  C   UNL A   1      36.974  34.109  35.808  1.00  0.00     0.029 A 
ATOM     74  C   UNL A   1      38.152  33.380  35.726  1.00  0.00     0.049 A 
ATOM     75  H   UNL A   1      38.955  32.351  34.069  1.00  0.00     0.167 HD
ATOM     76  C   UNL A   1      40.262  32.398  36.613  1.00  0.00     0.074 A 
ATOM     77  C   UNL A   1      41.226  32.161  37.669  1.00  0.00     0.031 C 
ATOM     78  C   UNL A   1      39.133  33.139  36.761  1.00  0.00     0.034 A 
BRANCH  65  79
ATOM     79  C   UNL A   1      35.690  33.621  31.602  1.00  0.00     0.023 A 
ATOM     80  C   UNL A   1      35.147  33.042  30.440  1.00  0.00     0.031 A 
ATOM     81  C   UNL A   1      35.144  34.839  32.044  1.00  0.00     0.131 A 
ATOM     82  C   UNL A   1      34.168  33.730  29.705  1.00  0.00     0.055 A 
ATOM     83  C   UNL A   1      34.105  35.472  31.359  1.00  0.00     0.041 A 
ATOM     84  F   UNL A   1      35.634  35.453  33.132  1.00  0.00    -0.206 F 
ATOM     85  C   UNL A   1      33.626  34.931  30.170  1.00  0.00     0.022 A 
BRANCH  82  86
ATOM     86  S   UNL A   1      33.755  33.132  28.043  1.00  0.00     0.124 S 
ATOM     87  O   UNL A   1      33.755  31.684  28.242  1.00  0.00    -0.237 OA
ATOM     88  O   UNL A   1      32.454  33.744  27.802  1.00  0.00    -0.237 OA
ATOM     89  O   UNL A   1      34.849  33.637  27.215  1.00  0.00    -0.744 OA
ENDBRANCH  82  86
ENDBRANCH  65  79
BRANCH  66  90
ATOM     90  C   UNL A   1      44.080  29.804  35.599  1.00  0.00     0.023 A 
ATOM     91  C   UNL A   1      45.210  30.635  35.590  1.00  0.00     0.031 A 
ATOM     92  C   UNL A   1      44.210  28.516  36.154  1.00  0.00     0.131 A 
ATOM     93  C   UNL A   1      46.426  30.164  36.110  1.00  0.00     0.055 A 
ATOM     94  C   UNL A   1      45.409  28.067  36.704  1.00  0.00     0.041 A 
ATOM     95  F   UNL A   1      43.154  27.687  36.193  1.00  0.00    -0.206 F 
ATOM     96  C   UNL A   1      46.529  28.892  36.679  1.00  0.00     0.022 A 
BRANCH  93  97
ATOM     97  S   UNL A   1      47.887  31.233  36.009  1.00  0.00     0.124 S 
ATOM     98  O   UNL A   1      47.487  32.189  34.982  1.00  0.00    -0.237 OA
ATOM     99  O   UNL A   1      47.978  31.753  37.369  1.00  0.00    -0.237 OA
ATOM    100  O   UNL A   1      48.956  30.314  35.624  1.00  0.00    -0.744 OA
ENDBRANCH  93  97
ENDBRANCH  66  90
BRANCH  78 101
ATOM    101  C   UNL A   1      38.854  33.701  38.133  1.00  0.00     0.023 A 
ATOM    102  C   UNL A   1      39.242  35.000  38.499  1.00  0.00     0.031 A 
ATOM    103  C   UNL A   1      38.163  32.921  39.079  1.00  0.00     0.131 A 
ATOM    104  C   UNL A   1      38.968  35.469  39.794  1.00  0.00     0.055 A 
ATOM    105  C   UNL A   1      37.849  33.411  40.345  1.00  0.00     0.041 A 
ATOM    106  F   UNL A   1      37.771  31.672  38.778  1.00  0.00    -0.206 F 
ATOM    107  C   UNL A   1      38.259  34.689  40.712  1.00  0.00     0.022 A 
BRANCH 104 108
ATOM    108  S   UNL A   1      39.605  37.093  40.289  1.00  0.00     0.124 S 
ATOM    109  O   UNL A   1      41.028  36.965  39.987  1.00  0.00    -0.237 OA
ATOM    110  O   UNL A   1      38.850  38.001  39.432  1.00  0.00    -0.237 OA
ATOM    111  O   UNL A   1      39.279  37.171  41.711  1.00  0.00    -0.744 OA
ENDBRANCH 104 108
ENDBRANCH  78 101
ENDBRANCH  52  53
ENDBRANCH  45  47
ENDBRANCH  44  45
ENDBRANCH  43  44
ENDBRANCH  42  43
ENDBRANCH  41  42
ENDBRANCH  40  41
ENDBRANCH   1  40
TORSDOF 23
ENDMDL
