MODEL 1
REMARK VINA RESULT:     -11.2      0.000      0.000
REMARK SMILES CC(C)c1nc(OCC(=O)OCCOCCOC(=O)c2ccc(-c3c4nc(c(-c5cc(S(=O)(=O)[O-])ccc5F)c5ccc([nH]5)c(-c5cc(S(=O)(=O)[O-])ccc5F)c5nc(c(-c6cc(S(=O)(=O)[O-])ccc6F)c6ccc3[nH]6)C=C5)C=C4)cc2)cc(-c2ccccn2)n1
REMARK SMILES IDX 14 1 13 2 12 3 11 4 9 5 10 6 8 7 7 8 6 9 4 10 5 11 91 12
REMARK SMILES IDX 84 13 83 14 2 15 1 16 3 17 85 18 86 19 90 20 87 21 89 22
REMARK SMILES IDX 88 23 15 24 16 25 17 26 18 27 19 28 20 29 21 30 82 31 22 32
REMARK SMILES IDX 81 33 23 34 24 35 25 36 75 37 26 38 80 39 74 40 76 41 27 42
REMARK SMILES IDX 79 43 73 44 72 45 28 47 60 48 40 49 59 50 41 51 44 52 58 53
REMARK SMILES IDX 77 54 42 55 43 56 57 58 78 59 45 60 29 61 30 62 38 63 31 64
REMARK SMILES IDX 37 65 39 66 36 67 32 68 33 69 34 70 35 71 61 72 62 73 70 74
REMARK SMILES IDX 63 75 69 76 71 77 68 78 64 79 65 80 66 81 67 82 46 83 47 84
REMARK SMILES IDX 55 85 48 86 54 87 56 88 53 89 49 90 50 91 51 92 52 93
REMARK H PARENT 76 46 44 57
REMARK Flexibility Score: inf
ROOT
ATOM      1  O   UNL A   1      32.184  28.300  24.914  1.00  0.00    -0.374 OA
ENDROOT
BRANCH   1   2
ATOM      2  C   UNL A   1      33.177  27.510  24.265  1.00  0.00     0.202 C 
BRANCH   2   3
ATOM      3  C   UNL A   1      32.710  26.197  23.626  1.00  0.00     0.261 C 
BRANCH   3   4
ATOM      4  O   UNL A   1      31.270  26.056  23.612  1.00  0.00    -0.461 OA
BRANCH   4   5
ATOM      5  C   UNL A   1      30.794  24.817  23.919  1.00  0.00     0.344 C 
ATOM      6  O   UNL A   1      30.244  24.063  23.122  1.00  0.00    -0.248 OA
BRANCH   5   7
ATOM      7  C   UNL A   1      30.993  24.414  25.386  1.00  0.00     0.353 C 
BRANCH   7   8
ATOM      8  O   UNL A   1      31.113  23.062  25.756  1.00  0.00    -0.466 OA
BRANCH   8   9
ATOM      9  C   UNL A   1      32.235  22.335  25.500  1.00  0.00     0.217 A 
ATOM     10  C   UNL A   1      34.386  22.610  24.717  1.00  0.00     0.135 A 
ATOM     11  N   UNL A   1      33.272  23.147  25.234  1.00  0.00    -0.198 NA
ATOM     12  N   UNL A   1      34.523  21.306  24.428  1.00  0.00    -0.231 NA
ATOM     13  C   UNL A   1      33.490  20.491  24.740  1.00  0.00     0.096 A 
ATOM     14  C   UNL A   1      32.316  20.968  25.321  1.00  0.00     0.099 A 
BRANCH  10  15
ATOM     15  C   UNL A   1      35.509  23.560  24.364  1.00  0.00     0.051 C 
ATOM     16  C   UNL A   1      36.068  24.237  25.613  1.00  0.00     0.016 C 
ATOM     17  C   UNL A   1      36.611  22.849  23.578  1.00  0.00     0.016 C 
ENDBRANCH  10  15
BRANCH  13  18
ATOM     18  C   UNL A   1      33.616  19.100  24.253  1.00  0.00     0.089 A 
ATOM     19  C   UNL A   1      34.657  18.271  24.680  1.00  0.00     0.030 A 
ATOM     20  N   UNL A   1      32.681  18.660  23.377  1.00  0.00    -0.255 NA
ATOM     21  C   UNL A   1      34.789  16.984  24.170  1.00  0.00     0.004 A 
ATOM     22  C   UNL A   1      32.790  17.375  22.954  1.00  0.00     0.112 A 
ATOM     23  C   UNL A   1      33.824  16.517  23.296  1.00  0.00     0.020 A 
ENDBRANCH  13  18
ENDBRANCH   8   9
ENDBRANCH   7   8
ENDBRANCH   5   7
ENDBRANCH   4   5
ENDBRANCH   3   4
ENDBRANCH   2   3
ENDBRANCH   1   2
BRANCH   1  24
ATOM     24  C   UNL A   1      32.377  29.703  24.960  1.00  0.00     0.202 C 
BRANCH  24  25
ATOM     25  C   UNL A   1      31.833  30.499  26.153  1.00  0.00     0.261 C 
BRANCH  25  26
ATOM     26  O   UNL A   1      32.656  30.561  27.289  1.00  0.00    -0.460 OA
BRANCH  26  27
ATOM     27  C   UNL A   1      33.242  31.757  27.459  1.00  0.00     0.338 C 
ATOM     28  O   UNL A   1      32.752  32.870  27.346  1.00  0.00    -0.246 OA
BRANCH  27  29
ATOM     29  C   UNL A   1      34.579  31.442  27.934  1.00  0.00     0.060 A 
ATOM     30  C   UNL A   1      34.846  30.114  28.253  1.00  0.00     0.016 A 
ATOM     31  C   UNL A   1      35.560  32.444  27.992  1.00  0.00     0.016 A 
ATOM     32  C   UNL A   1      36.112  29.788  28.695  1.00  0.00     0.010 A 
ATOM     33  C   UNL A   1      36.834  32.110  28.418  1.00  0.00     0.010 A 
ATOM     34  C   UNL A   1      37.090  30.789  28.809  1.00  0.00    -0.014 A 
BRANCH  34  35
ATOM     35  C   UNL A   1      38.340  30.445  29.496  1.00  0.00     0.031 A 
ATOM     36  C   UNL A   1      38.533  30.947  30.894  1.00  0.00     0.074 A 
ATOM     37  C   UNL A   1      39.199  29.611  28.894  1.00  0.00     0.049 A 
ATOM     38  N   UNL A   1      39.463  30.647  31.756  1.00  0.00    -0.248 NA
ATOM     39  C   UNL A   1      37.539  31.916  31.389  1.00  0.00     0.031 C 
ATOM     40  C   UNL A   1      39.045  29.082  27.536  1.00  0.00     0.029 A 
ATOM     41  N   UNL A   1      40.346  29.032  29.355  1.00  0.00    -0.354 N 
ATOM     42  C   UNL A   1      39.158  31.372  32.901  1.00  0.00     0.074 A 
ATOM     43  C   UNL A   1      37.994  32.174  32.603  1.00  0.00     0.031 C 
ATOM     44  C   UNL A   1      40.050  28.228  27.286  1.00  0.00     0.029 A 
ATOM     45  C   UNL A   1      40.921  28.170  28.454  1.00  0.00     0.049 A 
ATOM     46  H   UNL A   1      40.723  29.215  30.245  1.00  0.00     0.167 HD
ATOM     47  C   UNL A   1      39.792  31.347  34.098  1.00  0.00     0.034 A 
ATOM     48  C   UNL A   1      42.029  27.416  28.580  1.00  0.00     0.034 A 
ATOM     49  C   UNL A   1      40.968  30.548  34.335  1.00  0.00     0.049 A 
ATOM     50  C   UNL A   1      42.743  27.443  29.906  1.00  0.00     0.074 A 
ATOM     51  C   UNL A   1      41.724  30.437  35.486  1.00  0.00     0.029 A 
ATOM     52  N   UNL A   1      41.567  29.724  33.384  1.00  0.00    -0.354 N 
ATOM     53  N   UNL A   1      42.439  28.114  30.996  1.00  0.00    -0.248 NA
ATOM     54  C   UNL A   1      43.931  26.595  30.029  1.00  0.00     0.031 C 
ATOM     55  C   UNL A   1      42.815  29.602  35.210  1.00  0.00     0.029 A 
ATOM     56  C   UNL A   1      42.698  29.125  33.913  1.00  0.00     0.049 A 
ATOM     57  H   UNL A   1      41.233  29.587  32.468  1.00  0.00     0.167 HD
ATOM     58  C   UNL A   1      43.390  27.753  31.943  1.00  0.00     0.074 A 
ATOM     59  C   UNL A   1      44.254  26.780  31.299  1.00  0.00     0.031 C 
ATOM     60  C   UNL A   1      43.547  28.179  33.225  1.00  0.00     0.034 A 
BRANCH  47  61
ATOM     61  C   UNL A   1      39.254  32.246  35.183  1.00  0.00     0.023 A 
ATOM     62  C   UNL A   1      39.694  33.575  35.334  1.00  0.00     0.031 A 
ATOM     63  C   UNL A   1      38.332  31.750  36.121  1.00  0.00     0.131 A 
ATOM     64  C   UNL A   1      39.269  34.334  36.437  1.00  0.00     0.055 A 
ATOM     65  C   UNL A   1      37.854  32.536  37.172  1.00  0.00     0.041 A 
ATOM     66  F   UNL A   1      37.901  30.481  36.050  1.00  0.00    -0.206 F 
ATOM     67  C   UNL A   1      38.333  33.832  37.342  1.00  0.00     0.022 A 
BRANCH  64  68
ATOM     68  S   UNL A   1      40.067  35.934  36.753  1.00  0.00     0.124 S 
ATOM     69  O   UNL A   1      39.771  36.660  35.521  1.00  0.00    -0.237 OA
ATOM     70  O   UNL A   1      39.378  36.399  37.951  1.00  0.00    -0.237 OA
ATOM     71  O   UNL A   1      41.474  35.584  36.940  1.00  0.00    -0.744 OA
ENDBRANCH  64  68
ENDBRANCH  47  61
BRANCH  48  72
ATOM     72  C   UNL A   1      42.515  26.593  27.438  1.00  0.00     0.023 A 
ATOM     73  C   UNL A   1      42.139  25.250  27.288  1.00  0.00     0.031 A 
ATOM     74  C   UNL A   1      43.392  27.141  26.482  1.00  0.00     0.131 A 
ATOM     75  C   UNL A   1      42.669  24.487  26.235  1.00  0.00     0.055 A 
ATOM     76  C   UNL A   1      43.876  26.393  25.408  1.00  0.00     0.041 A 
ATOM     77  F   UNL A   1      43.778  28.424  26.572  1.00  0.00    -0.206 F 
ATOM     78  C   UNL A   1      43.525  25.054  25.287  1.00  0.00     0.022 A 
BRANCH  75  79
ATOM     79  S   UNL A   1      42.285  22.716  26.165  1.00  0.00     0.124 S 
ATOM     80  O   UNL A   1      40.831  22.720  26.279  1.00  0.00    -0.237 OA
ATOM     81  O   UNL A   1      42.826  22.343  24.861  1.00  0.00    -0.237 OA
ATOM     82  O   UNL A   1      43.002  22.167  27.314  1.00  0.00    -0.744 OA
ENDBRANCH  75  79
ENDBRANCH  48  72
BRANCH  60  83
ATOM     83  C   UNL A   1      44.688  27.566  33.996  1.00  0.00     0.023 A 
ATOM     84  C   UNL A   1      44.487  26.470  34.853  1.00  0.00     0.031 A 
ATOM     85  C   UNL A   1      45.980  28.110  33.903  1.00  0.00     0.131 A 
ATOM     86  C   UNL A   1      45.544  26.007  35.648  1.00  0.00     0.055 A 
ATOM     87  C   UNL A   1      47.045  27.594  34.641  1.00  0.00     0.041 A 
ATOM     88  F   UNL A   1      46.225  29.157  33.099  1.00  0.00    -0.206 F 
ATOM     89  C   UNL A   1      46.826  26.550  35.535  1.00  0.00     0.022 A 
BRANCH  86  90
ATOM     90  S   UNL A   1      45.184  24.775  36.929  1.00  0.00     0.124 S 
ATOM     91  O   UNL A   1      45.539  23.529  36.258  1.00  0.00    -0.237 OA
ATOM     92  O   UNL A   1      46.068  25.187  38.014  1.00  0.00    -0.237 OA
ATOM     93  O   UNL A   1      43.757  24.957  37.188  1.00  0.00    -0.744 OA
ENDBRANCH  86  90
ENDBRANCH  60  83
ENDBRANCH  34  35
ENDBRANCH  27  29
ENDBRANCH  26  27
ENDBRANCH  25  26
ENDBRANCH  24  25
ENDBRANCH   1  24
TORSDOF 21
ENDMDL
MODEL 2
REMARK VINA RESULT:     -10.9      0.919      2.235
REMARK SMILES CC(C)c1nc(OCC(=O)OCCOCCOC(=O)c2ccc(-c3c4nc(c(-c5cc(S(=O)(=O)[O-])ccc5F)c5ccc([nH]5)c(-c5cc(S(=O)(=O)[O-])ccc5F)c5nc(c(-c6cc(S(=O)(=O)[O-])ccc6F)c6ccc3[nH]6)C=C5)C=C4)cc2)cc(-c2ccccn2)n1
REMARK SMILES IDX 14 1 13 2 12 3 11 4 9 5 10 6 8 7 7 8 6 9 4 10 5 11 91 12
REMARK SMILES IDX 84 13 83 14 2 15 1 16 3 17 85 18 86 19 90 20 87 21 89 22
REMARK SMILES IDX 88 23 15 24 16 25 17 26 18 27 19 28 20 29 21 30 82 31 22 32
REMARK SMILES IDX 81 33 23 34 24 35 25 36 75 37 26 38 80 39 74 40 76 41 27 42
REMARK SMILES IDX 79 43 73 44 72 45 28 47 60 48 40 49 59 50 41 51 44 52 58 53
REMARK SMILES IDX 77 54 42 55 43 56 57 58 78 59 45 60 29 61 30 62 38 63 31 64
REMARK SMILES IDX 37 65 39 66 36 67 32 68 33 69 34 70 35 71 61 72 62 73 70 74
REMARK SMILES IDX 63 75 69 76 71 77 68 78 64 79 65 80 66 81 67 82 46 83 47 84
REMARK SMILES IDX 55 85 48 86 54 87 56 88 53 89 49 90 50 91 51 92 52 93
REMARK H PARENT 76 46 44 57
REMARK Flexibility Score: inf
ROOT
ATOM      1  O   UNL A   1      31.608  28.583  24.995  1.00  0.00    -0.374 OA
ENDROOT
BRANCH   1   2
ATOM      2  C   UNL A   1      32.636  27.821  24.368  1.00  0.00     0.202 C 
BRANCH   2   3
ATOM      3  C   UNL A   1      32.318  26.356  24.047  1.00  0.00     0.261 C 
BRANCH   3   4
ATOM      4  O   UNL A   1      30.981  25.969  24.442  1.00  0.00    -0.461 OA
BRANCH   4   5
ATOM      5  C   UNL A   1      30.663  24.659  24.246  1.00  0.00     0.344 C 
ATOM      6  O   UNL A   1      30.200  24.202  23.204  1.00  0.00    -0.248 OA
BRANCH   5   7
ATOM      7  C   UNL A   1      30.925  23.760  25.461  1.00  0.00     0.353 C 
BRANCH   7   8
ATOM      8  O   UNL A   1      31.145  22.379  25.307  1.00  0.00    -0.466 OA
BRANCH   8   9
ATOM      9  C   UNL A   1      32.362  21.870  24.970  1.00  0.00     0.217 A 
ATOM     10  C   UNL A   1      33.382  19.846  24.548  1.00  0.00     0.135 A 
ATOM     11  N   UNL A   1      32.257  20.566  24.659  1.00  0.00    -0.198 NA
ATOM     12  N   UNL A   1      34.613  20.345  24.747  1.00  0.00    -0.231 NA
ATOM     13  C   UNL A   1      34.708  21.667  25.016  1.00  0.00     0.096 A 
ATOM     14  C   UNL A   1      33.588  22.491  25.104  1.00  0.00     0.099 A 
BRANCH  10  15
ATOM     15  C   UNL A   1      33.227  18.368  24.266  1.00  0.00     0.051 C 
ATOM     16  C   UNL A   1      32.455  18.133  22.970  1.00  0.00     0.016 C 
ATOM     17  C   UNL A   1      34.585  17.664  24.238  1.00  0.00     0.016 C 
ENDBRANCH  10  15
BRANCH  13  18
ATOM     18  C   UNL A   1      36.059  22.136  25.393  1.00  0.00     0.089 A 
ATOM     19  C   UNL A   1      37.179  21.309  25.265  1.00  0.00     0.030 A 
ATOM     20  N   UNL A   1      36.169  23.400  25.868  1.00  0.00    -0.255 NA
ATOM     21  C   UNL A   1      38.433  21.751  25.676  1.00  0.00     0.004 A 
ATOM     22  C   UNL A   1      37.416  23.832  26.188  1.00  0.00     0.112 A 
ATOM     23  C   UNL A   1      38.559  23.049  26.135  1.00  0.00     0.020 A 
ENDBRANCH  13  18
ENDBRANCH   8   9
ENDBRANCH   7   8
ENDBRANCH   5   7
ENDBRANCH   4   5
ENDBRANCH   3   4
ENDBRANCH   2   3
ENDBRANCH   1   2
BRANCH   1  24
ATOM     24  C   UNL A   1      31.860  29.953  25.255  1.00  0.00     0.202 C 
BRANCH  24  25
ATOM     25  C   UNL A   1      31.832  30.462  26.702  1.00  0.00     0.261 C 
BRANCH  25  26
ATOM     26  O   UNL A   1      33.032  30.358  27.423  1.00  0.00    -0.460 OA
BRANCH  26  27
ATOM     27  C   UNL A   1      33.617  31.544  27.660  1.00  0.00     0.338 C 
ATOM     28  O   UNL A   1      33.127  32.660  27.603  1.00  0.00    -0.246 OA
BRANCH  27  29
ATOM     29  C   UNL A   1      34.950  31.203  28.126  1.00  0.00     0.060 A 
ATOM     30  C   UNL A   1      35.138  29.928  28.649  1.00  0.00     0.016 A 
ATOM     31  C   UNL A   1      36.003  32.120  27.978  1.00  0.00     0.016 A 
ATOM     32  C   UNL A   1      36.399  29.577  29.086  1.00  0.00     0.010 A 
ATOM     33  C   UNL A   1      37.270  31.759  28.401  1.00  0.00     0.010 A 
ATOM     34  C   UNL A   1      37.451  30.502  28.993  1.00  0.00    -0.014 A 
BRANCH  34  35
ATOM     35  C   UNL A   1      38.708  30.175  29.677  1.00  0.00     0.031 A 
ATOM     36  C   UNL A   1      38.907  30.697  31.066  1.00  0.00     0.074 A 
ATOM     37  C   UNL A   1      39.569  29.338  29.079  1.00  0.00     0.049 A 
ATOM     38  N   UNL A   1      39.846  30.414  31.926  1.00  0.00    -0.248 NA
ATOM     39  C   UNL A   1      37.911  31.666  31.555  1.00  0.00     0.031 C 
ATOM     40  C   UNL A   1      39.408  28.790  27.730  1.00  0.00     0.029 A 
ATOM     41  N   UNL A   1      40.722  28.772  29.541  1.00  0.00    -0.354 N 
ATOM     42  C   UNL A   1      39.544  31.153  33.063  1.00  0.00     0.074 A 
ATOM     43  C   UNL A   1      38.372  31.943  32.763  1.00  0.00     0.031 C 
ATOM     44  C   UNL A   1      40.417  27.939  27.484  1.00  0.00     0.029 A 
ATOM     45  C   UNL A   1      41.297  27.902  28.647  1.00  0.00     0.049 A 
ATOM     46  H   UNL A   1      41.104  28.970  30.426  1.00  0.00     0.167 HD
ATOM     47  C   UNL A   1      40.186  31.147  34.256  1.00  0.00     0.034 A 
ATOM     48  C   UNL A   1      42.410  27.157  28.775  1.00  0.00     0.034 A 
ATOM     49  C   UNL A   1      41.369  30.358  34.495  1.00  0.00     0.049 A 
ATOM     50  C   UNL A   1      43.133  27.206  30.096  1.00  0.00     0.074 A 
ATOM     51  C   UNL A   1      42.133  30.268  35.642  1.00  0.00     0.029 A 
ATOM     52  N   UNL A   1      41.966  29.526  33.551  1.00  0.00    -0.354 N 
ATOM     53  N   UNL A   1      42.831  27.889  31.179  1.00  0.00    -0.248 NA
ATOM     54  C   UNL A   1      44.327  26.367  30.222  1.00  0.00     0.031 C 
ATOM     55  C   UNL A   1      43.227  29.436  35.371  1.00  0.00     0.029 A 
ATOM     56  C   UNL A   1      43.104  28.941  34.081  1.00  0.00     0.049 A 
ATOM     57  H   UNL A   1      41.627  29.375  32.640  1.00  0.00     0.167 HD
ATOM     58  C   UNL A   1      43.792  27.547  32.124  1.00  0.00     0.074 A 
ATOM     59  C   UNL A   1      44.658  26.571  31.488  1.00  0.00     0.031 C 
ATOM     60  C   UNL A   1      43.954  27.991  33.399  1.00  0.00     0.034 A 
BRANCH  47  61
ATOM     61  C   UNL A   1      39.649  32.057  35.332  1.00  0.00     0.023 A 
ATOM     62  C   UNL A   1      40.052  33.402  35.438  1.00  0.00     0.031 A 
ATOM     63  C   UNL A   1      38.769  31.557  36.308  1.00  0.00     0.131 A 
ATOM     64  C   UNL A   1      39.633  34.176  36.533  1.00  0.00     0.055 A 
ATOM     65  C   UNL A   1      38.295  32.356  37.351  1.00  0.00     0.041 A 
ATOM     66  F   UNL A   1      38.376  30.275  36.281  1.00  0.00    -0.206 F 
ATOM     67  C   UNL A   1      38.738  33.670  37.476  1.00  0.00     0.022 A 
BRANCH  64  68
ATOM     68  S   UNL A   1      40.389  35.807  36.787  1.00  0.00     0.124 S 
ATOM     69  O   UNL A   1      41.773  35.556  36.392  1.00  0.00    -0.237 OA
ATOM     70  O   UNL A   1      39.614  36.658  35.892  1.00  0.00    -0.237 OA
ATOM     71  O   UNL A   1      40.192  36.058  38.213  1.00  0.00    -0.744 OA
ENDBRANCH  64  68
ENDBRANCH  47  61
BRANCH  48  72
ATOM     72  C   UNL A   1      42.894  26.322  27.641  1.00  0.00     0.023 A 
ATOM     73  C   UNL A   1      42.623  24.947  27.574  1.00  0.00     0.031 A 
ATOM     74  C   UNL A   1      43.662  26.892  26.608  1.00  0.00     0.131 A 
ATOM     75  C   UNL A   1      43.150  24.180  26.523  1.00  0.00     0.055 A 
ATOM     76  C   UNL A   1      44.141  26.135  25.539  1.00  0.00     0.041 A 
ATOM     77  F   UNL A   1      43.944  28.205  26.618  1.00  0.00    -0.206 F 
ATOM     78  C   UNL A   1      43.897  24.767  25.499  1.00  0.00     0.022 A 
BRANCH  75  79
ATOM     79  S   UNL A   1      42.913  22.382  26.553  1.00  0.00     0.124 S 
ATOM     80  O   UNL A   1      42.455  22.165  27.921  1.00  0.00    -0.237 OA
ATOM     81  O   UNL A   1      41.916  22.192  25.505  1.00  0.00    -0.237 OA
ATOM     82  O   UNL A   1      44.242  21.858  26.248  1.00  0.00    -0.744 OA
ENDBRANCH  75  79
ENDBRANCH  48  72
BRANCH  60  83
ATOM     83  C   UNL A   1      45.105  27.395  34.171  1.00  0.00     0.023 A 
ATOM     84  C   UNL A   1      44.940  26.241  34.955  1.00  0.00     0.031 A 
ATOM     85  C   UNL A   1      46.366  28.013  34.152  1.00  0.00     0.131 A 
ATOM     86  C   UNL A   1      45.997  25.789  35.756  1.00  0.00     0.055 A 
ATOM     87  C   UNL A   1      47.436  27.513  34.894  1.00  0.00     0.041 A 
ATOM     88  F   UNL A   1      46.577  29.118  33.419  1.00  0.00    -0.206 F 
ATOM     89  C   UNL A   1      47.249  26.406  35.717  1.00  0.00     0.022 A 
BRANCH  86  90
ATOM     90  S   UNL A   1      45.668  24.464  36.951  1.00  0.00     0.124 S 
ATOM     91  O   UNL A   1      47.015  23.997  37.262  1.00  0.00    -0.237 OA
ATOM     92  O   UNL A   1      44.978  25.176  38.022  1.00  0.00    -0.237 OA
ATOM     93  O   UNL A   1      44.842  23.523  36.198  1.00  0.00    -0.744 OA
ENDBRANCH  86  90
ENDBRANCH  60  83
ENDBRANCH  34  35
ENDBRANCH  27  29
ENDBRANCH  26  27
ENDBRANCH  25  26
ENDBRANCH  24  25
ENDBRANCH   1  24
TORSDOF 21
ENDMDL
MODEL 3
REMARK VINA RESULT:     -10.8      2.307      2.803
REMARK SMILES CC(C)c1nc(OCC(=O)OCCOCCOC(=O)c2ccc(-c3c4nc(c(-c5cc(S(=O)(=O)[O-])ccc5F)c5ccc([nH]5)c(-c5cc(S(=O)(=O)[O-])ccc5F)c5nc(c(-c6cc(S(=O)(=O)[O-])ccc6F)c6ccc3[nH]6)C=C5)C=C4)cc2)cc(-c2ccccn2)n1
REMARK SMILES IDX 14 1 13 2 12 3 11 4 9 5 10 6 8 7 7 8 6 9 4 10 5 11 91 12
REMARK SMILES IDX 84 13 83 14 2 15 1 16 3 17 85 18 86 19 90 20 87 21 89 22
REMARK SMILES IDX 88 23 15 24 16 25 17 26 18 27 19 28 20 29 21 30 82 31 22 32
REMARK SMILES IDX 81 33 23 34 24 35 25 36 75 37 26 38 80 39 74 40 76 41 27 42
REMARK SMILES IDX 79 43 73 44 72 45 28 47 60 48 40 49 59 50 41 51 44 52 58 53
REMARK SMILES IDX 77 54 42 55 43 56 57 58 78 59 45 60 29 61 30 62 38 63 31 64
REMARK SMILES IDX 37 65 39 66 36 67 32 68 33 69 34 70 35 71 61 72 62 73 70 74
REMARK SMILES IDX 63 75 69 76 71 77 68 78 64 79 65 80 66 81 67 82 46 83 47 84
REMARK SMILES IDX 55 85 48 86 54 87 56 88 53 89 49 90 50 91 51 92 52 93
REMARK H PARENT 76 46 44 57
REMARK Flexibility Score: inf
ROOT
ATOM      1  O   UNL A   1      31.561  28.420  24.487  1.00  0.00    -0.374 OA
ENDROOT
BRANCH   1   2
ATOM      2  C   UNL A   1      31.697  27.750  23.236  1.00  0.00     0.202 C 
BRANCH   2   3
ATOM      3  C   UNL A   1      31.599  26.220  23.254  1.00  0.00     0.261 C 
BRANCH   3   4
ATOM      4  O   UNL A   1      32.890  25.570  23.192  1.00  0.00    -0.461 OA
BRANCH   4   5
ATOM      5  C   UNL A   1      33.205  24.994  21.998  1.00  0.00     0.344 C 
ATOM      6  O   UNL A   1      33.238  25.588  20.924  1.00  0.00    -0.248 OA
BRANCH   5   7
ATOM      7  C   UNL A   1      33.522  23.496  22.088  1.00  0.00     0.353 C 
BRANCH   7   8
ATOM      8  O   UNL A   1      32.497  22.533  22.036  1.00  0.00    -0.466 OA
BRANCH   8   9
ATOM      9  C   UNL A   1      32.228  21.701  23.080  1.00  0.00     0.217 A 
ATOM     10  C   UNL A   1      31.781  21.779  25.340  1.00  0.00     0.135 A 
ATOM     11  N   UNL A   1      31.843  22.407  24.157  1.00  0.00    -0.198 NA
ATOM     12  N   UNL A   1      32.099  20.488  25.520  1.00  0.00    -0.231 NA
ATOM     13  C   UNL A   1      32.442  19.777  24.422  1.00  0.00     0.096 A 
ATOM     14  C   UNL A   1      32.487  20.347  23.151  1.00  0.00     0.099 A 
BRANCH  10  15
ATOM     15  C   UNL A   1      31.412  22.617  26.545  1.00  0.00     0.051 C 
ATOM     16  C   UNL A   1      32.643  22.937  27.389  1.00  0.00     0.016 C 
ATOM     17  C   UNL A   1      30.678  23.893  26.129  1.00  0.00     0.016 C 
ENDBRANCH  10  15
BRANCH  13  18
ATOM     18  C   UNL A   1      32.945  18.411  24.688  1.00  0.00     0.089 A 
ATOM     19  C   UNL A   1      34.239  18.028  24.322  1.00  0.00     0.030 A 
ATOM     20  N   UNL A   1      32.103  17.546  25.301  1.00  0.00    -0.255 NA
ATOM     21  C   UNL A   1      34.675  16.724  24.533  1.00  0.00     0.004 A 
ATOM     22  C   UNL A   1      32.580  16.303  25.564  1.00  0.00     0.112 A 
ATOM     23  C   UNL A   1      33.832  15.842  25.183  1.00  0.00     0.020 A 
ENDBRANCH  13  18
ENDBRANCH   8   9
ENDBRANCH   7   8
ENDBRANCH   5   7
ENDBRANCH   4   5
ENDBRANCH   3   4
ENDBRANCH   2   3
ENDBRANCH   1   2
BRANCH   1  24
ATOM     24  C   UNL A   1      32.595  28.259  25.443  1.00  0.00     0.202 C 
BRANCH  24  25
ATOM     25  C   UNL A   1      32.795  29.331  26.522  1.00  0.00     0.261 C 
BRANCH  25  26
ATOM     26  O   UNL A   1      33.827  30.257  26.297  1.00  0.00    -0.460 OA
BRANCH  26  27
ATOM     27  C   UNL A   1      33.915  31.199  27.251  1.00  0.00     0.338 C 
ATOM     28  O   UNL A   1      33.116  32.078  27.530  1.00  0.00    -0.246 OA
BRANCH  27  29
ATOM     29  C   UNL A   1      35.131  30.868  27.975  1.00  0.00     0.060 A 
ATOM     30  C   UNL A   1      36.174  31.787  27.923  1.00  0.00     0.016 A 
ATOM     31  C   UNL A   1      35.196  29.696  28.745  1.00  0.00     0.016 A 
ATOM     32  C   UNL A   1      37.335  31.501  28.613  1.00  0.00     0.010 A 
ATOM     33  C   UNL A   1      36.353  29.422  29.451  1.00  0.00     0.010 A 
ATOM     34  C   UNL A   1      37.434  30.307  29.345  1.00  0.00    -0.014 A 
BRANCH  34  35
ATOM     35  C   UNL A   1      38.755  29.936  29.867  1.00  0.00     0.031 A 
ATOM     36  C   UNL A   1      39.149  30.459  31.213  1.00  0.00     0.074 A 
ATOM     37  C   UNL A   1      39.500  29.061  29.174  1.00  0.00     0.049 A 
ATOM     38  N   UNL A   1      40.178  30.145  31.949  1.00  0.00    -0.248 NA
ATOM     39  C   UNL A   1      38.261  31.469  31.814  1.00  0.00     0.031 C 
ATOM     40  C   UNL A   1      39.148  28.511  27.863  1.00  0.00     0.029 A 
ATOM     41  N   UNL A   1      40.681  28.454  29.492  1.00  0.00    -0.354 N 
ATOM     42  C   UNL A   1      40.052  30.903  33.107  1.00  0.00     0.074 A 
ATOM     43  C   UNL A   1      38.883  31.736  32.949  1.00  0.00     0.031 C 
ATOM     44  C   UNL A   1      40.084  27.620  27.501  1.00  0.00     0.029 A 
ATOM     45  C   UNL A   1      41.103  27.557  28.543  1.00  0.00     0.049 A 
ATOM     46  H   UNL A   1      41.180  28.643  30.318  1.00  0.00     0.167 HD
ATOM     47  C   UNL A   1      40.841  30.880  34.208  1.00  0.00     0.034 A 
ATOM     48  C   UNL A   1      42.194  26.769  28.536  1.00  0.00     0.034 A 
ATOM     49  C   UNL A   1      42.014  30.048  34.304  1.00  0.00     0.049 A 
ATOM     50  C   UNL A   1      43.082  26.799  29.754  1.00  0.00     0.074 A 
ATOM     51  C   UNL A   1      42.915  29.936  35.346  1.00  0.00     0.029 A 
ATOM     52  N   UNL A   1      42.454  29.187  33.302  1.00  0.00    -0.354 N 
ATOM     53  N   UNL A   1      42.947  27.502  30.858  1.00  0.00    -0.248 NA
ATOM     54  C   UNL A   1      44.250  25.915  29.736  1.00  0.00     0.031 C 
ATOM     55  C   UNL A   1      43.933  29.060  34.947  1.00  0.00     0.029 A 
ATOM     56  C   UNL A   1      43.628  28.562  33.689  1.00  0.00     0.049 A 
ATOM     57  H   UNL A   1      41.996  29.042  32.443  1.00  0.00     0.167 HD
ATOM     58  C   UNL A   1      44.007  27.129  31.677  1.00  0.00     0.074 A 
ATOM     59  C   UNL A   1      44.747  26.115  30.947  1.00  0.00     0.031 C 
ATOM     60  C   UNL A   1      44.347  27.575  32.916  1.00  0.00     0.034 A 
BRANCH  47  61
ATOM     61  C   UNL A   1      40.481  31.818  35.334  1.00  0.00     0.023 A 
ATOM     62  C   UNL A   1      39.498  31.493  36.287  1.00  0.00     0.031 A 
ATOM     63  C   UNL A   1      41.083  33.086  35.419  1.00  0.00     0.131 A 
ATOM     64  C   UNL A   1      39.098  32.447  37.236  1.00  0.00     0.055 A 
ATOM     65  C   UNL A   1      40.735  34.002  36.415  1.00  0.00     0.041 A 
ATOM     66  F   UNL A   1      42.003  33.467  34.519  1.00  0.00    -0.206 F 
ATOM     67  C   UNL A   1      39.727  33.690  37.322  1.00  0.00     0.022 A 
BRANCH  64  68
ATOM     68  S   UNL A   1      37.643  32.098  38.265  1.00  0.00     0.124 S 
ATOM     69  O   UNL A   1      38.183  32.275  39.610  1.00  0.00    -0.237 OA
ATOM     70  O   UNL A   1      36.690  33.108  37.820  1.00  0.00    -0.237 OA
ATOM     71  O   UNL A   1      37.299  30.720  37.916  1.00  0.00    -0.744 OA
ENDBRANCH  64  68
ENDBRANCH  47  61
BRANCH  48  72
ATOM     72  C   UNL A   1      42.497  25.909  27.360  1.00  0.00     0.023 A 
ATOM     73  C   UNL A   1      42.109  24.562  27.317  1.00  0.00     0.031 A 
ATOM     74  C   UNL A   1      43.209  26.424  26.259  1.00  0.00     0.131 A 
ATOM     75  C   UNL A   1      42.468  23.764  26.218  1.00  0.00     0.055 A 
ATOM     76  C   UNL A   1      43.520  25.640  25.148  1.00  0.00     0.041 A 
ATOM     77  F   UNL A   1      43.597  27.709  26.244  1.00  0.00    -0.206 F 
ATOM     78  C   UNL A   1      43.161  24.297  25.128  1.00  0.00     0.022 A 
BRANCH  75  79
ATOM     79  S   UNL A   1      42.088  21.991  26.268  1.00  0.00     0.124 S 
ATOM     80  O   UNL A   1      42.933  21.474  25.198  1.00  0.00    -0.237 OA
ATOM     81  O   UNL A   1      42.484  21.636  27.628  1.00  0.00    -0.237 OA
ATOM     82  O   UNL A   1      40.650  21.944  26.009  1.00  0.00    -0.744 OA
ENDBRANCH  75  79
ENDBRANCH  48  72
BRANCH  60  83
ATOM     83  C   UNL A   1      45.564  26.940  33.542  1.00  0.00     0.023 A 
ATOM     84  C   UNL A   1      46.856  27.429  33.288  1.00  0.00     0.031 A 
ATOM     85  C   UNL A   1      45.429  25.810  34.366  1.00  0.00     0.131 A 
ATOM     86  C   UNL A   1      47.970  26.739  33.784  1.00  0.00     0.055 A 
ATOM     87  C   UNL A   1      46.539  25.173  34.919  1.00  0.00     0.041 A 
ATOM     88  F   UNL A   1      44.216  25.303  34.639  1.00  0.00    -0.206 F 
ATOM     89  C   UNL A   1      47.820  25.624  34.614  1.00  0.00     0.022 A 
BRANCH  86  90
ATOM     90  S   UNL A   1      49.619  27.240  33.219  1.00  0.00     0.124 S 
ATOM     91  O   UNL A   1      49.805  26.396  32.044  1.00  0.00    -0.237 OA
ATOM     92  O   UNL A   1      49.437  28.665  32.958  1.00  0.00    -0.237 OA
ATOM     93  O   UNL A   1      50.481  26.923  34.356  1.00  0.00    -0.744 OA
ENDBRANCH  86  90
ENDBRANCH  60  83
ENDBRANCH  34  35
ENDBRANCH  27  29
ENDBRANCH  26  27
ENDBRANCH  25  26
ENDBRANCH  24  25
ENDBRANCH   1  24
TORSDOF 21
ENDMDL
