MODEL 1
REMARK VINA RESULT:     -10.9      0.000      0.000
REMARK SMILES CC(C)Cc1ccc([C@@H](C)C(=O)OCCOCCOC(=O)c2ccc(-c3c4nc(c(-c5cc(S(=O)(=O)[O-])ccc5F)c5ccc([nH]5)c(-c5cc(S(=O)(=O)[O-])ccc5F)c5nc(c(-c6cc(S(=O)(=O)[O-])ccc6F)c6ccc3[nH]6)C=C5)C=C4)cc2)cc1
REMARK SMILES IDX 16 1 15 2 14 3 13 4 11 5 12 6 9 7 10 8 8 9 5 10 6 11 86 12
REMARK SMILES IDX 7 13 85 14 4 15 2 16 1 17 3 18 17 19 18 20 19 21 20 22 21 23
REMARK SMILES IDX 22 24 23 25 84 26 24 27 83 28 25 29 26 30 27 31 77 32 28 33
REMARK SMILES IDX 82 34 76 35 78 36 29 37 81 38 75 39 74 40 30 42 62 43 42 44
REMARK SMILES IDX 61 45 43 46 46 47 60 48 79 49 44 50 45 51 59 53 80 54 47 55
REMARK SMILES IDX 31 56 32 57 40 58 33 59 39 60 41 61 38 62 34 63 35 64 36 65
REMARK SMILES IDX 37 66 63 67 64 68 72 69 65 70 71 71 73 72 70 73 66 74 67 75
REMARK SMILES IDX 68 76 69 77 48 78 49 79 57 80 50 81 56 82 58 83 55 84 51 85
REMARK SMILES IDX 52 86 53 87 54 88
REMARK H PARENT 78 41 46 52
REMARK Flexibility Score: inf
ROOT
ATOM      1  O   UNL A   1      32.574  28.801  25.484  1.00  0.00    -0.374 OA
ENDROOT
BRANCH   1   2
ATOM      2  C   UNL A   1      32.451  27.577  24.757  1.00  0.00     0.202 C 
BRANCH   2   3
ATOM      3  C   UNL A   1      33.263  26.397  25.295  1.00  0.00     0.261 C 
BRANCH   3   4
ATOM      4  O   UNL A   1      34.174  25.898  24.298  1.00  0.00    -0.463 OA
BRANCH   4   5
ATOM      5  C   UNL A   1      34.747  24.696  24.562  1.00  0.00     0.313 C 
ATOM      6  O   UNL A   1      35.488  24.471  25.516  1.00  0.00    -0.252 OA
BRANCH   5   7
ATOM      7  C   UNL A   1      34.422  23.623  23.538  1.00  0.00     0.126 C 
ATOM      8  C   UNL A   1      33.466  24.193  22.492  1.00  0.00     0.025 C 
BRANCH   7   9
ATOM      9  C   UNL A   1      33.966  22.261  24.050  1.00  0.00    -0.034 A 
ATOM     10  C   UNL A   1      33.264  19.597  24.701  1.00  0.00    -0.048 A 
ATOM     11  C   UNL A   1      32.296  20.497  24.240  1.00  0.00     0.004 A 
ATOM     12  C   UNL A   1      34.564  20.062  24.916  1.00  0.00     0.004 A 
ATOM     13  C   UNL A   1      32.641  21.817  23.927  1.00  0.00     0.005 A 
ATOM     14  C   UNL A   1      34.913  21.374  24.588  1.00  0.00     0.005 A 
BRANCH  10  15
ATOM     15  C   UNL A   1      32.936  18.131  24.875  1.00  0.00     0.038 C 
BRANCH  15  16
ATOM     16  C   UNL A   1      34.125  17.205  24.530  1.00  0.00    -0.013 C 
ATOM     17  C   UNL A   1      34.094  15.885  25.309  1.00  0.00     0.008 C 
ATOM     18  C   UNL A   1      34.140  16.899  23.029  1.00  0.00     0.008 C 
ENDBRANCH  15  16
ENDBRANCH  10  15
ENDBRANCH   7   9
ENDBRANCH   5   7
ENDBRANCH   4   5
ENDBRANCH   3   4
ENDBRANCH   2   3
ENDBRANCH   1   2
BRANCH   1  19
ATOM     19  C   UNL A   1      31.551  29.777  25.291  1.00  0.00     0.202 C 
BRANCH  19  20
ATOM     20  C   UNL A   1      31.649  31.055  26.133  1.00  0.00     0.261 C 
BRANCH  20  21
ATOM     21  O   UNL A   1      32.546  30.915  27.248  1.00  0.00    -0.460 OA
BRANCH  21  22
ATOM     22  C   UNL A   1      33.318  31.999  27.490  1.00  0.00     0.338 C 
ATOM     23  O   UNL A   1      32.941  33.163  27.564  1.00  0.00    -0.246 OA
BRANCH  22  24
ATOM     24  C   UNL A   1      34.692  31.593  27.842  1.00  0.00     0.060 A 
ATOM     25  C   UNL A   1      34.922  30.224  28.029  1.00  0.00     0.016 A 
ATOM     26  C   UNL A   1      35.714  32.518  28.067  1.00  0.00     0.016 A 
ATOM     27  C   UNL A   1      36.153  29.781  28.505  1.00  0.00     0.010 A 
ATOM     28  C   UNL A   1      36.951  32.070  28.552  1.00  0.00     0.010 A 
ATOM     29  C   UNL A   1      37.162  30.704  28.813  1.00  0.00    -0.014 A 
BRANCH  29  30
ATOM     30  C   UNL A   1      38.360  30.230  29.553  1.00  0.00     0.031 A 
ATOM     31  C   UNL A   1      38.581  30.705  30.966  1.00  0.00     0.074 A 
ATOM     32  C   UNL A   1      39.192  29.323  29.007  1.00  0.00     0.049 A 
ATOM     33  N   UNL A   1      39.529  30.391  31.811  1.00  0.00    -0.248 NA
ATOM     34  C   UNL A   1      37.597  31.661  31.497  1.00  0.00     0.031 C 
ATOM     35  C   UNL A   1      39.055  28.753  27.667  1.00  0.00     0.029 A 
ATOM     36  N   UNL A   1      40.310  28.713  29.518  1.00  0.00    -0.354 N 
ATOM     37  C   UNL A   1      39.252  31.099  32.976  1.00  0.00     0.074 A 
ATOM     38  C   UNL A   1      38.073  31.897  32.710  1.00  0.00     0.031 C 
ATOM     39  C   UNL A   1      40.051  27.873  27.464  1.00  0.00     0.029 A 
ATOM     40  C   UNL A   1      40.912  27.837  28.644  1.00  0.00     0.049 A 
ATOM     41  H   UNL A   1      40.651  28.885  30.426  1.00  0.00     0.167 HD
ATOM     42  C   UNL A   1      39.909  31.077  34.162  1.00  0.00     0.034 A 
ATOM     43  C   UNL A   1      42.034  27.099  28.779  1.00  0.00     0.034 A 
ATOM     44  C   UNL A   1      41.091  30.288  34.414  1.00  0.00     0.049 A 
ATOM     45  C   UNL A   1      42.791  27.151  30.086  1.00  0.00     0.074 A 
ATOM     46  C   UNL A   1      41.843  30.205  35.572  1.00  0.00     0.029 A 
ATOM     47  N   UNL A   1      41.696  29.446  33.489  1.00  0.00    -0.354 N 
ATOM     48  N   UNL A   1      42.515  27.828  31.178  1.00  0.00    -0.248 NA
ATOM     49  C   UNL A   1      44.000  26.324  30.183  1.00  0.00     0.031 C 
ATOM     50  C   UNL A   1      42.935  29.363  35.331  1.00  0.00     0.029 A 
ATOM     51  C   UNL A   1      42.824  28.860  34.045  1.00  0.00     0.049 A 
ATOM     52  H   UNL A   1      41.373  29.290  32.573  1.00  0.00     0.167 HD
ATOM     53  C   UNL A   1      43.496  27.474  32.101  1.00  0.00     0.074 A 
ATOM     54  C   UNL A   1      44.355  26.510  31.445  1.00  0.00     0.031 C 
ATOM     55  C   UNL A   1      43.673  27.901  33.378  1.00  0.00     0.034 A 
BRANCH  42  56
ATOM     56  C   UNL A   1      39.384  31.967  35.263  1.00  0.00     0.023 A 
ATOM     57  C   UNL A   1      39.799  33.304  35.395  1.00  0.00     0.031 A 
ATOM     58  C   UNL A   1      38.462  31.468  36.201  1.00  0.00     0.131 A 
ATOM     59  C   UNL A   1      39.336  34.078  36.470  1.00  0.00     0.055 A 
ATOM     60  C   UNL A   1      37.951  32.264  37.227  1.00  0.00     0.041 A 
ATOM     61  F   UNL A   1      38.048  30.192  36.139  1.00  0.00    -0.206 F 
ATOM     62  C   UNL A   1      38.395  33.575  37.373  1.00  0.00     0.022 A 
BRANCH  59  63
ATOM     63  S   UNL A   1      40.069  35.714  36.744  1.00  0.00     0.124 S 
ATOM     64  O   UNL A   1      39.398  36.135  37.971  1.00  0.00    -0.237 OA
ATOM     65  O   UNL A   1      41.490  35.408  36.864  1.00  0.00    -0.237 OA
ATOM     66  O   UNL A   1      39.691  36.463  35.548  1.00  0.00    -0.744 OA
ENDBRANCH  59  63
ENDBRANCH  42  56
BRANCH  43  67
ATOM     67  C   UNL A   1      42.542  26.268  27.647  1.00  0.00     0.023 A 
ATOM     68  C   UNL A   1      42.094  24.951  27.452  1.00  0.00     0.031 A 
ATOM     69  C   UNL A   1      43.554  26.752  26.799  1.00  0.00     0.131 A 
ATOM     70  C   UNL A   1      42.702  24.143  26.478  1.00  0.00     0.055 A 
ATOM     71  C   UNL A   1      44.112  25.964  25.791  1.00  0.00     0.041 A 
ATOM     72  F   UNL A   1      44.021  28.002  26.942  1.00  0.00    -0.206 F 
ATOM     73  C   UNL A   1      43.699  24.644  25.638  1.00  0.00     0.022 A 
BRANCH  70  74
ATOM     74  S   UNL A   1      42.253  22.387  26.404  1.00  0.00     0.124 S 
ATOM     75  O   UNL A   1      40.817  22.458  26.158  1.00  0.00    -0.237 OA
ATOM     76  O   UNL A   1      43.072  21.914  25.292  1.00  0.00    -0.237 OA
ATOM     77  O   UNL A   1      42.640  21.881  27.719  1.00  0.00    -0.744 OA
ENDBRANCH  70  74
ENDBRANCH  43  67
BRANCH  55  78
ATOM     78  C   UNL A   1      44.808  27.279  34.159  1.00  0.00     0.023 A 
ATOM     79  C   UNL A   1      44.663  26.048  34.825  1.00  0.00     0.031 A 
ATOM     80  C   UNL A   1      46.040  27.947  34.268  1.00  0.00     0.131 A 
ATOM     81  C   UNL A   1      45.703  25.563  35.631  1.00  0.00     0.055 A 
ATOM     82  C   UNL A   1      47.096  27.426  35.019  1.00  0.00     0.041 A 
ATOM     83  F   UNL A   1      46.236  29.124  33.653  1.00  0.00    -0.206 F 
ATOM     84  C   UNL A   1      46.924  26.236  35.721  1.00  0.00     0.022 A 
BRANCH  81  85
ATOM     85  S   UNL A   1      45.396  24.101  36.661  1.00  0.00     0.124 S 
ATOM     86  O   UNL A   1      46.725  23.506  36.749  1.00  0.00    -0.237 OA
ATOM     87  O   UNL A   1      44.879  24.691  37.892  1.00  0.00    -0.237 OA
ATOM     88  O   UNL A   1      44.422  23.333  35.886  1.00  0.00    -0.744 OA
ENDBRANCH  81  85
ENDBRANCH  55  78
ENDBRANCH  29  30
ENDBRANCH  22  24
ENDBRANCH  21  22
ENDBRANCH  20  21
ENDBRANCH  19  20
ENDBRANCH   1  19
TORSDOF 20
ENDMDL
MODEL 2
REMARK VINA RESULT:     -10.4      1.657      2.076
REMARK SMILES CC(C)Cc1ccc([C@@H](C)C(=O)OCCOCCOC(=O)c2ccc(-c3c4nc(c(-c5cc(S(=O)(=O)[O-])ccc5F)c5ccc([nH]5)c(-c5cc(S(=O)(=O)[O-])ccc5F)c5nc(c(-c6cc(S(=O)(=O)[O-])ccc6F)c6ccc3[nH]6)C=C5)C=C4)cc2)cc1
REMARK SMILES IDX 16 1 15 2 14 3 13 4 11 5 12 6 9 7 10 8 8 9 5 10 6 11 86 12
REMARK SMILES IDX 7 13 85 14 4 15 2 16 1 17 3 18 17 19 18 20 19 21 20 22 21 23
REMARK SMILES IDX 22 24 23 25 84 26 24 27 83 28 25 29 26 30 27 31 77 32 28 33
REMARK SMILES IDX 82 34 76 35 78 36 29 37 81 38 75 39 74 40 30 42 62 43 42 44
REMARK SMILES IDX 61 45 43 46 46 47 60 48 79 49 44 50 45 51 59 53 80 54 47 55
REMARK SMILES IDX 31 56 32 57 40 58 33 59 39 60 41 61 38 62 34 63 35 64 36 65
REMARK SMILES IDX 37 66 63 67 64 68 72 69 65 70 71 71 73 72 70 73 66 74 67 75
REMARK SMILES IDX 68 76 69 77 48 78 49 79 57 80 50 81 56 82 58 83 55 84 51 85
REMARK SMILES IDX 52 86 53 87 54 88
REMARK H PARENT 78 41 46 52
REMARK Flexibility Score: inf
ROOT
ATOM      1  O   UNL A   1      32.760  29.488  24.979  1.00  0.00    -0.374 OA
ENDROOT
BRANCH   1   2
ATOM      2  C   UNL A   1      32.617  28.824  23.721  1.00  0.00     0.202 C 
BRANCH   2   3
ATOM      3  C   UNL A   1      32.358  27.318  23.788  1.00  0.00     0.261 C 
BRANCH   3   4
ATOM      4  O   UNL A   1      32.575  26.813  25.118  1.00  0.00    -0.463 OA
BRANCH   4   5
ATOM      5  C   UNL A   1      32.031  25.600  25.392  1.00  0.00     0.313 C 
ATOM      6  O   UNL A   1      30.828  25.390  25.531  1.00  0.00    -0.252 OA
BRANCH   5   7
ATOM      7  C   UNL A   1      33.055  24.490  25.555  1.00  0.00     0.126 C 
ATOM      8  C   UNL A   1      34.427  24.998  25.117  1.00  0.00     0.025 C 
BRANCH   7   9
ATOM      9  C   UNL A   1      32.731  23.126  24.956  1.00  0.00    -0.034 A 
ATOM     10  C   UNL A   1      32.415  20.470  24.027  1.00  0.00    -0.048 A 
ATOM     11  C   UNL A   1      32.941  21.461  23.190  1.00  0.00     0.004 A 
ATOM     12  C   UNL A   1      31.968  20.836  25.300  1.00  0.00     0.004 A 
ATOM     13  C   UNL A   1      33.090  22.775  23.646  1.00  0.00     0.005 A 
ATOM     14  C   UNL A   1      32.131  22.144  25.762  1.00  0.00     0.005 A 
BRANCH  10  15
ATOM     15  C   UNL A   1      32.413  19.019  23.602  1.00  0.00     0.038 C 
BRANCH  15  16
ATOM     16  C   UNL A   1      33.390  18.151  24.429  1.00  0.00    -0.013 C 
ATOM     17  C   UNL A   1      32.671  17.248  25.439  1.00  0.00     0.008 C 
ATOM     18  C   UNL A   1      34.242  17.281  23.500  1.00  0.00     0.008 C 
ENDBRANCH  15  16
ENDBRANCH  10  15
ENDBRANCH   7   9
ENDBRANCH   5   7
ENDBRANCH   4   5
ENDBRANCH   3   4
ENDBRANCH   2   3
ENDBRANCH   1   2
BRANCH   1  19
ATOM     19  C   UNL A   1      31.608  30.148  25.500  1.00  0.00     0.202 C 
BRANCH  19  20
ATOM     20  C   UNL A   1      31.844  31.163  26.626  1.00  0.00     0.261 C 
BRANCH  20  21
ATOM     21  O   UNL A   1      33.020  30.866  27.399  1.00  0.00    -0.460 OA
BRANCH  21  22
ATOM     22  C   UNL A   1      33.779  31.943  27.704  1.00  0.00     0.338 C 
ATOM     23  O   UNL A   1      33.401  33.106  27.785  1.00  0.00    -0.246 OA
BRANCH  22  24
ATOM     24  C   UNL A   1      35.133  31.525  28.116  1.00  0.00     0.060 A 
ATOM     25  C   UNL A   1      35.300  30.185  28.487  1.00  0.00     0.016 A 
ATOM     26  C   UNL A   1      36.197  32.425  28.220  1.00  0.00     0.016 A 
ATOM     27  C   UNL A   1      36.510  29.755  29.026  1.00  0.00     0.010 A 
ATOM     28  C   UNL A   1      37.412  31.991  28.768  1.00  0.00     0.010 A 
ATOM     29  C   UNL A   1      37.560  30.664  29.212  1.00  0.00    -0.014 A 
BRANCH  29  30
ATOM     30  C   UNL A   1      38.736  30.240  30.017  1.00  0.00     0.031 A 
ATOM     31  C   UNL A   1      38.883  30.758  31.424  1.00  0.00     0.074 A 
ATOM     32  C   UNL A   1      39.613  29.341  29.532  1.00  0.00     0.049 A 
ATOM     33  N   UNL A   1      39.800  30.490  32.318  1.00  0.00    -0.248 NA
ATOM     34  C   UNL A   1      37.853  31.703  31.885  1.00  0.00     0.031 C 
ATOM     35  C   UNL A   1      39.549  28.732  28.204  1.00  0.00     0.029 A 
ATOM     36  N   UNL A   1      40.721  28.772  30.108  1.00  0.00    -0.354 N 
ATOM     37  C   UNL A   1      39.455  31.222  33.450  1.00  0.00     0.074 A 
ATOM     38  C   UNL A   1      38.270  31.982  33.110  1.00  0.00     0.031 C 
ATOM     39  C   UNL A   1      40.573  27.873  28.068  1.00  0.00     0.029 A 
ATOM     40  C   UNL A   1      41.382  27.889  29.285  1.00  0.00     0.049 A 
ATOM     41  H   UNL A   1      41.018  28.977  31.025  1.00  0.00     0.167 HD
ATOM     42  C   UNL A   1      40.059  31.247  34.664  1.00  0.00     0.034 A 
ATOM     43  C   UNL A   1      42.514  27.184  29.488  1.00  0.00     0.034 A 
ATOM     44  C   UNL A   1      41.248  30.495  34.987  1.00  0.00     0.049 A 
ATOM     45  C   UNL A   1      43.211  27.289  30.825  1.00  0.00     0.074 A 
ATOM     46  C   UNL A   1      41.950  30.462  36.179  1.00  0.00     0.029 A 
ATOM     47  N   UNL A   1      41.913  29.645  34.113  1.00  0.00    -0.354 N 
ATOM     48  N   UNL A   1      42.871  27.988  31.885  1.00  0.00    -0.248 NA
ATOM     49  C   UNL A   1      44.435  26.496  30.997  1.00  0.00     0.031 C 
ATOM     50  C   UNL A   1      43.071  29.642  36.008  1.00  0.00     0.029 A 
ATOM     51  C   UNL A   1      43.029  29.102  34.734  1.00  0.00     0.049 A 
ATOM     52  H   UNL A   1      41.635  29.457  33.189  1.00  0.00     0.167 HD
ATOM     53  C   UNL A   1      43.819  27.683  32.860  1.00  0.00     0.074 A 
ATOM     54  C   UNL A   1      44.729  26.724  32.268  1.00  0.00     0.031 C 
ATOM     55  C   UNL A   1      43.930  28.148  34.131  1.00  0.00     0.034 A 
BRANCH  42  56
ATOM     56  C   UNL A   1      39.465  32.152  35.715  1.00  0.00     0.023 A 
ATOM     57  C   UNL A   1      39.860  33.496  35.845  1.00  0.00     0.031 A 
ATOM     58  C   UNL A   1      38.496  31.662  36.609  1.00  0.00     0.131 A 
ATOM     59  C   UNL A   1      39.331  34.285  36.877  1.00  0.00     0.055 A 
ATOM     60  C   UNL A   1      37.920  32.473  37.589  1.00  0.00     0.041 A 
ATOM     61  F   UNL A   1      38.097  30.382  36.548  1.00  0.00    -0.206 F 
ATOM     62  C   UNL A   1      38.344  33.790  37.735  1.00  0.00     0.022 A 
BRANCH  59  63
ATOM     63  S   UNL A   1      40.032  35.933  37.161  1.00  0.00     0.124 S 
ATOM     64  O   UNL A   1      41.442  35.620  37.380  1.00  0.00    -0.237 OA
ATOM     65  O   UNL A   1      39.717  36.629  35.919  1.00  0.00    -0.237 OA
ATOM     66  O   UNL A   1      39.317  36.411  38.342  1.00  0.00    -0.744 OA
ENDBRANCH  59  63
ENDBRANCH  42  56
BRANCH  43  67
ATOM     67  C   UNL A   1      43.092  26.337  28.403  1.00  0.00     0.023 A 
ATOM     68  C   UNL A   1      44.177  26.782  27.631  1.00  0.00     0.031 A 
ATOM     69  C   UNL A   1      42.504  25.106  28.064  1.00  0.00     0.131 A 
ATOM     70  C   UNL A   1      44.598  26.034  26.520  1.00  0.00     0.055 A 
ATOM     71  C   UNL A   1      42.966  24.335  26.995  1.00  0.00     0.041 A 
ATOM     72  F   UNL A   1      41.462  24.633  28.767  1.00  0.00    -0.206 F 
ATOM     73  C   UNL A   1      44.008  24.808  26.204  1.00  0.00     0.022 A 
BRANCH  70  74
ATOM     74  S   UNL A   1      45.852  26.746  25.418  1.00  0.00     0.124 S 
ATOM     75  O   UNL A   1      46.858  27.202  26.370  1.00  0.00    -0.237 OA
ATOM     76  O   UNL A   1      46.219  25.597  24.597  1.00  0.00    -0.237 OA
ATOM     77  O   UNL A   1      45.127  27.804  24.718  1.00  0.00    -0.744 OA
ENDBRANCH  70  74
ENDBRANCH  43  67
BRANCH  55  78
ATOM     78  C   UNL A   1      45.043  27.575  34.977  1.00  0.00     0.023 A 
ATOM     79  C   UNL A   1      44.911  26.343  35.641  1.00  0.00     0.031 A 
ATOM     80  C   UNL A   1      46.240  28.293  35.150  1.00  0.00     0.131 A 
ATOM     81  C   UNL A   1      45.924  25.903  36.507  1.00  0.00     0.055 A 
ATOM     82  C   UNL A   1      47.272  27.819  35.961  1.00  0.00     0.041 A 
ATOM     83  F   UNL A   1      46.422  29.475  34.539  1.00  0.00    -0.206 F 
ATOM     84  C   UNL A   1      47.110  26.626  36.660  1.00  0.00     0.022 A 
BRANCH  81  85
ATOM     85  S   UNL A   1      45.619  24.434  37.527  1.00  0.00     0.124 S 
ATOM     86  O   UNL A   1      44.655  23.695  36.718  1.00  0.00    -0.237 OA
ATOM     87  O   UNL A   1      46.951  23.844  37.628  1.00  0.00    -0.237 OA
ATOM     88  O   UNL A   1      45.090  24.984  38.774  1.00  0.00    -0.744 OA
ENDBRANCH  81  85
ENDBRANCH  55  78
ENDBRANCH  29  30
ENDBRANCH  22  24
ENDBRANCH  21  22
ENDBRANCH  20  21
ENDBRANCH  19  20
ENDBRANCH   1  19
TORSDOF 20
ENDMDL
MODEL 3
REMARK VINA RESULT:      -9.9      1.903      7.997
REMARK SMILES CC(C)Cc1ccc([C@@H](C)C(=O)OCCOCCOC(=O)c2ccc(-c3c4nc(c(-c5cc(S(=O)(=O)[O-])ccc5F)c5ccc([nH]5)c(-c5cc(S(=O)(=O)[O-])ccc5F)c5nc(c(-c6cc(S(=O)(=O)[O-])ccc6F)c6ccc3[nH]6)C=C5)C=C4)cc2)cc1
REMARK SMILES IDX 16 1 15 2 14 3 13 4 11 5 12 6 9 7 10 8 8 9 5 10 6 11 86 12
REMARK SMILES IDX 7 13 85 14 4 15 2 16 1 17 3 18 17 19 18 20 19 21 20 22 21 23
REMARK SMILES IDX 22 24 23 25 84 26 24 27 83 28 25 29 26 30 27 31 77 32 28 33
REMARK SMILES IDX 82 34 76 35 78 36 29 37 81 38 75 39 74 40 30 42 62 43 42 44
REMARK SMILES IDX 61 45 43 46 46 47 60 48 79 49 44 50 45 51 59 53 80 54 47 55
REMARK SMILES IDX 31 56 32 57 40 58 33 59 39 60 41 61 38 62 34 63 35 64 36 65
REMARK SMILES IDX 37 66 63 67 64 68 72 69 65 70 71 71 73 72 70 73 66 74 67 75
REMARK SMILES IDX 68 76 69 77 48 78 49 79 57 80 50 81 56 82 58 83 55 84 51 85
REMARK SMILES IDX 52 86 53 87 54 88
REMARK H PARENT 78 41 46 52
REMARK Flexibility Score: inf
ROOT
ATOM      1  O   UNL A   1      31.616  28.132  25.933  1.00  0.00    -0.374 OA
ENDROOT
BRANCH   1   2
ATOM      2  C   UNL A   1      30.934  27.404  24.910  1.00  0.00     0.202 C 
BRANCH   2   3
ATOM      3  C   UNL A   1      31.669  26.179  24.360  1.00  0.00     0.261 C 
BRANCH   3   4
ATOM      4  O   UNL A   1      31.964  25.238  25.409  1.00  0.00    -0.463 OA
BRANCH   4   5
ATOM      5  C   UNL A   1      30.896  24.620  25.974  1.00  0.00     0.313 C 
ATOM      6  O   UNL A   1      30.048  25.182  26.662  1.00  0.00    -0.252 OA
BRANCH   5   7
ATOM      7  C   UNL A   1      30.843  23.125  25.713  1.00  0.00     0.126 C 
ATOM      8  C   UNL A   1      29.924  22.463  26.738  1.00  0.00     0.025 C 
BRANCH   7   9
ATOM      9  C   UNL A   1      32.165  22.379  25.564  1.00  0.00    -0.034 A 
ATOM     10  C   UNL A   1      34.771  21.319  25.250  1.00  0.00    -0.048 A 
ATOM     11  C   UNL A   1      33.841  21.245  24.207  1.00  0.00     0.004 A 
ATOM     12  C   UNL A   1      34.362  21.848  26.478  1.00  0.00     0.004 A 
ATOM     13  C   UNL A   1      32.549  21.761  24.366  1.00  0.00     0.005 A 
ATOM     14  C   UNL A   1      33.079  22.378  26.631  1.00  0.00     0.005 A 
BRANCH  10  15
ATOM     15  C   UNL A   1      36.213  20.922  25.029  1.00  0.00     0.038 C 
BRANCH  15  16
ATOM     16  C   UNL A   1      37.084  22.090  24.509  1.00  0.00    -0.013 C 
ATOM     17  C   UNL A   1      36.328  23.007  23.540  1.00  0.00     0.008 C 
ATOM     18  C   UNL A   1      37.608  22.924  25.682  1.00  0.00     0.008 C 
ENDBRANCH  15  16
ENDBRANCH  10  15
ENDBRANCH   7   9
ENDBRANCH   5   7
ENDBRANCH   4   5
ENDBRANCH   3   4
ENDBRANCH   2   3
ENDBRANCH   1   2
BRANCH   1  19
ATOM     19  C   UNL A   1      32.838  28.772  25.569  1.00  0.00     0.202 C 
BRANCH  19  20
ATOM     20  C   UNL A   1      32.888  30.298  25.716  1.00  0.00     0.261 C 
BRANCH  20  21
ATOM     21  O   UNL A   1      32.679  30.730  27.072  1.00  0.00    -0.460 OA
BRANCH  21  22
ATOM     22  C   UNL A   1      33.423  31.796  27.445  1.00  0.00     0.338 C 
ATOM     23  O   UNL A   1      33.037  32.953  27.562  1.00  0.00    -0.246 OA
BRANCH  22  24
ATOM     24  C   UNL A   1      34.766  31.366  27.883  1.00  0.00     0.060 A 
ATOM     25  C   UNL A   1      34.897  30.044  28.326  1.00  0.00     0.016 A 
ATOM     26  C   UNL A   1      35.852  32.242  27.941  1.00  0.00     0.016 A 
ATOM     27  C   UNL A   1      36.095  29.612  28.890  1.00  0.00     0.010 A 
ATOM     28  C   UNL A   1      37.055  31.806  28.515  1.00  0.00     0.010 A 
ATOM     29  C   UNL A   1      37.168  30.502  29.030  1.00  0.00    -0.014 A 
BRANCH  29  30
ATOM     30  C   UNL A   1      38.331  30.092  29.860  1.00  0.00     0.031 A 
ATOM     31  C   UNL A   1      39.325  29.114  29.291  1.00  0.00     0.074 A 
ATOM     32  C   UNL A   1      38.545  30.649  31.067  1.00  0.00     0.049 A 
ATOM     33  N   UNL A   1      40.431  28.650  29.816  1.00  0.00    -0.248 NA
ATOM     34  C   UNL A   1      39.034  28.590  27.947  1.00  0.00     0.031 C 
ATOM     35  C   UNL A   1      37.680  31.643  31.702  1.00  0.00     0.029 A 
ATOM     36  N   UNL A   1      39.565  30.468  31.967  1.00  0.00    -0.354 N 
ATOM     37  C   UNL A   1      40.973  27.791  28.866  1.00  0.00     0.074 A 
ATOM     38  C   UNL A   1      40.048  27.762  27.752  1.00  0.00     0.031 C 
ATOM     39  C   UNL A   1      38.208  31.985  32.890  1.00  0.00     0.029 A 
ATOM     40  C   UNL A   1      39.431  31.218  33.114  1.00  0.00     0.049 A 
ATOM     41  H   UNL A   1      40.322  29.858  31.809  1.00  0.00     0.167 HD
ATOM     42  C   UNL A   1      42.140  27.102  28.909  1.00  0.00     0.034 A 
ATOM     43  C   UNL A   1      40.202  31.268  34.220  1.00  0.00     0.034 A 
ATOM     44  C   UNL A   1      43.049  27.128  30.030  1.00  0.00     0.049 A 
ATOM     45  C   UNL A   1      41.459  30.431  34.274  1.00  0.00     0.074 A 
ATOM     46  C   UNL A   1      44.249  26.454  30.184  1.00  0.00     0.029 A 
ATOM     47  N   UNL A   1      42.858  27.865  31.192  1.00  0.00    -0.354 N 
ATOM     48  N   UNL A   1      41.958  29.622  33.366  1.00  0.00    -0.248 NA
ATOM     49  C   UNL A   1      42.267  30.530  35.497  1.00  0.00     0.031 C 
ATOM     50  C   UNL A   1      44.751  26.735  31.460  1.00  0.00     0.029 A 
ATOM     51  C   UNL A   1      43.906  27.644  32.074  1.00  0.00     0.049 A 
ATOM     52  H   UNL A   1      42.091  28.456  31.364  1.00  0.00     0.167 HD
ATOM     53  C   UNL A   1      43.156  29.150  33.896  1.00  0.00     0.074 A 
ATOM     54  C   UNL A   1      43.314  29.780  35.191  1.00  0.00     0.031 C 
ATOM     55  C   UNL A   1      44.050  28.277  33.364  1.00  0.00     0.034 A 
BRANCH  42  56
ATOM     56  C   UNL A   1      42.475  26.228  27.725  1.00  0.00     0.023 A 
ATOM     57  C   UNL A   1      42.182  24.852  27.714  1.00  0.00     0.031 A 
ATOM     58  C   UNL A   1      43.105  26.776  26.594  1.00  0.00     0.131 A 
ATOM     59  C   UNL A   1      42.568  24.063  26.620  1.00  0.00     0.055 A 
ATOM     60  C   UNL A   1      43.422  25.999  25.478  1.00  0.00     0.041 A 
ATOM     61  F   UNL A   1      43.430  28.078  26.557  1.00  0.00    -0.206 F 
ATOM     62  C   UNL A   1      43.163  24.632  25.490  1.00  0.00     0.022 A 
BRANCH  59  63
ATOM     63  S   UNL A   1      42.388  22.262  26.738  1.00  0.00     0.124 S 
ATOM     64  O   UNL A   1      41.356  22.003  25.737  1.00  0.00    -0.237 OA
ATOM     65  O   UNL A   1      43.728  21.789  26.412  1.00  0.00    -0.237 OA
ATOM     66  O   UNL A   1      41.970  22.050  28.122  1.00  0.00    -0.744 OA
ENDBRANCH  59  63
ENDBRANCH  42  56
BRANCH  43  67
ATOM     67  C   UNL A   1      39.809  32.112  35.387  1.00  0.00     0.023 A 
ATOM     68  C   UNL A   1      39.017  31.595  36.426  1.00  0.00     0.031 A 
ATOM     69  C   UNL A   1      40.144  33.477  35.432  1.00  0.00     0.131 A 
ATOM     70  C   UNL A   1      38.534  32.451  37.429  1.00  0.00     0.055 A 
ATOM     71  C   UNL A   1      39.712  34.311  36.465  1.00  0.00     0.041 A 
ATOM     72  F   UNL A   1      40.896  34.025  34.464  1.00  0.00    -0.206 F 
ATOM     73  C   UNL A   1      38.886  33.802  37.462  1.00  0.00     0.022 A 
BRANCH  70  74
ATOM     74  S   UNL A   1      37.338  31.796  38.626  1.00  0.00     0.124 S 
ATOM     75  O   UNL A   1      36.223  32.722  38.468  1.00  0.00    -0.237 OA
ATOM     76  O   UNL A   1      37.123  30.442  38.127  1.00  0.00    -0.237 OA
ATOM     77  O   UNL A   1      38.049  31.884  39.899  1.00  0.00    -0.744 OA
ENDBRANCH  70  74
ENDBRANCH  43  67
BRANCH  55  78
ATOM     78  C   UNL A   1      45.303  28.005  34.163  1.00  0.00     0.023 A 
ATOM     79  C   UNL A   1      45.374  26.957  35.098  1.00  0.00     0.031 A 
ATOM     80  C   UNL A   1      46.430  28.833  34.014  1.00  0.00     0.131 A 
ATOM     81  C   UNL A   1      46.516  26.811  35.900  1.00  0.00     0.055 A 
ATOM     82  C   UNL A   1      47.589  28.641  34.768  1.00  0.00     0.041 A 
ATOM     83  F   UNL A   1      46.420  29.849  33.136  1.00  0.00    -0.206 F 
ATOM     84  C   UNL A   1      47.630  27.637  35.731  1.00  0.00     0.022 A 
BRANCH  81  85
ATOM     85  S   UNL A   1      46.480  25.602  37.253  1.00  0.00     0.124 S 
ATOM     86  O   UNL A   1      47.299  26.257  38.268  1.00  0.00    -0.237 OA
ATOM     87  O   UNL A   1      45.053  25.510  37.549  1.00  0.00    -0.237 OA
ATOM     88  O   UNL A   1      47.068  24.403  36.659  1.00  0.00    -0.744 OA
ENDBRANCH  81  85
ENDBRANCH  55  78
ENDBRANCH  29  30
ENDBRANCH  22  24
ENDBRANCH  21  22
ENDBRANCH  20  21
ENDBRANCH  19  20
ENDBRANCH   1  19
TORSDOF 20
ENDMDL
