MODEL 1
REMARK VINA RESULT:     -11.2      0.000      0.000
REMARK SMILES CC(C)(C)OC(=O)N1CCN(C(=O)c2ccc3c(c2)OCO3)[C@H](C(=O)OCCOCCOC(=O)c2ccc(-c3c4nc(c(-c5cc(S(=O)(=O)[O-])ccc5F)c5ccc([nH]5)c(-c5cc(S(=O)(=O)[O-])ccc5F)c5nc(c(-c6cc(S(=O)(=O)[O-])ccc6F)c6ccc3[nH]6)C=C5)C=C4)cc2)C1
REMARK SMILES IDX 29 1 28 2 27 3 26 4 24 5 25 6 23 7 8 8 9 9 98 10 10 11 11 12
REMARK SMILES IDX 6 13 7 14 5 15 2 16 1 17 3 18 4 19 12 20 13 21 14 22 15 23
REMARK SMILES IDX 19 24 16 25 18 26 17 27 20 28 22 29 21 30 30 31 31 32 32 33
REMARK SMILES IDX 33 34 34 35 35 36 36 37 97 38 37 39 96 40 38 41 39 42 40 43
REMARK SMILES IDX 90 44 41 45 95 46 89 47 91 48 42 49 94 50 88 51 87 52 43 54
REMARK SMILES IDX 75 55 55 56 74 57 56 58 59 59 73 60 92 61 57 62 58 63 72 65
REMARK SMILES IDX 93 66 60 67 44 68 45 69 53 70 46 71 52 72 54 73 51 74 47 75
REMARK SMILES IDX 48 76 49 77 50 78 76 79 77 80 85 81 78 82 84 83 86 84 83 85
REMARK SMILES IDX 79 86 80 87 81 88 82 89 61 90 62 91 70 92 63 93 69 94 71 95
REMARK SMILES IDX 68 96 64 97 65 98 66 99 67 100
REMARK H PARENT 91 53 59 64
REMARK Flexibility Score: inf
ROOT
ATOM      1  O   UNL A   1      34.744  24.567  23.712  1.00  0.00    -0.374 OA
ENDROOT
BRANCH   1   2
ATOM      2  C   UNL A   1      33.814  25.053  22.760  1.00  0.00     0.202 C 
BRANCH   2   3
ATOM      3  C   UNL A   1      33.052  24.051  21.880  1.00  0.00     0.261 C 
BRANCH   3   4
ATOM      4  O   UNL A   1      31.902  23.482  22.532  1.00  0.00    -0.462 OA
BRANCH   4   5
ATOM      5  C   UNL A   1      32.037  22.234  22.979  1.00  0.00     0.330 C 
ATOM      6  O   UNL A   1      31.797  21.255  22.266  1.00  0.00    -0.250 OA
BRANCH   5   7
ATOM      7  C   UNL A   1      32.445  22.048  24.463  1.00  0.00     0.215 C 
ATOM      8  N   UNL A   1      33.373  19.875  25.367  1.00  0.00    -0.304 N 
ATOM      9  C   UNL A   1      33.121  20.255  26.743  1.00  0.00     0.144 C 
ATOM     10  C   UNL A   1      32.460  20.477  24.417  1.00  0.00     0.160 C 
ATOM     11  C   UNL A   1      32.884  21.770  26.900  1.00  0.00     0.142 C 
ATOM     12  N   UNL A   1      32.002  22.441  25.887  1.00  0.00    -0.321 N 
BRANCH   8  13
ATOM     13  C   UNL A   1      34.168  18.785  25.042  1.00  0.00     0.410 C 
ATOM     14  O   UNL A   1      35.272  18.886  24.524  1.00  0.00    -0.224 OA
BRANCH  13  15
ATOM     15  O   UNL A   1      33.574  17.603  25.364  1.00  0.00    -0.444 OA
BRANCH  15  16
ATOM     16  C   UNL A   1      33.976  16.317  24.814  1.00  0.00     0.106 C 
ATOM     17  C   UNL A   1      34.023  16.521  23.289  1.00  0.00     0.056 C 
ATOM     18  C   UNL A   1      32.896  15.281  25.135  1.00  0.00     0.056 C 
ATOM     19  C   UNL A   1      35.360  15.846  25.270  1.00  0.00     0.056 C 
ENDBRANCH  15  16
ENDBRANCH  13  15
ENDBRANCH   8  13
BRANCH  12  20
ATOM     20  C   UNL A   1      31.568  23.712  26.404  1.00  0.00     0.254 C 
ATOM     21  O   UNL A   1      31.008  23.799  27.504  1.00  0.00    -0.269 OA
BRANCH  20  22
ATOM     22  C   UNL A   1      31.686  25.045  25.737  1.00  0.00     0.044 A 
ATOM     23  C   UNL A   1      32.951  26.254  26.225  1.00  0.00     0.018 A 
ATOM     24  C   UNL A   1      30.299  25.607  24.655  1.00  0.00     0.064 A 
ATOM     25  C   UNL A   1      32.782  28.009  25.770  1.00  0.00     0.051 A 
ATOM     26  C   UNL A   1      30.271  27.303  24.038  1.00  0.00     0.166 A 
ATOM     27  C   UNL A   1      31.464  28.505  24.608  1.00  0.00     0.165 A 
ATOM     28  O   UNL A   1      29.356  27.994  23.318  1.00  0.00    -0.454 OA
ATOM     29  O   UNL A   1      31.106  29.705  24.107  1.00  0.00    -0.454 OA
ATOM     30  C   UNL A   1      29.775  29.400  23.541  1.00  0.00     0.468 C 
ENDBRANCH  20  22
ENDBRANCH  12  20
ENDBRANCH   5   7
ENDBRANCH   4   5
ENDBRANCH   3   4
ENDBRANCH   2   3
ENDBRANCH   1   2
BRANCH   1  31
ATOM     31  C   UNL A   1      35.425  23.335  23.527  1.00  0.00     0.202 C 
BRANCH  31  32
ATOM     32  C   UNL A   1      36.935  23.153  23.749  1.00  0.00     0.261 C 
BRANCH  32  33
ATOM     33  O   UNL A   1      37.345  21.976  24.500  1.00  0.00    -0.460 OA
BRANCH  33  34
ATOM     34  C   UNL A   1      38.392  22.135  25.565  1.00  0.00     0.338 C 
ATOM     35  O   UNL A   1      38.771  20.923  25.622  1.00  0.00    -0.246 OA
BRANCH  34  36
ATOM     36  C   UNL A   1      39.003  23.897  26.630  1.00  0.00     0.060 A 
ATOM     37  C   UNL A   1      39.780  25.132  26.094  1.00  0.00     0.016 A 
ATOM     38  C   UNL A   1      38.928  24.317  28.096  1.00  0.00     0.016 A 
ATOM     39  C   UNL A   1      40.323  26.270  26.714  1.00  0.00     0.010 A 
ATOM     40  C   UNL A   1      39.461  25.503  28.752  1.00  0.00     0.010 A 
ATOM     41  C   UNL A   1      40.157  26.479  28.056  1.00  0.00    -0.014 A 
BRANCH  41  42
ATOM     42  C   UNL A   1      40.671  27.771  28.566  1.00  0.00     0.031 A 
ATOM     43  C   UNL A   1      42.127  28.117  28.443  1.00  0.00     0.074 A 
ATOM     44  C   UNL A   1      39.763  28.726  28.859  1.00  0.00     0.049 A 
ATOM     45  N   UNL A   1      42.734  29.242  28.717  1.00  0.00    -0.248 NA
ATOM     46  C   UNL A   1      43.009  27.073  27.902  1.00  0.00     0.031 C 
ATOM     47  C   UNL A   1      38.309  28.533  28.798  1.00  0.00     0.029 A 
ATOM     48  N   UNL A   1      39.904  30.047  29.195  1.00  0.00    -0.354 N 
ATOM     49  C   UNL A   1      44.076  29.039  28.411  1.00  0.00     0.074 A 
ATOM     50  C   UNL A   1      44.187  27.683  27.909  1.00  0.00     0.031 C 
ATOM     51  C   UNL A   1      37.699  29.697  29.069  1.00  0.00     0.029 A 
ATOM     52  C   UNL A   1      38.707  30.694  29.405  1.00  0.00     0.049 A 
ATOM     53  H   UNL A   1      40.779  30.491  29.280  1.00  0.00     0.167 HD
ATOM     54  C   UNL A   1      45.112  29.902  28.564  1.00  0.00     0.034 A 
ATOM     55  C   UNL A   1      38.452  31.936  29.862  1.00  0.00     0.034 A 
ATOM     56  C   UNL A   1      44.956  31.243  29.079  1.00  0.00     0.049 A 
ATOM     57  C   UNL A   1      39.634  32.826  30.157  1.00  0.00     0.074 A 
ATOM     58  C   UNL A   1      45.932  32.190  29.339  1.00  0.00     0.029 A 
ATOM     59  N   UNL A   1      43.741  31.826  29.426  1.00  0.00    -0.354 N 
ATOM     60  N   UNL A   1      40.910  32.594  29.945  1.00  0.00    -0.248 NA
ATOM     61  C   UNL A   1      39.349  34.134  30.756  1.00  0.00     0.031 C 
ATOM     62  C   UNL A   1      45.317  33.305  29.919  1.00  0.00     0.029 A 
ATOM     63  C   UNL A   1      43.947  33.098  29.940  1.00  0.00     0.049 A 
ATOM     64  H   UNL A   1      42.861  31.397  29.321  1.00  0.00     0.167 HD
ATOM     65  C   UNL A   1      41.579  33.737  30.370  1.00  0.00     0.074 A 
ATOM     66  C   UNL A   1      40.560  34.665  30.821  1.00  0.00     0.031 C 
ATOM     67  C   UNL A   1      42.911  33.998  30.392  1.00  0.00     0.034 A 
BRANCH  54  68
ATOM     68  C   UNL A   1      46.505  29.379  28.298  1.00  0.00     0.023 A 
ATOM     69  C   UNL A   1      47.252  28.673  29.257  1.00  0.00     0.031 A 
ATOM     70  C   UNL A   1      47.107  29.628  27.049  1.00  0.00     0.131 A 
ATOM     71  C   UNL A   1      48.576  28.291  28.970  1.00  0.00     0.055 A 
ATOM     72  C   UNL A   1      48.397  29.187  26.748  1.00  0.00     0.041 A 
ATOM     73  F   UNL A   1      46.454  30.320  26.102  1.00  0.00    -0.206 F 
ATOM     74  C   UNL A   1      49.144  28.525  27.715  1.00  0.00     0.022 A 
BRANCH  71  75
ATOM     75  S   UNL A   1      49.596  27.599  30.302  1.00  0.00     0.124 S 
ATOM     76  O   UNL A   1      50.910  27.536  29.667  1.00  0.00    -0.237 OA
ATOM     77  O   UNL A   1      49.446  28.588  31.362  1.00  0.00    -0.237 OA
ATOM     78  O   UNL A   1      48.980  26.301  30.569  1.00  0.00    -0.744 OA
ENDBRANCH  71  75
ENDBRANCH  54  68
BRANCH  55  79
ATOM     79  C   UNL A   1      37.055  32.369  30.176  1.00  0.00     0.023 A 
ATOM     80  C   UNL A   1      36.254  33.036  29.235  1.00  0.00     0.031 A 
ATOM     81  C   UNL A   1      36.523  32.184  31.468  1.00  0.00     0.131 A 
ATOM     82  C   UNL A   1      34.996  33.536  29.614  1.00  0.00     0.055 A 
ATOM     83  C   UNL A   1      35.245  32.620  31.819  1.00  0.00     0.041 A 
ATOM     84  F   UNL A   1      37.243  31.568  32.419  1.00  0.00    -0.206 F 
ATOM     85  C   UNL A   1      34.480  33.318  30.893  1.00  0.00     0.022 A 
BRANCH  82  86
ATOM     86  S   UNL A   1      34.087  34.588  28.447  1.00  0.00     0.124 S 
ATOM     87  O   UNL A   1      32.815  33.884  28.341  1.00  0.00    -0.237 OA
ATOM     88  O   UNL A   1      34.059  35.864  29.151  1.00  0.00    -0.237 OA
ATOM     89  O   UNL A   1      34.918  34.559  27.244  1.00  0.00    -0.744 OA
ENDBRANCH  82  86
ENDBRANCH  55  79
BRANCH  67  90
ATOM     90  C   UNL A   1      43.323  35.361  30.888  1.00  0.00     0.023 A 
ATOM     91  C   UNL A   1      43.402  35.654  32.261  1.00  0.00     0.031 A 
ATOM     92  C   UNL A   1      43.617  36.387  29.973  1.00  0.00     0.131 A 
ATOM     93  C   UNL A   1      43.705  36.957  32.679  1.00  0.00     0.055 A 
ATOM     94  C   UNL A   1      43.986  37.664  30.396  1.00  0.00     0.041 A 
ATOM     95  F   UNL A   1      43.550  36.163  28.650  1.00  0.00    -0.206 F 
ATOM     96  C   UNL A   1      44.017  37.959  31.756  1.00  0.00     0.022 A 
BRANCH  93  97
ATOM     97  S   UNL A   1      43.583  37.352  34.445  1.00  0.00     0.124 S 
ATOM     98  O   UNL A   1      43.252  36.054  35.022  1.00  0.00    -0.237 OA
ATOM     99  O   UNL A   1      44.917  37.862  34.744  1.00  0.00    -0.237 OA
ATOM    100  O   UNL A   1      42.513  38.347  34.499  1.00  0.00    -0.744 OA
ENDBRANCH  93  97
ENDBRANCH  67  90
ENDBRANCH  41  42
ENDBRANCH  34  36
ENDBRANCH  33  34
ENDBRANCH  32  33
ENDBRANCH  31  32
ENDBRANCH   1  31
TORSDOF 22
ENDMDL
MODEL 2
REMARK VINA RESULT:     -11.0      3.468      8.207
REMARK SMILES CC(C)(C)OC(=O)N1CCN(C(=O)c2ccc3c(c2)OCO3)[C@H](C(=O)OCCOCCOC(=O)c2ccc(-c3c4nc(c(-c5cc(S(=O)(=O)[O-])ccc5F)c5ccc([nH]5)c(-c5cc(S(=O)(=O)[O-])ccc5F)c5nc(c(-c6cc(S(=O)(=O)[O-])ccc6F)c6ccc3[nH]6)C=C5)C=C4)cc2)C1
REMARK SMILES IDX 29 1 28 2 27 3 26 4 24 5 25 6 23 7 8 8 9 9 98 10 10 11 11 12
REMARK SMILES IDX 6 13 7 14 5 15 2 16 1 17 3 18 4 19 12 20 13 21 14 22 15 23
REMARK SMILES IDX 19 24 16 25 18 26 17 27 20 28 22 29 21 30 30 31 31 32 32 33
REMARK SMILES IDX 33 34 34 35 35 36 36 37 97 38 37 39 96 40 38 41 39 42 40 43
REMARK SMILES IDX 90 44 41 45 95 46 89 47 91 48 42 49 94 50 88 51 87 52 43 54
REMARK SMILES IDX 75 55 55 56 74 57 56 58 59 59 73 60 92 61 57 62 58 63 72 65
REMARK SMILES IDX 93 66 60 67 44 68 45 69 53 70 46 71 52 72 54 73 51 74 47 75
REMARK SMILES IDX 48 76 49 77 50 78 76 79 77 80 85 81 78 82 84 83 86 84 83 85
REMARK SMILES IDX 79 86 80 87 81 88 82 89 61 90 62 91 70 92 63 93 69 94 71 95
REMARK SMILES IDX 68 96 64 97 65 98 66 99 67 100
REMARK H PARENT 91 53 59 64
REMARK Flexibility Score: inf
ROOT
ATOM      1  O   UNL A   1      39.177  21.900  26.724  1.00  0.00    -0.374 OA
ENDROOT
BRANCH   1   2
ATOM      2  C   UNL A   1      39.134  23.303  26.527  1.00  0.00     0.202 C 
BRANCH   2   3
ATOM      3  C   UNL A   1      37.800  23.965  26.147  1.00  0.00     0.261 C 
BRANCH   3   4
ATOM      4  O   UNL A   1      36.694  23.044  26.130  1.00  0.00    -0.462 OA
BRANCH   4   5
ATOM      5  C   UNL A   1      35.638  23.406  25.404  1.00  0.00     0.330 C 
ATOM      6  O   UNL A   1      35.688  24.338  24.596  1.00  0.00    -0.250 OA
BRANCH   5   7
ATOM      7  C   UNL A   1      34.307  22.652  25.656  1.00  0.00     0.215 C 
ATOM      8  N   UNL A   1      33.969  20.224  25.031  1.00  0.00    -0.304 N 
ATOM      9  C   UNL A   1      32.526  20.325  25.127  1.00  0.00     0.144 C 
ATOM     10  C   UNL A   1      34.620  21.467  24.672  1.00  0.00     0.160 C 
ATOM     11  C   UNL A   1      32.075  21.574  25.909  1.00  0.00     0.142 C 
ATOM     12  N   UNL A   1      32.781  22.866  25.615  1.00  0.00    -0.321 N 
BRANCH   8  13
ATOM     13  C   UNL A   1      34.614  18.998  24.943  1.00  0.00     0.410 C 
ATOM     14  O   UNL A   1      35.779  18.873  24.588  1.00  0.00    -0.224 OA
BRANCH  13  15
ATOM     15  O   UNL A   1      33.800  17.965  25.294  1.00  0.00    -0.444 OA
BRANCH  15  16
ATOM     16  C   UNL A   1      33.833  16.655  24.660  1.00  0.00     0.106 C 
ATOM     17  C   UNL A   1      35.085  15.959  25.224  1.00  0.00     0.056 C 
ATOM     18  C   UNL A   1      34.014  16.838  23.151  1.00  0.00     0.056 C 
ATOM     19  C   UNL A   1      32.621  15.775  24.978  1.00  0.00     0.056 C 
ENDBRANCH  15  16
ENDBRANCH  13  15
ENDBRANCH   8  13
BRANCH  12  20
ATOM     20  C   UNL A   1      31.985  23.962  26.103  1.00  0.00     0.254 C 
ATOM     21  O   UNL A   1      31.277  23.841  27.110  1.00  0.00    -0.269 OA
BRANCH  20  22
ATOM     22  C   UNL A   1      31.869  25.327  25.506  1.00  0.00     0.044 A 
ATOM     23  C   UNL A   1      32.760  26.755  26.188  1.00  0.00     0.018 A 
ATOM     24  C   UNL A   1      30.517  25.633  24.284  1.00  0.00     0.064 A 
ATOM     25  C   UNL A   1      32.245  28.453  25.781  1.00  0.00     0.051 A 
ATOM     26  C   UNL A   1      30.170  27.316  23.731  1.00  0.00     0.166 A 
ATOM     27  C   UNL A   1      30.985  28.715  24.486  1.00  0.00     0.165 A 
ATOM     28  O   UNL A   1      29.206  27.829  22.931  1.00  0.00    -0.454 OA
ATOM     29  O   UNL A   1      30.419  29.834  23.990  1.00  0.00    -0.454 OA
ATOM     30  C   UNL A   1      29.264  29.277  23.256  1.00  0.00     0.468 C 
ENDBRANCH  20  22
ENDBRANCH  12  20
ENDBRANCH   5   7
ENDBRANCH   4   5
ENDBRANCH   3   4
ENDBRANCH   2   3
ENDBRANCH   1   2
BRANCH   1  31
ATOM     31  C   UNL A   1      39.222  20.996  25.630  1.00  0.00     0.202 C 
BRANCH  31  32
ATOM     32  C   UNL A   1      39.246  19.467  25.789  1.00  0.00     0.261 C 
BRANCH  32  33
ATOM     33  O   UNL A   1      40.470  18.790  25.388  1.00  0.00    -0.460 OA
BRANCH  33  34
ATOM     34  C   UNL A   1      41.773  19.269  25.959  1.00  0.00     0.338 C 
ATOM     35  O   UNL A   1      42.387  18.157  25.957  1.00  0.00    -0.246 OA
BRANCH  34  36
ATOM     36  C   UNL A   1      42.351  21.243  26.580  1.00  0.00     0.060 A 
ATOM     37  C   UNL A   1      42.575  22.507  25.703  1.00  0.00     0.016 A 
ATOM     38  C   UNL A   1      42.759  21.845  27.922  1.00  0.00     0.016 A 
ATOM     39  C   UNL A   1      43.055  23.797  25.981  1.00  0.00     0.010 A 
ATOM     40  C   UNL A   1      43.233  23.185  28.235  1.00  0.00     0.010 A 
ATOM     41  C   UNL A   1      43.378  24.160  27.260  1.00  0.00    -0.014 A 
BRANCH  41  42
ATOM     42  C   UNL A   1      43.758  25.581  27.441  1.00  0.00     0.031 A 
ATOM     43  C   UNL A   1      42.787  26.563  28.031  1.00  0.00     0.074 A 
ATOM     44  C   UNL A   1      45.068  25.888  27.345  1.00  0.00     0.049 A 
ATOM     45  N   UNL A   1      42.981  27.809  28.377  1.00  0.00    -0.248 NA
ATOM     46  C   UNL A   1      41.431  26.066  28.305  1.00  0.00     0.031 C 
ATOM     47  C   UNL A   1      46.120  24.930  26.980  1.00  0.00     0.029 A 
ATOM     48  N   UNL A   1      45.756  27.045  27.604  1.00  0.00    -0.354 N 
ATOM     49  C   UNL A   1      41.766  28.259  28.884  1.00  0.00     0.074 A 
ATOM     50  C   UNL A   1      40.847  27.141  28.818  1.00  0.00     0.031 C 
ATOM     51  C   UNL A   1      47.314  25.536  27.057  1.00  0.00     0.029 A 
ATOM     52  C   UNL A   1      47.112  26.940  27.392  1.00  0.00     0.049 A 
ATOM     53  H   UNL A   1      45.321  27.874  27.911  1.00  0.00     0.167 HD
ATOM     54  C   UNL A   1      41.453  29.500  29.335  1.00  0.00     0.034 A 
ATOM     55  C   UNL A   1      48.078  27.881  27.418  1.00  0.00     0.034 A 
ATOM     56  C   UNL A   1      42.401  30.592  29.373  1.00  0.00     0.049 A 
ATOM     57  C   UNL A   1      47.671  29.285  27.788  1.00  0.00     0.074 A 
ATOM     58  C   UNL A   1      42.192  31.908  29.748  1.00  0.00     0.029 A 
ATOM     59  N   UNL A   1      43.740  30.495  29.009  1.00  0.00    -0.354 N 
ATOM     60  N   UNL A   1      46.497  29.723  28.185  1.00  0.00    -0.248 NA
ATOM     61  C   UNL A   1      48.707  30.321  27.707  1.00  0.00     0.031 C 
ATOM     62  C   UNL A   1      43.377  32.619  29.530  1.00  0.00     0.029 A 
ATOM     63  C   UNL A   1      44.356  31.734  29.106  1.00  0.00     0.049 A 
ATOM     64  H   UNL A   1      44.188  29.664  28.725  1.00  0.00     0.167 HD
ATOM     65  C   UNL A   1      46.660  31.085  28.419  1.00  0.00     0.074 A 
ATOM     66  C   UNL A   1      48.052  31.385  28.147  1.00  0.00     0.031 C 
ATOM     67  C   UNL A   1      45.745  32.006  28.817  1.00  0.00     0.034 A 
BRANCH  54  68
ATOM     68  C   UNL A   1      40.010  29.774  29.692  1.00  0.00     0.023 A 
ATOM     69  C   UNL A   1      39.564  29.904  31.019  1.00  0.00     0.031 A 
ATOM     70  C   UNL A   1      39.053  29.873  28.664  1.00  0.00     0.131 A 
ATOM     71  C   UNL A   1      38.192  30.071  31.282  1.00  0.00     0.055 A 
ATOM     72  C   UNL A   1      37.703  30.108  28.929  1.00  0.00     0.041 A 
ATOM     73  F   UNL A   1      39.415  29.731  27.379  1.00  0.00    -0.206 F 
ATOM     74  C   UNL A   1      37.262  30.195  30.244  1.00  0.00     0.022 A 
BRANCH  71  75
ATOM     75  S   UNL A   1      37.612  29.996  33.000  1.00  0.00     0.124 S 
ATOM     76  O   UNL A   1      37.207  28.598  33.115  1.00  0.00    -0.237 OA
ATOM     77  O   UNL A   1      38.801  30.380  33.752  1.00  0.00    -0.237 OA
ATOM     78  O   UNL A   1      36.513  30.959  33.036  1.00  0.00    -0.744 OA
ENDBRANCH  71  75
ENDBRANCH  54  68
BRANCH  55  79
ATOM     79  C   UNL A   1      49.473  27.564  26.982  1.00  0.00     0.023 A 
ATOM     80  C   UNL A   1      49.897  27.744  25.656  1.00  0.00     0.031 A 
ATOM     81  C   UNL A   1      50.393  26.995  27.887  1.00  0.00     0.131 A 
ATOM     82  C   UNL A   1      51.176  27.314  25.264  1.00  0.00     0.055 A 
ATOM     83  C   UNL A   1      51.686  26.634  27.509  1.00  0.00     0.041 A 
ATOM     84  F   UNL A   1      50.045  26.781  29.166  1.00  0.00    -0.206 F 
ATOM     85  C   UNL A   1      52.079  26.776  26.184  1.00  0.00     0.022 A 
BRANCH  82  86
ATOM     86  S   UNL A   1      51.608  27.351  23.501  1.00  0.00     0.124 S 
ATOM     87  O   UNL A   1      52.070  28.723  23.337  1.00  0.00    -0.237 OA
ATOM     88  O   UNL A   1      52.630  26.313  23.420  1.00  0.00    -0.237 OA
ATOM     89  O   UNL A   1      50.346  27.033  22.835  1.00  0.00    -0.744 OA
ENDBRANCH  82  86
ENDBRANCH  55  79
BRANCH  67  90
ATOM     90  C   UNL A   1      46.249  33.413  29.015  1.00  0.00     0.023 A 
ATOM     91  C   UNL A   1      46.244  34.352  27.968  1.00  0.00     0.031 A 
ATOM     92  C   UNL A   1      46.761  33.813  30.262  1.00  0.00     0.131 A 
ATOM     93  C   UNL A   1      46.800  35.623  28.170  1.00  0.00     0.055 A 
ATOM     94  C   UNL A   1      47.249  35.102  30.476  1.00  0.00     0.041 A 
ATOM     95  F   UNL A   1      46.795  32.954  31.293  1.00  0.00    -0.206 F 
ATOM     96  C   UNL A   1      47.285  36.010  29.422  1.00  0.00     0.022 A 
BRANCH  93  97
ATOM     97  S   UNL A   1      46.978  36.729  26.743  1.00  0.00     0.124 S 
ATOM     98  O   UNL A   1      45.747  37.509  26.811  1.00  0.00    -0.237 OA
ATOM     99  O   UNL A   1      48.208  37.450  27.057  1.00  0.00    -0.237 OA
ATOM    100  O   UNL A   1      47.070  35.812  25.609  1.00  0.00    -0.744 OA
ENDBRANCH  93  97
ENDBRANCH  67  90
ENDBRANCH  41  42
ENDBRANCH  34  36
ENDBRANCH  33  34
ENDBRANCH  32  33
ENDBRANCH  31  32
ENDBRANCH   1  31
TORSDOF 22
ENDMDL
MODEL 3
REMARK VINA RESULT:     -10.9      3.895      9.852
REMARK SMILES CC(C)(C)OC(=O)N1CCN(C(=O)c2ccc3c(c2)OCO3)[C@H](C(=O)OCCOCCOC(=O)c2ccc(-c3c4nc(c(-c5cc(S(=O)(=O)[O-])ccc5F)c5ccc([nH]5)c(-c5cc(S(=O)(=O)[O-])ccc5F)c5nc(c(-c6cc(S(=O)(=O)[O-])ccc6F)c6ccc3[nH]6)C=C5)C=C4)cc2)C1
REMARK SMILES IDX 29 1 28 2 27 3 26 4 24 5 25 6 23 7 8 8 9 9 98 10 10 11 11 12
REMARK SMILES IDX 6 13 7 14 5 15 2 16 1 17 3 18 4 19 12 20 13 21 14 22 15 23
REMARK SMILES IDX 19 24 16 25 18 26 17 27 20 28 22 29 21 30 30 31 31 32 32 33
REMARK SMILES IDX 33 34 34 35 35 36 36 37 97 38 37 39 96 40 38 41 39 42 40 43
REMARK SMILES IDX 90 44 41 45 95 46 89 47 91 48 42 49 94 50 88 51 87 52 43 54
REMARK SMILES IDX 75 55 55 56 74 57 56 58 59 59 73 60 92 61 57 62 58 63 72 65
REMARK SMILES IDX 93 66 60 67 44 68 45 69 53 70 46 71 52 72 54 73 51 74 47 75
REMARK SMILES IDX 48 76 49 77 50 78 76 79 77 80 85 81 78 82 84 83 86 84 83 85
REMARK SMILES IDX 79 86 80 87 81 88 82 89 61 90 62 91 70 92 63 93 69 94 71 95
REMARK SMILES IDX 68 96 64 97 65 98 66 99 67 100
REMARK H PARENT 91 53 59 64
REMARK Flexibility Score: inf
ROOT
ATOM      1  O   UNL A   1      31.582  26.567  26.805  1.00  0.00    -0.374 OA
ENDROOT
BRANCH   1   2
ATOM      2  C   UNL A   1      30.466  25.748  26.500  1.00  0.00     0.202 C 
BRANCH   2   3
ATOM      3  C   UNL A   1      30.676  24.482  25.656  1.00  0.00     0.261 C 
BRANCH   3   4
ATOM      4  O   UNL A   1      30.169  24.602  24.315  1.00  0.00    -0.462 OA
BRANCH   4   5
ATOM      5  C   UNL A   1      29.807  25.825  23.930  1.00  0.00     0.330 C 
ATOM      6  O   UNL A   1      28.628  26.189  23.932  1.00  0.00    -0.250 OA
BRANCH   5   7
ATOM      7  C   UNL A   1      30.923  26.768  23.409  1.00  0.00     0.215 C 
ATOM      8  N   UNL A   1      30.508  29.198  22.842  1.00  0.00    -0.304 N 
ATOM      9  C   UNL A   1      31.737  29.305  22.080  1.00  0.00     0.144 C 
ATOM     10  C   UNL A   1      29.942  27.865  22.855  1.00  0.00     0.160 C 
ATOM     11  C   UNL A   1      32.719  28.158  22.385  1.00  0.00     0.142 C 
ATOM     12  N   UNL A   1      32.154  26.769  22.480  1.00  0.00    -0.321 N 
BRANCH   8  13
ATOM     13  C   UNL A   1      29.776  30.317  23.214  1.00  0.00     0.410 C 
ATOM     14  O   UNL A   1      29.431  30.546  24.366  1.00  0.00    -0.224 OA
BRANCH  13  15
ATOM     15  O   UNL A   1      29.490  31.118  22.150  1.00  0.00    -0.444 OA
BRANCH  15  16
ATOM     16  C   UNL A   1      28.364  32.040  22.109  1.00  0.00     0.106 C 
ATOM     17  C   UNL A   1      28.851  33.311  22.828  1.00  0.00     0.056 C 
ATOM     18  C   UNL A   1      27.203  31.441  22.908  1.00  0.00     0.056 C 
ATOM     19  C   UNL A   1      27.929  32.434  20.695  1.00  0.00     0.056 C 
ENDBRANCH  15  16
ENDBRANCH  13  15
ENDBRANCH   8  13
BRANCH  12  20
ATOM     20  C   UNL A   1      33.222  25.813  22.355  1.00  0.00     0.254 C 
ATOM     21  O   UNL A   1      34.125  25.965  21.524  1.00  0.00    -0.269 OA
BRANCH  20  22
ATOM     22  C   UNL A   1      33.395  24.550  23.135  1.00  0.00     0.044 A 
ATOM     23  C   UNL A   1      32.572  23.003  22.656  1.00  0.00     0.018 A 
ATOM     24  C   UNL A   1      34.165  24.656  24.811  1.00  0.00     0.064 A 
ATOM     25  C   UNL A   1      32.391  21.639  23.848  1.00  0.00     0.051 A 
ATOM     26  C   UNL A   1      34.162  23.213  25.895  1.00  0.00     0.166 A 
ATOM     27  C   UNL A   1      33.261  21.735  25.450  1.00  0.00     0.165 A 
ATOM     28  O   UNL A   1      34.565  23.036  27.175  1.00  0.00    -0.454 OA
ATOM     29  O   UNL A   1      33.306  20.896  26.505  1.00  0.00    -0.454 OA
ATOM     30  C   UNL A   1      33.889  21.767  27.546  1.00  0.00     0.468 C 
ENDBRANCH  20  22
ENDBRANCH  12  20
ENDBRANCH   5   7
ENDBRANCH   4   5
ENDBRANCH   3   4
ENDBRANCH   2   3
ENDBRANCH   1   2
BRANCH   1  31
ATOM     31  C   UNL A   1      31.456  27.974  26.950  1.00  0.00     0.202 C 
BRANCH  31  32
ATOM     32  C   UNL A   1      32.164  28.991  26.041  1.00  0.00     0.261 C 
BRANCH  32  33
ATOM     33  O   UNL A   1      31.639  30.349  26.051  1.00  0.00    -0.460 OA
BRANCH  33  34
ATOM     34  C   UNL A   1      32.430  31.416  26.750  1.00  0.00     0.338 C 
ATOM     35  O   UNL A   1      31.603  32.371  26.606  1.00  0.00    -0.246 OA
BRANCH  34  36
ATOM     36  C   UNL A   1      34.365  31.301  27.676  1.00  0.00     0.060 A 
ATOM     37  C   UNL A   1      34.994  30.114  28.459  1.00  0.00     0.016 A 
ATOM     38  C   UNL A   1      35.494  32.308  27.878  1.00  0.00     0.016 A 
ATOM     39  C   UNL A   1      36.183  29.970  29.191  1.00  0.00     0.010 A 
ATOM     40  C   UNL A   1      36.744  32.168  28.611  1.00  0.00     0.010 A 
ATOM     41  C   UNL A   1      37.086  30.995  29.265  1.00  0.00    -0.014 A 
BRANCH  41  42
ATOM     42  C   UNL A   1      38.353  30.677  29.965  1.00  0.00     0.031 A 
ATOM     43  C   UNL A   1      38.574  31.116  31.384  1.00  0.00     0.074 A 
ATOM     44  C   UNL A   1      39.152  29.745  29.405  1.00  0.00     0.049 A 
ATOM     45  N   UNL A   1      39.558  30.827  32.194  1.00  0.00    -0.248 NA
ATOM     46  C   UNL A   1      37.529  31.959  31.983  1.00  0.00     0.031 C 
ATOM     47  C   UNL A   1      38.895  29.102  28.110  1.00  0.00     0.029 A 
ATOM     48  N   UNL A   1      40.286  29.123  29.859  1.00  0.00    -0.354 N 
ATOM     49  C   UNL A   1      39.272  31.473  33.392  1.00  0.00     0.074 A 
ATOM     50  C   UNL A   1      38.006  32.154  33.206  1.00  0.00     0.031 C 
ATOM     51  C   UNL A   1      39.833  28.170  27.887  1.00  0.00     0.029 A 
ATOM     52  C   UNL A   1      40.802  28.203  28.975  1.00  0.00     0.049 A 
ATOM     53  H   UNL A   1      40.694  29.318  30.734  1.00  0.00     0.167 HD
ATOM     54  C   UNL A   1      40.017  31.508  34.526  1.00  0.00     0.034 A 
ATOM     55  C   UNL A   1      41.952  27.500  29.015  1.00  0.00     0.034 A 
ATOM     56  C   UNL A   1      41.281  30.821  34.665  1.00  0.00     0.049 A 
ATOM     57  C   UNL A   1      42.829  27.669  30.230  1.00  0.00     0.074 A 
ATOM     58  C   UNL A   1      42.158  30.828  35.736  1.00  0.00     0.029 A 
ATOM     59  N   UNL A   1      41.856  30.010  33.692  1.00  0.00    -0.354 N 
ATOM     60  N   UNL A   1      42.590  28.352  31.327  1.00  0.00    -0.248 NA
ATOM     61  C   UNL A   1      44.127  26.985  30.215  1.00  0.00     0.031 C 
ATOM     62  C   UNL A   1      43.295  30.096  35.376  1.00  0.00     0.029 A 
ATOM     63  C   UNL A   1      43.094  29.552  34.118  1.00  0.00     0.049 A 
ATOM     64  H   UNL A   1      41.443  29.791  32.824  1.00  0.00     0.167 HD
ATOM     65  C   UNL A   1      43.703  28.164  32.141  1.00  0.00     0.074 A 
ATOM     66  C   UNL A   1      44.596  27.280  31.418  1.00  0.00     0.031 C 
ATOM     67  C   UNL A   1      43.968  28.678  33.370  1.00  0.00     0.034 A 
BRANCH  54  68
ATOM     68  C   UNL A   1      39.551  32.414  35.643  1.00  0.00     0.023 A 
ATOM     69  C   UNL A   1      39.924  33.766  35.735  1.00  0.00     0.031 A 
ATOM     70  C   UNL A   1      38.733  31.888  36.661  1.00  0.00     0.131 A 
ATOM     71  C   UNL A   1      39.525  34.528  36.848  1.00  0.00     0.055 A 
ATOM     72  C   UNL A   1      38.284  32.668  37.728  1.00  0.00     0.041 A 
ATOM     73  F   UNL A   1      38.366  30.596  36.642  1.00  0.00    -0.206 F 
ATOM     74  C   UNL A   1      38.690  33.993  37.834  1.00  0.00     0.022 A 
BRANCH  71  75
ATOM     75  S   UNL A   1      40.214  36.192  37.064  1.00  0.00     0.124 S 
ATOM     76  O   UNL A   1      39.387  36.718  38.147  1.00  0.00    -0.237 OA
ATOM     77  O   UNL A   1      41.606  35.917  37.401  1.00  0.00    -0.237 OA
ATOM     78  O   UNL A   1      40.001  36.826  35.764  1.00  0.00    -0.744 OA
ENDBRANCH  71  75
ENDBRANCH  54  68
BRANCH  55  79
ATOM     79  C   UNL A   1      42.393  26.677  27.846  1.00  0.00     0.023 A 
ATOM     80  C   UNL A   1      42.210  25.286  27.804  1.00  0.00     0.031 A 
ATOM     81  C   UNL A   1      43.083  27.275  26.771  1.00  0.00     0.131 A 
ATOM     82  C   UNL A   1      42.752  24.539  26.744  1.00  0.00     0.055 A 
ATOM     83  C   UNL A   1      43.558  26.538  25.687  1.00  0.00     0.041 A 
ATOM     84  F   UNL A   1      43.306  28.600  26.759  1.00  0.00    -0.206 F 
ATOM     85  C   UNL A   1      43.410  25.157  25.678  1.00  0.00     0.022 A 
BRANCH  82  86
ATOM     86  S   UNL A   1      42.697  22.727  26.834  1.00  0.00     0.124 S 
ATOM     87  O   UNL A   1      42.252  22.511  28.205  1.00  0.00    -0.237 OA
ATOM     88  O   UNL A   1      41.736  22.403  25.787  1.00  0.00    -0.237 OA
ATOM     89  O   UNL A   1      44.077  22.331  26.556  1.00  0.00    -0.744 OA
ENDBRANCH  82  86
ENDBRANCH  55  79
BRANCH  67  90
ATOM     90  C   UNL A   1      45.265  28.253  34.011  1.00  0.00     0.023 A 
ATOM     91  C   UNL A   1      46.465  28.949  33.782  1.00  0.00     0.031 A 
ATOM     92  C   UNL A   1      45.304  27.122  34.846  1.00  0.00     0.131 A 
ATOM     93  C   UNL A   1      47.664  28.471  34.328  1.00  0.00     0.055 A 
ATOM     94  C   UNL A   1      46.489  26.691  35.443  1.00  0.00     0.041 A 
ATOM     95  F   UNL A   1      44.189  26.417  35.093  1.00  0.00    -0.206 F 
ATOM     96  C   UNL A   1      47.680  27.358  35.173  1.00  0.00     0.022 A 
BRANCH  93  97
ATOM     97  S   UNL A   1      49.220  29.261  33.834  1.00  0.00     0.124 S 
ATOM     98  O   UNL A   1      50.066  29.013  34.996  1.00  0.00    -0.237 OA
ATOM     99  O   UNL A   1      49.571  28.531  32.621  1.00  0.00    -0.237 OA
ATOM    100  O   UNL A   1      48.843  30.658  33.629  1.00  0.00    -0.744 OA
ENDBRANCH  93  97
ENDBRANCH  67  90
ENDBRANCH  41  42
ENDBRANCH  34  36
ENDBRANCH  33  34
ENDBRANCH  32  33
ENDBRANCH  31  32
ENDBRANCH   1  31
TORSDOF 22
ENDMDL
