MODEL 1
REMARK VINA RESULT:     -11.8      0.000      0.000
REMARK SMILES COc1cccc(NC(=O)[C@@H]2[C@@H](C(=O)OCCOCCOC(=O)c3ccc(-c4c5nc(c(-c6cc(S(=O)(=O)[O-])ccc6F)c6ccc([nH]6)c(-c6cc(S(=O)(=O)[O-])ccc6F)c6nc(c(-c7cc(S(=O)(=O)[O-])ccc7F)c7ccc4[nH]7)C=C6)C=C5)cc3)[C@H]3C=C[C@@H]2C3)c1
REMARK SMILES IDX 18 1 17 2 16 3 15 4 13 5 14 6 12 7 11 8 90 9 87 10 89 11
REMARK SMILES IDX 91 12 88 13 9 14 8 15 10 17 7 18 3 19 4 20 92 21 5 22 6 23
REMARK SMILES IDX 2 24 1 25 19 26 20 27 21 28 22 29 23 30 24 31 25 32 86 33
REMARK SMILES IDX 26 34 85 35 27 36 28 37 29 38 79 39 30 40 84 41 78 42 80 43
REMARK SMILES IDX 31 44 83 45 77 46 76 47 32 49 64 50 44 51 63 52 45 53 48 54
REMARK SMILES IDX 62 55 81 56 46 57 47 58 61 60 82 61 49 62 33 63 34 64 42 65
REMARK SMILES IDX 35 66 41 67 43 68 40 69 36 70 37 71 38 72 39 73 65 74 66 75
REMARK SMILES IDX 74 76 67 77 73 78 75 79 72 80 68 81 69 82 70 83 71 84 50 85
REMARK SMILES IDX 51 86 59 87 52 88 58 89 60 90 57 91 53 92 54 93 55 94 56 95
REMARK H PARENT 8 16 80 48 48 59
REMARK Flexibility Score: inf
ROOT
ATOM      1  O   UNL A   1      31.976  30.569  27.052  1.00  0.00    -0.374 OA
ENDROOT
BRANCH   1   2
ATOM      2  C   UNL A   1      33.131  30.039  26.409  1.00  0.00     0.202 C 
BRANCH   2   3
ATOM      3  C   UNL A   1      32.923  28.948  25.357  1.00  0.00     0.261 C 
BRANCH   3   4
ATOM      4  O   UNL A   1      31.606  28.378  25.411  1.00  0.00    -0.463 OA
BRANCH   4   5
ATOM      5  C   UNL A   1      31.569  27.064  25.737  1.00  0.00     0.310 C 
ATOM      6  O   UNL A   1      30.990  26.596  26.711  1.00  0.00    -0.252 OA
BRANCH   5   7
ATOM      7  C   UNL A   1      32.276  26.170  24.752  1.00  0.00     0.119 C 
ATOM      8  C   UNL A   1      31.457  26.149  23.434  1.00  0.00     0.100 C 
ATOM      9  C   UNL A   1      31.555  24.667  22.998  1.00  0.00     0.025 C 
ATOM     10  C   UNL A   1      32.447  24.662  25.055  1.00  0.00     0.027 C 
ATOM     11  C   UNL A   1      30.588  23.927  23.897  1.00  0.00    -0.027 C 
ATOM     12  C   UNL A   1      32.858  24.190  23.651  1.00  0.00     0.017 C 
ATOM     13  C   UNL A   1      31.112  23.946  25.132  1.00  0.00    -0.027 C 
BRANCH   8  14
ATOM     14  C   UNL A   1      31.992  27.118  22.409  1.00  0.00     0.228 C 
ATOM     15  N   UNL A   1      31.312  28.247  22.044  1.00  0.00    -0.326 N 
ATOM     16  H   UNL A   1      31.842  28.826  21.451  1.00  0.00     0.169 HD
ATOM     17  O   UNL A   1      33.119  26.954  21.928  1.00  0.00    -0.274 OA
BRANCH  15  18
ATOM     18  C   UNL A   1      30.032  28.779  22.314  1.00  0.00     0.044 A 
ATOM     19  C   UNL A   1      28.616  30.758  22.218  1.00  0.00     0.120 A 
ATOM     20  C   UNL A   1      27.604  30.099  22.903  1.00  0.00     0.046 A 
ATOM     21  C   UNL A   1      29.832  30.119  21.952  1.00  0.00     0.072 A 
ATOM     22  C   UNL A   1      27.764  28.757  23.211  1.00  0.00     0.006 A 
ATOM     23  C   UNL A   1      28.951  28.093  22.872  1.00  0.00     0.026 A 
BRANCH  19  24
ATOM     24  O   UNL A   1      28.385  32.056  21.849  1.00  0.00    -0.497 OA
ATOM     25  C   UNL A   1      27.976  32.127  20.483  1.00  0.00     0.278 C 
ENDBRANCH  19  24
ENDBRANCH  15  18
ENDBRANCH   8  14
ENDBRANCH   5   7
ENDBRANCH   4   5
ENDBRANCH   3   4
ENDBRANCH   2   3
ENDBRANCH   1   2
BRANCH   1  26
ATOM     26  C   UNL A   1      31.341  31.711  26.483  1.00  0.00     0.202 C 
BRANCH  26  27
ATOM     27  C   UNL A   1      31.939  33.097  26.760  1.00  0.00     0.261 C 
BRANCH  27  28
ATOM     28  O   UNL A   1      32.445  33.257  28.096  1.00  0.00    -0.460 OA
BRANCH  28  29
ATOM     29  C   UNL A   1      33.557  34.028  28.177  1.00  0.00     0.338 C 
ATOM     30  O   UNL A   1      33.599  35.254  28.190  1.00  0.00    -0.246 OA
BRANCH  29  31
ATOM     31  C   UNL A   1      34.749  33.201  28.430  1.00  0.00     0.060 A 
ATOM     32  C   UNL A   1      34.556  31.968  29.067  1.00  0.00     0.016 A 
ATOM     33  C   UNL A   1      36.036  33.665  28.154  1.00  0.00     0.016 A 
ATOM     34  C   UNL A   1      35.654  31.217  29.479  1.00  0.00     0.010 A 
ATOM     35  C   UNL A   1      37.139  32.913  28.578  1.00  0.00     0.010 A 
ATOM     36  C   UNL A   1      36.952  31.705  29.276  1.00  0.00    -0.014 A 
BRANCH  36  37
ATOM     37  C   UNL A   1      38.091  31.017  29.933  1.00  0.00     0.031 A 
ATOM     38  C   UNL A   1      38.378  31.304  31.382  1.00  0.00     0.074 A 
ATOM     39  C   UNL A   1      38.822  30.109  29.262  1.00  0.00     0.049 A 
ATOM     40  N   UNL A   1      39.307  30.809  32.160  1.00  0.00    -0.248 NA
ATOM     41  C   UNL A   1      37.499  32.280  32.043  1.00  0.00     0.031 C 
ATOM     42  C   UNL A   1      38.607  29.716  27.870  1.00  0.00     0.029 A 
ATOM     43  N   UNL A   1      39.892  29.348  29.664  1.00  0.00    -0.354 N 
ATOM     44  C   UNL A   1      39.127  31.415  33.400  1.00  0.00     0.074 A 
ATOM     45  C   UNL A   1      38.022  32.340  33.257  1.00  0.00     0.031 C 
ATOM     46  C   UNL A   1      39.517  28.786  27.533  1.00  0.00     0.029 A 
ATOM     47  C   UNL A   1      40.399  28.542  28.672  1.00  0.00     0.049 A 
ATOM     48  H   UNL A   1      40.260  29.377  30.577  1.00  0.00     0.167 HD
ATOM     49  C   UNL A   1      39.815  31.211  34.550  1.00  0.00     0.034 A 
ATOM     50  C   UNL A   1      41.465  27.715  28.681  1.00  0.00     0.034 A 
ATOM     51  C   UNL A   1      40.918  30.289  34.674  1.00  0.00     0.049 A 
ATOM     52  C   UNL A   1      42.265  27.567  29.954  1.00  0.00     0.074 A 
ATOM     53  C   UNL A   1      41.667  29.986  35.798  1.00  0.00     0.029 A 
ATOM     54  N   UNL A   1      41.444  29.534  33.634  1.00  0.00    -0.354 N 
ATOM     55  N   UNL A   1      42.071  28.131  31.124  1.00  0.00    -0.248 NA
ATOM     56  C   UNL A   1      43.422  26.665  29.905  1.00  0.00     0.031 C 
ATOM     57  C   UNL A   1      42.688  29.105  35.422  1.00  0.00     0.029 A 
ATOM     58  C   UNL A   1      42.530  28.795  34.080  1.00  0.00     0.049 A 
ATOM     59  H   UNL A   1      41.095  29.522  32.713  1.00  0.00     0.167 HD
ATOM     60  C   UNL A   1      43.063  27.622  31.959  1.00  0.00     0.074 A 
ATOM     61  C   UNL A   1      43.843  26.699  31.161  1.00  0.00     0.031 C 
ATOM     62  C   UNL A   1      43.307  27.888  33.268  1.00  0.00     0.034 A 
BRANCH  49  63
ATOM     63  C   UNL A   1      39.425  32.043  35.749  1.00  0.00     0.023 A 
ATOM     64  C   UNL A   1      38.654  31.520  36.801  1.00  0.00     0.031 A 
ATOM     65  C   UNL A   1      39.815  33.393  35.827  1.00  0.00     0.131 A 
ATOM     66  C   UNL A   1      38.243  32.356  37.851  1.00  0.00     0.055 A 
ATOM     67  C   UNL A   1      39.465  34.200  36.912  1.00  0.00     0.041 A 
ATOM     68  F   UNL A   1      40.532  33.954  34.841  1.00  0.00    -0.206 F 
ATOM     69  C   UNL A   1      38.663  33.686  37.925  1.00  0.00     0.022 A 
BRANCH  66  70
ATOM     70  S   UNL A   1      37.040  31.718  39.052  1.00  0.00     0.124 S 
ATOM     71  O   UNL A   1      35.971  32.709  38.952  1.00  0.00    -0.237 OA
ATOM     72  O   UNL A   1      36.736  30.395  38.521  1.00  0.00    -0.237 OA
ATOM     73  O   UNL A   1      37.776  31.732  40.314  1.00  0.00    -0.744 OA
ENDBRANCH  66  70
ENDBRANCH  49  63
BRANCH  50  74
ATOM     74  C   UNL A   1      41.868  26.983  27.446  1.00  0.00     0.023 A 
ATOM     75  C   UNL A   1      41.715  25.592  27.342  1.00  0.00     0.031 A 
ATOM     76  C   UNL A   1      42.476  27.662  26.373  1.00  0.00     0.131 A 
ATOM     77  C   UNL A   1      42.208  24.917  26.214  1.00  0.00     0.055 A 
ATOM     78  C   UNL A   1      42.918  26.992  25.232  1.00  0.00     0.041 A 
ATOM     79  F   UNL A   1      42.649  28.992  26.422  1.00  0.00    -0.206 F 
ATOM     80  C   UNL A   1      42.797  25.608  25.154  1.00  0.00     0.022 A 
BRANCH  77  81
ATOM     81  S   UNL A   1      42.151  23.104  26.194  1.00  0.00     0.124 S 
ATOM     82  O   UNL A   1      42.753  22.801  24.900  1.00  0.00    -0.237 OA
ATOM     83  O   UNL A   1      42.947  22.763  27.369  1.00  0.00    -0.237 OA
ATOM     84  O   UNL A   1      40.724  22.807  26.305  1.00  0.00    -0.744 OA
ENDBRANCH  77  81
ENDBRANCH  50  74
BRANCH  62  85
ATOM     85  C   UNL A   1      44.440  27.132  33.922  1.00  0.00     0.023 A 
ATOM     86  C   UNL A   1      44.233  25.902  34.571  1.00  0.00     0.031 A 
ATOM     87  C   UNL A   1      45.742  27.665  33.914  1.00  0.00     0.131 A 
ATOM     88  C   UNL A   1      45.297  25.277  35.239  1.00  0.00     0.055 A 
ATOM     89  C   UNL A   1      46.809  27.007  34.527  1.00  0.00     0.041 A 
ATOM     90  F   UNL A   1      45.997  28.837  33.312  1.00  0.00    -0.206 F 
ATOM     91  C   UNL A   1      46.587  25.813  35.207  1.00  0.00     0.022 A 
BRANCH  88  92
ATOM     92  S   UNL A   1      44.951  23.803  36.239  1.00  0.00     0.124 S 
ATOM     93  O   UNL A   1      44.534  24.388  37.510  1.00  0.00    -0.237 OA
ATOM     94  O   UNL A   1      43.903  23.142  35.468  1.00  0.00    -0.237 OA
ATOM     95  O   UNL A   1      46.233  23.102  36.271  1.00  0.00    -0.744 OA
ENDBRANCH  88  92
ENDBRANCH  62  85
ENDBRANCH  36  37
ENDBRANCH  29  31
ENDBRANCH  28  29
ENDBRANCH  27  28
ENDBRANCH  26  27
ENDBRANCH   1  26
TORSDOF 20
ENDMDL
MODEL 2
REMARK VINA RESULT:     -11.3      1.928      2.215
REMARK SMILES COc1cccc(NC(=O)[C@@H]2[C@@H](C(=O)OCCOCCOC(=O)c3ccc(-c4c5nc(c(-c6cc(S(=O)(=O)[O-])ccc6F)c6ccc([nH]6)c(-c6cc(S(=O)(=O)[O-])ccc6F)c6nc(c(-c7cc(S(=O)(=O)[O-])ccc7F)c7ccc4[nH]7)C=C6)C=C5)cc3)[C@H]3C=C[C@@H]2C3)c1
REMARK SMILES IDX 18 1 17 2 16 3 15 4 13 5 14 6 12 7 11 8 90 9 87 10 89 11
REMARK SMILES IDX 91 12 88 13 9 14 8 15 10 17 7 18 3 19 4 20 92 21 5 22 6 23
REMARK SMILES IDX 2 24 1 25 19 26 20 27 21 28 22 29 23 30 24 31 25 32 86 33
REMARK SMILES IDX 26 34 85 35 27 36 28 37 29 38 79 39 30 40 84 41 78 42 80 43
REMARK SMILES IDX 31 44 83 45 77 46 76 47 32 49 64 50 44 51 63 52 45 53 48 54
REMARK SMILES IDX 62 55 81 56 46 57 47 58 61 60 82 61 49 62 33 63 34 64 42 65
REMARK SMILES IDX 35 66 41 67 43 68 40 69 36 70 37 71 38 72 39 73 65 74 66 75
REMARK SMILES IDX 74 76 67 77 73 78 75 79 72 80 68 81 69 82 70 83 71 84 50 85
REMARK SMILES IDX 51 86 59 87 52 88 58 89 60 90 57 91 53 92 54 93 55 94 56 95
REMARK H PARENT 8 16 80 48 48 59
REMARK Flexibility Score: inf
ROOT
ATOM      1  O   UNL A   1      32.046  30.501  26.865  1.00  0.00    -0.374 OA
ENDROOT
BRANCH   1   2
ATOM      2  C   UNL A   1      33.247  30.104  26.209  1.00  0.00     0.202 C 
BRANCH   2   3
ATOM      3  C   UNL A   1      33.120  29.242  24.951  1.00  0.00     0.261 C 
BRANCH   3   4
ATOM      4  O   UNL A   1      32.297  28.084  25.160  1.00  0.00    -0.463 OA
BRANCH   4   5
ATOM      5  C   UNL A   1      32.965  26.979  25.565  1.00  0.00     0.310 C 
ATOM      6  O   UNL A   1      33.373  26.779  26.705  1.00  0.00    -0.252 OA
BRANCH   5   7
ATOM      7  C   UNL A   1      33.141  25.941  24.488  1.00  0.00     0.119 C 
ATOM      8  C   UNL A   1      31.943  26.047  23.506  1.00  0.00     0.100 C 
ATOM      9  C   UNL A   1      31.632  24.564  23.191  1.00  0.00     0.025 C 
ATOM     10  C   UNL A   1      33.136  24.436  24.849  1.00  0.00     0.027 C 
ATOM     11  C   UNL A   1      30.902  24.047  24.411  1.00  0.00    -0.027 C 
ATOM     12  C   UNL A   1      32.973  23.859  23.433  1.00  0.00     0.017 C 
ATOM     13  C   UNL A   1      31.798  23.994  25.409  1.00  0.00    -0.027 C 
BRANCH   8  14
ATOM     14  C   UNL A   1      32.271  26.869  22.285  1.00  0.00     0.228 C 
ATOM     15  N   UNL A   1      31.504  27.928  21.887  1.00  0.00    -0.326 N 
ATOM     16  H   UNL A   1      31.910  28.425  21.141  1.00  0.00     0.169 HD
ATOM     17  O   UNL A   1      33.311  26.652  21.650  1.00  0.00    -0.274 OA
BRANCH  15  18
ATOM     18  C   UNL A   1      30.267  28.479  22.290  1.00  0.00     0.044 A 
ATOM     19  C   UNL A   1      28.932  30.507  22.470  1.00  0.00     0.120 A 
ATOM     20  C   UNL A   1      27.939  29.824  23.159  1.00  0.00     0.046 A 
ATOM     21  C   UNL A   1      30.100  29.853  22.066  1.00  0.00     0.072 A 
ATOM     22  C   UNL A   1      28.062  28.454  23.333  1.00  0.00     0.006 A 
ATOM     23  C   UNL A   1      29.196  27.783  22.855  1.00  0.00     0.026 A 
BRANCH  19  24
ATOM     24  O   UNL A   1      28.733  31.841  22.237  1.00  0.00    -0.497 OA
ATOM     25  C   UNL A   1      28.209  32.052  20.926  1.00  0.00     0.278 C 
ENDBRANCH  19  24
ENDBRANCH  15  18
ENDBRANCH   8  14
ENDBRANCH   5   7
ENDBRANCH   4   5
ENDBRANCH   3   4
ENDBRANCH   2   3
ENDBRANCH   1   2
BRANCH   1  26
ATOM     26  C   UNL A   1      31.291  31.577  26.315  1.00  0.00     0.202 C 
BRANCH  26  27
ATOM     27  C   UNL A   1      31.730  33.014  26.622  1.00  0.00     0.261 C 
BRANCH  27  28
ATOM     28  O   UNL A   1      32.195  33.207  27.969  1.00  0.00    -0.460 OA
BRANCH  28  29
ATOM     29  C   UNL A   1      33.283  34.009  28.069  1.00  0.00     0.338 C 
ATOM     30  O   UNL A   1      33.289  35.236  28.084  1.00  0.00    -0.246 OA
BRANCH  29  31
ATOM     31  C   UNL A   1      34.495  33.218  28.339  1.00  0.00     0.060 A 
ATOM     32  C   UNL A   1      34.329  31.980  28.975  1.00  0.00     0.016 A 
ATOM     33  C   UNL A   1      35.772  33.719  28.081  1.00  0.00     0.016 A 
ATOM     34  C   UNL A   1      35.442  31.261  29.403  1.00  0.00     0.010 A 
ATOM     35  C   UNL A   1      36.890  32.999  28.521  1.00  0.00     0.010 A 
ATOM     36  C   UNL A   1      36.728  31.786  29.217  1.00  0.00    -0.014 A 
BRANCH  36  37
ATOM     37  C   UNL A   1      37.878  31.132  29.892  1.00  0.00     0.031 A 
ATOM     38  C   UNL A   1      38.181  31.485  31.323  1.00  0.00     0.074 A 
ATOM     39  C   UNL A   1      38.604  30.197  29.253  1.00  0.00     0.049 A 
ATOM     40  N   UNL A   1      39.121  31.029  32.111  1.00  0.00    -0.248 NA
ATOM     41  C   UNL A   1      37.305  32.488  31.949  1.00  0.00     0.031 C 
ATOM     42  C   UNL A   1      38.374  29.742  27.883  1.00  0.00     0.029 A 
ATOM     43  N   UNL A   1      39.681  29.459  29.677  1.00  0.00    -0.354 N 
ATOM     44  C   UNL A   1      38.953  31.690  33.325  1.00  0.00     0.074 A 
ATOM     45  C   UNL A   1      37.843  32.604  33.153  1.00  0.00     0.031 C 
ATOM     46  C   UNL A   1      39.283  28.801  27.578  1.00  0.00     0.029 A 
ATOM     47  C   UNL A   1      40.180  28.610  28.716  1.00  0.00     0.049 A 
ATOM     48  H   UNL A   1      40.060  29.530  30.582  1.00  0.00     0.167 HD
ATOM     49  C   UNL A   1      39.654  31.540  34.475  1.00  0.00     0.034 A 
ATOM     50  C   UNL A   1      41.248  27.788  28.750  1.00  0.00     0.034 A 
ATOM     51  C   UNL A   1      40.762  30.628  34.627  1.00  0.00     0.049 A 
ATOM     52  C   UNL A   1      42.064  27.700  30.018  1.00  0.00     0.074 A 
ATOM     53  C   UNL A   1      41.526  30.378  35.754  1.00  0.00     0.029 A 
ATOM     54  N   UNL A   1      41.279  29.828  33.616  1.00  0.00    -0.354 N 
ATOM     55  N   UNL A   1      41.881  28.315  31.164  1.00  0.00    -0.248 NA
ATOM     56  C   UNL A   1      43.223  26.800  29.996  1.00  0.00     0.031 C 
ATOM     57  C   UNL A   1      42.545  29.484  35.406  1.00  0.00     0.029 A 
ATOM     58  C   UNL A   1      42.372  29.113  34.082  1.00  0.00     0.049 A 
ATOM     59  H   UNL A   1      40.919  29.773  32.700  1.00  0.00     0.167 HD
ATOM     60  C   UNL A   1      42.885  27.847  32.010  1.00  0.00     0.074 A 
ATOM     61  C   UNL A   1      43.659  26.892  31.244  1.00  0.00     0.031 C 
ATOM     62  C   UNL A   1      43.143  28.173  33.302  1.00  0.00     0.034 A 
BRANCH  49  63
ATOM     63  C   UNL A   1      39.276  32.424  35.639  1.00  0.00     0.023 A 
ATOM     64  C   UNL A   1      39.704  33.760  35.731  1.00  0.00     0.031 A 
ATOM     65  C   UNL A   1      38.490  31.911  36.687  1.00  0.00     0.131 A 
ATOM     66  C   UNL A   1      39.400  34.516  36.874  1.00  0.00     0.055 A 
ATOM     67  C   UNL A   1      38.128  32.692  37.787  1.00  0.00     0.041 A 
ATOM     68  F   UNL A   1      38.071  30.636  36.666  1.00  0.00    -0.206 F 
ATOM     69  C   UNL A   1      38.596  33.997  37.892  1.00  0.00     0.022 A 
BRANCH  66  70
ATOM     70  S   UNL A   1      40.182  36.141  37.077  1.00  0.00     0.124 S 
ATOM     71  O   UNL A   1      39.488  36.657  38.255  1.00  0.00    -0.237 OA
ATOM     72  O   UNL A   1      41.586  35.795  37.262  1.00  0.00    -0.237 OA
ATOM     73  O   UNL A   1      39.868  36.830  35.827  1.00  0.00    -0.744 OA
ENDBRANCH  66  70
ENDBRANCH  49  63
BRANCH  50  74
ATOM     74  C   UNL A   1      41.640  27.003  27.544  1.00  0.00     0.023 A 
ATOM     75  C   UNL A   1      41.426  25.617  27.478  1.00  0.00     0.031 A 
ATOM     76  C   UNL A   1      42.295  27.621  26.463  1.00  0.00     0.131 A 
ATOM     77  C   UNL A   1      41.908  24.887  26.379  1.00  0.00     0.055 A 
ATOM     78  C   UNL A   1      42.726  26.899  25.350  1.00  0.00     0.041 A 
ATOM     79  F   UNL A   1      42.526  28.944  26.476  1.00  0.00    -0.206 F 
ATOM     80  C   UNL A   1      42.546  25.520  25.310  1.00  0.00     0.022 A 
BRANCH  77  81
ATOM     81  S   UNL A   1      41.771  23.079  26.411  1.00  0.00     0.124 S 
ATOM     82  O   UNL A   1      42.482  22.748  27.642  1.00  0.00    -0.237 OA
ATOM     83  O   UNL A   1      40.325  22.886  26.433  1.00  0.00    -0.237 OA
ATOM     84  O   UNL A   1      42.434  22.666  25.176  1.00  0.00    -0.744 OA
ENDBRANCH  77  81
ENDBRANCH  50  74
BRANCH  62  85
ATOM     85  C   UNL A   1      44.286  27.451  33.976  1.00  0.00     0.023 A 
ATOM     86  C   UNL A   1      45.591  27.976  33.987  1.00  0.00     0.031 A 
ATOM     87  C   UNL A   1      44.069  26.207  34.595  1.00  0.00     0.131 A 
ATOM     88  C   UNL A   1      46.639  27.231  34.549  1.00  0.00     0.055 A 
ATOM     89  C   UNL A   1      45.105  25.499  35.208  1.00  0.00     0.041 A 
ATOM     90  F   UNL A   1      42.845  25.656  34.613  1.00  0.00    -0.206 F 
ATOM     91  C   UNL A   1      46.402  26.005  35.174  1.00  0.00     0.022 A 
BRANCH  88  92
ATOM     92  S   UNL A   1      48.338  27.841  34.360  1.00  0.00     0.124 S 
ATOM     93  O   UNL A   1      49.117  26.612  34.476  1.00  0.00    -0.237 OA
ATOM     94  O   UNL A   1      48.305  28.452  33.035  1.00  0.00    -0.237 OA
ATOM     95  O   UNL A   1      48.490  28.779  35.471  1.00  0.00    -0.744 OA
ENDBRANCH  88  92
ENDBRANCH  62  85
ENDBRANCH  36  37
ENDBRANCH  29  31
ENDBRANCH  28  29
ENDBRANCH  27  28
ENDBRANCH  26  27
ENDBRANCH   1  26
TORSDOF 20
ENDMDL
MODEL 3
REMARK VINA RESULT:     -11.2      1.011      7.438
REMARK SMILES COc1cccc(NC(=O)[C@@H]2[C@@H](C(=O)OCCOCCOC(=O)c3ccc(-c4c5nc(c(-c6cc(S(=O)(=O)[O-])ccc6F)c6ccc([nH]6)c(-c6cc(S(=O)(=O)[O-])ccc6F)c6nc(c(-c7cc(S(=O)(=O)[O-])ccc7F)c7ccc4[nH]7)C=C6)C=C5)cc3)[C@H]3C=C[C@@H]2C3)c1
REMARK SMILES IDX 18 1 17 2 16 3 15 4 13 5 14 6 12 7 11 8 90 9 87 10 89 11
REMARK SMILES IDX 91 12 88 13 9 14 8 15 10 17 7 18 3 19 4 20 92 21 5 22 6 23
REMARK SMILES IDX 2 24 1 25 19 26 20 27 21 28 22 29 23 30 24 31 25 32 86 33
REMARK SMILES IDX 26 34 85 35 27 36 28 37 29 38 79 39 30 40 84 41 78 42 80 43
REMARK SMILES IDX 31 44 83 45 77 46 76 47 32 49 64 50 44 51 63 52 45 53 48 54
REMARK SMILES IDX 62 55 81 56 46 57 47 58 61 60 82 61 49 62 33 63 34 64 42 65
REMARK SMILES IDX 35 66 41 67 43 68 40 69 36 70 37 71 38 72 39 73 65 74 66 75
REMARK SMILES IDX 74 76 67 77 73 78 75 79 72 80 68 81 69 82 70 83 71 84 50 85
REMARK SMILES IDX 51 86 59 87 52 88 58 89 60 90 57 91 53 92 54 93 55 94 56 95
REMARK H PARENT 8 16 80 48 48 59
REMARK Flexibility Score: inf
ROOT
ATOM      1  O   UNL A   1      32.437  30.852  27.452  1.00  0.00    -0.374 OA
ENDROOT
BRANCH   1   2
ATOM      2  C   UNL A   1      33.593  30.236  26.891  1.00  0.00     0.202 C 
BRANCH   2   3
ATOM      3  C   UNL A   1      33.780  28.735  27.118  1.00  0.00     0.261 C 
BRANCH   3   4
ATOM      4  O   UNL A   1      34.246  28.055  25.942  1.00  0.00    -0.463 OA
BRANCH   4   5
ATOM      5  C   UNL A   1      33.381  28.066  24.901  1.00  0.00     0.310 C 
ATOM      6  O   UNL A   1      32.994  29.073  24.317  1.00  0.00    -0.252 OA
BRANCH   5   7
ATOM      7  C   UNL A   1      32.944  26.696  24.453  1.00  0.00     0.119 C 
ATOM      8  C   UNL A   1      31.488  26.795  23.923  1.00  0.00     0.100 C 
ATOM      9  C   UNL A   1      30.844  25.494  24.460  1.00  0.00     0.025 C 
ATOM     10  C   UNL A   1      32.842  25.539  25.475  1.00  0.00     0.027 C 
ATOM     11  C   UNL A   1      30.588  25.757  25.928  1.00  0.00    -0.027 C 
ATOM     12  C   UNL A   1      32.039  24.545  24.621  1.00  0.00     0.017 C 
ATOM     13  C   UNL A   1      31.786  25.808  26.530  1.00  0.00    -0.027 C 
BRANCH   8  14
ATOM     14  C   UNL A   1      31.430  26.925  22.422  1.00  0.00     0.228 C 
ATOM     15  N   UNL A   1      30.611  27.823  21.796  1.00  0.00    -0.326 N 
ATOM     16  H   UNL A   1      30.770  27.860  20.826  1.00  0.00     0.169 HD
ATOM     17  O   UNL A   1      32.199  26.267  21.711  1.00  0.00    -0.274 OA
BRANCH  15  18
ATOM     18  C   UNL A   1      29.591  28.709  22.209  1.00  0.00     0.044 A 
ATOM     19  C   UNL A   1      28.848  31.027  22.280  1.00  0.00     0.120 A 
ATOM     20  C   UNL A   1      27.760  30.681  23.071  1.00  0.00     0.046 A 
ATOM     21  C   UNL A   1      29.774  30.059  21.878  1.00  0.00     0.072 A 
ATOM     22  C   UNL A   1      27.532  29.343  23.354  1.00  0.00     0.006 A 
ATOM     23  C   UNL A   1      28.416  28.363  22.881  1.00  0.00     0.026 A 
BRANCH  19  24
ATOM     24  O   UNL A   1      28.988  32.346  21.945  1.00  0.00    -0.497 OA
ATOM     25  C   UNL A   1      27.952  32.753  21.051  1.00  0.00     0.278 C 
ENDBRANCH  19  24
ENDBRANCH  15  18
ENDBRANCH   8  14
ENDBRANCH   5   7
ENDBRANCH   4   5
ENDBRANCH   3   4
ENDBRANCH   2   3
ENDBRANCH   1   2
BRANCH   1  26
ATOM     26  C   UNL A   1      31.740  31.827  26.681  1.00  0.00     0.202 C 
BRANCH  26  27
ATOM     27  C   UNL A   1      32.088  33.307  26.882  1.00  0.00     0.261 C 
BRANCH  27  28
ATOM     28  O   UNL A   1      32.370  33.660  28.246  1.00  0.00    -0.460 OA
BRANCH  28  29
ATOM     29  C   UNL A   1      33.480  34.423  28.403  1.00  0.00     0.338 C 
ATOM     30  O   UNL A   1      33.533  35.649  28.391  1.00  0.00    -0.246 OA
BRANCH  29  31
ATOM     31  C   UNL A   1      34.638  33.593  28.772  1.00  0.00     0.060 A 
ATOM     32  C   UNL A   1      34.396  32.462  29.564  1.00  0.00     0.016 A 
ATOM     33  C   UNL A   1      35.944  33.969  28.451  1.00  0.00     0.016 A 
ATOM     34  C   UNL A   1      35.462  31.731  30.081  1.00  0.00     0.010 A 
ATOM     35  C   UNL A   1      37.015  33.237  28.980  1.00  0.00     0.010 A 
ATOM     36  C   UNL A   1      36.779  32.139  29.828  1.00  0.00    -0.014 A 
BRANCH  36  37
ATOM     37  C   UNL A   1      37.888  31.501  30.581  1.00  0.00     0.031 A 
ATOM     38  C   UNL A   1      38.726  30.455  29.898  1.00  0.00     0.074 A 
ATOM     39  C   UNL A   1      38.176  31.892  31.835  1.00  0.00     0.049 A 
ATOM     40  N   UNL A   1      39.749  29.780  30.355  1.00  0.00    -0.248 NA
ATOM     41  C   UNL A   1      38.359  30.125  28.512  1.00  0.00     0.031 C 
ATOM     42  C   UNL A   1      37.463  32.928  32.580  1.00  0.00     0.029 A 
ATOM     43  N   UNL A   1      39.151  31.464  32.703  1.00  0.00    -0.354 N 
ATOM     44  C   UNL A   1      40.149  28.944  29.317  1.00  0.00     0.074 A 
ATOM     45  C   UNL A   1      39.232  29.173  28.220  1.00  0.00     0.031 C 
ATOM     46  C   UNL A   1      38.024  33.056  33.795  1.00  0.00     0.029 A 
ATOM     47  C   UNL A   1      39.113  32.090  33.926  1.00  0.00     0.049 A 
ATOM     48  H   UNL A   1      39.813  30.774  32.470  1.00  0.00     0.167 HD
ATOM     49  C   UNL A   1      41.188  28.074  29.281  1.00  0.00     0.034 A 
ATOM     50  C   UNL A   1      39.863  31.893  35.030  1.00  0.00     0.034 A 
ATOM     51  C   UNL A   1      42.089  27.854  30.386  1.00  0.00     0.049 A 
ATOM     52  C   UNL A   1      40.963  30.858  34.991  1.00  0.00     0.074 A 
ATOM     53  C   UNL A   1      43.190  27.016  30.448  1.00  0.00     0.029 A 
ATOM     54  N   UNL A   1      41.986  28.461  31.631  1.00  0.00    -0.354 N 
ATOM     55  N   UNL A   1      41.342  30.090  33.995  1.00  0.00    -0.248 NA
ATOM     56  C   UNL A   1      41.739  30.674  36.223  1.00  0.00     0.031 C 
ATOM     57  C   UNL A   1      43.705  27.063  31.748  1.00  0.00     0.029 A 
ATOM     58  C   UNL A   1      42.977  27.989  32.478  1.00  0.00     0.049 A 
ATOM     59  H   UNL A   1      41.307  29.132  31.876  1.00  0.00     0.167 HD
ATOM     60  C   UNL A   1      42.425  29.356  34.475  1.00  0.00     0.074 A 
ATOM     61  C   UNL A   1      42.644  29.784  35.841  1.00  0.00     0.031 C 
ATOM     62  C   UNL A   1      43.175  28.416  33.843  1.00  0.00     0.034 A 
BRANCH  49  63
ATOM     63  C   UNL A   1      41.367  27.258  28.023  1.00  0.00     0.023 A 
ATOM     64  C   UNL A   1      41.005  25.901  27.957  1.00  0.00     0.031 A 
ATOM     65  C   UNL A   1      41.932  27.845  26.876  1.00  0.00     0.131 A 
ATOM     66  C   UNL A   1      41.271  25.161  26.794  1.00  0.00     0.055 A 
ATOM     67  C   UNL A   1      42.125  27.122  25.697  1.00  0.00     0.041 A 
ATOM     68  F   UNL A   1      42.318  29.130  26.886  1.00  0.00    -0.206 F 
ATOM     69  C   UNL A   1      41.808  25.768  25.656  1.00  0.00     0.022 A 
BRANCH  66  70
ATOM     70  S   UNL A   1      41.032  23.363  26.833  1.00  0.00     0.124 S 
ATOM     71  O   UNL A   1      39.605  23.249  26.539  1.00  0.00    -0.237 OA
ATOM     72  O   UNL A   1      41.938  22.901  25.788  1.00  0.00    -0.237 OA
ATOM     73  O   UNL A   1      41.411  22.996  28.195  1.00  0.00    -0.744 OA
ENDBRANCH  66  70
ENDBRANCH  49  63
BRANCH  50  74
ATOM     74  C   UNL A   1      39.589  32.658  36.281  1.00  0.00     0.023 A 
ATOM     75  C   UNL A   1      38.669  32.190  37.232  1.00  0.00     0.031 A 
ATOM     76  C   UNL A   1      40.199  33.904  36.511  1.00  0.00     0.131 A 
ATOM     77  C   UNL A   1      38.346  32.986  38.343  1.00  0.00     0.055 A 
ATOM     78  C   UNL A   1      39.914  34.668  37.643  1.00  0.00     0.041 A 
ATOM     79  F   UNL A   1      41.086  34.398  35.633  1.00  0.00    -0.206 F 
ATOM     80  C   UNL A   1      38.972  34.216  38.561  1.00  0.00     0.022 A 
BRANCH  77  81
ATOM     81  S   UNL A   1      37.025  32.431  39.455  1.00  0.00     0.124 S 
ATOM     82  O   UNL A   1      35.834  32.679  38.649  1.00  0.00    -0.237 OA
ATOM     83  O   UNL A   1      37.377  31.030  39.666  1.00  0.00    -0.237 OA
ATOM     84  O   UNL A   1      37.180  33.293  40.624  1.00  0.00    -0.744 OA
ENDBRANCH  77  81
ENDBRANCH  50  74
BRANCH  62  85
ATOM     85  C   UNL A   1      44.328  27.825  34.619  1.00  0.00     0.023 A 
ATOM     86  C   UNL A   1      44.219  26.592  35.286  1.00  0.00     0.031 A 
ATOM     87  C   UNL A   1      45.548  28.520  34.711  1.00  0.00     0.131 A 
ATOM     88  C   UNL A   1      45.286  26.122  36.066  1.00  0.00     0.055 A 
ATOM     89  C   UNL A   1      46.628  28.017  35.438  1.00  0.00     0.041 A 
ATOM     90  F   UNL A   1      45.709  29.703  34.097  1.00  0.00    -0.206 F 
ATOM     91  C   UNL A   1      46.496  26.818  36.132  1.00  0.00     0.022 A 
BRANCH  88  92
ATOM     92  S   UNL A   1      45.037  24.636  37.078  1.00  0.00     0.124 S 
ATOM     93  O   UNL A   1      44.047  25.092  38.049  1.00  0.00    -0.237 OA
ATOM     94  O   UNL A   1      44.565  23.666  36.095  1.00  0.00    -0.237 OA
ATOM     95  O   UNL A   1      46.365  24.368  37.626  1.00  0.00    -0.744 OA
ENDBRANCH  88  92
ENDBRANCH  62  85
ENDBRANCH  36  37
ENDBRANCH  29  31
ENDBRANCH  28  29
ENDBRANCH  27  28
ENDBRANCH  26  27
ENDBRANCH   1  26
TORSDOF 20
ENDMDL
