MODEL 1
REMARK VINA RESULT:      -9.6      0.000      0.000
REMARK SMILES COc1cc(C(C)C)cc([C@H]([NH3+])C(=O)OCCOCCOC(=O)c2ccc(-c3c4nc(c(-c5cc(S(=O)(=O)[O-])ccc5F)c5ccc([nH]5)c(-c5cc(S(=O)(=O)[O-])ccc5F)c5nc(c(-c6cc(S(=O)(=O)[O-])ccc6F)c6ccc3[nH]6)C=C5)C=C4)cc2)c1O
REMARK SMILES IDX 19 1 18 2 17 3 16 4 15 5 13 6 14 7 11 8 10 9 3 10 4 11 87 12
REMARK SMILES IDX 5 13 9 14 2 15 1 16 88 17 6 19 7 20 8 21 12 22 20 26 21 27
REMARK SMILES IDX 22 28 23 29 24 30 25 31 86 32 26 33 85 34 27 35 28 36 29 37
REMARK SMILES IDX 79 38 30 39 84 40 78 41 80 42 31 43 83 44 77 45 76 46 32 48
REMARK SMILES IDX 64 49 44 50 63 51 45 52 48 53 62 54 81 55 46 56 47 57 61 59
REMARK SMILES IDX 82 60 49 61 33 62 34 63 42 64 35 65 41 66 43 67 40 68 36 69
REMARK SMILES IDX 37 70 38 71 39 72 65 73 66 74 74 75 67 76 73 77 75 78 72 79
REMARK SMILES IDX 68 80 69 81 70 82 71 83 50 84 51 85 59 86 52 87 58 88 60 89
REMARK SMILES IDX 57 90 53 91 54 92 55 93 56 94
REMARK H PARENT 88 18 12 23 12 24 12 25 80 47 48 58
REMARK Flexibility Score: inf
ROOT
ATOM      1  C   UNL A   1      34.017  34.653  28.717  1.00  0.00     0.202 C 
ENDROOT
BRANCH   1   2
ATOM      2  O   UNL A   1      33.284  34.688  29.941  1.00  0.00    -0.374 OA
BRANCH   2   3
ATOM      3  C   UNL A   1      32.940  35.962  30.483  1.00  0.00     0.202 C 
BRANCH   3   4
ATOM      4  C   UNL A   1      32.452  35.993  31.933  1.00  0.00     0.261 C 
BRANCH   4   5
ATOM      5  O   UNL A   1      32.829  34.801  32.635  1.00  0.00    -0.459 OA
BRANCH   5   6
ATOM      6  C   UNL A   1      34.104  34.783  33.135  1.00  0.00     0.369 C 
ATOM      7  O   UNL A   1      34.675  35.746  33.636  1.00  0.00    -0.245 OA
BRANCH   6   8
ATOM      8  C   UNL A   1      34.749  33.391  32.966  1.00  0.00     0.327 C 
BRANCH   8   9
ATOM      9  C   UNL A   1      36.252  33.540  32.910  1.00  0.00     0.067 A 
ATOM     10  C   UNL A   1      38.373  33.979  34.029  1.00  0.00     0.161 A 
ATOM     11  C   UNL A   1      39.004  34.007  32.777  1.00  0.00     0.054 A 
ATOM     12  C   UNL A   1      37.001  33.716  34.082  1.00  0.00     0.167 A 
ATOM     13  C   UNL A   1      38.290  33.795  31.587  1.00  0.00    -0.041 A 
ATOM     14  C   UNL A   1      36.912  33.575  31.672  1.00  0.00     0.018 A 
BRANCH  10  15
ATOM     15  O   UNL A   1      39.219  34.189  35.084  1.00  0.00    -0.493 OA
ATOM     16  C   UNL A   1      39.706  35.508  35.300  1.00  0.00     0.278 C 
ENDBRANCH  10  15
BRANCH  12  17
ATOM     17  O   UNL A   1      36.338  33.566  35.269  1.00  0.00    -0.504 OA
ATOM     18  H   UNL A   1      35.887  34.293  35.649  1.00  0.00     0.293 HD
ENDBRANCH  12  17
BRANCH  13  19
ATOM     19  C   UNL A   1      38.949  33.820  30.220  1.00  0.00     0.013 C 
ATOM     20  C   UNL A   1      37.969  33.415  29.120  1.00  0.00     0.012 C 
ATOM     21  C   UNL A   1      39.593  35.176  29.925  1.00  0.00     0.012 C 
ENDBRANCH  13  19
ENDBRANCH   8   9
BRANCH   8  22
ATOM     22  N   UNL A   1      34.207  32.642  31.800  1.00  0.00    -0.342 N 
ATOM     23  H   UNL A   1      33.705  31.817  32.128  1.00  0.00     0.345 HD
ATOM     24  H   UNL A   1      34.975  32.354  31.194  1.00  0.00     0.345 HD
ATOM     25  H   UNL A   1      33.568  33.241  31.277  1.00  0.00     0.345 HD
ENDBRANCH   8  22
ENDBRANCH   6   8
ENDBRANCH   5   6
ENDBRANCH   4   5
ENDBRANCH   3   4
ENDBRANCH   2   3
ENDBRANCH   1   2
BRANCH   1  26
ATOM     26  C   UNL A   1      34.131  33.311  27.983  1.00  0.00     0.261 C 
BRANCH  26  27
ATOM     27  O   UNL A   1      34.864  32.312  28.715  1.00  0.00    -0.460 OA
BRANCH  27  28
ATOM     28  C   UNL A   1      34.697  31.047  28.263  1.00  0.00     0.338 C 
ATOM     29  O   UNL A   1      33.733  30.607  27.641  1.00  0.00    -0.246 OA
BRANCH  28  30
ATOM     30  C   UNL A   1      35.925  30.263  28.465  1.00  0.00     0.060 A 
ATOM     31  C   UNL A   1      36.115  29.661  29.715  1.00  0.00     0.016 A 
ATOM     32  C   UNL A   1      36.920  30.201  27.488  1.00  0.00     0.016 A 
ATOM     33  C   UNL A   1      37.322  29.029  30.010  1.00  0.00     0.010 A 
ATOM     34  C   UNL A   1      38.136  29.576  27.790  1.00  0.00     0.010 A 
ATOM     35  C   UNL A   1      38.354  29.016  29.063  1.00  0.00    -0.014 A 
BRANCH  35  36
ATOM     36  C   UNL A   1      39.708  28.552  29.456  1.00  0.00     0.031 A 
ATOM     37  C   UNL A   1      40.446  29.297  30.534  1.00  0.00     0.074 A 
ATOM     38  C   UNL A   1      40.265  27.479  28.867  1.00  0.00     0.049 A 
ATOM     39  N   UNL A   1      41.663  29.120  30.983  1.00  0.00    -0.248 NA
ATOM     40  C   UNL A   1      39.715  30.391  31.192  1.00  0.00     0.031 C 
ATOM     41  C   UNL A   1      39.626  26.652  27.844  1.00  0.00     0.029 A 
ATOM     42  N   UNL A   1      41.503  26.909  29.034  1.00  0.00    -0.354 N 
ATOM     43  C   UNL A   1      41.849  30.090  31.964  1.00  0.00     0.074 A 
ATOM     44  C   UNL A   1      40.628  30.864  32.027  1.00  0.00     0.031 C 
ATOM     45  C   UNL A   1      40.487  25.695  27.456  1.00  0.00     0.029 A 
ATOM     46  C   UNL A   1      41.749  25.865  28.172  1.00  0.00     0.049 A 
ATOM     47  H   UNL A   1      42.152  27.216  29.707  1.00  0.00     0.167 HD
ATOM     48  C   UNL A   1      42.939  30.309  32.738  1.00  0.00     0.034 A 
ATOM     49  C   UNL A   1      42.877  25.156  27.961  1.00  0.00     0.034 A 
ATOM     50  C   UNL A   1      44.148  29.526  32.662  1.00  0.00     0.049 A 
ATOM     51  C   UNL A   1      44.104  25.466  28.786  1.00  0.00     0.074 A 
ATOM     52  C   UNL A   1      45.297  29.638  33.427  1.00  0.00     0.029 A 
ATOM     53  N   UNL A   1      44.372  28.495  31.760  1.00  0.00    -0.354 N 
ATOM     54  N   UNL A   1      44.261  26.371  29.725  1.00  0.00    -0.248 NA
ATOM     55  C   UNL A   1      45.301  24.654  28.530  1.00  0.00     0.031 C 
ATOM     56  C   UNL A   1      46.240  28.728  32.937  1.00  0.00     0.029 A 
ATOM     57  C   UNL A   1      45.653  27.991  31.921  1.00  0.00     0.049 A 
ATOM     58  H   UNL A   1      43.717  28.169  31.102  1.00  0.00     0.167 HD
ATOM     59  C   UNL A   1      45.565  26.214  30.190  1.00  0.00     0.074 A 
ATOM     60  C   UNL A   1      46.145  25.122  29.438  1.00  0.00     0.031 C 
ATOM     61  C   UNL A   1      46.221  26.905  31.157  1.00  0.00     0.034 A 
BRANCH  48  62
ATOM     62  C   UNL A   1      42.895  31.479  33.690  1.00  0.00     0.023 A 
ATOM     63  C   UNL A   1      42.645  31.317  35.063  1.00  0.00     0.031 A 
ATOM     64  C   UNL A   1      43.102  32.785  33.207  1.00  0.00     0.131 A 
ATOM     65  C   UNL A   1      42.550  32.444  35.895  1.00  0.00     0.055 A 
ATOM     66  C   UNL A   1      43.076  33.895  34.053  1.00  0.00     0.041 A 
ATOM     67  F   UNL A   1      43.323  33.002  31.901  1.00  0.00    -0.206 F 
ATOM     68  C   UNL A   1      42.787  33.729  35.403  1.00  0.00     0.022 A 
BRANCH  65  69
ATOM     69  S   UNL A   1      41.993  32.217  37.606  1.00  0.00     0.124 S 
ATOM     70  O   UNL A   1      42.577  30.920  37.938  1.00  0.00    -0.237 OA
ATOM     71  O   UNL A   1      42.575  33.372  38.283  1.00  0.00    -0.237 OA
ATOM     72  O   UNL A   1      40.536  32.227  37.497  1.00  0.00    -0.744 OA
ENDBRANCH  65  69
ENDBRANCH  48  62
BRANCH  49  73
ATOM     73  C   UNL A   1      42.930  24.125  26.882  1.00  0.00     0.023 A 
ATOM     74  C   UNL A   1      42.290  22.884  27.025  1.00  0.00     0.031 A 
ATOM     75  C   UNL A   1      43.683  24.348  25.714  1.00  0.00     0.131 A 
ATOM     76  C   UNL A   1      42.455  21.896  26.041  1.00  0.00     0.055 A 
ATOM     77  C   UNL A   1      43.798  23.383  24.714  1.00  0.00     0.041 A 
ATOM     78  F   UNL A   1      44.316  25.518  25.526  1.00  0.00    -0.206 F 
ATOM     79  C   UNL A   1      43.194  22.141  24.881  1.00  0.00     0.022 A 
BRANCH  76  80
ATOM     80  S   UNL A   1      41.770  20.244  26.345  1.00  0.00     0.124 S 
ATOM     81  O   UNL A   1      42.241  19.972  27.699  1.00  0.00    -0.237 OA
ATOM     82  O   UNL A   1      40.338  20.481  26.199  1.00  0.00    -0.237 OA
ATOM     83  O   UNL A   1      42.376  19.427  25.297  1.00  0.00    -0.744 OA
ENDBRANCH  76  80
ENDBRANCH  49  73
BRANCH  61  84
ATOM     84  C   UNL A   1      47.626  26.463  31.489  1.00  0.00     0.023 A 
ATOM     85  C   UNL A   1      48.746  26.988  30.819  1.00  0.00     0.031 A 
ATOM     86  C   UNL A   1      47.844  25.506  32.495  1.00  0.00     0.131 A 
ATOM     87  C   UNL A   1      50.030  26.516  31.133  1.00  0.00     0.055 A 
ATOM     88  C   UNL A   1      49.128  25.083  32.842  1.00  0.00     0.041 A 
ATOM     89  F   UNL A   1      46.811  24.972  33.165  1.00  0.00    -0.206 F 
ATOM     90  C   UNL A   1      50.229  25.580  32.152  1.00  0.00     0.022 A 
BRANCH  87  91
ATOM     91  S   UNL A   1      51.437  27.087  30.140  1.00  0.00     0.124 S 
ATOM     92  O   UNL A   1      50.885  27.060  28.789  1.00  0.00    -0.237 OA
ATOM     93  O   UNL A   1      51.697  28.409  30.697  1.00  0.00    -0.237 OA
ATOM     94  O   UNL A   1      52.473  26.089  30.406  1.00  0.00    -0.744 OA
ENDBRANCH  87  91
ENDBRANCH  61  84
ENDBRANCH  35  36
ENDBRANCH  28  30
ENDBRANCH  27  28
ENDBRANCH  26  27
ENDBRANCH   1  26
TORSDOF 22
ENDMDL
MODEL 2
REMARK VINA RESULT:      -9.6      2.212      2.847
REMARK SMILES COc1cc(C(C)C)cc([C@H]([NH3+])C(=O)OCCOCCOC(=O)c2ccc(-c3c4nc(c(-c5cc(S(=O)(=O)[O-])ccc5F)c5ccc([nH]5)c(-c5cc(S(=O)(=O)[O-])ccc5F)c5nc(c(-c6cc(S(=O)(=O)[O-])ccc6F)c6ccc3[nH]6)C=C5)C=C4)cc2)c1O
REMARK SMILES IDX 19 1 18 2 17 3 16 4 15 5 13 6 14 7 11 8 10 9 3 10 4 11 87 12
REMARK SMILES IDX 5 13 9 14 2 15 1 16 88 17 6 19 7 20 8 21 12 22 20 26 21 27
REMARK SMILES IDX 22 28 23 29 24 30 25 31 86 32 26 33 85 34 27 35 28 36 29 37
REMARK SMILES IDX 79 38 30 39 84 40 78 41 80 42 31 43 83 44 77 45 76 46 32 48
REMARK SMILES IDX 64 49 44 50 63 51 45 52 48 53 62 54 81 55 46 56 47 57 61 59
REMARK SMILES IDX 82 60 49 61 33 62 34 63 42 64 35 65 41 66 43 67 40 68 36 69
REMARK SMILES IDX 37 70 38 71 39 72 65 73 66 74 74 75 67 76 73 77 75 78 72 79
REMARK SMILES IDX 68 80 69 81 70 82 71 83 50 84 51 85 59 86 52 87 58 88 60 89
REMARK SMILES IDX 57 90 53 91 54 92 55 93 56 94
REMARK H PARENT 88 18 12 23 12 24 12 25 80 47 48 58
REMARK Flexibility Score: inf
ROOT
ATOM      1  C   UNL A   1      33.830  34.421  28.515  1.00  0.00     0.202 C 
ENDROOT
BRANCH   1   2
ATOM      2  O   UNL A   1      33.029  34.741  29.652  1.00  0.00    -0.374 OA
BRANCH   2   3
ATOM      3  C   UNL A   1      32.923  36.111  30.036  1.00  0.00     0.202 C 
BRANCH   3   4
ATOM      4  C   UNL A   1      32.679  36.401  31.519  1.00  0.00     0.261 C 
BRANCH   4   5
ATOM      5  O   UNL A   1      32.791  35.210  32.308  1.00  0.00    -0.459 OA
BRANCH   5   6
ATOM      6  C   UNL A   1      33.902  35.128  33.106  1.00  0.00     0.369 C 
ATOM      7  O   UNL A   1      34.418  36.076  33.690  1.00  0.00    -0.245 OA
BRANCH   6   8
ATOM      8  C   UNL A   1      34.444  33.684  33.159  1.00  0.00     0.327 C 
BRANCH   8   9
ATOM      9  C   UNL A   1      35.942  33.719  33.363  1.00  0.00     0.067 A 
ATOM     10  C   UNL A   1      38.176  34.208  32.521  1.00  0.00     0.161 A 
ATOM     11  C   UNL A   1      38.718  33.603  33.664  1.00  0.00     0.054 A 
ATOM     12  C   UNL A   1      36.785  34.283  32.397  1.00  0.00     0.167 A 
ATOM     13  C   UNL A   1      37.899  33.064  34.670  1.00  0.00    -0.041 A 
ATOM     14  C   UNL A   1      36.513  33.120  34.497  1.00  0.00     0.018 A 
BRANCH  10  15
ATOM     15  O   UNL A   1      39.114  34.694  31.650  1.00  0.00    -0.493 OA
ATOM     16  C   UNL A   1      40.331  33.973  31.505  1.00  0.00     0.278 C 
ENDBRANCH  10  15
BRANCH  12  17
ATOM     17  O   UNL A   1      36.186  34.952  31.365  1.00  0.00    -0.504 OA
ATOM     18  H   UNL A   1      36.689  35.528  30.825  1.00  0.00     0.293 HD
ENDBRANCH  12  17
BRANCH  13  19
ATOM     19  C   UNL A   1      38.460  32.405  35.917  1.00  0.00     0.013 C 
ATOM     20  C   UNL A   1      37.945  33.083  37.185  1.00  0.00     0.012 C 
ATOM     21  C   UNL A   1      38.187  30.900  35.935  1.00  0.00     0.012 C 
ENDBRANCH  13  19
ENDBRANCH   8   9
BRANCH   8  22
ATOM     22  N   UNL A   1      34.049  32.875  31.973  1.00  0.00    -0.342 N 
ATOM     23  H   UNL A   1      33.060  32.636  32.039  1.00  0.00     0.345 HD
ATOM     24  H   UNL A   1      34.605  32.020  31.945  1.00  0.00     0.345 HD
ATOM     25  H   UNL A   1      34.212  33.416  31.123  1.00  0.00     0.345 HD
ENDBRANCH   8  22
ENDBRANCH   6   8
ENDBRANCH   5   6
ENDBRANCH   4   5
ENDBRANCH   3   4
ENDBRANCH   2   3
ENDBRANCH   1   2
BRANCH   1  26
ATOM     26  C   UNL A   1      35.018  33.470  28.714  1.00  0.00     0.261 C 
BRANCH  26  27
ATOM     27  O   UNL A   1      35.214  32.553  27.623  1.00  0.00    -0.460 OA
BRANCH  27  28
ATOM     28  C   UNL A   1      34.773  31.295  27.860  1.00  0.00     0.338 C 
ATOM     29  O   UNL A   1      33.633  30.869  27.691  1.00  0.00    -0.246 OA
BRANCH  28  30
ATOM     30  C   UNL A   1      35.897  30.412  28.206  1.00  0.00     0.060 A 
ATOM     31  C   UNL A   1      35.928  29.870  29.497  1.00  0.00     0.016 A 
ATOM     32  C   UNL A   1      36.956  30.200  27.321  1.00  0.00     0.016 A 
ATOM     33  C   UNL A   1      37.040  29.147  29.924  1.00  0.00     0.010 A 
ATOM     34  C   UNL A   1      38.076  29.483  27.756  1.00  0.00     0.010 A 
ATOM     35  C   UNL A   1      38.137  28.981  29.070  1.00  0.00    -0.014 A 
BRANCH  35  36
ATOM     36  C   UNL A   1      39.404  28.417  29.599  1.00  0.00     0.031 A 
ATOM     37  C   UNL A   1      40.032  29.052  30.810  1.00  0.00     0.074 A 
ATOM     38  C   UNL A   1      39.979  27.350  29.015  1.00  0.00     0.049 A 
ATOM     39  N   UNL A   1      41.170  28.778  31.395  1.00  0.00    -0.248 NA
ATOM     40  C   UNL A   1      39.277  30.145  31.441  1.00  0.00     0.031 C 
ATOM     41  C   UNL A   1      39.437  26.624  27.866  1.00  0.00     0.029 A 
ATOM     42  N   UNL A   1      41.154  26.700  29.298  1.00  0.00    -0.354 N 
ATOM     43  C   UNL A   1      41.276  29.674  32.455  1.00  0.00     0.074 A 
ATOM     44  C   UNL A   1      40.097  30.513  32.415  1.00  0.00     0.031 C 
ATOM     45  C   UNL A   1      40.292  25.644  27.527  1.00  0.00     0.029 A 
ATOM     46  C   UNL A   1      41.458  25.697  28.407  1.00  0.00     0.049 A 
ATOM     47  H   UNL A   1      41.724  26.928  30.068  1.00  0.00     0.167 HD
ATOM     48  C   UNL A   1      42.265  29.782  33.374  1.00  0.00     0.034 A 
ATOM     49  C   UNL A   1      42.566  24.937  28.293  1.00  0.00     0.034 A 
ATOM     50  C   UNL A   1      43.433  28.936  33.399  1.00  0.00     0.049 A 
ATOM     51  C   UNL A   1      43.690  25.125  29.286  1.00  0.00     0.074 A 
ATOM     52  C   UNL A   1      44.476  28.936  34.309  1.00  0.00     0.029 A 
ATOM     53  N   UNL A   1      43.721  27.950  32.465  1.00  0.00    -0.354 N 
ATOM     54  N   UNL A   1      43.768  25.962  30.296  1.00  0.00    -0.248 NA
ATOM     55  C   UNL A   1      44.868  24.262  29.129  1.00  0.00     0.031 C 
ATOM     56  C   UNL A   1      45.428  28.003  33.883  1.00  0.00     0.029 A 
ATOM     57  C   UNL A   1      44.943  27.363  32.754  1.00  0.00     0.049 A 
ATOM     58  H   UNL A   1      43.141  27.702  31.709  1.00  0.00     0.167 HD
ATOM     59  C   UNL A   1      44.991  25.701  30.910  1.00  0.00     0.074 A 
ATOM     60  C   UNL A   1      45.609  24.625  30.166  1.00  0.00     0.031 C 
ATOM     61  C   UNL A   1      45.550  26.294  31.997  1.00  0.00     0.034 A 
BRANCH  48  62
ATOM     62  C   UNL A   1      42.156  30.895  34.389  1.00  0.00     0.023 A 
ATOM     63  C   UNL A   1      42.373  32.240  34.048  1.00  0.00     0.031 A 
ATOM     64  C   UNL A   1      41.836  30.596  35.726  1.00  0.00     0.131 A 
ATOM     65  C   UNL A   1      42.324  33.230  35.042  1.00  0.00     0.055 A 
ATOM     66  C   UNL A   1      41.719  31.593  36.695  1.00  0.00     0.041 A 
ATOM     67  F   UNL A   1      41.640  29.326  36.113  1.00  0.00    -0.206 F 
ATOM     68  C   UNL A   1      41.976  32.918  36.358  1.00  0.00     0.022 A 
BRANCH  65  69
ATOM     69  S   UNL A   1      42.840  34.916  34.617  1.00  0.00     0.124 S 
ATOM     70  O   UNL A   1      41.561  35.545  34.295  1.00  0.00    -0.237 OA
ATOM     71  O   UNL A   1      43.483  35.369  35.846  1.00  0.00    -0.237 OA
ATOM     72  O   UNL A   1      43.736  34.724  33.478  1.00  0.00    -0.744 OA
ENDBRANCH  65  69
ENDBRANCH  48  62
BRANCH  49  73
ATOM     73  C   UNL A   1      42.707  23.971  27.163  1.00  0.00     0.023 A 
ATOM     74  C   UNL A   1      42.125  22.696  27.215  1.00  0.00     0.031 A 
ATOM     75  C   UNL A   1      43.488  24.294  26.038  1.00  0.00     0.131 A 
ATOM     76  C   UNL A   1      42.373  21.772  26.187  1.00  0.00     0.055 A 
ATOM     77  C   UNL A   1      43.685  23.392  24.992  1.00  0.00     0.041 A 
ATOM     78  F   UNL A   1      44.069  25.501  25.937  1.00  0.00    -0.206 F 
ATOM     79  C   UNL A   1      43.138  22.116  25.070  1.00  0.00     0.022 A 
BRANCH  76  80
ATOM     80  S   UNL A   1      41.759  20.076  26.376  1.00  0.00     0.124 S 
ATOM     81  O   UNL A   1      42.224  19.740  27.718  1.00  0.00    -0.237 OA
ATOM     82  O   UNL A   1      40.320  20.257  26.221  1.00  0.00    -0.237 OA
ATOM     83  O   UNL A   1      42.417  19.354  25.289  1.00  0.00    -0.744 OA
ENDBRANCH  76  80
ENDBRANCH  49  73
BRANCH  61  84
ATOM     84  C   UNL A   1      46.876  25.752  32.473  1.00  0.00     0.023 A 
ATOM     85  C   UNL A   1      46.962  24.804  33.507  1.00  0.00     0.031 A 
ATOM     86  C   UNL A   1      48.071  26.190  31.874  1.00  0.00     0.131 A 
ATOM     87  C   UNL A   1      48.220  24.359  33.944  1.00  0.00     0.055 A 
ATOM     88  C   UNL A   1      49.315  25.701  32.274  1.00  0.00     0.041 A 
ATOM     89  F   UNL A   1      48.047  27.094  30.883  1.00  0.00    -0.206 F 
ATOM     90  C   UNL A   1      49.395  24.789  33.321  1.00  0.00     0.022 A 
BRANCH  87  91
ATOM     91  S   UNL A   1      48.306  23.266  35.389  1.00  0.00     0.124 S 
ATOM     92  O   UNL A   1      46.960  23.385  35.940  1.00  0.00    -0.237 OA
ATOM     93  O   UNL A   1      48.637  21.979  34.787  1.00  0.00    -0.237 OA
ATOM     94  O   UNL A   1      49.365  23.858  36.205  1.00  0.00    -0.744 OA
ENDBRANCH  87  91
ENDBRANCH  61  84
ENDBRANCH  35  36
ENDBRANCH  28  30
ENDBRANCH  27  28
ENDBRANCH  26  27
ENDBRANCH   1  26
TORSDOF 22
ENDMDL
MODEL 3
REMARK VINA RESULT:      -9.6      4.024     10.098
REMARK SMILES COc1cc(C(C)C)cc([C@H]([NH3+])C(=O)OCCOCCOC(=O)c2ccc(-c3c4nc(c(-c5cc(S(=O)(=O)[O-])ccc5F)c5ccc([nH]5)c(-c5cc(S(=O)(=O)[O-])ccc5F)c5nc(c(-c6cc(S(=O)(=O)[O-])ccc6F)c6ccc3[nH]6)C=C5)C=C4)cc2)c1O
REMARK SMILES IDX 19 1 18 2 17 3 16 4 15 5 13 6 14 7 11 8 10 9 3 10 4 11 87 12
REMARK SMILES IDX 5 13 9 14 2 15 1 16 88 17 6 19 7 20 8 21 12 22 20 26 21 27
REMARK SMILES IDX 22 28 23 29 24 30 25 31 86 32 26 33 85 34 27 35 28 36 29 37
REMARK SMILES IDX 79 38 30 39 84 40 78 41 80 42 31 43 83 44 77 45 76 46 32 48
REMARK SMILES IDX 64 49 44 50 63 51 45 52 48 53 62 54 81 55 46 56 47 57 61 59
REMARK SMILES IDX 82 60 49 61 33 62 34 63 42 64 35 65 41 66 43 67 40 68 36 69
REMARK SMILES IDX 37 70 38 71 39 72 65 73 66 74 74 75 67 76 73 77 75 78 72 79
REMARK SMILES IDX 68 80 69 81 70 82 71 83 50 84 51 85 59 86 52 87 58 88 60 89
REMARK SMILES IDX 57 90 53 91 54 92 55 93 56 94
REMARK H PARENT 88 18 12 23 12 24 12 25 80 47 48 58
REMARK Flexibility Score: inf
ROOT
ATOM      1  C   UNL A   1      30.762  31.195  25.331  1.00  0.00     0.202 C 
ENDROOT
BRANCH   1   2
ATOM      2  O   UNL A   1      30.923  29.857  24.861  1.00  0.00    -0.374 OA
BRANCH   2   3
ATOM      3  C   UNL A   1      30.309  29.501  23.622  1.00  0.00     0.202 C 
BRANCH   3   4
ATOM      4  C   UNL A   1      31.238  29.082  22.480  1.00  0.00     0.261 C 
BRANCH   4   5
ATOM      5  O   UNL A   1      32.573  28.853  22.951  1.00  0.00    -0.459 OA
BRANCH   5   6
ATOM      6  C   UNL A   1      32.876  27.556  23.271  1.00  0.00     0.369 C 
ATOM      7  O   UNL A   1      32.562  26.577  22.601  1.00  0.00    -0.245 OA
BRANCH   6   8
ATOM      8  C   UNL A   1      33.649  27.476  24.604  1.00  0.00     0.327 C 
BRANCH   8   9
ATOM      9  C   UNL A   1      33.377  26.142  25.261  1.00  0.00     0.067 A 
ATOM     10  C   UNL A   1      31.889  24.665  26.503  1.00  0.00     0.161 A 
ATOM     11  C   UNL A   1      32.945  23.751  26.642  1.00  0.00     0.054 A 
ATOM     12  C   UNL A   1      32.112  25.844  25.786  1.00  0.00     0.167 A 
ATOM     13  C   UNL A   1      34.213  24.003  26.094  1.00  0.00    -0.041 A 
ATOM     14  C   UNL A   1      34.415  25.209  25.416  1.00  0.00     0.018 A 
BRANCH  10  15
ATOM     15  O   UNL A   1      30.719  24.256  27.084  1.00  0.00    -0.493 OA
ATOM     16  C   UNL A   1      30.284  22.922  26.850  1.00  0.00     0.278 C 
ENDBRANCH  10  15
BRANCH  12  17
ATOM     17  O   UNL A   1      31.105  26.729  25.517  1.00  0.00    -0.504 OA
ATOM     18  H   UNL A   1      30.331  26.732  26.043  1.00  0.00     0.293 HD
ENDBRANCH  12  17
BRANCH  13  19
ATOM     19  C   UNL A   1      35.371  23.031  26.229  1.00  0.00     0.013 C 
ATOM     20  C   UNL A   1      34.925  21.593  25.969  1.00  0.00     0.012 C 
ATOM     21  C   UNL A   1      36.548  23.424  25.336  1.00  0.00     0.012 C 
ENDBRANCH  13  19
ENDBRANCH   8   9
BRANCH   8  22
ATOM     22  N   UNL A   1      33.361  28.625  25.507  1.00  0.00    -0.342 N 
ATOM     23  H   UNL A   1      34.197  28.853  26.045  1.00  0.00     0.345 HD
ATOM     24  H   UNL A   1      32.605  28.375  26.144  1.00  0.00     0.345 HD
ATOM     25  H   UNL A   1      33.085  29.434  24.951  1.00  0.00     0.345 HD
ENDBRANCH   8  22
ENDBRANCH   6   8
ENDBRANCH   5   6
ENDBRANCH   4   5
ENDBRANCH   3   4
ENDBRANCH   2   3
ENDBRANCH   1   2
BRANCH   1  26
ATOM     26  C   UNL A   1      31.278  31.531  26.736  1.00  0.00     0.261 C 
BRANCH  26  27
ATOM     27  O   UNL A   1      32.683  31.277  26.913  1.00  0.00    -0.460 OA
BRANCH  27  28
ATOM     28  C   UNL A   1      33.378  32.309  27.447  1.00  0.00     0.338 C 
ATOM     29  O   UNL A   1      32.957  33.438  27.683  1.00  0.00    -0.246 OA
BRANCH  28  30
ATOM     30  C   UNL A   1      34.710  31.860  27.883  1.00  0.00     0.060 A 
ATOM     31  C   UNL A   1      34.848  30.528  28.293  1.00  0.00     0.016 A 
ATOM     32  C   UNL A   1      35.781  32.750  27.988  1.00  0.00     0.016 A 
ATOM     33  C   UNL A   1      36.047  30.089  28.850  1.00  0.00     0.010 A 
ATOM     34  C   UNL A   1      36.980  32.310  28.559  1.00  0.00     0.010 A 
ATOM     35  C   UNL A   1      37.108  30.987  29.022  1.00  0.00    -0.014 A 
BRANCH  35  36
ATOM     36  C   UNL A   1      38.292  30.583  29.821  1.00  0.00     0.031 A 
ATOM     37  C   UNL A   1      39.244  29.569  29.247  1.00  0.00     0.074 A 
ATOM     38  C   UNL A   1      38.520  31.120  31.033  1.00  0.00     0.049 A 
ATOM     39  N   UNL A   1      40.294  29.013  29.794  1.00  0.00    -0.248 NA
ATOM     40  C   UNL A   1      38.969  29.118  27.874  1.00  0.00     0.031 C 
ATOM     41  C   UNL A   1      37.693  32.145  31.670  1.00  0.00     0.029 A 
ATOM     42  N   UNL A   1      39.507  30.866  31.953  1.00  0.00    -0.354 N 
ATOM     43  C   UNL A   1      40.799  28.136  28.838  1.00  0.00     0.074 A 
ATOM     44  C   UNL A   1      39.924  28.219  27.688  1.00  0.00     0.031 C 
ATOM     45  C   UNL A   1      38.194  32.414  32.889  1.00  0.00     0.029 A 
ATOM     46  C   UNL A   1      39.350  31.554  33.133  1.00  0.00     0.049 A 
ATOM     47  H   UNL A   1      40.257  30.251  31.783  1.00  0.00     0.167 HD
ATOM     48  C   UNL A   1      41.891  27.339  28.917  1.00  0.00     0.034 A 
ATOM     49  C   UNL A   1      40.038  31.470  34.291  1.00  0.00     0.034 A 
ATOM     50  C   UNL A   1      42.753  27.270  30.071  1.00  0.00     0.049 A 
ATOM     51  C   UNL A   1      41.210  30.519  34.380  1.00  0.00     0.074 A 
ATOM     52  C   UNL A   1      43.907  26.524  30.241  1.00  0.00     0.029 A 
ATOM     53  N   UNL A   1      42.548  27.959  31.259  1.00  0.00    -0.354 N 
ATOM     54  N   UNL A   1      41.689  29.711  33.462  1.00  0.00    -0.248 NA
ATOM     55  C   UNL A   1      41.937  30.477  35.656  1.00  0.00     0.031 C 
ATOM     56  C   UNL A   1      44.356  26.705  31.554  1.00  0.00     0.029 A 
ATOM     57  C   UNL A   1      43.530  27.626  32.178  1.00  0.00     0.049 A 
ATOM     58  H   UNL A   1      41.813  28.593  31.423  1.00  0.00     0.167 HD
ATOM     59  C   UNL A   1      42.792  29.088  34.043  1.00  0.00     0.074 A 
ATOM     60  C   UNL A   1      42.912  29.623  35.383  1.00  0.00     0.031 C 
ATOM     61  C   UNL A   1      43.633  28.163  33.514  1.00  0.00     0.034 A 
BRANCH  48  62
ATOM     62  C   UNL A   1      42.179  26.431  27.745  1.00  0.00     0.023 A 
ATOM     63  C   UNL A   1      41.774  25.086  27.725  1.00  0.00     0.031 A 
ATOM     64  C   UNL A   1      42.880  26.926  26.630  1.00  0.00     0.131 A 
ATOM     65  C   UNL A   1      42.122  24.266  26.640  1.00  0.00     0.055 A 
ATOM     66  C   UNL A   1      43.162  26.124  25.523  1.00  0.00     0.041 A 
ATOM     67  F   UNL A   1      43.311  28.196  26.604  1.00  0.00    -0.206 F 
ATOM     68  C   UNL A   1      42.793  24.782  25.529  1.00  0.00     0.022 A 
BRANCH  65  69
ATOM     69  S   UNL A   1      41.792  22.487  26.753  1.00  0.00     0.124 S 
ATOM     70  O   UNL A   1      42.860  22.044  27.646  1.00  0.00    -0.237 OA
ATOM     71  O   UNL A   1      40.442  22.450  27.303  1.00  0.00    -0.237 OA
ATOM     72  O   UNL A   1      41.915  22.027  25.371  1.00  0.00    -0.744 OA
ENDBRANCH  65  69
ENDBRANCH  48  62
BRANCH  49  73
ATOM     73  C   UNL A   1      39.607  32.256  35.484  1.00  0.00     0.023 A 
ATOM     74  C   UNL A   1      38.835  31.675  36.502  1.00  0.00     0.031 A 
ATOM     75  C   UNL A   1      39.912  33.626  35.588  1.00  0.00     0.131 A 
ATOM     76  C   UNL A   1      38.351  32.472  37.553  1.00  0.00     0.055 A 
ATOM     77  C   UNL A   1      39.475  34.401  36.663  1.00  0.00     0.041 A 
ATOM     78  F   UNL A   1      40.647  34.233  34.642  1.00  0.00    -0.206 F 
ATOM     79  C   UNL A   1      38.677  33.827  37.647  1.00  0.00     0.022 A 
BRANCH  76  80
ATOM     80  S   UNL A   1      37.205  31.730  38.748  1.00  0.00     0.124 S 
ATOM     81  O   UNL A   1      36.084  32.662  38.701  1.00  0.00    -0.237 OA
ATOM     82  O   UNL A   1      36.971  30.414  38.164  1.00  0.00    -0.237 OA
ATOM     83  O   UNL A   1      37.967  31.732  39.995  1.00  0.00    -0.744 OA
ENDBRANCH  76  80
ENDBRANCH  49  73
BRANCH  61  84
ATOM     84  C   UNL A   1      44.789  27.711  34.374  1.00  0.00     0.023 A 
ATOM     85  C   UNL A   1      44.684  26.604  35.235  1.00  0.00     0.031 A 
ATOM     86  C   UNL A   1      46.015  28.397  34.323  1.00  0.00     0.131 A 
ATOM     87  C   UNL A   1      45.773  26.246  36.046  1.00  0.00     0.055 A 
ATOM     88  C   UNL A   1      47.112  28.001  35.089  1.00  0.00     0.041 A 
ATOM     89  F   UNL A   1      46.169  29.461  33.519  1.00  0.00    -0.206 F 
ATOM     90  C   UNL A   1      46.991  26.927  35.965  1.00  0.00     0.022 A 
BRANCH  87  91
ATOM     91  S   UNL A   1      45.555  24.921  37.266  1.00  0.00     0.124 S 
ATOM     92  O   UNL A   1      46.276  25.450  38.419  1.00  0.00    -0.237 OA
ATOM     93  O   UNL A   1      44.104  24.853  37.397  1.00  0.00    -0.237 OA
ATOM     94  O   UNL A   1      46.174  23.760  36.627  1.00  0.00    -0.744 OA
ENDBRANCH  87  91
ENDBRANCH  61  84
ENDBRANCH  35  36
ENDBRANCH  28  30
ENDBRANCH  27  28
ENDBRANCH  26  27
ENDBRANCH   1  26
TORSDOF 22
ENDMDL
