MODEL 1
REMARK VINA RESULT:     -11.5      0.000      0.000
REMARK SMILES O=C(OCCOCCOC(=O)c1cn(C2C[NH+](Cc3cc(F)ccc3F)C2)nn1)c1ccc(-c2c3nc(c(-c4cc(S(=O)(=O)[O-])ccc4F)c4ccc([nH]4)c(-c4cc(S(=O)(=O)[O-])ccc4F)c4nc(c(-c5cc(S(=O)(=O)[O-])ccc5F)c5ccc2[nH]5)C=C4)C=C3)cc1
REMARK SMILES IDX 6 1 5 2 4 3 3 4 2 5 1 6 30 7 31 8 92 9 32 10 91 11 33 12
REMARK SMILES IDX 34 13 35 14 85 15 36 16 90 17 84 18 86 19 37 20 89 21 83 22
REMARK SMILES IDX 82 23 38 25 70 26 50 27 69 28 51 29 54 30 68 31 87 32 52 33
REMARK SMILES IDX 53 34 67 36 88 37 55 38 39 39 40 40 48 41 41 42 47 43 49 44
REMARK SMILES IDX 46 45 42 46 43 47 44 48 45 49 71 50 72 51 80 52 73 53 79 54
REMARK SMILES IDX 81 55 78 56 74 57 75 58 76 59 77 60 56 61 57 62 65 63 58 64
REMARK SMILES IDX 64 65 66 66 63 67 59 68 60 69 61 70 62 71 7 72 8 73 9 74
REMARK SMILES IDX 10 75 11 76 12 77 13 78 29 79 14 80 28 81 15 82 16 83 27 84
REMARK SMILES IDX 17 85 18 87 19 88 20 89 25 90 21 91 24 92 26 93 22 94 23 95
REMARK H PARENT 86 24 54 35 17 86
REMARK Flexibility Score: inf
ROOT
ATOM      1  O   UNL A   1      36.326  33.608  31.484  1.00  0.00    -0.374 OA
ENDROOT
BRANCH   1   2
ATOM      2  C   UNL A   1      36.814  32.303  31.796  1.00  0.00     0.202 C 
BRANCH   2   3
ATOM      3  C   UNL A   1      35.739  31.224  31.720  1.00  0.00     0.261 C 
BRANCH   3   4
ATOM      4  O   UNL A   1      36.125  29.998  31.063  1.00  0.00    -0.460 OA
BRANCH   4   5
ATOM      5  C   UNL A   1      36.307  29.976  29.723  1.00  0.00     0.338 C 
ATOM      6  O   UNL A   1      35.648  30.660  28.951  1.00  0.00    -0.246 OA
BRANCH   5   7
ATOM      7  C   UNL A   1      37.544  29.266  29.311  1.00  0.00     0.060 A 
ATOM      8  C   UNL A   1      38.226  28.408  30.177  1.00  0.00     0.016 A 
ATOM      9  C   UNL A   1      38.076  29.536  28.040  1.00  0.00     0.016 A 
ATOM     10  C   UNL A   1      39.474  27.925  29.839  1.00  0.00     0.010 A 
ATOM     11  C   UNL A   1      39.331  29.041  27.694  1.00  0.00     0.010 A 
ATOM     12  C   UNL A   1      40.051  28.288  28.624  1.00  0.00    -0.014 A 
BRANCH  12  13
ATOM     13  C   UNL A   1      41.430  27.858  28.426  1.00  0.00     0.031 A 
ATOM     14  C   UNL A   1      41.628  26.546  27.754  1.00  0.00     0.074 A 
ATOM     15  C   UNL A   1      42.485  28.597  28.818  1.00  0.00     0.049 A 
ATOM     16  N   UNL A   1      42.247  25.499  28.195  1.00  0.00    -0.248 NA
ATOM     17  C   UNL A   1      40.970  26.349  26.456  1.00  0.00     0.031 C 
ATOM     18  C   UNL A   1      42.479  29.987  29.278  1.00  0.00     0.029 A 
ATOM     19  N   UNL A   1      43.811  28.280  28.776  1.00  0.00    -0.354 N 
ATOM     20  C   UNL A   1      42.231  24.572  27.156  1.00  0.00     0.074 A 
ATOM     21  C   UNL A   1      41.320  25.095  26.172  1.00  0.00     0.031 C 
ATOM     22  C   UNL A   1      43.740  30.466  29.232  1.00  0.00     0.029 A 
ATOM     23  C   UNL A   1      44.642  29.385  28.872  1.00  0.00     0.049 A 
ATOM     24  H   UNL A   1      44.143  27.358  28.686  1.00  0.00     0.167 HD
ATOM     25  C   UNL A   1      43.107  23.530  27.104  1.00  0.00     0.034 A 
ATOM     26  C   UNL A   1      45.963  29.439  28.576  1.00  0.00     0.034 A 
ATOM     27  C   UNL A   1      43.631  23.216  28.414  1.00  0.00     0.049 A 
ATOM     28  C   UNL A   1      46.511  28.067  28.683  1.00  0.00     0.074 A 
ATOM     29  C   UNL A   1      43.063  22.841  29.618  1.00  0.00     0.029 A 
ATOM     30  N   UNL A   1      44.930  23.553  28.718  1.00  0.00    -0.354 N 
ATOM     31  N   UNL A   1      46.595  27.409  29.807  1.00  0.00    -0.248 NA
ATOM     32  C   UNL A   1      46.599  27.249  27.483  1.00  0.00     0.031 C 
ATOM     33  C   UNL A   1      43.880  23.441  30.620  1.00  0.00     0.029 A 
ATOM     34  C   UNL A   1      44.915  24.113  29.970  1.00  0.00     0.049 A 
ATOM     35  H   UNL A   1      45.720  23.419  28.145  1.00  0.00     0.167 HD
ATOM     36  C   UNL A   1      46.323  26.091  29.474  1.00  0.00     0.074 A 
ATOM     37  C   UNL A   1      46.461  26.035  28.022  1.00  0.00     0.031 C 
ATOM     38  C   UNL A   1      45.739  25.238  30.367  1.00  0.00     0.034 A 
BRANCH  25  39
ATOM     39  C   UNL A   1      43.744  23.010  25.827  1.00  0.00     0.023 A 
ATOM     40  C   UNL A   1      43.638  21.628  25.571  1.00  0.00     0.031 A 
ATOM     41  C   UNL A   1      44.679  23.704  25.026  1.00  0.00     0.131 A 
ATOM     42  C   UNL A   1      44.519  20.983  24.684  1.00  0.00     0.055 A 
ATOM     43  C   UNL A   1      45.500  23.070  24.087  1.00  0.00     0.041 A 
ATOM     44  F   UNL A   1      44.918  25.013  25.154  1.00  0.00    -0.206 F 
ATOM     45  C   UNL A   1      45.454  21.695  23.942  1.00  0.00     0.022 A 
BRANCH  42  46
ATOM     46  S   UNL A   1      44.568  19.171  24.693  1.00  0.00     0.124 S 
ATOM     47  O   UNL A   1      45.619  18.912  25.672  1.00  0.00    -0.237 OA
ATOM     48  O   UNL A   1      43.208  18.839  25.103  1.00  0.00    -0.237 OA
ATOM     49  O   UNL A   1      44.905  18.836  23.312  1.00  0.00    -0.744 OA
ENDBRANCH  42  46
ENDBRANCH  25  39
BRANCH  26  50
ATOM     50  C   UNL A   1      46.640  30.573  27.901  1.00  0.00     0.023 A 
ATOM     51  C   UNL A   1      45.950  31.497  27.098  1.00  0.00     0.031 A 
ATOM     52  C   UNL A   1      47.989  30.876  28.207  1.00  0.00     0.131 A 
ATOM     53  C   UNL A   1      46.614  32.648  26.618  1.00  0.00     0.055 A 
ATOM     54  C   UNL A   1      48.647  32.000  27.710  1.00  0.00     0.041 A 
ATOM     55  F   UNL A   1      48.695  30.124  29.068  1.00  0.00    -0.206 F 
ATOM     56  C   UNL A   1      47.957  32.897  26.914  1.00  0.00     0.022 A 
BRANCH  53  57
ATOM     57  S   UNL A   1      45.694  33.904  25.677  1.00  0.00     0.124 S 
ATOM     58  O   UNL A   1      45.078  34.694  26.736  1.00  0.00    -0.237 OA
ATOM     59  O   UNL A   1      46.749  34.557  24.910  1.00  0.00    -0.237 OA
ATOM     60  O   UNL A   1      44.759  33.112  24.876  1.00  0.00    -0.744 OA
ENDBRANCH  53  57
ENDBRANCH  26  50
BRANCH  38  61
ATOM     61  C   UNL A   1      45.706  25.627  31.830  1.00  0.00     0.023 A 
ATOM     62  C   UNL A   1      44.524  25.912  32.548  1.00  0.00     0.031 A 
ATOM     63  C   UNL A   1      46.911  25.574  32.552  1.00  0.00     0.131 A 
ATOM     64  C   UNL A   1      44.581  26.145  33.935  1.00  0.00     0.055 A 
ATOM     65  C   UNL A   1      46.962  25.789  33.929  1.00  0.00     0.041 A 
ATOM     66  F   UNL A   1      48.065  25.269  31.934  1.00  0.00    -0.206 F 
ATOM     67  C   UNL A   1      45.795  26.081  34.626  1.00  0.00     0.022 A 
BRANCH  64  68
ATOM     68  S   UNL A   1      43.066  26.536  34.866  1.00  0.00     0.124 S 
ATOM     69  O   UNL A   1      42.499  25.227  35.167  1.00  0.00    -0.237 OA
ATOM     70  O   UNL A   1      43.584  27.289  36.006  1.00  0.00    -0.237 OA
ATOM     71  O   UNL A   1      42.284  27.334  33.919  1.00  0.00    -0.744 OA
ENDBRANCH  64  68
ENDBRANCH  38  61
ENDBRANCH  12  13
ENDBRANCH   5   7
ENDBRANCH   4   5
ENDBRANCH   3   4
ENDBRANCH   2   3
ENDBRANCH   1   2
BRANCH   1  72
ATOM     72  C   UNL A   1      35.090  33.641  30.761  1.00  0.00     0.202 C 
BRANCH  72  73
ATOM     73  C   UNL A   1      35.106  34.406  29.432  1.00  0.00     0.261 C 
BRANCH  73  74
ATOM     74  O   UNL A   1      34.547  33.615  28.367  1.00  0.00    -0.458 OA
BRANCH  74  75
ATOM     75  C   UNL A   1      33.202  33.783  28.161  1.00  0.00     0.360 C 
ATOM     76  O   UNL A   1      32.592  34.808  28.372  1.00  0.00    -0.244 OA
BRANCH  75  77
ATOM     77  C   UNL A   1      32.620  32.622  27.500  1.00  0.00     0.190 A 
ATOM     78  C   UNL A   1      33.136  31.355  27.315  1.00  0.00     0.147 A 
ATOM     79  N   UNL A   1      31.412  32.706  26.852  1.00  0.00    -0.123 NA
ATOM     80  N   UNL A   1      32.205  30.728  26.535  1.00  0.00    -0.237 N 
ATOM     81  N   UNL A   1      31.188  31.556  26.238  1.00  0.00    -0.066 NA
BRANCH  80  82
ATOM     82  C   UNL A   1      32.178  29.379  26.064  1.00  0.00     0.218 C 
ATOM     83  C   UNL A   1      33.506  28.593  26.034  1.00  0.00     0.296 C 
ATOM     84  C   UNL A   1      31.776  28.389  27.186  1.00  0.00     0.296 C 
ATOM     85  N   UNL A   1      32.858  27.483  26.760  1.00  0.00    -0.327 N 
ATOM     86  H   UNL A   1      33.383  26.946  27.450  1.00  0.00     0.348 HD
BRANCH  85  87
ATOM     87  C   UNL A   1      32.419  26.356  25.908  1.00  0.00     0.302 C 
BRANCH  87  88
ATOM     88  C   UNL A   1      33.062  24.995  26.058  1.00  0.00     0.045 A 
ATOM     89  C   UNL A   1      32.545  24.033  26.941  1.00  0.00     0.051 A 
ATOM     90  C   UNL A   1      34.212  24.664  25.327  1.00  0.00     0.132 A 
ATOM     91  C   UNL A   1      33.211  22.824  27.128  1.00  0.00     0.123 A 
ATOM     92  C   UNL A   1      34.865  23.444  25.501  1.00  0.00     0.043 A 
ATOM     93  F   UNL A   1      34.715  25.537  24.442  1.00  0.00    -0.206 F 
ATOM     94  F   UNL A   1      32.733  21.942  28.013  1.00  0.00    -0.207 F 
ATOM     95  C   UNL A   1      34.371  22.524  26.422  1.00  0.00     0.042 A 
ENDBRANCH  87  88
ENDBRANCH  85  87
ENDBRANCH  80  82
ENDBRANCH  75  77
ENDBRANCH  74  75
ENDBRANCH  73  74
ENDBRANCH  72  73
ENDBRANCH   1  72
TORSDOF 20
ENDMDL
MODEL 2
REMARK VINA RESULT:     -11.1      4.034      9.056
REMARK SMILES O=C(OCCOCCOC(=O)c1cn(C2C[NH+](Cc3cc(F)ccc3F)C2)nn1)c1ccc(-c2c3nc(c(-c4cc(S(=O)(=O)[O-])ccc4F)c4ccc([nH]4)c(-c4cc(S(=O)(=O)[O-])ccc4F)c4nc(c(-c5cc(S(=O)(=O)[O-])ccc5F)c5ccc2[nH]5)C=C4)C=C3)cc1
REMARK SMILES IDX 6 1 5 2 4 3 3 4 2 5 1 6 30 7 31 8 92 9 32 10 91 11 33 12
REMARK SMILES IDX 34 13 35 14 85 15 36 16 90 17 84 18 86 19 37 20 89 21 83 22
REMARK SMILES IDX 82 23 38 25 70 26 50 27 69 28 51 29 54 30 68 31 87 32 52 33
REMARK SMILES IDX 53 34 67 36 88 37 55 38 39 39 40 40 48 41 41 42 47 43 49 44
REMARK SMILES IDX 46 45 42 46 43 47 44 48 45 49 71 50 72 51 80 52 73 53 79 54
REMARK SMILES IDX 81 55 78 56 74 57 75 58 76 59 77 60 56 61 57 62 65 63 58 64
REMARK SMILES IDX 64 65 66 66 63 67 59 68 60 69 61 70 62 71 7 72 8 73 9 74
REMARK SMILES IDX 10 75 11 76 12 77 13 78 29 79 14 80 28 81 15 82 16 83 27 84
REMARK SMILES IDX 17 85 18 87 19 88 20 89 25 90 21 91 24 92 26 93 22 94 23 95
REMARK H PARENT 86 24 54 35 17 86
REMARK Flexibility Score: inf
ROOT
ATOM      1  O   UNL A   1      33.869  33.452  32.465  1.00  0.00    -0.374 OA
ENDROOT
BRANCH   1   2
ATOM      2  C   UNL A   1      34.708  32.800  31.509  1.00  0.00     0.202 C 
BRANCH   2   3
ATOM      3  C   UNL A   1      34.464  33.267  30.078  1.00  0.00     0.261 C 
BRANCH   3   4
ATOM      4  O   UNL A   1      34.652  32.270  29.051  1.00  0.00    -0.460 OA
BRANCH   4   5
ATOM      5  C   UNL A   1      35.788  32.261  28.317  1.00  0.00     0.338 C 
ATOM      6  O   UNL A   1      36.006  33.065  27.420  1.00  0.00    -0.246 OA
BRANCH   5   7
ATOM      7  C   UNL A   1      36.841  31.377  28.876  1.00  0.00     0.060 A 
ATOM      8  C   UNL A   1      38.054  31.883  29.348  1.00  0.00     0.016 A 
ATOM      9  C   UNL A   1      36.631  29.989  28.850  1.00  0.00     0.016 A 
ATOM     10  C   UNL A   1      39.087  31.026  29.671  1.00  0.00     0.010 A 
ATOM     11  C   UNL A   1      37.670  29.123  29.185  1.00  0.00     0.010 A 
ATOM     12  C   UNL A   1      38.914  29.650  29.534  1.00  0.00    -0.014 A 
BRANCH  12  13
ATOM     13  C   UNL A   1      40.107  28.839  29.747  1.00  0.00     0.031 A 
ATOM     14  C   UNL A   1      40.507  28.603  31.160  1.00  0.00     0.074 A 
ATOM     15  C   UNL A   1      40.821  28.317  28.732  1.00  0.00     0.049 A 
ATOM     16  N   UNL A   1      41.624  28.898  31.743  1.00  0.00    -0.248 NA
ATOM     17  C   UNL A   1      39.492  28.044  32.062  1.00  0.00     0.031 C 
ATOM     18  C   UNL A   1      40.451  28.259  27.318  1.00  0.00     0.029 A 
ATOM     19  N   UNL A   1      41.994  27.622  28.784  1.00  0.00    -0.354 N 
ATOM     20  C   UNL A   1      41.534  28.389  33.036  1.00  0.00     0.074 A 
ATOM     21  C   UNL A   1      40.160  28.000  33.214  1.00  0.00     0.031 C 
ATOM     22  C   UNL A   1      41.245  27.361  26.696  1.00  0.00     0.029 A 
ATOM     23  C   UNL A   1      42.251  26.892  27.635  1.00  0.00     0.049 A 
ATOM     24  H   UNL A   1      42.598  27.638  29.562  1.00  0.00     0.167 HD
ATOM     25  C   UNL A   1      42.638  28.159  33.800  1.00  0.00     0.034 A 
ATOM     26  C   UNL A   1      43.156  25.896  27.487  1.00  0.00     0.034 A 
ATOM     27  C   UNL A   1      43.761  28.956  33.358  1.00  0.00     0.049 A 
ATOM     28  C   UNL A   1      44.202  26.073  28.520  1.00  0.00     0.074 A 
ATOM     29  C   UNL A   1      43.986  30.312  33.217  1.00  0.00     0.029 A 
ATOM     30  N   UNL A   1      44.795  28.346  32.687  1.00  0.00    -0.354 N 
ATOM     31  N   UNL A   1      45.031  27.080  28.543  1.00  0.00    -0.248 NA
ATOM     32  C   UNL A   1      44.080  25.348  29.776  1.00  0.00     0.031 C 
ATOM     33  C   UNL A   1      44.835  30.434  32.077  1.00  0.00     0.029 A 
ATOM     34  C   UNL A   1      45.104  29.146  31.615  1.00  0.00     0.049 A 
ATOM     35  H   UNL A   1      45.232  27.497  32.929  1.00  0.00     0.167 HD
ATOM     36  C   UNL A   1      45.205  27.373  29.887  1.00  0.00     0.074 A 
ATOM     37  C   UNL A   1      44.702  26.200  30.594  1.00  0.00     0.031 C 
ATOM     38  C   UNL A   1      45.479  28.644  30.308  1.00  0.00     0.034 A 
BRANCH  25  39
ATOM     39  C   UNL A   1      42.801  26.972  34.734  1.00  0.00     0.023 A 
ATOM     40  C   UNL A   1      43.595  25.900  34.280  1.00  0.00     0.031 A 
ATOM     41  C   UNL A   1      42.009  26.700  35.873  1.00  0.00     0.131 A 
ATOM     42  C   UNL A   1      43.476  24.617  34.844  1.00  0.00     0.055 A 
ATOM     43  C   UNL A   1      41.953  25.440  36.479  1.00  0.00     0.041 A 
ATOM     44  F   UNL A   1      41.184  27.599  36.418  1.00  0.00    -0.206 F 
ATOM     45  C   UNL A   1      42.655  24.378  35.939  1.00  0.00     0.022 A 
BRANCH  42  46
ATOM     46  S   UNL A   1      44.239  23.224  33.970  1.00  0.00     0.124 S 
ATOM     47  O   UNL A   1      45.498  23.814  33.523  1.00  0.00    -0.237 OA
ATOM     48  O   UNL A   1      44.334  22.225  35.029  1.00  0.00    -0.237 OA
ATOM     49  O   UNL A   1      43.281  22.924  32.910  1.00  0.00    -0.744 OA
ENDBRANCH  42  46
ENDBRANCH  25  39
BRANCH  26  50
ATOM     50  C   UNL A   1      42.939  24.655  26.704  1.00  0.00     0.023 A 
ATOM     51  C   UNL A   1      43.834  24.219  25.711  1.00  0.00     0.031 A 
ATOM     52  C   UNL A   1      41.909  23.756  27.073  1.00  0.00     0.131 A 
ATOM     53  C   UNL A   1      43.664  22.949  25.116  1.00  0.00     0.055 A 
ATOM     54  C   UNL A   1      41.730  22.514  26.466  1.00  0.00     0.041 A 
ATOM     55  F   UNL A   1      41.083  24.025  28.097  1.00  0.00    -0.206 F 
ATOM     56  C   UNL A   1      42.614  22.102  25.483  1.00  0.00     0.022 A 
BRANCH  53  57
ATOM     57  S   UNL A   1      44.885  22.334  23.917  1.00  0.00     0.124 S 
ATOM     58  O   UNL A   1      45.212  21.019  24.455  1.00  0.00    -0.237 OA
ATOM     59  O   UNL A   1      44.135  22.356  22.666  1.00  0.00    -0.237 OA
ATOM     60  O   UNL A   1      45.965  23.318  23.997  1.00  0.00    -0.744 OA
ENDBRANCH  53  57
ENDBRANCH  26  50
BRANCH  38  61
ATOM     61  C   UNL A   1      45.934  29.666  29.289  1.00  0.00     0.023 A 
ATOM     62  C   UNL A   1      47.286  29.971  29.019  1.00  0.00     0.031 A 
ATOM     63  C   UNL A   1      44.956  30.256  28.467  1.00  0.00     0.131 A 
ATOM     64  C   UNL A   1      47.616  30.847  27.967  1.00  0.00     0.055 A 
ATOM     65  C   UNL A   1      45.287  31.111  27.416  1.00  0.00     0.041 A 
ATOM     66  F   UNL A   1      43.654  29.976  28.647  1.00  0.00    -0.206 F 
ATOM     67  C   UNL A   1      46.620  31.414  27.166  1.00  0.00     0.022 A 
BRANCH  64  68
ATOM     68  S   UNL A   1      49.355  31.264  27.627  1.00  0.00     0.124 S 
ATOM     69  O   UNL A   1      49.731  32.112  28.751  1.00  0.00    -0.237 OA
ATOM     70  O   UNL A   1      49.988  29.948  27.575  1.00  0.00    -0.237 OA
ATOM     71  O   UNL A   1      49.290  31.956  26.337  1.00  0.00    -0.744 OA
ENDBRANCH  64  68
ENDBRANCH  38  61
ENDBRANCH  12  13
ENDBRANCH   5   7
ENDBRANCH   4   5
ENDBRANCH   3   4
ENDBRANCH   2   3
ENDBRANCH   1   2
BRANCH   1  72
ATOM     72  C   UNL A   1      34.466  33.681  33.746  1.00  0.00     0.202 C 
BRANCH  72  73
ATOM     73  C   UNL A   1      35.835  33.028  33.979  1.00  0.00     0.261 C 
BRANCH  73  74
ATOM     74  O   UNL A   1      36.402  33.438  35.237  1.00  0.00    -0.458 OA
BRANCH  74  75
ATOM     75  C   UNL A   1      37.438  32.664  35.689  1.00  0.00     0.360 C 
ATOM     76  O   UNL A   1      37.413  31.993  36.698  1.00  0.00    -0.244 OA
BRANCH  75  77
ATOM     77  C   UNL A   1      38.525  32.618  34.719  1.00  0.00     0.190 A 
ATOM     78  C   UNL A   1      39.296  33.639  34.202  1.00  0.00     0.147 A 
ATOM     79  N   UNL A   1      38.867  31.444  34.092  1.00  0.00    -0.123 NA
ATOM     80  N   UNL A   1      40.070  33.024  33.257  1.00  0.00    -0.237 N 
ATOM     81  N   UNL A   1      39.785  31.713  33.179  1.00  0.00    -0.066 NA
BRANCH  80  82
ATOM     82  C   UNL A   1      41.098  33.575  32.430  1.00  0.00     0.218 C 
ATOM     83  C   UNL A   1      41.826  32.631  31.451  1.00  0.00     0.296 C 
ATOM     84  C   UNL A   1      40.515  34.227  31.151  1.00  0.00     0.296 C 
ATOM     85  N   UNL A   1      41.574  33.583  30.353  1.00  0.00    -0.327 N 
ATOM     86  H   UNL A   1      41.376  33.241  29.413  1.00  0.00     0.348 HD
BRANCH  85  87
ATOM     87  C   UNL A   1      42.715  34.463  30.019  1.00  0.00     0.302 C 
BRANCH  87  88
ATOM     88  C   UNL A   1      42.995  34.829  28.578  1.00  0.00     0.045 A 
ATOM     89  C   UNL A   1      44.040  34.228  27.858  1.00  0.00     0.051 A 
ATOM     90  C   UNL A   1      42.222  35.799  27.925  1.00  0.00     0.132 A 
ATOM     91  C   UNL A   1      44.334  34.651  26.564  1.00  0.00     0.123 A 
ATOM     92  C   UNL A   1      42.505  36.206  26.622  1.00  0.00     0.043 A 
ATOM     93  F   UNL A   1      41.187  36.368  28.560  1.00  0.00    -0.206 F 
ATOM     94  F   UNL A   1      45.368  34.104  25.914  1.00  0.00    -0.207 F 
ATOM     95  C   UNL A   1      43.581  35.641  25.941  1.00  0.00     0.042 A 
ENDBRANCH  87  88
ENDBRANCH  85  87
ENDBRANCH  80  82
ENDBRANCH  75  77
ENDBRANCH  74  75
ENDBRANCH  73  74
ENDBRANCH  72  73
ENDBRANCH   1  72
TORSDOF 20
ENDMDL
MODEL 3
REMARK VINA RESULT:     -10.7      3.585      9.670
REMARK SMILES O=C(OCCOCCOC(=O)c1cn(C2C[NH+](Cc3cc(F)ccc3F)C2)nn1)c1ccc(-c2c3nc(c(-c4cc(S(=O)(=O)[O-])ccc4F)c4ccc([nH]4)c(-c4cc(S(=O)(=O)[O-])ccc4F)c4nc(c(-c5cc(S(=O)(=O)[O-])ccc5F)c5ccc2[nH]5)C=C4)C=C3)cc1
REMARK SMILES IDX 6 1 5 2 4 3 3 4 2 5 1 6 30 7 31 8 92 9 32 10 91 11 33 12
REMARK SMILES IDX 34 13 35 14 85 15 36 16 90 17 84 18 86 19 37 20 89 21 83 22
REMARK SMILES IDX 82 23 38 25 70 26 50 27 69 28 51 29 54 30 68 31 87 32 52 33
REMARK SMILES IDX 53 34 67 36 88 37 55 38 39 39 40 40 48 41 41 42 47 43 49 44
REMARK SMILES IDX 46 45 42 46 43 47 44 48 45 49 71 50 72 51 80 52 73 53 79 54
REMARK SMILES IDX 81 55 78 56 74 57 75 58 76 59 77 60 56 61 57 62 65 63 58 64
REMARK SMILES IDX 64 65 66 66 63 67 59 68 60 69 61 70 62 71 7 72 8 73 9 74
REMARK SMILES IDX 10 75 11 76 12 77 13 78 29 79 14 80 28 81 15 82 16 83 27 84
REMARK SMILES IDX 17 85 18 87 19 88 20 89 25 90 21 91 24 92 26 93 22 94 23 95
REMARK H PARENT 86 24 54 35 17 86
REMARK Flexibility Score: inf
ROOT
ATOM      1  O   UNL A   1      45.276  17.959  25.294  1.00  0.00    -0.374 OA
ENDROOT
BRANCH   1   2
ATOM      2  C   UNL A   1      46.372  18.801  25.654  1.00  0.00     0.202 C 
BRANCH   2   3
ATOM      3  C   UNL A   1      46.547  19.993  24.720  1.00  0.00     0.261 C 
BRANCH   3   4
ATOM      4  O   UNL A   1      46.157  21.275  25.256  1.00  0.00    -0.460 OA
BRANCH   4   5
ATOM      5  C   UNL A   1      45.168  21.983  24.666  1.00  0.00     0.338 C 
ATOM      6  O   UNL A   1      44.571  21.590  23.671  1.00  0.00    -0.246 OA
BRANCH   5   7
ATOM      7  C   UNL A   1      44.695  23.127  25.486  1.00  0.00     0.060 A 
ATOM      8  C   UNL A   1      43.726  24.017  25.020  1.00  0.00     0.016 A 
ATOM      9  C   UNL A   1      45.305  23.354  26.730  1.00  0.00     0.016 A 
ATOM     10  C   UNL A   1      43.455  25.179  25.715  1.00  0.00     0.010 A 
ATOM     11  C   UNL A   1      45.026  24.521  27.437  1.00  0.00     0.010 A 
ATOM     12  C   UNL A   1      44.147  25.458  26.892  1.00  0.00    -0.014 A 
BRANCH  12  13
ATOM     13  C   UNL A   1      43.908  26.777  27.467  1.00  0.00     0.031 A 
ATOM     14  C   UNL A   1      44.918  27.827  27.165  1.00  0.00     0.074 A 
ATOM     15  C   UNL A   1      42.834  27.053  28.229  1.00  0.00     0.049 A 
ATOM     16  N   UNL A   1      45.634  28.519  27.992  1.00  0.00    -0.248 NA
ATOM     17  C   UNL A   1      45.233  28.071  25.752  1.00  0.00     0.031 C 
ATOM     18  C   UNL A   1      41.648  26.221  28.435  1.00  0.00     0.029 A 
ATOM     19  N   UNL A   1      42.535  28.204  28.897  1.00  0.00    -0.354 N 
ATOM     20  C   UNL A   1      46.351  29.427  27.218  1.00  0.00     0.074 A 
ATOM     21  C   UNL A   1      46.168  29.015  25.851  1.00  0.00     0.031 C 
ATOM     22  C   UNL A   1      40.665  26.983  28.959  1.00  0.00     0.029 A 
ATOM     23  C   UNL A   1      41.198  28.305  29.246  1.00  0.00     0.049 A 
ATOM     24  H   UNL A   1      43.204  28.895  29.108  1.00  0.00     0.167 HD
ATOM     25  C   UNL A   1      46.894  30.558  27.749  1.00  0.00     0.034 A 
ATOM     26  C   UNL A   1      40.541  29.422  29.643  1.00  0.00     0.034 A 
ATOM     27  C   UNL A   1      47.096  30.427  29.175  1.00  0.00     0.049 A 
ATOM     28  C   UNL A   1      41.540  30.367  30.191  1.00  0.00     0.074 A 
ATOM     29  C   UNL A   1      47.814  29.555  29.973  1.00  0.00     0.029 A 
ATOM     30  N   UNL A   1      46.263  31.103  30.037  1.00  0.00    -0.354 N 
ATOM     31  N   UNL A   1      42.219  30.148  31.283  1.00  0.00    -0.248 NA
ATOM     32  C   UNL A   1      42.096  31.389  29.316  1.00  0.00     0.031 C 
ATOM     33  C   UNL A   1      47.037  29.406  31.159  1.00  0.00     0.029 A 
ATOM     34  C   UNL A   1      45.912  30.221  31.028  1.00  0.00     0.049 A 
ATOM     35  H   UNL A   1      45.974  32.041  29.958  1.00  0.00     0.167 HD
ATOM     36  C   UNL A   1      43.477  30.677  31.039  1.00  0.00     0.074 A 
ATOM     37  C   UNL A   1      43.301  31.535  29.872  1.00  0.00     0.031 C 
ATOM     38  C   UNL A   1      44.594  30.156  31.628  1.00  0.00     0.034 A 
BRANCH  25  39
ATOM     39  C   UNL A   1      46.936  31.902  27.043  1.00  0.00     0.023 A 
ATOM     40  C   UNL A   1      48.192  32.533  26.933  1.00  0.00     0.031 A 
ATOM     41  C   UNL A   1      45.820  32.718  26.750  1.00  0.00     0.131 A 
ATOM     42  C   UNL A   1      48.293  33.916  26.697  1.00  0.00     0.055 A 
ATOM     43  C   UNL A   1      45.931  34.078  26.438  1.00  0.00     0.041 A 
ATOM     44  F   UNL A   1      44.559  32.283  26.826  1.00  0.00    -0.206 F 
ATOM     45  C   UNL A   1      47.169  34.695  26.453  1.00  0.00     0.022 A 
BRANCH  42  46
ATOM     46  S   UNL A   1      49.903  34.710  26.944  1.00  0.00     0.124 S 
ATOM     47  O   UNL A   1      50.771  33.555  27.151  1.00  0.00    -0.237 OA
ATOM     48  O   UNL A   1      50.075  35.431  25.687  1.00  0.00    -0.237 OA
ATOM     49  O   UNL A   1      49.690  35.548  28.122  1.00  0.00    -0.744 OA
ENDBRANCH  42  46
ENDBRANCH  25  39
BRANCH  26  50
ATOM     50  C   UNL A   1      39.157  29.782  29.250  1.00  0.00     0.023 A 
ATOM     51  C   UNL A   1      38.272  30.447  30.117  1.00  0.00     0.031 A 
ATOM     52  C   UNL A   1      38.744  29.640  27.903  1.00  0.00     0.131 A 
ATOM     53  C   UNL A   1      37.028  30.912  29.635  1.00  0.00     0.055 A 
ATOM     54  C   UNL A   1      37.505  30.079  27.438  1.00  0.00     0.041 A 
ATOM     55  F   UNL A   1      39.568  29.136  26.971  1.00  0.00    -0.206 F 
ATOM     56  C   UNL A   1      36.640  30.724  28.305  1.00  0.00     0.022 A 
BRANCH  53  57
ATOM     57  S   UNL A   1      35.932  31.873  30.722  1.00  0.00     0.124 S 
ATOM     58  O   UNL A   1      34.710  31.960  29.932  1.00  0.00    -0.237 OA
ATOM     59  O   UNL A   1      35.872  31.044  31.921  1.00  0.00    -0.237 OA
ATOM     60  O   UNL A   1      36.646  33.139  30.893  1.00  0.00    -0.744 OA
ENDBRANCH  53  57
ENDBRANCH  26  50
BRANCH  38  61
ATOM     61  C   UNL A   1      44.427  29.228  32.812  1.00  0.00     0.023 A 
ATOM     62  C   UNL A   1      44.303  29.662  34.150  1.00  0.00     0.031 A 
ATOM     63  C   UNL A   1      44.254  27.856  32.552  1.00  0.00     0.131 A 
ATOM     64  C   UNL A   1      44.028  28.732  35.170  1.00  0.00     0.055 A 
ATOM     65  C   UNL A   1      43.967  26.940  33.563  1.00  0.00     0.041 A 
ATOM     66  F   UNL A   1      44.322  27.385  31.295  1.00  0.00    -0.206 F 
ATOM     67  C   UNL A   1      43.858  27.374  34.879  1.00  0.00     0.022 A 
BRANCH  64  68
ATOM     68  S   UNL A   1      43.889  29.278  36.901  1.00  0.00     0.124 S 
ATOM     69  O   UNL A   1      44.888  30.334  37.010  1.00  0.00    -0.237 OA
ATOM     70  O   UNL A   1      42.494  29.703  36.985  1.00  0.00    -0.237 OA
ATOM     71  O   UNL A   1      44.200  28.067  37.664  1.00  0.00    -0.744 OA
ENDBRANCH  64  68
ENDBRANCH  38  61
ENDBRANCH  12  13
ENDBRANCH   5   7
ENDBRANCH   4   5
ENDBRANCH   3   4
ENDBRANCH   2   3
ENDBRANCH   1   2
BRANCH   1  72
ATOM     72  C   UNL A   1      44.093  18.644  24.868  1.00  0.00     0.202 C 
BRANCH  72  73
ATOM     73  C   UNL A   1      42.980  18.782  25.914  1.00  0.00     0.261 C 
BRANCH  73  74
ATOM     74  O   UNL A   1      42.118  19.896  25.615  1.00  0.00    -0.458 OA
BRANCH  74  75
ATOM     75  C   UNL A   1      41.934  20.783  26.644  1.00  0.00     0.360 C 
ATOM     76  O   UNL A   1      42.752  21.024  27.505  1.00  0.00    -0.244 OA
BRANCH  75  77
ATOM     77  C   UNL A   1      40.689  21.524  26.486  1.00  0.00     0.190 A 
ATOM     78  C   UNL A   1      39.539  21.190  25.800  1.00  0.00     0.147 A 
ATOM     79  N   UNL A   1      40.555  22.799  26.981  1.00  0.00    -0.123 NA
ATOM     80  N   UNL A   1      38.757  22.307  25.901  1.00  0.00    -0.237 N 
ATOM     81  N   UNL A   1      39.387  23.277  26.587  1.00  0.00    -0.066 NA
BRANCH  80  82
ATOM     82  C   UNL A   1      37.428  22.528  25.424  1.00  0.00     0.218 C 
ATOM     83  C   UNL A   1      36.282  21.713  26.059  1.00  0.00     0.296 C 
ATOM     84  C   UNL A   1      36.765  23.743  26.119  1.00  0.00     0.296 C 
ATOM     85  N   UNL A   1      35.527  22.960  26.284  1.00  0.00    -0.327 N 
ATOM     86  H   UNL A   1      34.954  23.069  27.121  1.00  0.00     0.348 HD
BRANCH  85  87
ATOM     87  C   UNL A   1      34.481  23.242  25.276  1.00  0.00     0.302 C 
BRANCH  87  88
ATOM     88  C   UNL A   1      33.081  23.610  25.718  1.00  0.00     0.045 A 
ATOM     89  C   UNL A   1      32.083  22.635  25.877  1.00  0.00     0.051 A 
ATOM     90  C   UNL A   1      32.738  24.947  25.964  1.00  0.00     0.132 A 
ATOM     91  C   UNL A   1      30.780  23.012  26.194  1.00  0.00     0.123 A 
ATOM     92  C   UNL A   1      31.437  25.319  26.301  1.00  0.00     0.043 A 
ATOM     93  F   UNL A   1      33.671  25.905  25.865  1.00  0.00    -0.206 F 
ATOM     94  F   UNL A   1      29.830  22.074  26.289  1.00  0.00    -0.207 F 
ATOM     95  C   UNL A   1      30.445  24.346  26.400  1.00  0.00     0.042 A 
ENDBRANCH  87  88
ENDBRANCH  85  87
ENDBRANCH  80  82
ENDBRANCH  75  77
ENDBRANCH  74  75
ENDBRANCH  73  74
ENDBRANCH  72  73
ENDBRANCH   1  72
TORSDOF 20
ENDMDL
