MODEL 1
REMARK VINA RESULT:     -11.7      0.000      0.000
REMARK SMILES N#Cc1ccc2c(c1)C=C(C(=O)OCCOCCOC(=O)c1ccc(-c3c4nc(c(-c5cc(S(=O)(=O)[O-])ccc5F)c5ccc([nH]5)c(-c5cc(S(=O)(=O)[O-])ccc5F)c5nc(c(-c6cc(S(=O)(=O)[O-])ccc6F)c6ccc3[nH]6)C=C5)C=C4)cc1)[C@@H](C(F)(F)F)O2
REMARK SMILES IDX 17 1 16 2 15 3 14 4 13 5 11 6 12 7 10 8 3 9 4 10 8 11 5 12
REMARK SMILES IDX 7 13 6 14 9 15 90 16 85 17 2 18 1 19 86 20 87 21 88 22 89 23
REMARK SMILES IDX 18 24 19 25 20 26 21 27 22 28 23 29 84 30 24 31 83 32 25 33
REMARK SMILES IDX 26 34 27 35 77 36 28 37 82 38 76 39 78 40 29 41 81 42 75 43
REMARK SMILES IDX 74 44 30 46 62 47 42 48 61 49 43 50 46 51 60 52 79 53 44 54
REMARK SMILES IDX 45 55 59 57 80 58 47 59 31 60 32 61 40 62 33 63 39 64 41 65
REMARK SMILES IDX 38 66 34 67 35 68 36 69 37 70 63 71 64 72 72 73 65 74 71 75
REMARK SMILES IDX 73 76 70 77 66 78 67 79 68 80 69 81 48 82 49 83 57 84 50 85
REMARK SMILES IDX 56 86 58 87 55 88 51 89 52 90 53 91 54 92
REMARK H PARENT 78 45 46 56
REMARK Flexibility Score: inf
ROOT
ATOM      1  C   UNL A   1      36.197  20.594  25.092  1.00  0.00     0.202 C 
ENDROOT
BRANCH   1   2
ATOM      2  O   UNL A   1      35.870  21.953  24.809  1.00  0.00    -0.374 OA
BRANCH   2   3
ATOM      3  C   UNL A   1      35.721  22.868  25.890  1.00  0.00     0.202 C 
BRANCH   3   4
ATOM      4  C   UNL A   1      34.501  23.795  25.908  1.00  0.00     0.261 C 
BRANCH   4   5
ATOM      5  O   UNL A   1      33.292  23.106  26.250  1.00  0.00    -0.460 OA
BRANCH   5   6
ATOM      6  C   UNL A   1      32.303  23.233  25.335  1.00  0.00     0.338 C 
ATOM      7  O   UNL A   1      31.631  24.227  25.112  1.00  0.00    -0.246 OA
BRANCH   6   8
ATOM      8  C   UNL A   1      32.231  22.013  24.509  1.00  0.00     0.087 C 
ATOM      9  C   UNL A   1      33.098  17.299  24.234  1.00  0.00     0.053 A 
ATOM     10  C   UNL A   1      32.956  17.362  22.845  1.00  0.00     0.023 A 
ATOM     11  C   UNL A   1      32.866  18.441  25.007  1.00  0.00     0.031 A 
ATOM     12  C   UNL A   1      32.564  18.557  22.234  1.00  0.00     0.048 A 
ATOM     13  C   UNL A   1      32.519  19.647  24.387  1.00  0.00     0.019 A 
ATOM     14  C   UNL A   1      32.348  19.699  23.004  1.00  0.00     0.128 A 
ATOM     15  C   UNL A   1      32.417  20.863  25.170  1.00  0.00     0.027 C 
ATOM     16  O   UNL A   1      31.972  20.825  22.330  1.00  0.00    -0.475 OA
ATOM     17  C   UNL A   1      32.003  22.107  23.025  1.00  0.00     0.316 C 
BRANCH   9  18
ATOM     18  C   UNL A   1      33.507  16.081  24.868  1.00  0.00     0.099 C 
ATOM     19  N   UNL A   1      33.845  15.090  25.374  1.00  0.00    -0.192 NA
ENDBRANCH   9  18
BRANCH  17  20
ATOM     20  C   UNL A   1      33.032  23.011  22.330  1.00  0.00     0.430 C 
ATOM     21  F   UNL A   1      33.089  22.759  21.001  1.00  0.00    -0.167 F 
ATOM     22  F   UNL A   1      32.727  24.321  22.469  1.00  0.00    -0.167 F 
ATOM     23  F   UNL A   1      34.275  22.828  22.832  1.00  0.00    -0.167 F 
ENDBRANCH  17  20
ENDBRANCH   6   8
ENDBRANCH   5   6
ENDBRANCH   4   5
ENDBRANCH   3   4
ENDBRANCH   2   3
ENDBRANCH   1   2
BRANCH   1  24
ATOM     24  C   UNL A   1      37.657  20.126  25.023  1.00  0.00     0.261 C 
BRANCH  24  25
ATOM     25  O   UNL A   1      38.616  21.178  25.200  1.00  0.00    -0.460 OA
BRANCH  25  26
ATOM     26  C   UNL A   1      39.517  20.958  26.195  1.00  0.00     0.338 C 
ATOM     27  O   UNL A   1      40.012  19.890  26.512  1.00  0.00    -0.246 OA
BRANCH  26  28
ATOM     28  C   UNL A   1      39.982  22.258  26.712  1.00  0.00     0.060 A 
ATOM     29  C   UNL A   1      40.980  22.322  27.681  1.00  0.00     0.016 A 
ATOM     30  C   UNL A   1      39.419  23.429  26.185  1.00  0.00     0.016 A 
ATOM     31  C   UNL A   1      41.425  23.573  28.117  1.00  0.00     0.010 A 
ATOM     32  C   UNL A   1      39.868  24.675  26.621  1.00  0.00     0.010 A 
ATOM     33  C   UNL A   1      40.887  24.758  27.581  1.00  0.00    -0.014 A 
BRANCH  33  34
ATOM     34  C   UNL A   1      41.481  26.072  27.937  1.00  0.00     0.031 A 
ATOM     35  C   UNL A   1      42.885  26.431  27.550  1.00  0.00     0.074 A 
ATOM     36  C   UNL A   1      40.728  26.946  28.634  1.00  0.00     0.049 A 
ATOM     37  N   UNL A   1      43.514  27.564  27.722  1.00  0.00    -0.248 NA
ATOM     38  C   UNL A   1      43.688  25.390  26.892  1.00  0.00     0.031 C 
ATOM     39  C   UNL A   1      39.367  26.680  29.102  1.00  0.00     0.029 A 
ATOM     40  N   UNL A   1      40.984  28.226  29.061  1.00  0.00    -0.354 N 
ATOM     41  C   UNL A   1      44.782  27.383  27.183  1.00  0.00     0.074 A 
ATOM     42  C   UNL A   1      44.850  26.012  26.725  1.00  0.00     0.031 C 
ATOM     43  C   UNL A   1      38.894  27.775  29.713  1.00  0.00     0.029 A 
ATOM     44  C   UNL A   1      39.929  28.805  29.729  1.00  0.00     0.049 A 
ATOM     45  H   UNL A   1      41.840  28.684  28.904  1.00  0.00     0.167 HD
ATOM     46  C   UNL A   1      45.781  28.290  27.063  1.00  0.00     0.034 A 
ATOM     47  C   UNL A   1      39.804  30.025  30.292  1.00  0.00     0.034 A 
ATOM     48  C   UNL A   1      45.690  29.653  27.528  1.00  0.00     0.049 A 
ATOM     49  C   UNL A   1      40.944  31.005  30.168  1.00  0.00     0.074 A 
ATOM     50  C   UNL A   1      46.633  30.659  27.401  1.00  0.00     0.029 A 
ATOM     51  N   UNL A   1      44.614  30.204  28.211  1.00  0.00    -0.354 N 
ATOM     52  N   UNL A   1      42.094  30.856  29.553  1.00  0.00    -0.248 NA
ATOM     53  C   UNL A   1      40.772  32.321  30.798  1.00  0.00     0.031 C 
ATOM     54  C   UNL A   1      46.170  31.781  28.085  1.00  0.00     0.029 A 
ATOM     55  C   UNL A   1      44.891  31.520  28.547  1.00  0.00     0.049 A 
ATOM     56  H   UNL A   1      43.779  29.729  28.425  1.00  0.00     0.167 HD
ATOM     57  C   UNL A   1      42.765  32.067  29.693  1.00  0.00     0.074 A 
ATOM     58  C   UNL A   1      41.881  32.947  30.427  1.00  0.00     0.031 C 
ATOM     59  C   UNL A   1      44.003  32.412  29.257  1.00  0.00     0.034 A 
BRANCH  46  60
ATOM     60  C   UNL A   1      47.066  27.882  26.379  1.00  0.00     0.023 A 
ATOM     61  C   UNL A   1      47.219  28.086  24.994  1.00  0.00     0.031 A 
ATOM     62  C   UNL A   1      48.044  27.127  27.051  1.00  0.00     0.131 A 
ATOM     63  C   UNL A   1      48.291  27.491  24.317  1.00  0.00     0.055 A 
ATOM     64  C   UNL A   1      49.140  26.583  26.380  1.00  0.00     0.041 A 
ATOM     65  F   UNL A   1      47.940  26.895  28.370  1.00  0.00    -0.206 F 
ATOM     66  C   UNL A   1      49.256  26.747  25.003  1.00  0.00     0.022 A 
BRANCH  63  67
ATOM     67  S   UNL A   1      48.414  27.569  22.508  1.00  0.00     0.124 S 
ATOM     68  O   UNL A   1      48.576  26.159  22.157  1.00  0.00    -0.237 OA
ATOM     69  O   UNL A   1      47.130  28.160  22.141  1.00  0.00    -0.237 OA
ATOM     70  O   UNL A   1      49.586  28.405  22.272  1.00  0.00    -0.744 OA
ENDBRANCH  63  67
ENDBRANCH  46  60
BRANCH  47  71
ATOM     71  C   UNL A   1      38.523  30.388  30.966  1.00  0.00     0.023 A 
ATOM     72  C   UNL A   1      37.499  31.045  30.258  1.00  0.00     0.031 A 
ATOM     73  C   UNL A   1      38.341  30.182  32.343  1.00  0.00     0.131 A 
ATOM     74  C   UNL A   1      36.381  31.538  30.943  1.00  0.00     0.055 A 
ATOM     75  C   UNL A   1      37.186  30.600  33.006  1.00  0.00     0.041 A 
ATOM     76  F   UNL A   1      39.295  29.577  33.069  1.00  0.00    -0.206 F 
ATOM     77  C   UNL A   1      36.206  31.300  32.309  1.00  0.00     0.022 A 
BRANCH  74  78
ATOM     78  S   UNL A   1      35.194  32.632  30.112  1.00  0.00     0.124 S 
ATOM     79  O   UNL A   1      34.637  31.754  29.088  1.00  0.00    -0.237 OA
ATOM     80  O   UNL A   1      34.293  32.977  31.209  1.00  0.00    -0.237 OA
ATOM     81  O   UNL A   1      36.022  33.728  29.622  1.00  0.00    -0.744 OA
ENDBRANCH  74  78
ENDBRANCH  47  71
BRANCH  59  82
ATOM     82  C   UNL A   1      44.514  33.810  29.526  1.00  0.00     0.023 A 
ATOM     83  C   UNL A   1      44.220  34.849  28.619  1.00  0.00     0.031 A 
ATOM     84  C   UNL A   1      45.429  34.077  30.560  1.00  0.00     0.131 A 
ATOM     85  C   UNL A   1      44.881  36.079  28.726  1.00  0.00     0.055 A 
ATOM     86  C   UNL A   1      46.034  35.327  30.702  1.00  0.00     0.041 A 
ATOM     87  F   UNL A   1      45.758  33.120  31.444  1.00  0.00    -0.206 F 
ATOM     88  C   UNL A   1      45.776  36.328  29.770  1.00  0.00     0.022 A 
BRANCH  85  89
ATOM     89  S   UNL A   1      44.692  37.356  27.449  1.00  0.00     0.124 S 
ATOM     90  O   UNL A   1      45.960  37.255  26.732  1.00  0.00    -0.237 OA
ATOM     91  O   UNL A   1      43.522  36.883  26.715  1.00  0.00    -0.237 OA
ATOM     92  O   UNL A   1      44.503  38.589  28.207  1.00  0.00    -0.744 OA
ENDBRANCH  85  89
ENDBRANCH  59  82
ENDBRANCH  33  34
ENDBRANCH  26  28
ENDBRANCH  25  26
ENDBRANCH  24  25
ENDBRANCH   1  24
TORSDOF 19
ENDMDL
MODEL 2
REMARK VINA RESULT:     -11.4      5.961      9.123
REMARK SMILES N#Cc1ccc2c(c1)C=C(C(=O)OCCOCCOC(=O)c1ccc(-c3c4nc(c(-c5cc(S(=O)(=O)[O-])ccc5F)c5ccc([nH]5)c(-c5cc(S(=O)(=O)[O-])ccc5F)c5nc(c(-c6cc(S(=O)(=O)[O-])ccc6F)c6ccc3[nH]6)C=C5)C=C4)cc1)[C@@H](C(F)(F)F)O2
REMARK SMILES IDX 17 1 16 2 15 3 14 4 13 5 11 6 12 7 10 8 3 9 4 10 8 11 5 12
REMARK SMILES IDX 7 13 6 14 9 15 90 16 85 17 2 18 1 19 86 20 87 21 88 22 89 23
REMARK SMILES IDX 18 24 19 25 20 26 21 27 22 28 23 29 84 30 24 31 83 32 25 33
REMARK SMILES IDX 26 34 27 35 77 36 28 37 82 38 76 39 78 40 29 41 81 42 75 43
REMARK SMILES IDX 74 44 30 46 62 47 42 48 61 49 43 50 46 51 60 52 79 53 44 54
REMARK SMILES IDX 45 55 59 57 80 58 47 59 31 60 32 61 40 62 33 63 39 64 41 65
REMARK SMILES IDX 38 66 34 67 35 68 36 69 37 70 63 71 64 72 72 73 65 74 71 75
REMARK SMILES IDX 73 76 70 77 66 78 67 79 68 80 69 81 48 82 49 83 57 84 50 85
REMARK SMILES IDX 56 86 58 87 55 88 51 89 52 90 53 91 54 92
REMARK H PARENT 78 45 46 56
REMARK Flexibility Score: inf
ROOT
ATOM      1  C   UNL A   1      31.813  31.496  26.867  1.00  0.00     0.202 C 
ENDROOT
BRANCH   1   2
ATOM      2  O   UNL A   1      32.622  30.593  26.117  1.00  0.00    -0.374 OA
BRANCH   2   3
ATOM      3  C   UNL A   1      33.360  29.588  26.808  1.00  0.00     0.202 C 
BRANCH   3   4
ATOM      4  C   UNL A   1      33.967  28.434  26.002  1.00  0.00     0.261 C 
BRANCH   4   5
ATOM      5  O   UNL A   1      33.681  28.532  24.601  1.00  0.00    -0.460 OA
BRANCH   5   6
ATOM      6  C   UNL A   1      33.170  27.403  24.059  1.00  0.00     0.338 C 
ATOM      7  O   UNL A   1      33.717  26.316  23.972  1.00  0.00    -0.246 OA
BRANCH   6   8
ATOM      8  C   UNL A   1      31.756  27.622  23.697  1.00  0.00     0.087 C 
ATOM      9  C   UNL A   1      28.444  30.743  22.168  1.00  0.00     0.053 A 
ATOM     10  C   UNL A   1      27.438  29.866  22.582  1.00  0.00     0.023 A 
ATOM     11  C   UNL A   1      29.785  30.357  22.269  1.00  0.00     0.031 A 
ATOM     12  C   UNL A   1      27.770  28.601  23.076  1.00  0.00     0.048 A 
ATOM     13  C   UNL A   1      30.115  29.109  22.807  1.00  0.00     0.019 A 
ATOM     14  C   UNL A   1      29.108  28.224  23.191  1.00  0.00     0.128 A 
ATOM     15  C   UNL A   1      31.503  28.763  23.044  1.00  0.00     0.027 C 
ATOM     16  O   UNL A   1      29.347  26.974  23.686  1.00  0.00    -0.475 OA
ATOM     17  C   UNL A   1      30.703  26.623  24.092  1.00  0.00     0.316 C 
BRANCH   9  18
ATOM     18  C   UNL A   1      28.113  32.044  21.669  1.00  0.00     0.099 C 
ATOM     19  N   UNL A   1      27.849  33.098  21.254  1.00  0.00    -0.192 NA
ENDBRANCH   9  18
BRANCH  17  20
ATOM     20  C   UNL A   1      30.700  26.340  25.601  1.00  0.00     0.430 C 
ATOM     21  F   UNL A   1      31.663  25.449  25.935  1.00  0.00    -0.167 F 
ATOM     22  F   UNL A   1      30.929  27.458  26.325  1.00  0.00    -0.167 F 
ATOM     23  F   UNL A   1      29.515  25.828  26.009  1.00  0.00    -0.167 F 
ENDBRANCH  17  20
ENDBRANCH   6   8
ENDBRANCH   5   6
ENDBRANCH   4   5
ENDBRANCH   3   4
ENDBRANCH   2   3
ENDBRANCH   1   2
BRANCH   1  24
ATOM     24  C   UNL A   1      32.130  32.998  26.859  1.00  0.00     0.261 C 
BRANCH  24  25
ATOM     25  O   UNL A   1      32.648  33.491  28.102  1.00  0.00    -0.460 OA
BRANCH  25  26
ATOM     26  C   UNL A   1      33.806  34.195  27.991  1.00  0.00     0.338 C 
ATOM     27  O   UNL A   1      33.922  35.374  27.706  1.00  0.00    -0.246 OA
BRANCH  26  28
ATOM     28  C   UNL A   1      34.919  33.361  28.482  1.00  0.00     0.060 A 
ATOM     29  C   UNL A   1      36.241  33.751  28.282  1.00  0.00     0.016 A 
ATOM     30  C   UNL A   1      34.617  32.184  29.180  1.00  0.00     0.016 A 
ATOM     31  C   UNL A   1      37.269  32.957  28.798  1.00  0.00     0.010 A 
ATOM     32  C   UNL A   1      35.645  31.395  29.695  1.00  0.00     0.010 A 
ATOM     33  C   UNL A   1      36.981  31.784  29.522  1.00  0.00    -0.014 A 
BRANCH  33  34
ATOM     34  C   UNL A   1      38.076  31.041  30.197  1.00  0.00     0.031 A 
ATOM     35  C   UNL A   1      38.863  29.981  29.485  1.00  0.00     0.074 A 
ATOM     36  C   UNL A   1      38.349  31.334  31.484  1.00  0.00     0.049 A 
ATOM     37  N   UNL A   1      39.894  29.303  29.916  1.00  0.00    -0.248 NA
ATOM     38  C   UNL A   1      38.439  29.631  28.121  1.00  0.00     0.031 C 
ATOM     39  C   UNL A   1      37.614  32.315  32.285  1.00  0.00     0.029 A 
ATOM     40  N   UNL A   1      39.309  30.856  32.341  1.00  0.00    -0.354 N 
ATOM     41  C   UNL A   1      40.256  28.455  28.876  1.00  0.00     0.074 A 
ATOM     42  C   UNL A   1      39.300  28.668  27.811  1.00  0.00     0.031 C 
ATOM     43  C   UNL A   1      38.176  32.396  33.499  1.00  0.00     0.029 A 
ATOM     44  C   UNL A   1      39.277  31.440  33.586  1.00  0.00     0.049 A 
ATOM     45  H   UNL A   1      39.959  30.162  32.087  1.00  0.00     0.167 HD
ATOM     46  C   UNL A   1      41.306  27.601  28.815  1.00  0.00     0.034 A 
ATOM     47  C   UNL A   1      40.043  31.233  34.678  1.00  0.00     0.034 A 
ATOM     48  C   UNL A   1      42.247  27.405  29.892  1.00  0.00     0.049 A 
ATOM     49  C   UNL A   1      41.186  30.254  34.591  1.00  0.00     0.074 A 
ATOM     50  C   UNL A   1      43.373  26.600  29.900  1.00  0.00     0.029 A 
ATOM     51  N   UNL A   1      42.178  28.001  31.144  1.00  0.00    -0.354 N 
ATOM     52  N   UNL A   1      41.586  29.545  33.561  1.00  0.00    -0.248 NA
ATOM     53  C   UNL A   1      41.994  30.053  35.802  1.00  0.00     0.031 C 
ATOM     54  C   UNL A   1      43.927  26.635  31.178  1.00  0.00     0.029 A 
ATOM     55  C   UNL A   1      43.217  27.547  31.942  1.00  0.00     0.049 A 
ATOM     56  H   UNL A   1      41.493  28.650  31.423  1.00  0.00     0.167 HD
ATOM     57  C   UNL A   1      42.709  28.842  33.990  1.00  0.00     0.074 A 
ATOM     58  C   UNL A   1      42.941  29.233  35.364  1.00  0.00     0.031 C 
ATOM     59  C   UNL A   1      43.470  27.952  33.306  1.00  0.00     0.034 A 
BRANCH  46  60
ATOM     60  C   UNL A   1      41.542  26.816  27.545  1.00  0.00     0.023 A 
ATOM     61  C   UNL A   1      41.263  25.436  27.511  1.00  0.00     0.031 A 
ATOM     62  C   UNL A   1      42.214  27.385  26.449  1.00  0.00     0.131 A 
ATOM     63  C   UNL A   1      41.710  24.662  26.432  1.00  0.00     0.055 A 
ATOM     64  C   UNL A   1      42.606  26.618  25.350  1.00  0.00     0.041 A 
ATOM     65  F   UNL A   1      42.511  28.695  26.435  1.00  0.00    -0.206 F 
ATOM     66  C   UNL A   1      42.372  25.246  25.349  1.00  0.00     0.022 A 
BRANCH  63  67
ATOM     67  S   UNL A   1      41.541  22.855  26.444  1.00  0.00     0.124 S 
ATOM     68  O   UNL A   1      42.355  22.472  25.292  1.00  0.00    -0.237 OA
ATOM     69  O   UNL A   1      42.101  22.507  27.746  1.00  0.00    -0.237 OA
ATOM     70  O   UNL A   1      40.108  22.635  26.291  1.00  0.00    -0.744 OA
ENDBRANCH  63  67
ENDBRANCH  46  60
BRANCH  47  71
ATOM     71  C   UNL A   1      39.772  32.021  35.917  1.00  0.00     0.023 A 
ATOM     72  C   UNL A   1      38.815  31.585  36.852  1.00  0.00     0.031 A 
ATOM     73  C   UNL A   1      40.385  33.266  36.135  1.00  0.00     0.131 A 
ATOM     74  C   UNL A   1      38.444  32.420  37.914  1.00  0.00     0.055 A 
ATOM     75  C   UNL A   1      40.074  34.058  37.242  1.00  0.00     0.041 A 
ATOM     76  F   UNL A   1      41.292  33.736  35.265  1.00  0.00    -0.206 F 
ATOM     77  C   UNL A   1      39.084  33.644  38.128  1.00  0.00     0.022 A 
BRANCH  74  78
ATOM     78  S   UNL A   1      37.018  32.012  38.959  1.00  0.00     0.124 S 
ATOM     79  O   UNL A   1      35.978  32.873  38.406  1.00  0.00    -0.237 OA
ATOM     80  O   UNL A   1      36.861  30.582  38.698  1.00  0.00    -0.237 OA
ATOM     81  O   UNL A   1      37.469  32.350  40.304  1.00  0.00    -0.744 OA
ENDBRANCH  74  78
ENDBRANCH  47  71
BRANCH  59  82
ATOM     82  C   UNL A   1      44.660  27.320  33.994  1.00  0.00     0.023 A 
ATOM     83  C   UNL A   1      44.520  26.069  34.627  1.00  0.00     0.031 A 
ATOM     84  C   UNL A   1      45.864  28.023  34.180  1.00  0.00     0.131 A 
ATOM     85  C   UNL A   1      45.535  25.590  35.465  1.00  0.00     0.055 A 
ATOM     86  C   UNL A   1      46.901  27.509  34.962  1.00  0.00     0.041 A 
ATOM     87  F   UNL A   1      46.048  29.226  33.613  1.00  0.00    -0.206 F 
ATOM     88  C   UNL A   1      46.729  26.297  35.625  1.00  0.00     0.022 A 
BRANCH  85  89
ATOM     89  S   UNL A   1      45.294  24.095  36.466  1.00  0.00     0.124 S 
ATOM     90  O   UNL A   1      46.551  23.382  36.252  1.00  0.00    -0.237 OA
ATOM     91  O   UNL A   1      45.113  24.650  37.804  1.00  0.00    -0.237 OA
ATOM     92  O   UNL A   1      44.115  23.465  35.882  1.00  0.00    -0.744 OA
ENDBRANCH  85  89
ENDBRANCH  59  82
ENDBRANCH  33  34
ENDBRANCH  26  28
ENDBRANCH  25  26
ENDBRANCH  24  25
ENDBRANCH   1  24
TORSDOF 19
ENDMDL
MODEL 3
REMARK VINA RESULT:     -11.3      0.638      7.472
REMARK SMILES N#Cc1ccc2c(c1)C=C(C(=O)OCCOCCOC(=O)c1ccc(-c3c4nc(c(-c5cc(S(=O)(=O)[O-])ccc5F)c5ccc([nH]5)c(-c5cc(S(=O)(=O)[O-])ccc5F)c5nc(c(-c6cc(S(=O)(=O)[O-])ccc6F)c6ccc3[nH]6)C=C5)C=C4)cc1)[C@@H](C(F)(F)F)O2
REMARK SMILES IDX 17 1 16 2 15 3 14 4 13 5 11 6 12 7 10 8 3 9 4 10 8 11 5 12
REMARK SMILES IDX 7 13 6 14 9 15 90 16 85 17 2 18 1 19 86 20 87 21 88 22 89 23
REMARK SMILES IDX 18 24 19 25 20 26 21 27 22 28 23 29 84 30 24 31 83 32 25 33
REMARK SMILES IDX 26 34 27 35 77 36 28 37 82 38 76 39 78 40 29 41 81 42 75 43
REMARK SMILES IDX 74 44 30 46 62 47 42 48 61 49 43 50 46 51 60 52 79 53 44 54
REMARK SMILES IDX 45 55 59 57 80 58 47 59 31 60 32 61 40 62 33 63 39 64 41 65
REMARK SMILES IDX 38 66 34 67 35 68 36 69 37 70 63 71 64 72 72 73 65 74 71 75
REMARK SMILES IDX 73 76 70 77 66 78 67 79 68 80 69 81 48 82 49 83 57 84 50 85
REMARK SMILES IDX 56 86 58 87 55 88 51 89 52 90 53 91 54 92
REMARK H PARENT 78 45 46 56
REMARK Flexibility Score: inf
ROOT
ATOM      1  C   UNL A   1      36.225  20.922  25.372  1.00  0.00     0.202 C 
ENDROOT
BRANCH   1   2
ATOM      2  O   UNL A   1      35.924  22.251  24.955  1.00  0.00    -0.374 OA
BRANCH   2   3
ATOM      3  C   UNL A   1      35.746  23.263  25.942  1.00  0.00     0.202 C 
BRANCH   3   4
ATOM      4  C   UNL A   1      34.393  23.977  26.029  1.00  0.00     0.261 C 
BRANCH   4   5
ATOM      5  O   UNL A   1      33.307  23.072  26.263  1.00  0.00    -0.460 OA
BRANCH   5   6
ATOM      6  C   UNL A   1      32.290  23.185  25.377  1.00  0.00     0.338 C 
ATOM      7  O   UNL A   1      31.591  24.165  25.181  1.00  0.00    -0.246 OA
BRANCH   6   8
ATOM      8  C   UNL A   1      32.221  21.969  24.543  1.00  0.00     0.087 C 
ATOM      9  C   UNL A   1      33.165  17.274  24.211  1.00  0.00     0.053 A 
ATOM     10  C   UNL A   1      32.990  17.345  22.826  1.00  0.00     0.023 A 
ATOM     11  C   UNL A   1      32.931  18.406  24.998  1.00  0.00     0.031 A 
ATOM     12  C   UNL A   1      32.562  18.537  22.234  1.00  0.00     0.048 A 
ATOM     13  C   UNL A   1      32.548  19.610  24.396  1.00  0.00     0.019 A 
ATOM     14  C   UNL A   1      32.345  19.669  23.018  1.00  0.00     0.128 A 
ATOM     15  C   UNL A   1      32.443  20.818  25.190  1.00  0.00     0.027 C 
ATOM     16  O   UNL A   1      31.933  20.793  22.361  1.00  0.00    -0.475 OA
ATOM     17  C   UNL A   1      31.957  22.070  23.065  1.00  0.00     0.316 C 
BRANCH   9  18
ATOM     18  C   UNL A   1      33.610  16.059  24.826  1.00  0.00     0.099 C 
ATOM     19  N   UNL A   1      33.962  15.071  25.328  1.00  0.00    -0.192 NA
ENDBRANCH   9  18
BRANCH  17  20
ATOM     20  C   UNL A   1      32.953  22.998  22.354  1.00  0.00     0.430 C 
ATOM     21  F   UNL A   1      32.585  24.295  22.472  1.00  0.00    -0.167 F 
ATOM     22  F   UNL A   1      34.198  22.893  22.870  1.00  0.00    -0.167 F 
ATOM     23  F   UNL A   1      33.036  22.719  21.032  1.00  0.00    -0.167 F 
ENDBRANCH  17  20
ENDBRANCH   6   8
ENDBRANCH   5   6
ENDBRANCH   4   5
ENDBRANCH   3   4
ENDBRANCH   2   3
ENDBRANCH   1   2
BRANCH   1  24
ATOM     24  C   UNL A   1      37.665  20.397  25.286  1.00  0.00     0.261 C 
BRANCH  24  25
ATOM     25  O   UNL A   1      38.665  21.421  25.378  1.00  0.00    -0.460 OA
BRANCH  25  26
ATOM     26  C   UNL A   1      39.529  21.273  26.418  1.00  0.00     0.338 C 
ATOM     27  O   UNL A   1      40.043  20.236  26.801  1.00  0.00    -0.246 OA
BRANCH  26  28
ATOM     28  C   UNL A   1      39.932  22.609  26.896  1.00  0.00     0.060 A 
ATOM     29  C   UNL A   1      40.910  22.747  27.878  1.00  0.00     0.016 A 
ATOM     30  C   UNL A   1      39.331  23.736  26.319  1.00  0.00     0.016 A 
ATOM     31  C   UNL A   1      41.295  24.030  28.277  1.00  0.00     0.010 A 
ATOM     32  C   UNL A   1      39.721  25.014  26.718  1.00  0.00     0.010 A 
ATOM     33  C   UNL A   1      40.719  25.173  27.690  1.00  0.00    -0.014 A 
BRANCH  33  34
ATOM     34  C   UNL A   1      41.253  26.521  28.010  1.00  0.00     0.031 A 
ATOM     35  C   UNL A   1      40.409  27.561  28.686  1.00  0.00     0.074 A 
ATOM     36  C   UNL A   1      42.526  26.802  27.669  1.00  0.00     0.049 A 
ATOM     37  N   UNL A   1      40.757  28.752  29.097  1.00  0.00    -0.248 NA
ATOM     38  C   UNL A   1      38.997  27.229  28.926  1.00  0.00     0.031 C 
ATOM     39  C   UNL A   1      43.419  25.880  26.966  1.00  0.00     0.029 A 
ATOM     40  N   UNL A   1      43.294  27.923  27.869  1.00  0.00    -0.354 N 
ATOM     41  C   UNL A   1      39.616  29.311  29.659  1.00  0.00     0.074 A 
ATOM     42  C   UNL A   1      38.550  28.347  29.488  1.00  0.00     0.031 C 
ATOM     43  C   UNL A   1      44.622  26.454  26.832  1.00  0.00     0.029 A 
ATOM     44  C   UNL A   1      44.578  27.804  27.389  1.00  0.00     0.049 A 
ATOM     45  H   UNL A   1      42.956  28.733  28.313  1.00  0.00     0.167 HD
ATOM     46  C   UNL A   1      39.484  30.507  30.281  1.00  0.00     0.034 A 
ATOM     47  C   UNL A   1      45.606  28.678  27.394  1.00  0.00     0.034 A 
ATOM     48  C   UNL A   1      40.562  31.454  30.439  1.00  0.00     0.049 A 
ATOM     49  C   UNL A   1      45.423  30.014  28.068  1.00  0.00     0.074 A 
ATOM     50  C   UNL A   1      40.536  32.669  31.102  1.00  0.00     0.029 A 
ATOM     51  N   UNL A   1      41.846  31.309  29.931  1.00  0.00    -0.354 N 
ATOM     52  N   UNL A   1      44.370  30.481  28.697  1.00  0.00    -0.248 NA
ATOM     53  C   UNL A   1      46.564  30.939  28.049  1.00  0.00     0.031 C 
ATOM     54  C   UNL A   1      41.766  33.296  30.916  1.00  0.00     0.029 A 
ATOM     55  C   UNL A   1      42.603  32.431  30.230  1.00  0.00     0.049 A 
ATOM     56  H   UNL A   1      42.170  30.525  29.431  1.00  0.00     0.167 HD
ATOM     57  C   UNL A   1      44.733  31.737  29.176  1.00  0.00     0.074 A 
ATOM     58  C   UNL A   1      46.112  31.945  28.788  1.00  0.00     0.031 C 
ATOM     59  C   UNL A   1      43.987  32.634  29.868  1.00  0.00     0.034 A 
BRANCH  46  60
ATOM     60  C   UNL A   1      38.147  30.884  30.877  1.00  0.00     0.023 A 
ATOM     61  C   UNL A   1      37.195  31.563  30.091  1.00  0.00     0.031 A 
ATOM     62  C   UNL A   1      37.894  30.745  32.253  1.00  0.00     0.131 A 
ATOM     63  C   UNL A   1      36.068  32.131  30.699  1.00  0.00     0.055 A 
ATOM     64  C   UNL A   1      36.741  31.263  32.843  1.00  0.00     0.041 A 
ATOM     65  F   UNL A   1      38.774  30.112  33.048  1.00  0.00    -0.206 F 
ATOM     66  C   UNL A   1      35.832  31.977  32.069  1.00  0.00     0.022 A 
BRANCH  63  67
ATOM     67  S   UNL A   1      34.923  33.176  29.757  1.00  0.00     0.124 S 
ATOM     68  O   UNL A   1      35.829  34.171  29.184  1.00  0.00    -0.237 OA
ATOM     69  O   UNL A   1      34.359  32.226  28.803  1.00  0.00    -0.237 OA
ATOM     70  O   UNL A   1      34.001  33.685  30.765  1.00  0.00    -0.744 OA
ENDBRANCH  63  67
ENDBRANCH  46  60
BRANCH  47  71
ATOM     71  C   UNL A   1      46.909  28.272  26.788  1.00  0.00     0.023 A 
ATOM     72  C   UNL A   1      47.091  28.296  25.393  1.00  0.00     0.031 A 
ATOM     73  C   UNL A   1      47.951  27.760  27.578  1.00  0.00     0.131 A 
ATOM     74  C   UNL A   1      48.250  27.745  24.829  1.00  0.00     0.055 A 
ATOM     75  C   UNL A   1      49.140  27.290  27.018  1.00  0.00     0.041 A 
ATOM     76  F   UNL A   1      47.822  27.698  28.913  1.00  0.00    -0.206 F 
ATOM     77  C   UNL A   1      49.286  27.263  25.634  1.00  0.00     0.022 A 
BRANCH  74  78
ATOM     78  S   UNL A   1      48.381  27.501  23.037  1.00  0.00     0.124 S 
ATOM     79  O   UNL A   1      48.324  26.047  22.922  1.00  0.00    -0.237 OA
ATOM     80  O   UNL A   1      47.206  28.221  22.553  1.00  0.00    -0.237 OA
ATOM     81  O   UNL A   1      49.663  28.111  22.700  1.00  0.00    -0.744 OA
ENDBRANCH  74  78
ENDBRANCH  47  71
BRANCH  59  82
ATOM     82  C   UNL A   1      44.617  33.943  30.293  1.00  0.00     0.023 A 
ATOM     83  C   UNL A   1      44.624  35.037  29.404  1.00  0.00     0.031 A 
ATOM     84  C   UNL A   1      45.359  34.054  31.482  1.00  0.00     0.131 A 
ATOM     85  C   UNL A   1      45.406  36.163  29.686  1.00  0.00     0.055 A 
ATOM     86  C   UNL A   1      46.084  35.207  31.790  1.00  0.00     0.041 A 
ATOM     87  F   UNL A   1      45.401  33.038  32.358  1.00  0.00    -0.206 F 
ATOM     88  C   UNL A   1      46.126  36.260  30.880  1.00  0.00     0.022 A 
BRANCH  85  89
ATOM     89  S   UNL A   1      45.612  37.489  28.463  1.00  0.00     0.124 S 
ATOM     90  O   UNL A   1      44.533  38.405  28.826  1.00  0.00    -0.237 OA
ATOM     91  O   UNL A   1      46.960  37.968  28.756  1.00  0.00    -0.237 OA
ATOM     92  O   UNL A   1      45.449  36.815  27.180  1.00  0.00    -0.744 OA
ENDBRANCH  85  89
ENDBRANCH  59  82
ENDBRANCH  33  34
ENDBRANCH  26  28
ENDBRANCH  25  26
ENDBRANCH  24  25
ENDBRANCH   1  24
TORSDOF 19
ENDMDL
