MODEL 1
REMARK VINA RESULT:     -12.6      0.000      0.000
REMARK SMILES C[NH+]1CCC([NH+]2CCC(Oc3ccc4ccccc4c3)(C(=O)OCCOCCOC(=O)c3ccc(-c4c5nc(c(-c6cc(S(=O)(=O)[O-])ccc6F)c6ccc([nH]6)c(-c6cc(S(=O)(=O)[O-])ccc6F)c6nc(c(-c7cc(S(=O)(=O)[O-])ccc7F)c7ccc4[nH]7)C=C6)C=C5)cc3)CC2)CC1
REMARK SMILES IDX 27 1 26 2 25 3 24 4 23 5 21 6 22 7 9 8 6 9 7 10 96 11 8 13
REMARK SMILES IDX 95 14 5 15 1 16 2 17 3 18 98 19 4 21 97 22 10 23 11 24 12 25
REMARK SMILES IDX 20 26 13 27 19 28 14 29 18 30 15 31 17 32 16 33 28 34 29 35
REMARK SMILES IDX 30 36 31 37 32 38 33 39 94 40 34 41 93 42 35 43 36 44 37 45
REMARK SMILES IDX 87 46 38 47 92 48 86 49 88 50 39 51 91 52 85 53 84 54 40 56
REMARK SMILES IDX 72 57 52 58 71 59 53 60 56 61 70 62 89 63 54 64 55 65 69 67
REMARK SMILES IDX 90 68 57 69 41 70 42 71 50 72 43 73 49 74 51 75 48 76 44 77
REMARK SMILES IDX 45 78 46 79 47 80 73 81 74 82 82 83 75 84 81 85 83 86 80 87
REMARK SMILES IDX 76 88 77 89 78 90 79 91 58 92 59 93 67 94 60 95 66 96 68 97
REMARK SMILES IDX 65 98 61 99 62 100 63 101 64 102
REMARK H PARENT 6 12 2 20 88 55 56 66
REMARK Flexibility Score: inf
ROOT
ATOM      1  C   UNL A   1      36.719  20.586  25.012  1.00  0.00     0.202 C 
ENDROOT
BRANCH   1   2
ATOM      2  O   UNL A   1      36.294  21.743  25.705  1.00  0.00    -0.374 OA
BRANCH   2   3
ATOM      3  C   UNL A   1      36.616  23.011  25.135  1.00  0.00     0.202 C 
BRANCH   3   4
ATOM      4  C   UNL A   1      35.789  23.500  23.939  1.00  0.00     0.261 C 
BRANCH   4   5
ATOM      5  O   UNL A   1      35.101  24.754  24.156  1.00  0.00    -0.460 OA
BRANCH   5   6
ATOM      6  C   UNL A   1      33.915  24.913  23.498  1.00  0.00     0.351 C 
ATOM      7  O   UNL A   1      33.843  25.291  22.329  1.00  0.00    -0.247 OA
BRANCH   6   8
ATOM      8  C   UNL A   1      32.659  24.651  24.370  1.00  0.00     0.216 C 
ATOM      9  N   UNL A   1      31.887  21.760  24.523  1.00  0.00    -0.332 N 
ATOM     10  C   UNL A   1      32.639  22.341  25.636  1.00  0.00     0.267 C 
ATOM     11  C   UNL A   1      32.004  22.487  23.264  1.00  0.00     0.267 C 
ATOM     12  H   UNL A   1      30.917  21.898  24.804  1.00  0.00     0.348 HD
ATOM     13  C   UNL A   1      32.919  23.853  25.656  1.00  0.00     0.122 C 
ATOM     14  C   UNL A   1      31.618  23.950  23.478  1.00  0.00     0.122 C 
BRANCH   9  15
ATOM     15  C   UNL A   1      32.018  20.279  24.380  1.00  0.00     0.195 C 
ATOM     16  C   UNL A   1      33.991  16.518  23.493  1.00  0.00     0.332 C 
ATOM     17  N   UNL A   1      33.598  17.905  23.705  1.00  0.00    -0.337 N 
ATOM     18  C   UNL A   1      33.297  18.188  25.111  1.00  0.00     0.268 C 
ATOM     19  C   UNL A   1      32.466  18.277  22.854  1.00  0.00     0.268 C 
ATOM     20  H   UNL A   1      34.399  18.477  23.441  1.00  0.00     0.347 HD
ATOM     21  C   UNL A   1      33.096  19.694  25.317  1.00  0.00     0.126 C 
ATOM     22  C   UNL A   1      32.260  19.786  22.941  1.00  0.00     0.126 C 
ENDBRANCH   9  15
BRANCH   8  23
ATOM     23  O   UNL A   1      32.365  26.048  24.693  1.00  0.00    -0.475 OA
BRANCH  23  24
ATOM     24  C   UNL A   1      31.219  26.593  24.198  1.00  0.00     0.121 A 
ATOM     25  C   UNL A   1      29.970  26.141  24.608  1.00  0.00     0.047 A 
ATOM     26  C   UNL A   1      31.317  27.730  23.392  1.00  0.00     0.055 A 
ATOM     27  C   UNL A   1      28.811  26.767  24.148  1.00  0.00     0.012 A 
ATOM     28  C   UNL A   1      30.158  28.390  22.944  1.00  0.00    -0.015 A 
ATOM     29  C   UNL A   1      28.888  27.889  23.316  1.00  0.00    -0.018 A 
ATOM     30  C   UNL A   1      30.225  29.548  22.150  1.00  0.00     0.009 A 
ATOM     31  C   UNL A   1      27.728  28.540  22.870  1.00  0.00     0.009 A 
ATOM     32  C   UNL A   1      29.061  30.191  21.723  1.00  0.00     0.001 A 
ATOM     33  C   UNL A   1      27.814  29.685  22.079  1.00  0.00     0.001 A 
ENDBRANCH  23  24
ENDBRANCH   8  23
ENDBRANCH   6   8
ENDBRANCH   5   6
ENDBRANCH   4   5
ENDBRANCH   3   4
ENDBRANCH   2   3
ENDBRANCH   1   2
BRANCH   1  34
ATOM     34  C   UNL A   1      38.111  20.028  25.312  1.00  0.00     0.261 C 
BRANCH  34  35
ATOM     35  O   UNL A   1      39.175  20.973  25.348  1.00  0.00    -0.460 OA
BRANCH  35  36
ATOM     36  C   UNL A   1      40.054  20.791  26.361  1.00  0.00     0.338 C 
ATOM     37  O   UNL A   1      40.594  19.757  26.706  1.00  0.00    -0.246 OA
BRANCH  36  38
ATOM     38  C   UNL A   1      40.363  22.104  26.939  1.00  0.00     0.060 A 
ATOM     39  C   UNL A   1      39.787  23.228  26.342  1.00  0.00     0.016 A 
ATOM     40  C   UNL A   1      41.257  22.227  28.005  1.00  0.00     0.016 A 
ATOM     41  C   UNL A   1      40.139  24.496  26.788  1.00  0.00     0.010 A 
ATOM     42  C   UNL A   1      41.609  23.503  28.452  1.00  0.00     0.010 A 
ATOM     43  C   UNL A   1      41.077  24.641  27.821  1.00  0.00    -0.014 A 
BRANCH  43  44
ATOM     44  C   UNL A   1      41.597  25.994  28.128  1.00  0.00     0.031 A 
ATOM     45  C   UNL A   1      42.971  26.370  27.648  1.00  0.00     0.074 A 
ATOM     46  C   UNL A   1      40.823  26.887  28.771  1.00  0.00     0.049 A 
ATOM     47  N   UNL A   1      43.606  27.507  27.758  1.00  0.00    -0.248 NA
ATOM     48  C   UNL A   1      43.728  25.321  26.949  1.00  0.00     0.031 C 
ATOM     49  C   UNL A   1      39.465  26.631  29.251  1.00  0.00     0.029 A 
ATOM     50  N   UNL A   1      41.063  28.190  29.122  1.00  0.00    -0.354 N 
ATOM     51  C   UNL A   1      44.836  27.315  27.134  1.00  0.00     0.074 A 
ATOM     52  C   UNL A   1      44.871  25.937  26.692  1.00  0.00     0.031 C 
ATOM     53  C   UNL A   1      38.990  27.746  29.831  1.00  0.00     0.029 A 
ATOM     54  C   UNL A   1      40.018  28.783  29.789  1.00  0.00     0.049 A 
ATOM     55  H   UNL A   1      41.905  28.657  28.914  1.00  0.00     0.167 HD
ATOM     56  C   UNL A   1      45.834  28.211  26.939  1.00  0.00     0.034 A 
ATOM     57  C   UNL A   1      39.913  30.019  30.317  1.00  0.00     0.034 A 
ATOM     58  C   UNL A   1      45.784  29.575  27.407  1.00  0.00     0.049 A 
ATOM     59  C   UNL A   1      41.068  30.976  30.152  1.00  0.00     0.074 A 
ATOM     60  C   UNL A   1      46.730  30.573  27.264  1.00  0.00     0.029 A 
ATOM     61  N   UNL A   1      44.729  30.128  28.125  1.00  0.00    -0.354 N 
ATOM     62  N   UNL A   1      42.217  30.789  29.543  1.00  0.00    -0.248 NA
ATOM     63  C   UNL A   1      40.906  32.315  30.735  1.00  0.00     0.031 C 
ATOM     64  C   UNL A   1      46.279  31.706  27.952  1.00  0.00     0.029 A 
ATOM     65  C   UNL A   1      45.017  31.442  28.461  1.00  0.00     0.049 A 
ATOM     66  H   UNL A   1      43.898  29.655  28.360  1.00  0.00     0.167 HD
ATOM     67  C   UNL A   1      42.903  31.997  29.648  1.00  0.00     0.074 A 
ATOM     68  C   UNL A   1      42.032  32.907  30.362  1.00  0.00     0.031 C 
ATOM     69  C   UNL A   1      44.139  32.327  29.190  1.00  0.00     0.034 A 
BRANCH  56  70
ATOM     70  C   UNL A   1      47.077  27.718  26.237  1.00  0.00     0.023 A 
ATOM     71  C   UNL A   1      47.293  27.943  24.865  1.00  0.00     0.031 A 
ATOM     72  C   UNL A   1      48.042  26.976  26.941  1.00  0.00     0.131 A 
ATOM     73  C   UNL A   1      48.407  27.374  24.228  1.00  0.00     0.055 A 
ATOM     74  C   UNL A   1      49.187  26.477  26.318  1.00  0.00     0.041 A 
ATOM     75  F   UNL A   1      47.879  26.709  28.246  1.00  0.00    -0.206 F 
ATOM     76  C   UNL A   1      49.367  26.662  24.950  1.00  0.00     0.022 A 
BRANCH  73  77
ATOM     77  S   UNL A   1      48.512  27.458  22.419  1.00  0.00     0.124 S 
ATOM     78  O   UNL A   1      49.720  28.258  22.230  1.00  0.00    -0.237 OA
ATOM     79  O   UNL A   1      48.609  26.053  22.043  1.00  0.00    -0.237 OA
ATOM     80  O   UNL A   1      47.268  28.123  22.033  1.00  0.00    -0.744 OA
ENDBRANCH  73  77
ENDBRANCH  56  70
BRANCH  57  81
ATOM     81  C   UNL A   1      38.691  30.415  31.073  1.00  0.00     0.023 A 
ATOM     82  C   UNL A   1      37.626  31.080  30.446  1.00  0.00     0.031 A 
ATOM     83  C   UNL A   1      38.592  30.166  32.455  1.00  0.00     0.131 A 
ATOM     84  C   UNL A   1      36.526  31.512  31.207  1.00  0.00     0.055 A 
ATOM     85  C   UNL A   1      37.474  30.553  33.197  1.00  0.00     0.041 A 
ATOM     86  F   UNL A   1      39.581  29.533  33.104  1.00  0.00    -0.206 F 
ATOM     87  C   UNL A   1      36.438  31.241  32.574  1.00  0.00     0.022 A 
BRANCH  84  88
ATOM     88  S   UNL A   1      35.242  32.503  30.395  1.00  0.00     0.124 S 
ATOM     89  O   UNL A   1      34.849  31.635  29.291  1.00  0.00    -0.237 OA
ATOM     90  O   UNL A   1      34.263  32.665  31.464  1.00  0.00    -0.237 OA
ATOM     91  O   UNL A   1      35.948  33.723  30.008  1.00  0.00    -0.744 OA
ENDBRANCH  84  88
ENDBRANCH  57  81
BRANCH  69  92
ATOM     92  C   UNL A   1      44.594  33.747  29.423  1.00  0.00     0.023 A 
ATOM     93  C   UNL A   1      44.478  34.733  28.428  1.00  0.00     0.031 A 
ATOM     94  C   UNL A   1      45.164  34.112  30.656  1.00  0.00     0.131 A 
ATOM     95  C   UNL A   1      44.978  36.023  28.663  1.00  0.00     0.055 A 
ATOM     96  C   UNL A   1      45.605  35.411  30.904  1.00  0.00     0.041 A 
ATOM     97  F   UNL A   1      45.299  33.209  31.641  1.00  0.00    -0.206 F 
ATOM     98  C   UNL A   1      45.526  36.372  29.901  1.00  0.00     0.022 A 
BRANCH  95  99
ATOM     99  S   UNL A   1      44.985  37.215  27.297  1.00  0.00     0.124 S 
ATOM    100  O   UNL A   1      43.591  37.188  26.863  1.00  0.00    -0.237 OA
ATOM    101  O   UNL A   1      45.425  38.442  27.954  1.00  0.00    -0.237 OA
ATOM    102  O   UNL A   1      45.941  36.644  26.348  1.00  0.00    -0.744 OA
ENDBRANCH  95  99
ENDBRANCH  69  92
ENDBRANCH  43  44
ENDBRANCH  36  38
ENDBRANCH  35  36
ENDBRANCH  34  35
ENDBRANCH   1  34
TORSDOF 20
ENDMDL
MODEL 2
REMARK VINA RESULT:     -12.1      1.916      4.853
REMARK SMILES C[NH+]1CCC([NH+]2CCC(Oc3ccc4ccccc4c3)(C(=O)OCCOCCOC(=O)c3ccc(-c4c5nc(c(-c6cc(S(=O)(=O)[O-])ccc6F)c6ccc([nH]6)c(-c6cc(S(=O)(=O)[O-])ccc6F)c6nc(c(-c7cc(S(=O)(=O)[O-])ccc7F)c7ccc4[nH]7)C=C6)C=C5)cc3)CC2)CC1
REMARK SMILES IDX 27 1 26 2 25 3 24 4 23 5 21 6 22 7 9 8 6 9 7 10 96 11 8 13
REMARK SMILES IDX 95 14 5 15 1 16 2 17 3 18 98 19 4 21 97 22 10 23 11 24 12 25
REMARK SMILES IDX 20 26 13 27 19 28 14 29 18 30 15 31 17 32 16 33 28 34 29 35
REMARK SMILES IDX 30 36 31 37 32 38 33 39 94 40 34 41 93 42 35 43 36 44 37 45
REMARK SMILES IDX 87 46 38 47 92 48 86 49 88 50 39 51 91 52 85 53 84 54 40 56
REMARK SMILES IDX 72 57 52 58 71 59 53 60 56 61 70 62 89 63 54 64 55 65 69 67
REMARK SMILES IDX 90 68 57 69 41 70 42 71 50 72 43 73 49 74 51 75 48 76 44 77
REMARK SMILES IDX 45 78 46 79 47 80 73 81 74 82 82 83 75 84 81 85 83 86 80 87
REMARK SMILES IDX 76 88 77 89 78 90 79 91 58 92 59 93 67 94 60 95 66 96 68 97
REMARK SMILES IDX 65 98 61 99 62 100 63 101 64 102
REMARK H PARENT 6 12 2 20 88 55 56 66
REMARK Flexibility Score: inf
ROOT
ATOM      1  C   UNL A   1      36.269  20.008  24.914  1.00  0.00     0.202 C 
ENDROOT
BRANCH   1   2
ATOM      2  O   UNL A   1      35.589  20.926  25.748  1.00  0.00    -0.374 OA
BRANCH   2   3
ATOM      3  C   UNL A   1      35.618  22.304  25.378  1.00  0.00     0.202 C 
BRANCH   3   4
ATOM      4  C   UNL A   1      35.300  22.671  23.922  1.00  0.00     0.261 C 
BRANCH   4   5
ATOM      5  O   UNL A   1      34.347  23.749  23.769  1.00  0.00    -0.460 OA
BRANCH   5   6
ATOM      6  C   UNL A   1      33.389  23.575  22.812  1.00  0.00     0.351 C 
ATOM      7  O   UNL A   1      33.629  23.632  21.606  1.00  0.00    -0.247 OA
BRANCH   6   8
ATOM      8  C   UNL A   1      31.955  23.375  23.370  1.00  0.00     0.216 C 
ATOM      9  N   UNL A   1      30.990  25.666  25.042  1.00  0.00    -0.332 N 
ATOM     10  C   UNL A   1      30.547  25.584  23.650  1.00  0.00     0.267 C 
ATOM     11  C   UNL A   1      32.210  24.923  25.338  1.00  0.00     0.267 C 
ATOM     12  H   UNL A   1      30.260  25.162  25.545  1.00  0.00     0.348 HD
ATOM     13  C   UNL A   1      30.902  24.345  22.811  1.00  0.00     0.122 C 
ATOM     14  C   UNL A   1      32.042  23.468  24.904  1.00  0.00     0.122 C 
BRANCH   9  15
ATOM     15  C   UNL A   1      30.960  27.037  25.632  1.00  0.00     0.195 C 
ATOM     16  C   UNL A   1      32.554  30.869  26.899  1.00  0.00     0.332 C 
ATOM     17  N   UNL A   1      32.311  29.525  26.391  1.00  0.00    -0.337 N 
ATOM     18  C   UNL A   1      31.414  29.523  25.233  1.00  0.00     0.268 C 
ATOM     19  C   UNL A   1      31.796  28.642  27.439  1.00  0.00     0.268 C 
ATOM     20  H   UNL A   1      33.213  29.164  26.082  1.00  0.00     0.347 HD
ATOM     21  C   UNL A   1      31.356  28.124  24.609  1.00  0.00     0.126 C 
ATOM     22  C   UNL A   1      31.792  27.208  26.917  1.00  0.00     0.126 C 
ENDBRANCH   9  15
BRANCH   8  23
ATOM     23  O   UNL A   1      31.736  22.030  22.836  1.00  0.00    -0.475 OA
BRANCH  23  24
ATOM     24  C   UNL A   1      32.158  20.969  23.579  1.00  0.00     0.121 A 
ATOM     25  C   UNL A   1      32.044  20.969  24.965  1.00  0.00     0.047 A 
ATOM     26  C   UNL A   1      32.555  19.807  22.915  1.00  0.00     0.055 A 
ATOM     27  C   UNL A   1      32.409  19.841  25.700  1.00  0.00     0.012 A 
ATOM     28  C   UNL A   1      32.898  18.650  23.640  1.00  0.00    -0.015 A 
ATOM     29  C   UNL A   1      32.839  18.677  25.053  1.00  0.00    -0.018 A 
ATOM     30  C   UNL A   1      33.281  17.460  22.998  1.00  0.00     0.009 A 
ATOM     31  C   UNL A   1      33.182  17.529  25.783  1.00  0.00     0.009 A 
ATOM     32  C   UNL A   1      33.609  16.322  23.739  1.00  0.00     0.001 A 
ATOM     33  C   UNL A   1      33.565  16.358  25.130  1.00  0.00     0.001 A 
ENDBRANCH  23  24
ENDBRANCH   8  23
ENDBRANCH   6   8
ENDBRANCH   5   6
ENDBRANCH   4   5
ENDBRANCH   3   4
ENDBRANCH   2   3
ENDBRANCH   1   2
BRANCH   1  34
ATOM     34  C   UNL A   1      37.798  19.985  24.951  1.00  0.00     0.261 C 
BRANCH  34  35
ATOM     35  O   UNL A   1      38.435  21.154  25.456  1.00  0.00    -0.460 OA
BRANCH  35  36
ATOM     36  C   UNL A   1      39.541  20.915  26.198  1.00  0.00     0.338 C 
ATOM     37  O   UNL A   1      40.165  19.876  26.296  1.00  0.00    -0.246 OA
BRANCH  36  38
ATOM     38  C   UNL A   1      39.964  22.181  26.807  1.00  0.00     0.060 A 
ATOM     39  C   UNL A   1      39.356  23.354  26.354  1.00  0.00     0.016 A 
ATOM     40  C   UNL A   1      40.988  22.215  27.756  1.00  0.00     0.016 A 
ATOM     41  C   UNL A   1      39.804  24.583  26.825  1.00  0.00     0.010 A 
ATOM     42  C   UNL A   1      41.436  23.451  28.228  1.00  0.00     0.010 A 
ATOM     43  C   UNL A   1      40.868  24.640  27.738  1.00  0.00    -0.014 A 
BRANCH  43  44
ATOM     44  C   UNL A   1      41.467  25.957  28.055  1.00  0.00     0.031 A 
ATOM     45  C   UNL A   1      42.861  26.253  27.575  1.00  0.00     0.074 A 
ATOM     46  C   UNL A   1      40.748  26.889  28.705  1.00  0.00     0.049 A 
ATOM     47  N   UNL A   1      43.563  27.350  27.693  1.00  0.00    -0.248 NA
ATOM     48  C   UNL A   1      43.554  25.167  26.868  1.00  0.00     0.031 C 
ATOM     49  C   UNL A   1      39.378  26.710  29.184  1.00  0.00     0.029 A 
ATOM     50  N   UNL A   1      41.066  28.173  29.065  1.00  0.00    -0.354 N 
ATOM     51  C   UNL A   1      44.778  27.090  27.067  1.00  0.00     0.074 A 
ATOM     52  C   UNL A   1      44.732  25.716  26.615  1.00  0.00     0.031 C 
ATOM     53  C   UNL A   1      38.971  27.847  29.774  1.00  0.00     0.029 A 
ATOM     54  C   UNL A   1      40.058  28.822  29.739  1.00  0.00     0.049 A 
ATOM     55  H   UNL A   1      41.934  28.590  28.861  1.00  0.00     0.167 HD
ATOM     56  C   UNL A   1      45.828  27.927  26.877  1.00  0.00     0.034 A 
ATOM     57  C   UNL A   1      40.028  30.058  30.276  1.00  0.00     0.034 A 
ATOM     58  C   UNL A   1      45.859  29.287  27.356  1.00  0.00     0.049 A 
ATOM     59  C   UNL A   1      41.237  30.946  30.117  1.00  0.00     0.074 A 
ATOM     60  C   UNL A   1      46.863  30.229  27.220  1.00  0.00     0.029 A 
ATOM     61  N   UNL A   1      44.840  29.897  28.080  1.00  0.00    -0.354 N 
ATOM     62  N   UNL A   1      42.372  30.695  29.505  1.00  0.00    -0.248 NA
ATOM     63  C   UNL A   1      41.155  32.287  30.710  1.00  0.00     0.031 C 
ATOM     64  C   UNL A   1      46.481  31.381  27.917  1.00  0.00     0.029 A 
ATOM     65  C   UNL A   1      45.206  31.188  28.425  1.00  0.00     0.049 A 
ATOM     66  H   UNL A   1      43.982  29.472  28.312  1.00  0.00     0.167 HD
ATOM     67  C   UNL A   1      43.129  31.859  29.618  1.00  0.00     0.074 A 
ATOM     68  C   UNL A   1      42.314  32.814  30.341  1.00  0.00     0.031 C 
ATOM     69  C   UNL A   1      44.382  32.119  29.161  1.00  0.00     0.034 A 
BRANCH  56  70
ATOM     70  C   UNL A   1      47.039  27.366  26.170  1.00  0.00     0.023 A 
ATOM     71  C   UNL A   1      48.026  26.635  26.855  1.00  0.00     0.031 A 
ATOM     72  C   UNL A   1      47.229  27.601  24.796  1.00  0.00     0.131 A 
ATOM     73  C   UNL A   1      49.189  26.227  26.182  1.00  0.00     0.055 A 
ATOM     74  C   UNL A   1      48.351  27.126  24.116  1.00  0.00     0.041 A 
ATOM     75  F   UNL A   1      46.332  28.312  24.095  1.00  0.00    -0.206 F 
ATOM     76  C   UNL A   1      49.347  26.448  24.813  1.00  0.00     0.022 A 
BRANCH  73  77
ATOM     77  S   UNL A   1      50.554  25.527  27.151  1.00  0.00     0.124 S 
ATOM     78  O   UNL A   1      49.959  24.287  27.647  1.00  0.00    -0.237 OA
ATOM     79  O   UNL A   1      51.605  25.377  26.152  1.00  0.00    -0.237 OA
ATOM     80  O   UNL A   1      50.804  26.540  28.174  1.00  0.00    -0.744 OA
ENDBRANCH  73  77
ENDBRANCH  56  70
BRANCH  57  81
ATOM     81  C   UNL A   1      38.831  30.520  31.037  1.00  0.00     0.023 A 
ATOM     82  C   UNL A   1      37.748  31.138  30.392  1.00  0.00     0.031 A 
ATOM     83  C   UNL A   1      38.776  30.384  32.436  1.00  0.00     0.131 A 
ATOM     84  C   UNL A   1      36.674  31.635  31.150  1.00  0.00     0.055 A 
ATOM     85  C   UNL A   1      37.684  30.834  33.180  1.00  0.00     0.041 A 
ATOM     86  F   UNL A   1      39.785  29.799  33.102  1.00  0.00    -0.206 F 
ATOM     87  C   UNL A   1      36.630  31.475  32.537  1.00  0.00     0.022 A 
BRANCH  84  88
ATOM     88  S   UNL A   1      35.368  32.564  30.303  1.00  0.00     0.124 S 
ATOM     89  O   UNL A   1      36.060  33.797  29.949  1.00  0.00    -0.237 OA
ATOM     90  O   UNL A   1      35.033  31.674  29.196  1.00  0.00    -0.237 OA
ATOM     91  O   UNL A   1      34.331  32.701  31.324  1.00  0.00    -0.744 OA
ENDBRANCH  84  88
ENDBRANCH  57  81
BRANCH  69  92
ATOM     92  C   UNL A   1      44.921  33.507  29.406  1.00  0.00     0.023 A 
ATOM     93  C   UNL A   1      44.754  34.540  28.467  1.00  0.00     0.031 A 
ATOM     94  C   UNL A   1      45.623  33.794  30.590  1.00  0.00     0.131 A 
ATOM     95  C   UNL A   1      45.332  35.797  28.702  1.00  0.00     0.055 A 
ATOM     96  C   UNL A   1      46.144  35.063  30.845  1.00  0.00     0.041 A 
ATOM     97  F   UNL A   1      45.811  32.844  31.520  1.00  0.00    -0.206 F 
ATOM     98  C   UNL A   1      46.011  36.069  29.893  1.00  0.00     0.022 A 
BRANCH  95  99
ATOM     99  S   UNL A   1      45.261  37.047  27.390  1.00  0.00     0.124 S 
ATOM    100  O   UNL A   1      46.111  36.456  26.361  1.00  0.00    -0.237 OA
ATOM    101  O   UNL A   1      43.834  37.100  27.085  1.00  0.00    -0.237 OA
ATOM    102  O   UNL A   1      45.803  38.245  28.029  1.00  0.00    -0.744 OA
ENDBRANCH  95  99
ENDBRANCH  69  92
ENDBRANCH  43  44
ENDBRANCH  36  38
ENDBRANCH  35  36
ENDBRANCH  34  35
ENDBRANCH   1  34
TORSDOF 20
ENDMDL
MODEL 3
REMARK VINA RESULT:     -11.9      1.211      4.563
REMARK SMILES C[NH+]1CCC([NH+]2CCC(Oc3ccc4ccccc4c3)(C(=O)OCCOCCOC(=O)c3ccc(-c4c5nc(c(-c6cc(S(=O)(=O)[O-])ccc6F)c6ccc([nH]6)c(-c6cc(S(=O)(=O)[O-])ccc6F)c6nc(c(-c7cc(S(=O)(=O)[O-])ccc7F)c7ccc4[nH]7)C=C6)C=C5)cc3)CC2)CC1
REMARK SMILES IDX 27 1 26 2 25 3 24 4 23 5 21 6 22 7 9 8 6 9 7 10 96 11 8 13
REMARK SMILES IDX 95 14 5 15 1 16 2 17 3 18 98 19 4 21 97 22 10 23 11 24 12 25
REMARK SMILES IDX 20 26 13 27 19 28 14 29 18 30 15 31 17 32 16 33 28 34 29 35
REMARK SMILES IDX 30 36 31 37 32 38 33 39 94 40 34 41 93 42 35 43 36 44 37 45
REMARK SMILES IDX 87 46 38 47 92 48 86 49 88 50 39 51 91 52 85 53 84 54 40 56
REMARK SMILES IDX 72 57 52 58 71 59 53 60 56 61 70 62 89 63 54 64 55 65 69 67
REMARK SMILES IDX 90 68 57 69 41 70 42 71 50 72 43 73 49 74 51 75 48 76 44 77
REMARK SMILES IDX 45 78 46 79 47 80 73 81 74 82 82 83 75 84 81 85 83 86 80 87
REMARK SMILES IDX 76 88 77 89 78 90 79 91 58 92 59 93 67 94 60 95 66 96 68 97
REMARK SMILES IDX 65 98 61 99 62 100 63 101 64 102
REMARK H PARENT 6 12 2 20 88 55 56 66
REMARK Flexibility Score: inf
ROOT
ATOM      1  C   UNL A   1      36.971  21.168  24.690  1.00  0.00     0.202 C 
ENDROOT
BRANCH   1   2
ATOM      2  O   UNL A   1      37.204  22.503  24.285  1.00  0.00    -0.374 OA
BRANCH   2   3
ATOM      3  C   UNL A   1      36.353  23.046  23.277  1.00  0.00     0.202 C 
BRANCH   3   4
ATOM      4  C   UNL A   1      34.836  22.870  23.435  1.00  0.00     0.261 C 
BRANCH   4   5
ATOM      5  O   UNL A   1      34.188  23.909  24.205  1.00  0.00    -0.460 OA
BRANCH   5   6
ATOM      6  C   UNL A   1      33.896  23.604  25.504  1.00  0.00     0.351 C 
ATOM      7  O   UNL A   1      34.758  23.496  26.376  1.00  0.00    -0.247 OA
BRANCH   6   8
ATOM      8  C   UNL A   1      32.394  23.327  25.775  1.00  0.00     0.216 C 
ATOM      9  N   UNL A   1      30.622  25.674  25.204  1.00  0.00    -0.332 N 
ATOM     10  C   UNL A   1      30.720  24.614  24.200  1.00  0.00     0.267 C 
ATOM     11  C   UNL A   1      31.736  25.728  26.143  1.00  0.00     0.267 C 
ATOM     12  H   UNL A   1      29.827  25.379  25.773  1.00  0.00     0.348 HD
ATOM     13  C   UNL A   1      31.500  23.329  24.525  1.00  0.00     0.122 C 
ATOM     14  C   UNL A   1      31.915  24.363  26.807  1.00  0.00     0.122 C 
BRANCH   9  15
ATOM     15  C   UNL A   1      30.214  27.009  24.673  1.00  0.00     0.195 C 
ATOM     16  C   UNL A   1      29.461  30.040  21.660  1.00  0.00     0.332 C 
ATOM     17  N   UNL A   1      29.804  28.851  22.431  1.00  0.00    -0.337 N 
ATOM     18  C   UNL A   1      28.638  28.268  23.100  1.00  0.00     0.268 C 
ATOM     19  C   UNL A   1      30.865  29.129  23.401  1.00  0.00     0.268 C 
ATOM     20  H   UNL A   1      30.152  28.164  21.763  1.00  0.00     0.347 HD
ATOM     21  C   UNL A   1      29.004  26.914  23.718  1.00  0.00     0.126 C 
ATOM     22  C   UNL A   1      31.344  27.810  23.998  1.00  0.00     0.126 C 
ENDBRANCH   9  15
BRANCH   8  23
ATOM     23  O   UNL A   1      32.547  21.963  26.283  1.00  0.00    -0.475 OA
BRANCH  23  24
ATOM     24  C   UNL A   1      32.576  20.942  25.379  1.00  0.00     0.121 A 
ATOM     25  C   UNL A   1      31.957  21.059  24.141  1.00  0.00     0.047 A 
ATOM     26  C   UNL A   1      33.382  19.836  25.652  1.00  0.00     0.055 A 
ATOM     27  C   UNL A   1      32.067  20.034  23.201  1.00  0.00     0.012 A 
ATOM     28  C   UNL A   1      33.528  18.806  24.703  1.00  0.00    -0.015 A 
ATOM     29  C   UNL A   1      32.846  18.902  23.468  1.00  0.00    -0.018 A 
ATOM     30  C   UNL A   1      34.348  17.690  24.941  1.00  0.00     0.009 A 
ATOM     31  C   UNL A   1      32.983  17.878  22.518  1.00  0.00     0.009 A 
ATOM     32  C   UNL A   1      34.484  16.685  23.981  1.00  0.00     0.001 A 
ATOM     33  C   UNL A   1      33.798  16.777  22.773  1.00  0.00     0.001 A 
ENDBRANCH  23  24
ENDBRANCH   8  23
ENDBRANCH   6   8
ENDBRANCH   5   6
ENDBRANCH   4   5
ENDBRANCH   3   4
ENDBRANCH   2   3
ENDBRANCH   1   2
BRANCH   1  34
ATOM     34  C   UNL A   1      38.107  20.407  25.377  1.00  0.00     0.261 C 
BRANCH  34  35
ATOM     35  O   UNL A   1      39.367  21.069  25.432  1.00  0.00    -0.460 OA
BRANCH  35  36
ATOM     36  C   UNL A   1      40.046  20.887  26.588  1.00  0.00     0.338 C 
ATOM     37  O   UNL A   1      40.431  19.840  27.072  1.00  0.00    -0.246 OA
BRANCH  36  38
ATOM     38  C   UNL A   1      40.366  22.208  27.141  1.00  0.00     0.060 A 
ATOM     39  C   UNL A   1      39.740  23.319  26.571  1.00  0.00     0.016 A 
ATOM     40  C   UNL A   1      41.316  22.352  28.155  1.00  0.00     0.016 A 
ATOM     41  C   UNL A   1      40.096  24.596  26.991  1.00  0.00     0.010 A 
ATOM     42  C   UNL A   1      41.672  23.635  28.575  1.00  0.00     0.010 A 
ATOM     43  C   UNL A   1      41.087  24.762  27.970  1.00  0.00    -0.014 A 
BRANCH  43  44
ATOM     44  C   UNL A   1      41.601  26.124  28.241  1.00  0.00     0.031 A 
ATOM     45  C   UNL A   1      42.969  26.496  27.740  1.00  0.00     0.074 A 
ATOM     46  C   UNL A   1      40.827  27.027  28.870  1.00  0.00     0.049 A 
ATOM     47  N   UNL A   1      43.598  27.640  27.819  1.00  0.00    -0.248 NA
ATOM     48  C   UNL A   1      43.726  25.436  27.060  1.00  0.00     0.031 C 
ATOM     49  C   UNL A   1      39.475  26.774  29.367  1.00  0.00     0.029 A 
ATOM     50  N   UNL A   1      41.063  28.340  29.188  1.00  0.00    -0.354 N 
ATOM     51  C   UNL A   1      44.823  27.440  27.189  1.00  0.00     0.074 A 
ATOM     52  C   UNL A   1      44.864  26.053  26.779  1.00  0.00     0.031 C 
ATOM     53  C   UNL A   1      38.999  27.900  29.925  1.00  0.00     0.029 A 
ATOM     54  C   UNL A   1      40.020  28.942  29.851  1.00  0.00     0.049 A 
ATOM     55  H   UNL A   1      41.900  28.806  28.963  1.00  0.00     0.167 HD
ATOM     56  C   UNL A   1      45.815  28.337  26.965  1.00  0.00     0.034 A 
ATOM     57  C   UNL A   1      39.912  30.189  30.351  1.00  0.00     0.034 A 
ATOM     58  C   UNL A   1      45.760  29.711  27.402  1.00  0.00     0.049 A 
ATOM     59  C   UNL A   1      41.059  31.149  30.154  1.00  0.00     0.074 A 
ATOM     60  C   UNL A   1      46.699  30.712  27.227  1.00  0.00     0.029 A 
ATOM     61  N   UNL A   1      44.709  30.275  28.116  1.00  0.00    -0.354 N 
ATOM     62  N   UNL A   1      42.204  30.954  29.539  1.00  0.00    -0.248 NA
ATOM     63  C   UNL A   1      40.894  32.499  30.707  1.00  0.00     0.031 C 
ATOM     64  C   UNL A   1      46.247  31.858  27.893  1.00  0.00     0.029 A 
ATOM     65  C   UNL A   1      44.991  31.598  28.418  1.00  0.00     0.049 A 
ATOM     66  H   UNL A   1      43.882  29.803  28.369  1.00  0.00     0.167 HD
ATOM     67  C   UNL A   1      42.884  32.168  29.610  1.00  0.00     0.074 A 
ATOM     68  C   UNL A   1      42.013  33.089  30.311  1.00  0.00     0.031 C 
ATOM     69  C   UNL A   1      44.113  32.494  29.134  1.00  0.00     0.034 A 
BRANCH  56  70
ATOM     70  C   UNL A   1      47.054  27.836  26.263  1.00  0.00     0.023 A 
ATOM     71  C   UNL A   1      47.268  28.051  24.889  1.00  0.00     0.031 A 
ATOM     72  C   UNL A   1      48.018  27.095  26.971  1.00  0.00     0.131 A 
ATOM     73  C   UNL A   1      48.379  27.473  24.254  1.00  0.00     0.055 A 
ATOM     74  C   UNL A   1      49.160  26.588  26.348  1.00  0.00     0.041 A 
ATOM     75  F   UNL A   1      47.857  26.838  28.278  1.00  0.00    -0.206 F 
ATOM     76  C   UNL A   1      49.338  26.763  24.979  1.00  0.00     0.022 A 
BRANCH  73  77
ATOM     77  S   UNL A   1      48.480  27.545  22.444  1.00  0.00     0.124 S 
ATOM     78  O   UNL A   1      49.609  28.452  22.247  1.00  0.00    -0.237 OA
ATOM     79  O   UNL A   1      48.711  26.151  22.086  1.00  0.00    -0.237 OA
ATOM     80  O   UNL A   1      47.181  28.085  22.048  1.00  0.00    -0.744 OA
ENDBRANCH  73  77
ENDBRANCH  56  70
BRANCH  57  81
ATOM     81  C   UNL A   1      38.693  30.595  31.108  1.00  0.00     0.023 A 
ATOM     82  C   UNL A   1      37.607  31.212  30.469  1.00  0.00     0.031 A 
ATOM     83  C   UNL A   1      38.620  30.406  32.501  1.00  0.00     0.131 A 
ATOM     84  C   UNL A   1      36.510  31.656  31.228  1.00  0.00     0.055 A 
ATOM     85  C   UNL A   1      37.506  30.804  33.243  1.00  0.00     0.041 A 
ATOM     86  F   UNL A   1      39.631  29.820  33.161  1.00  0.00    -0.206 F 
ATOM     87  C   UNL A   1      36.448  31.444  32.607  1.00  0.00     0.022 A 
BRANCH  84  88
ATOM     88  S   UNL A   1      35.195  32.587  30.393  1.00  0.00     0.124 S 
ATOM     89  O   UNL A   1      34.795  31.659  29.342  1.00  0.00    -0.237 OA
ATOM     90  O   UNL A   1      34.235  32.788  31.473  1.00  0.00    -0.237 OA
ATOM     91  O   UNL A   1      35.875  33.797  29.933  1.00  0.00    -0.744 OA
ENDBRANCH  84  88
ENDBRANCH  57  81
BRANCH  69  92
ATOM     92  C   UNL A   1      44.562  33.922  29.331  1.00  0.00     0.023 A 
ATOM     93  C   UNL A   1      44.231  34.933  28.413  1.00  0.00     0.031 A 
ATOM     94  C   UNL A   1      45.343  34.269  30.447  1.00  0.00     0.131 A 
ATOM     95  C   UNL A   1      44.728  36.233  28.597  1.00  0.00     0.055 A 
ATOM     96  C   UNL A   1      45.784  35.576  30.657  1.00  0.00     0.041 A 
ATOM     97  F   UNL A   1      45.688  33.341  31.355  1.00  0.00    -0.206 F 
ATOM     98  C   UNL A   1      45.489  36.564  29.723  1.00  0.00     0.022 A 
BRANCH  95  99
ATOM     99  S   UNL A   1      44.442  37.467  27.299  1.00  0.00     0.124 S 
ATOM    100  O   UNL A   1      44.366  38.705  28.069  1.00  0.00    -0.237 OA
ATOM    101  O   UNL A   1      45.622  37.312  26.455  1.00  0.00    -0.237 OA
ATOM    102  O   UNL A   1      43.183  37.038  26.690  1.00  0.00    -0.744 OA
ENDBRANCH  95  99
ENDBRANCH  69  92
ENDBRANCH  43  44
ENDBRANCH  36  38
ENDBRANCH  35  36
ENDBRANCH  34  35
ENDBRANCH   1  34
TORSDOF 20
ENDMDL
