MODEL 1
REMARK VINA RESULT:     -12.8      0.000      0.000
REMARK SMILES O=C(OCCOCCOC(=O)c1ccc(-c2c3nc(c(-c4cc(S(=O)(=O)[O-])ccc4F)c4ccc([nH]4)c(-c4cc(S(=O)(=O)[O-])ccc4F)c4nc(c(-c5cc(S(=O)(=O)[O-])ccc5F)c5ccc2[nH]5)C=C4)C=C3)cc1)C1=Cc2cc(Cl)cc(-c3ccc(O)cc3)c2O[C@@H]1C(F)(F)F
REMARK SMILES IDX 7 1 6 2 5 3 4 4 3 5 2 6 1 7 75 8 76 9 92 10 77 11 91 12
REMARK SMILES IDX 78 13 90 14 79 15 82 16 80 17 81 18 93 19 94 20 95 21 96 22
REMARK SMILES IDX 83 23 84 24 89 25 85 26 88 27 86 28 87 29 8 31 9 32 10 33
REMARK SMILES IDX 11 34 12 35 13 36 74 37 14 38 73 39 15 40 16 41 17 42 67 43
REMARK SMILES IDX 18 44 72 45 66 46 68 47 19 48 71 49 65 50 64 51 20 53 52 54
REMARK SMILES IDX 32 55 51 56 33 57 36 58 50 59 69 60 34 61 35 62 49 64 70 65
REMARK SMILES IDX 37 66 21 67 22 68 30 69 23 70 29 71 31 72 28 73 24 74 25 75
REMARK SMILES IDX 26 76 27 77 53 78 54 79 62 80 55 81 61 82 63 83 60 84 56 85
REMARK SMILES IDX 57 86 58 87 59 88 38 89 39 90 47 91 40 92 46 93 48 94 45 95
REMARK SMILES IDX 41 96 42 97 43 98 44 99
REMARK H PARENT 87 30 68 52 36 63
REMARK Flexibility Score: inf
ROOT
ATOM      1  C   UNL A   1      36.222  19.046  24.642  1.00  0.00     0.202 C 
ENDROOT
BRANCH   1   2
ATOM      2  O   UNL A   1      35.076  19.934  24.667  1.00  0.00    -0.374 OA
BRANCH   2   3
ATOM      3  C   UNL A   1      33.630  19.894  25.440  1.00  0.00     0.202 C 
BRANCH   3   4
ATOM      4  C   UNL A   1      31.900  21.198  25.228  1.00  0.00     0.261 C 
BRANCH   4   5
ATOM      5  O   UNL A   1      31.831  22.471  24.302  1.00  0.00    -0.460 OA
BRANCH   5   6
ATOM      6  C   UNL A   1      31.431  23.577  24.939  1.00  0.00     0.338 C 
ATOM      7  O   UNL A   1      30.442  23.809  25.585  1.00  0.00    -0.246 OA
BRANCH   6   8
ATOM      8  C   UNL A   1      32.403  24.430  24.312  1.00  0.00     0.087 C 
ATOM      9  C   UNL A   1      31.767  25.291  23.312  1.00  0.00     0.027 C 
ATOM     10  C   UNL A   1      33.278  25.058  25.922  1.00  0.00     0.316 C 
ATOM     11  C   UNL A   1      31.521  27.062  23.542  1.00  0.00     0.019 A 
ATOM     12  O   UNL A   1      33.015  26.974  26.185  1.00  0.00    -0.475 OA
ATOM     13  C   UNL A   1      30.675  27.641  22.634  1.00  0.00     0.032 A 
ATOM     14  C   UNL A   1      32.046  27.943  24.964  1.00  0.00     0.135 A 
ATOM     15  C   UNL A   1      30.225  28.907  22.987  1.00  0.00     0.042 A 
ATOM     16  C   UNL A   1      31.612  29.287  25.161  1.00  0.00     0.026 A 
ATOM     17  Cl  UNL A   1      29.102  29.669  21.908  1.00  0.00    -0.084 Cl
ATOM     18  C   UNL A   1      30.624  29.636  24.171  1.00  0.00     0.033 A 
BRANCH  10  19
ATOM     19  C   UNL A   1      34.574  24.119  25.749  1.00  0.00     0.430 C 
ATOM     20  F   UNL A   1      34.490  23.200  24.767  1.00  0.00    -0.167 F 
ATOM     21  F   UNL A   1      35.622  24.912  25.368  1.00  0.00    -0.167 F 
ATOM     22  F   UNL A   1      35.011  23.517  26.879  1.00  0.00    -0.167 F 
ENDBRANCH  10  19
BRANCH  16  23
ATOM     23  C   UNL A   1      32.035  30.427  26.220  1.00  0.00    -0.014 A 
ATOM     24  C   UNL A   1      33.718  29.991  26.736  1.00  0.00     0.012 A 
ATOM     25  C   UNL A   1      31.406  32.297  26.746  1.00  0.00     0.012 A 
ATOM     26  C   UNL A   1      34.695  31.183  27.600  1.00  0.00     0.047 A 
ATOM     27  C   UNL A   1      32.524  33.401  27.617  1.00  0.00     0.047 A 
ATOM     28  C   UNL A   1      34.109  32.803  28.004  1.00  0.00     0.115 A 
BRANCH  28  29
ATOM     29  O   UNL A   1      34.947  33.619  28.714  1.00  0.00    -0.508 OA
ATOM     30  H   UNL A   1      35.661  33.251  29.198  1.00  0.00     0.293 HD
ENDBRANCH  28  29
ENDBRANCH  16  23
ENDBRANCH   6   8
ENDBRANCH   5   6
ENDBRANCH   4   5
ENDBRANCH   3   4
ENDBRANCH   2   3
ENDBRANCH   1   2
BRANCH   1  31
ATOM     31  C   UNL A   1      37.606  19.689  24.583  1.00  0.00     0.261 C 
BRANCH  31  32
ATOM     32  O   UNL A   1      38.023  20.021  25.880  1.00  0.00    -0.460 OA
BRANCH  32  33
ATOM     33  C   UNL A   1      39.363  20.055  25.993  1.00  0.00     0.338 C 
ATOM     34  O   UNL A   1      40.189  19.204  25.733  1.00  0.00    -0.246 OA
BRANCH  33  35
ATOM     35  C   UNL A   1      39.642  21.398  26.427  1.00  0.00     0.060 A 
ATOM     36  C   UNL A   1      38.677  22.760  25.822  1.00  0.00     0.016 A 
ATOM     37  C   UNL A   1      41.094  21.745  27.454  1.00  0.00     0.016 A 
ATOM     38  C   UNL A   1      39.103  24.467  26.147  1.00  0.00     0.010 A 
ATOM     39  C   UNL A   1      41.513  23.696  27.807  1.00  0.00     0.010 A 
ATOM     40  C   UNL A   1      40.485  24.966  27.108  1.00  0.00    -0.014 A 
BRANCH  40  41
ATOM     41  C   UNL A   1      41.081  26.331  27.216  1.00  0.00     0.031 A 
ATOM     42  C   UNL A   1      42.489  26.609  26.721  1.00  0.00     0.074 A 
ATOM     43  C   UNL A   1      40.531  27.182  28.104  1.00  0.00     0.049 A 
ATOM     44  N   UNL A   1      43.266  27.644  26.943  1.00  0.00    -0.248 NA
ATOM     45  C   UNL A   1      43.136  25.557  25.928  1.00  0.00     0.031 C 
ATOM     46  C   UNL A   1      39.281  26.946  28.822  1.00  0.00     0.029 A 
ATOM     47  N   UNL A   1      40.986  28.373  28.616  1.00  0.00    -0.354 N 
ATOM     48  C   UNL A   1      44.484  27.361  26.324  1.00  0.00     0.074 A 
ATOM     49  C   UNL A   1      44.371  26.023  25.789  1.00  0.00     0.031 C 
ATOM     50  C   UNL A   1      39.075  27.944  29.694  1.00  0.00     0.029 A 
ATOM     51  C   UNL A   1      40.187  28.885  29.614  1.00  0.00     0.049 A 
ATOM     52  H   UNL A   1      41.806  28.817  28.302  1.00  0.00     0.167 HD
ATOM     53  C   UNL A   1      45.582  28.150  26.181  1.00  0.00     0.034 A 
ATOM     54  C   UNL A   1      40.331  29.980  30.385  1.00  0.00     0.034 A 
ATOM     55  C   UNL A   1      45.685  29.480  26.731  1.00  0.00     0.049 A 
ATOM     56  C   UNL A   1      41.529  30.873  30.179  1.00  0.00     0.074 A 
ATOM     57  C   UNL A   1      46.668  30.434  26.514  1.00  0.00     0.029 A 
ATOM     58  N   UNL A   1      44.791  30.034  27.636  1.00  0.00    -0.354 N 
ATOM     59  N   UNL A   1      42.568  30.694  29.397  1.00  0.00    -0.248 NA
ATOM     60  C   UNL A   1      41.553  32.135  30.931  1.00  0.00     0.031 C 
ATOM     61  C   UNL A   1      46.413  31.525  27.350  1.00  0.00     0.029 A 
ATOM     62  C   UNL A   1      45.223  31.294  28.020  1.00  0.00     0.049 A 
ATOM     63  H   UNL A   1      43.971  29.596  27.959  1.00  0.00     0.167 HD
ATOM     64  C   UNL A   1      43.342  31.845  29.530  1.00  0.00     0.074 A 
ATOM     65  C   UNL A   1      42.640  32.715  30.448  1.00  0.00     0.031 C 
ATOM     66  C   UNL A   1      44.524  32.157  28.940  1.00  0.00     0.034 A 
BRANCH  53  67
ATOM     67  C   UNL A   1      46.750  27.633  25.364  1.00  0.00     0.023 A 
ATOM     68  C   UNL A   1      46.934  28.031  24.029  1.00  0.00     0.031 A 
ATOM     69  C   UNL A   1      47.732  26.803  25.936  1.00  0.00     0.131 A 
ATOM     70  C   UNL A   1      48.035  27.562  23.295  1.00  0.00     0.055 A 
ATOM     71  C   UNL A   1      48.869  26.402  25.225  1.00  0.00     0.041 A 
ATOM     72  F   UNL A   1      47.615  26.375  27.203  1.00  0.00    -0.206 F 
ATOM     73  C   UNL A   1      49.021  26.775  23.893  1.00  0.00     0.022 A 
BRANCH  70  74
ATOM     74  S   UNL A   1      48.101  27.916  21.518  1.00  0.00     0.124 S 
ATOM     75  O   UNL A   1      46.779  28.494  21.285  1.00  0.00    -0.237 OA
ATOM     76  O   UNL A   1      49.226  28.838  21.421  1.00  0.00    -0.237 OA
ATOM     77  O   UNL A   1      48.314  26.602  20.914  1.00  0.00    -0.744 OA
ENDBRANCH  70  74
ENDBRANCH  53  67
BRANCH  54  78
ATOM     78  C   UNL A   1      39.288  30.341  31.389  1.00  0.00     0.023 A 
ATOM     79  C   UNL A   1      38.299  31.281  31.065  1.00  0.00     0.031 A 
ATOM     80  C   UNL A   1      39.292  29.808  32.689  1.00  0.00     0.131 A 
ATOM     81  C   UNL A   1      37.407  31.727  32.049  1.00  0.00     0.055 A 
ATOM     82  C   UNL A   1      38.354  30.203  33.647  1.00  0.00     0.041 A 
ATOM     83  F   UNL A   1      40.204  28.890  33.047  1.00  0.00    -0.206 F 
ATOM     84  C   UNL A   1      37.417  31.185  33.335  1.00  0.00     0.022 A 
BRANCH  81  85
ATOM     85  S   UNL A   1      36.324  33.126  31.652  1.00  0.00     0.124 S 
ATOM     86  O   UNL A   1      37.009  33.713  30.506  1.00  0.00    -0.237 OA
ATOM     87  O   UNL A   1      35.059  32.457  31.369  1.00  0.00    -0.237 OA
ATOM     88  O   UNL A   1      36.346  33.929  32.872  1.00  0.00    -0.744 OA
ENDBRANCH  81  85
ENDBRANCH  54  78
BRANCH  66  89
ATOM     89  C   UNL A   1      45.108  33.517  29.234  1.00  0.00     0.023 A 
ATOM     90  C   UNL A   1      44.774  34.647  28.469  1.00  0.00     0.031 A 
ATOM     91  C   UNL A   1      46.021  33.682  30.292  1.00  0.00     0.131 A 
ATOM     92  C   UNL A   1      45.399  35.875  28.728  1.00  0.00     0.055 A 
ATOM     93  C   UNL A   1      46.581  34.924  30.593  1.00  0.00     0.041 A 
ATOM     94  F   UNL A   1      46.384  32.636  31.053  1.00  0.00    -0.206 F 
ATOM     95  C   UNL A   1      46.282  36.027  29.799  1.00  0.00     0.022 A 
BRANCH  92  96
ATOM     96  S   UNL A   1      45.123  37.248  27.575  1.00  0.00     0.124 S 
ATOM     97  O   UNL A   1      45.148  38.402  28.469  1.00  0.00    -0.237 OA
ATOM     98  O   UNL A   1      46.257  37.124  26.664  1.00  0.00    -0.237 OA
ATOM     99  O   UNL A   1      43.820  36.946  26.987  1.00  0.00    -0.744 OA
ENDBRANCH  92  96
ENDBRANCH  66  89
ENDBRANCH  40  41
ENDBRANCH  33  35
ENDBRANCH  32  33
ENDBRANCH  31  32
ENDBRANCH   1  31
TORSDOF 20
ENDMDL
MODEL 2
REMARK VINA RESULT:     -12.5      1.887      7.508
REMARK SMILES O=C(OCCOCCOC(=O)c1ccc(-c2c3nc(c(-c4cc(S(=O)(=O)[O-])ccc4F)c4ccc([nH]4)c(-c4cc(S(=O)(=O)[O-])ccc4F)c4nc(c(-c5cc(S(=O)(=O)[O-])ccc5F)c5ccc2[nH]5)C=C4)C=C3)cc1)C1=Cc2cc(Cl)cc(-c3ccc(O)cc3)c2O[C@@H]1C(F)(F)F
REMARK SMILES IDX 7 1 6 2 5 3 4 4 3 5 2 6 1 7 75 8 76 9 92 10 77 11 91 12
REMARK SMILES IDX 78 13 90 14 79 15 82 16 80 17 81 18 93 19 94 20 95 21 96 22
REMARK SMILES IDX 83 23 84 24 89 25 85 26 88 27 86 28 87 29 8 31 9 32 10 33
REMARK SMILES IDX 11 34 12 35 13 36 74 37 14 38 73 39 15 40 16 41 17 42 67 43
REMARK SMILES IDX 18 44 72 45 66 46 68 47 19 48 71 49 65 50 64 51 20 53 52 54
REMARK SMILES IDX 32 55 51 56 33 57 36 58 50 59 69 60 34 61 35 62 49 64 70 65
REMARK SMILES IDX 37 66 21 67 22 68 30 69 23 70 29 71 31 72 28 73 24 74 25 75
REMARK SMILES IDX 26 76 27 77 53 78 54 79 62 80 55 81 61 82 63 83 60 84 56 85
REMARK SMILES IDX 57 86 58 87 59 88 38 89 39 90 47 91 40 92 46 93 48 94 45 95
REMARK SMILES IDX 41 96 42 97 43 98 44 99
REMARK H PARENT 87 30 68 52 36 63
REMARK Flexibility Score: inf
ROOT
ATOM      1  C   UNL A   1      36.605  19.346  24.895  1.00  0.00     0.202 C 
ENDROOT
BRANCH   1   2
ATOM      2  O   UNL A   1      35.352  20.048  25.092  1.00  0.00    -0.374 OA
BRANCH   2   3
ATOM      3  C   UNL A   1      33.791  19.706  24.718  1.00  0.00     0.202 C 
BRANCH   3   4
ATOM      4  C   UNL A   1      32.111  21.049  24.387  1.00  0.00     0.261 C 
BRANCH   4   5
ATOM      5  O   UNL A   1      32.200  22.460  23.692  1.00  0.00    -0.460 OA
BRANCH   5   6
ATOM      6  C   UNL A   1      31.843  23.474  24.488  1.00  0.00     0.338 C 
ATOM      7  O   UNL A   1      30.934  23.591  25.268  1.00  0.00    -0.246 OA
BRANCH   6   8
ATOM      8  C   UNL A   1      32.701  24.432  23.847  1.00  0.00     0.087 C 
ATOM      9  C   UNL A   1      31.932  25.294  22.945  1.00  0.00     0.027 C 
ATOM     10  C   UNL A   1      33.644  25.040  25.426  1.00  0.00     0.316 C 
ATOM     11  C   UNL A   1      31.573  27.025  23.295  1.00  0.00     0.019 A 
ATOM     12  O   UNL A   1      33.260  26.913  25.818  1.00  0.00    -0.475 OA
ATOM     13  C   UNL A   1      30.623  27.584  22.484  1.00  0.00     0.032 A 
ATOM     14  C   UNL A   1      32.135  27.867  24.726  1.00  0.00     0.135 A 
ATOM     15  C   UNL A   1      30.107  28.791  22.940  1.00  0.00     0.042 A 
ATOM     16  C   UNL A   1      31.618  29.161  25.031  1.00  0.00     0.026 A 
ATOM     17  Cl  UNL A   1      28.855  29.519  21.988  1.00  0.00    -0.084 Cl
ATOM     18  C   UNL A   1      30.537  29.484  24.134  1.00  0.00     0.033 A 
BRANCH  10  19
ATOM     19  C   UNL A   1      34.989  24.215  25.109  1.00  0.00     0.430 C 
ATOM     20  F   UNL A   1      35.494  24.394  23.872  1.00  0.00    -0.167 F 
ATOM     21  F   UNL A   1      35.974  24.682  25.936  1.00  0.00    -0.167 F 
ATOM     22  F   UNL A   1      34.935  22.890  25.376  1.00  0.00    -0.167 F 
ENDBRANCH  10  19
BRANCH  16  23
ATOM     23  C   UNL A   1      32.032  30.272  26.123  1.00  0.00    -0.014 A 
ATOM     24  C   UNL A   1      33.695  29.799  26.672  1.00  0.00     0.012 A 
ATOM     25  C   UNL A   1      31.421  32.142  26.671  1.00  0.00     0.012 A 
ATOM     26  C   UNL A   1      34.669  30.957  27.585  1.00  0.00     0.047 A 
ATOM     27  C   UNL A   1      32.534  33.209  27.592  1.00  0.00     0.047 A 
ATOM     28  C   UNL A   1      34.099  32.577  28.007  1.00  0.00     0.115 A 
BRANCH  28  29
ATOM     29  O   UNL A   1      34.932  33.365  28.754  1.00  0.00    -0.508 OA
ATOM     30  H   UNL A   1      34.670  33.643  29.610  1.00  0.00     0.293 HD
ENDBRANCH  28  29
ENDBRANCH  16  23
ENDBRANCH   6   8
ENDBRANCH   5   6
ENDBRANCH   4   5
ENDBRANCH   3   4
ENDBRANCH   2   3
ENDBRANCH   1   2
BRANCH   1  31
ATOM     31  C   UNL A   1      37.841  20.189  24.590  1.00  0.00     0.261 C 
BRANCH  31  32
ATOM     32  O   UNL A   1      38.226  20.887  25.744  1.00  0.00    -0.460 OA
BRANCH  32  33
ATOM     33  C   UNL A   1      39.480  20.586  26.128  1.00  0.00     0.338 C 
ATOM     34  O   UNL A   1      40.137  19.584  25.928  1.00  0.00    -0.246 OA
BRANCH  33  35
ATOM     35  C   UNL A   1      39.940  21.779  26.786  1.00  0.00     0.060 A 
ATOM     36  C   UNL A   1      39.349  23.374  26.276  1.00  0.00     0.016 A 
ATOM     37  C   UNL A   1      41.262  21.692  28.021  1.00  0.00     0.016 A 
ATOM     38  C   UNL A   1      40.036  24.904  26.899  1.00  0.00     0.010 A 
ATOM     39  C   UNL A   1      41.984  23.457  28.706  1.00  0.00     0.010 A 
ATOM     40  C   UNL A   1      41.329  24.987  28.083  1.00  0.00    -0.014 A 
BRANCH  40  41
ATOM     41  C   UNL A   1      42.149  26.176  28.463  1.00  0.00     0.031 A 
ATOM     42  C   UNL A   1      41.507  27.395  29.100  1.00  0.00     0.074 A 
ATOM     43  C   UNL A   1      43.353  26.316  27.875  1.00  0.00     0.049 A 
ATOM     44  N   UNL A   1      41.992  28.603  29.275  1.00  0.00    -0.248 NA
ATOM     45  C   UNL A   1      40.112  27.262  29.538  1.00  0.00     0.031 C 
ATOM     46  C   UNL A   1      44.002  25.300  27.050  1.00  0.00     0.029 A 
ATOM     47  N   UNL A   1      44.207  27.390  27.809  1.00  0.00    -0.354 N 
ATOM     48  C   UNL A   1      40.963  29.362  29.834  1.00  0.00     0.074 A 
ATOM     49  C   UNL A   1      39.803  28.503  29.892  1.00  0.00     0.031 C 
ATOM     50  C   UNL A   1      45.139  25.799  26.545  1.00  0.00     0.029 A 
ATOM     51  C   UNL A   1      45.296  27.179  26.993  1.00  0.00     0.049 A 
ATOM     52  H   UNL A   1      44.056  28.231  28.298  1.00  0.00     0.167 HD
ATOM     53  C   UNL A   1      40.988  30.643  30.291  1.00  0.00     0.034 A 
ATOM     54  C   UNL A   1      46.302  28.000  26.633  1.00  0.00     0.034 A 
ATOM     55  C   UNL A   1      42.151  31.494  30.215  1.00  0.00     0.049 A 
ATOM     56  C   UNL A   1      46.342  29.401  27.189  1.00  0.00     0.074 A 
ATOM     57  C   UNL A   1      42.351  32.740  30.789  1.00  0.00     0.029 A 
ATOM     58  N   UNL A   1      43.299  31.203  29.494  1.00  0.00    -0.354 N 
ATOM     59  N   UNL A   1      45.452  30.024  27.926  1.00  0.00    -0.248 NA
ATOM     60  C   UNL A   1      47.542  30.197  26.896  1.00  0.00     0.031 C 
ATOM     61  C   UNL A   1      43.581  33.236  30.345  1.00  0.00     0.029 A 
ATOM     62  C   UNL A   1      44.190  32.262  29.571  1.00  0.00     0.049 A 
ATOM     63  H   UNL A   1      43.458  30.366  28.999  1.00  0.00     0.167 HD
ATOM     64  C   UNL A   1      46.010  31.265  28.223  1.00  0.00     0.074 A 
ATOM     65  C   UNL A   1      47.317  31.293  27.604  1.00  0.00     0.031 C 
ATOM     66  C   UNL A   1      45.490  32.289  28.948  1.00  0.00     0.034 A 
BRANCH  53  67
ATOM     67  C   UNL A   1      39.747  31.203  30.956  1.00  0.00     0.023 A 
ATOM     68  C   UNL A   1      39.638  31.265  32.356  1.00  0.00     0.031 A 
ATOM     69  C   UNL A   1      38.695  31.754  30.199  1.00  0.00     0.131 A 
ATOM     70  C   UNL A   1      38.493  31.811  32.955  1.00  0.00     0.055 A 
ATOM     71  C   UNL A   1      37.591  32.369  30.801  1.00  0.00     0.041 A 
ATOM     72  F   UNL A   1      38.727  31.721  28.857  1.00  0.00    -0.206 F 
ATOM     73  C   UNL A   1      37.482  32.391  32.188  1.00  0.00     0.022 A 
BRANCH  70  74
ATOM     74  S   UNL A   1      38.302  31.654  34.752  1.00  0.00     0.124 S 
ATOM     75  O   UNL A   1      39.450  32.418  35.236  1.00  0.00    -0.237 OA
ATOM     76  O   UNL A   1      36.994  32.253  34.984  1.00  0.00    -0.237 OA
ATOM     77  O   UNL A   1      38.380  30.213  34.981  1.00  0.00    -0.744 OA
ENDBRANCH  70  74
ENDBRANCH  53  67
BRANCH  54  78
ATOM     78  C   UNL A   1      47.397  27.511  25.747  1.00  0.00     0.023 A 
ATOM     79  C   UNL A   1      48.569  26.980  26.307  1.00  0.00     0.031 A 
ATOM     80  C   UNL A   1      47.323  27.614  24.348  1.00  0.00     0.131 A 
ATOM     81  C   UNL A   1      49.654  26.654  25.484  1.00  0.00     0.055 A 
ATOM     82  C   UNL A   1      48.383  27.219  23.526  1.00  0.00     0.041 A 
ATOM     83  F   UNL A   1      46.219  28.096  23.757  1.00  0.00    -0.206 F 
ATOM     84  C   UNL A   1      49.566  26.756  24.095  1.00  0.00     0.022 A 
BRANCH  81  85
ATOM     85  S   UNL A   1      51.228  26.222  26.274  1.00  0.00     0.124 S 
ATOM     86  O   UNL A   1      51.358  27.280  27.270  1.00  0.00    -0.237 OA
ATOM     87  O   UNL A   1      50.951  24.887  26.790  1.00  0.00    -0.237 OA
ATOM     88  O   UNL A   1      52.187  26.278  25.173  1.00  0.00    -0.744 OA
ENDBRANCH  81  85
ENDBRANCH  54  78
BRANCH  66  89
ATOM     89  C   UNL A   1      46.359  33.506  29.150  1.00  0.00     0.023 A 
ATOM     90  C   UNL A   1      46.365  34.570  28.233  1.00  0.00     0.031 A 
ATOM     91  C   UNL A   1      47.202  33.597  30.273  1.00  0.00     0.131 A 
ATOM     92  C   UNL A   1      47.245  35.647  28.418  1.00  0.00     0.055 A 
ATOM     93  C   UNL A   1      48.019  34.706  30.492  1.00  0.00     0.041 A 
ATOM     94  F   UNL A   1      47.244  32.606  31.179  1.00  0.00    -0.206 F 
ATOM     95  C   UNL A   1      48.055  35.733  29.553  1.00  0.00     0.022 A 
BRANCH  92  96
ATOM     96  S   UNL A   1      47.396  36.881  27.098  1.00  0.00     0.124 S 
ATOM     97  O   UNL A   1      48.840  37.084  27.038  1.00  0.00    -0.237 OA
ATOM     98  O   UNL A   1      46.802  36.192  25.956  1.00  0.00    -0.237 OA
ATOM     99  O   UNL A   1      46.629  38.018  27.602  1.00  0.00    -0.744 OA
ENDBRANCH  92  96
ENDBRANCH  66  89
ENDBRANCH  40  41
ENDBRANCH  33  35
ENDBRANCH  32  33
ENDBRANCH  31  32
ENDBRANCH   1  31
TORSDOF 20
ENDMDL
MODEL 3
REMARK VINA RESULT:     -12.2      1.997      2.250
REMARK SMILES O=C(OCCOCCOC(=O)c1ccc(-c2c3nc(c(-c4cc(S(=O)(=O)[O-])ccc4F)c4ccc([nH]4)c(-c4cc(S(=O)(=O)[O-])ccc4F)c4nc(c(-c5cc(S(=O)(=O)[O-])ccc5F)c5ccc2[nH]5)C=C4)C=C3)cc1)C1=Cc2cc(Cl)cc(-c3ccc(O)cc3)c2O[C@@H]1C(F)(F)F
REMARK SMILES IDX 7 1 6 2 5 3 4 4 3 5 2 6 1 7 75 8 76 9 92 10 77 11 91 12
REMARK SMILES IDX 78 13 90 14 79 15 82 16 80 17 81 18 93 19 94 20 95 21 96 22
REMARK SMILES IDX 83 23 84 24 89 25 85 26 88 27 86 28 87 29 8 31 9 32 10 33
REMARK SMILES IDX 11 34 12 35 13 36 74 37 14 38 73 39 15 40 16 41 17 42 67 43
REMARK SMILES IDX 18 44 72 45 66 46 68 47 19 48 71 49 65 50 64 51 20 53 52 54
REMARK SMILES IDX 32 55 51 56 33 57 36 58 50 59 69 60 34 61 35 62 49 64 70 65
REMARK SMILES IDX 37 66 21 67 22 68 30 69 23 70 29 71 31 72 28 73 24 74 25 75
REMARK SMILES IDX 26 76 27 77 53 78 54 79 62 80 55 81 61 82 63 83 60 84 56 85
REMARK SMILES IDX 57 86 58 87 59 88 38 89 39 90 47 91 40 92 46 93 48 94 45 95
REMARK SMILES IDX 41 96 42 97 43 98 44 99
REMARK H PARENT 87 30 68 52 36 63
REMARK Flexibility Score: inf
ROOT
ATOM      1  C   UNL A   1      36.467  19.281  24.625  1.00  0.00     0.202 C 
ENDROOT
BRANCH   1   2
ATOM      2  O   UNL A   1      35.278  20.107  24.707  1.00  0.00    -0.374 OA
BRANCH   2   3
ATOM      3  C   UNL A   1      33.696  19.788  25.000  1.00  0.00     0.202 C 
BRANCH   3   4
ATOM      4  C   UNL A   1      31.978  21.125  24.988  1.00  0.00     0.261 C 
BRANCH   4   5
ATOM      5  O   UNL A   1      31.861  22.443  24.133  1.00  0.00    -0.460 OA
BRANCH   5   6
ATOM      6  C   UNL A   1      31.506  23.517  24.848  1.00  0.00     0.338 C 
ATOM      7  O   UNL A   1      30.560  23.717  25.565  1.00  0.00    -0.246 OA
BRANCH   6   8
ATOM      8  C   UNL A   1      32.439  24.399  24.203  1.00  0.00     0.087 C 
ATOM      9  C   UNL A   1      31.754  25.263  23.239  1.00  0.00     0.027 C 
ATOM     10  C   UNL A   1      33.356  25.019  25.792  1.00  0.00     0.316 C 
ATOM     11  C   UNL A   1      31.480  27.025  23.506  1.00  0.00     0.019 A 
ATOM     12  O   UNL A   1      33.064  26.925  26.096  1.00  0.00    -0.475 OA
ATOM     13  C   UNL A   1      30.594  27.601  22.637  1.00  0.00     0.032 A 
ATOM     14  C   UNL A   1      32.036  27.894  24.924  1.00  0.00     0.135 A 
ATOM     15  C   UNL A   1      30.130  28.852  23.025  1.00  0.00     0.042 A 
ATOM     16  C   UNL A   1      31.582  29.225  25.157  1.00  0.00     0.026 A 
ATOM     17  Cl  UNL A   1      28.957  29.608  21.997  1.00  0.00    -0.084 Cl
ATOM     18  C   UNL A   1      30.555  29.569  24.207  1.00  0.00     0.033 A 
BRANCH  10  19
ATOM     19  C   UNL A   1      34.663  24.109  25.561  1.00  0.00     0.430 C 
ATOM     20  F   UNL A   1      34.899  23.758  24.282  1.00  0.00    -0.167 F 
ATOM     21  F   UNL A   1      35.760  24.852  25.905  1.00  0.00    -0.167 F 
ATOM     22  F   UNL A   1      34.752  23.009  26.344  1.00  0.00    -0.167 F 
ENDBRANCH  10  19
BRANCH  16  23
ATOM     23  C   UNL A   1      32.018  30.356  26.221  1.00  0.00    -0.014 A 
ATOM     24  C   UNL A   1      33.694  29.897  26.739  1.00  0.00     0.012 A 
ATOM     25  C   UNL A   1      31.413  32.233  26.750  1.00  0.00     0.012 A 
ATOM     26  C   UNL A   1      34.685  31.073  27.609  1.00  0.00     0.047 A 
ATOM     27  C   UNL A   1      32.544  33.319  27.627  1.00  0.00     0.047 A 
ATOM     28  C   UNL A   1      34.120  32.699  28.016  1.00  0.00     0.115 A 
BRANCH  28  29
ATOM     29  O   UNL A   1      34.967  33.502  28.730  1.00  0.00    -0.508 OA
ATOM     30  H   UNL A   1      35.423  33.158  29.474  1.00  0.00     0.293 HD
ENDBRANCH  28  29
ENDBRANCH  16  23
ENDBRANCH   6   8
ENDBRANCH   5   6
ENDBRANCH   4   5
ENDBRANCH   3   4
ENDBRANCH   2   3
ENDBRANCH   1   2
BRANCH   1  31
ATOM     31  C   UNL A   1      37.818  19.991  24.681  1.00  0.00     0.261 C 
BRANCH  31  32
ATOM     32  O   UNL A   1      38.289  19.995  26.002  1.00  0.00    -0.460 OA
BRANCH  32  33
ATOM     33  C   UNL A   1      39.632  20.037  26.065  1.00  0.00     0.338 C 
ATOM     34  O   UNL A   1      40.454  19.201  25.749  1.00  0.00    -0.246 OA
BRANCH  33  35
ATOM     35  C   UNL A   1      39.918  21.368  26.528  1.00  0.00     0.060 A 
ATOM     36  C   UNL A   1      38.986  22.753  25.921  1.00  0.00     0.016 A 
ATOM     37  C   UNL A   1      41.348  21.680  27.595  1.00  0.00     0.016 A 
ATOM     38  C   UNL A   1      39.425  24.449  26.285  1.00  0.00     0.010 A 
ATOM     39  C   UNL A   1      41.783  23.619  27.991  1.00  0.00     0.010 A 
ATOM     40  C   UNL A   1      40.789  24.914  27.287  1.00  0.00    -0.014 A 
BRANCH  40  41
ATOM     41  C   UNL A   1      41.399  26.269  27.432  1.00  0.00     0.031 A 
ATOM     42  C   UNL A   1      42.842  26.522  27.030  1.00  0.00     0.074 A 
ATOM     43  C   UNL A   1      40.808  27.131  28.282  1.00  0.00     0.049 A 
ATOM     44  N   UNL A   1      43.620  27.545  27.301  1.00  0.00    -0.248 NA
ATOM     45  C   UNL A   1      43.522  25.458  26.283  1.00  0.00     0.031 C 
ATOM     46  C   UNL A   1      39.509  26.918  28.916  1.00  0.00     0.029 A 
ATOM     47  N   UNL A   1      41.248  28.316  28.821  1.00  0.00    -0.354 N 
ATOM     48  C   UNL A   1      44.871  27.239  26.764  1.00  0.00     0.074 A 
ATOM     49  C   UNL A   1      44.771  25.903  26.224  1.00  0.00     0.031 C 
ATOM     50  C   UNL A   1      39.264  27.922  29.771  1.00  0.00     0.029 A 
ATOM     51  C   UNL A   1      40.394  28.844  29.763  1.00  0.00     0.049 A 
ATOM     52  H   UNL A   1      42.094  28.745  28.560  1.00  0.00     0.167 HD
ATOM     53  C   UNL A   1      45.989  28.010  26.691  1.00  0.00     0.034 A 
ATOM     54  C   UNL A   1      40.506  29.938  30.541  1.00  0.00     0.034 A 
ATOM     55  C   UNL A   1      46.078  29.340  27.245  1.00  0.00     0.049 A 
ATOM     56  C   UNL A   1      41.729  30.810  30.412  1.00  0.00     0.074 A 
ATOM     57  C   UNL A   1      47.089  30.276  27.091  1.00  0.00     0.029 A 
ATOM     58  N   UNL A   1      45.136  29.911  28.088  1.00  0.00    -0.354 N 
ATOM     59  N   UNL A   1      42.815  30.612  29.700  1.00  0.00    -0.248 NA
ATOM     60  C   UNL A   1      41.726  32.073  31.162  1.00  0.00     0.031 C 
ATOM     61  C   UNL A   1      46.798  31.374  27.907  1.00  0.00     0.029 A 
ATOM     62  C   UNL A   1      45.563  31.164  28.498  1.00  0.00     0.049 A 
ATOM     63  H   UNL A   1      44.289  29.487  28.358  1.00  0.00     0.167 HD
ATOM     64  C   UNL A   1      43.597  31.750  29.881  1.00  0.00     0.074 A 
ATOM     65  C   UNL A   1      42.852  32.635  30.750  1.00  0.00     0.031 C 
ATOM     66  C   UNL A   1      44.821  32.041  29.369  1.00  0.00     0.034 A 
BRANCH  53  67
ATOM     67  C   UNL A   1      47.199  27.471  25.954  1.00  0.00     0.023 A 
ATOM     68  C   UNL A   1      48.207  26.764  26.631  1.00  0.00     0.031 A 
ATOM     69  C   UNL A   1      47.316  27.590  24.556  1.00  0.00     0.131 A 
ATOM     70  C   UNL A   1      49.307  26.249  25.928  1.00  0.00     0.055 A 
ATOM     71  C   UNL A   1      48.374  27.007  23.849  1.00  0.00     0.041 A 
ATOM     72  F   UNL A   1      46.396  28.261  23.846  1.00  0.00    -0.206 F 
ATOM     73  C   UNL A   1      49.383  26.339  24.537  1.00  0.00     0.022 A 
BRANCH  70  74
ATOM     74  S   UNL A   1      50.687  25.552  26.876  1.00  0.00     0.124 S 
ATOM     75  O   UNL A   1      51.597  25.142  25.809  1.00  0.00    -0.237 OA
ATOM     76  O   UNL A   1      51.119  26.685  27.684  1.00  0.00    -0.237 OA
ATOM     77  O   UNL A   1      50.072  24.452  27.617  1.00  0.00    -0.744 OA
ENDBRANCH  70  74
ENDBRANCH  53  67
BRANCH  54  78
ATOM     78  C   UNL A   1      39.406  30.319  31.473  1.00  0.00     0.023 A 
ATOM     79  C   UNL A   1      38.536  31.368  31.141  1.00  0.00     0.031 A 
ATOM     80  C   UNL A   1      39.239  29.693  32.720  1.00  0.00     0.131 A 
ATOM     81  C   UNL A   1      37.595  31.821  32.075  1.00  0.00     0.055 A 
ATOM     82  C   UNL A   1      38.250  30.102  33.620  1.00  0.00     0.041 A 
ATOM     83  F   UNL A   1      40.031  28.672  33.082  1.00  0.00    -0.206 F 
ATOM     84  C   UNL A   1      37.435  31.187  33.307  1.00  0.00     0.022 A 
BRANCH  81  85
ATOM     85  S   UNL A   1      36.678  33.339  31.698  1.00  0.00     0.124 S 
ATOM     86  O   UNL A   1      36.976  34.161  32.867  1.00  0.00    -0.237 OA
ATOM     87  O   UNL A   1      37.294  33.761  30.446  1.00  0.00    -0.237 OA
ATOM     88  O   UNL A   1      35.295  32.883  31.590  1.00  0.00    -0.744 OA
ENDBRANCH  81  85
ENDBRANCH  54  78
BRANCH  66  89
ATOM     89  C   UNL A   1      45.407  33.391  29.699  1.00  0.00     0.023 A 
ATOM     90  C   UNL A   1      46.221  33.588  30.827  1.00  0.00     0.031 A 
ATOM     91  C   UNL A   1      45.138  34.502  28.878  1.00  0.00     0.131 A 
ATOM     92  C   UNL A   1      46.681  34.875  31.141  1.00  0.00     0.055 A 
ATOM     93  C   UNL A   1      45.663  35.764  29.152  1.00  0.00     0.041 A 
ATOM     94  F   UNL A   1      44.361  34.375  27.789  1.00  0.00    -0.206 F 
ATOM     95  C   UNL A   1      46.427  35.961  30.299  1.00  0.00     0.022 A 
BRANCH  92  96
ATOM     96  S   UNL A   1      47.526  35.133  32.725  1.00  0.00     0.124 S 
ATOM     97  O   UNL A   1      47.130  33.945  33.475  1.00  0.00    -0.237 OA
ATOM     98  O   UNL A   1      48.928  35.195  32.326  1.00  0.00    -0.237 OA
ATOM     99  O   UNL A   1      46.964  36.391  33.213  1.00  0.00    -0.744 OA
ENDBRANCH  92  96
ENDBRANCH  66  89
ENDBRANCH  40  41
ENDBRANCH  33  35
ENDBRANCH  32  33
ENDBRANCH  31  32
ENDBRANCH   1  31
TORSDOF 20
ENDMDL
