MODEL 1
REMARK VINA RESULT:     -11.4      0.000      0.000
REMARK SMILES N#C/C(=C/c1cccc(OCC(=O)OCCOCCOC(=O)c2ccc(-c3c4nc(c(-c5cc(S(=O)(=O)[O-])ccc5F)c5ccc([nH]5)c(-c5cc(S(=O)(=O)[O-])ccc5F)c5nc(c(-c6cc(S(=O)(=O)[O-])ccc6F)c6ccc3[nH]6)C=C5)C=C4)cc2)c1)c1nc2ccccc2[nH]1
REMARK SMILES IDX 16 1 15 2 14 3 12 4 13 5 11 6 10 7 9 8 5 9 6 10 86 11 7 12
REMARK SMILES IDX 8 13 4 14 3 15 2 16 1 17 87 18 88 19 95 20 89 21 94 22 90 24
REMARK SMILES IDX 93 25 91 26 92 27 17 28 18 29 19 30 20 31 21 32 22 33 23 34
REMARK SMILES IDX 24 35 85 36 25 37 84 38 26 39 27 40 28 41 78 42 29 43 83 44
REMARK SMILES IDX 77 45 79 46 30 47 82 48 76 49 75 50 31 52 63 53 43 54 62 55
REMARK SMILES IDX 44 56 47 57 61 58 80 59 45 60 46 61 60 63 81 64 48 65 32 66
REMARK SMILES IDX 33 67 41 68 34 69 40 70 42 71 39 72 35 73 36 74 37 75 38 76
REMARK SMILES IDX 64 77 65 78 73 79 66 80 72 81 74 82 71 83 67 84 68 85 69 86
REMARK SMILES IDX 70 87 49 88 50 89 58 90 51 91 57 92 59 93 56 94 52 95 53 96
REMARK SMILES IDX 54 97 55 98
REMARK H PARENT 95 23 79 51 47 62
REMARK Flexibility Score: inf
ROOT
ATOM      1  C   UNL A   1      39.728  25.211  27.544  1.00  0.00     0.202 C 
ENDROOT
BRANCH   1   2
ATOM      2  C   UNL A   1      38.969  24.069  26.565  1.00  0.00     0.261 C 
BRANCH   2   3
ATOM      3  O   UNL A   1      37.022  24.394  26.069  1.00  0.00    -0.461 OA
BRANCH   3   4
ATOM      4  C   UNL A   1      35.650  23.977  25.694  1.00  0.00     0.344 C 
ATOM      5  O   UNL A   1      35.196  22.832  25.876  1.00  0.00    -0.248 OA
BRANCH   4   6
ATOM      6  C   UNL A   1      34.484  25.086  25.350  1.00  0.00     0.351 C 
BRANCH   6   7
ATOM      7  O   UNL A   1      33.658  25.995  26.060  1.00  0.00    -0.482 OA
BRANCH   7   8
ATOM      8  C   UNL A   1      33.605  27.373  25.839  1.00  0.00     0.120 A 
ATOM      9  C   UNL A   1      32.198  29.120  24.854  1.00  0.00    -0.021 A 
ATOM     10  C   UNL A   1      32.243  29.827  26.066  1.00  0.00     0.008 A 
ATOM     11  C   UNL A   1      33.075  28.003  24.699  1.00  0.00     0.054 A 
ATOM     12  C   UNL A   1      33.029  29.358  27.128  1.00  0.00     0.004 A 
ATOM     13  C   UNL A   1      33.683  28.120  27.027  1.00  0.00     0.046 A 
BRANCH   9  14
ATOM     14  C   UNL A   1      31.094  29.449  23.865  1.00  0.00     0.031 C 
ATOM     15  C   UNL A   1      30.183  28.739  23.119  1.00  0.00     0.095 C 
BRANCH  15  16
ATOM     16  C   UNL A   1      29.363  29.538  22.119  1.00  0.00     0.103 C 
ATOM     17  N   UNL A   1      28.683  30.201  21.288  1.00  0.00    -0.192 NA
ENDBRANCH  15  16
BRANCH  15  18
ATOM     18  C   UNL A   1      29.959  27.266  22.962  1.00  0.00     0.149 A 
ATOM     19  N   UNL A   1      29.412  26.046  24.044  1.00  0.00    -0.228 NA
ATOM     20  N   UNL A   1      31.411  26.602  22.048  1.00  0.00    -0.337 N 
ATOM     21  C   UNL A   1      30.678  24.565  24.133  1.00  0.00     0.089 A 
ATOM     22  C   UNL A   1      31.895  24.984  22.680  1.00  0.00     0.066 A 
ATOM     23  H   UNL A   1      31.865  27.069  21.310  1.00  0.00     0.168 HD
ATOM     24  C   UNL A   1      30.997  23.102  25.088  1.00  0.00     0.030 A 
ATOM     25  C   UNL A   1      32.973  23.691  22.095  1.00  0.00     0.028 A 
ATOM     26  C   UNL A   1      32.194  21.919  24.530  1.00  0.00     0.002 A 
ATOM     27  C   UNL A   1      33.103  22.170  23.048  1.00  0.00     0.002 A 
ENDBRANCH  15  18
ENDBRANCH   9  14
ENDBRANCH   7   8
ENDBRANCH   6   7
ENDBRANCH   4   6
ENDBRANCH   3   4
ENDBRANCH   2   3
ENDBRANCH   1   2
BRANCH   1  28
ATOM     28  O   UNL A   1      41.245  25.265  27.221  1.00  0.00    -0.374 OA
BRANCH  28  29
ATOM     29  C   UNL A   1      42.247  25.249  25.383  1.00  0.00     0.202 C 
BRANCH  29  30
ATOM     30  C   UNL A   1      44.073  24.914  25.395  1.00  0.00     0.261 C 
BRANCH  30  31
ATOM     31  O   UNL A   1      44.599  23.883  26.275  1.00  0.00    -0.460 OA
BRANCH  31  32
ATOM     32  C   UNL A   1      45.651  24.131  27.101  1.00  0.00     0.338 C 
ATOM     33  O   UNL A   1      46.811  23.781  27.033  1.00  0.00    -0.246 OA
BRANCH  32  34
ATOM     34  C   UNL A   1      45.068  25.001  28.139  1.00  0.00     0.060 A 
ATOM     35  C   UNL A   1      44.215  24.486  29.127  1.00  0.00     0.016 A 
ATOM     36  C   UNL A   1      45.555  26.308  28.217  1.00  0.00     0.016 A 
ATOM     37  C   UNL A   1      43.834  25.302  30.196  1.00  0.00     0.010 A 
ATOM     38  C   UNL A   1      45.183  27.115  29.283  1.00  0.00     0.010 A 
ATOM     39  C   UNL A   1      44.286  26.628  30.250  1.00  0.00    -0.014 A 
BRANCH  39  40
ATOM     40  C   UNL A   1      43.614  27.613  31.127  1.00  0.00     0.031 A 
ATOM     41  C   UNL A   1      44.266  27.881  32.456  1.00  0.00     0.074 A 
ATOM     42  C   UNL A   1      42.470  28.222  30.771  1.00  0.00     0.049 A 
ATOM     43  N   UNL A   1      43.850  28.611  33.454  1.00  0.00    -0.248 NA
ATOM     44  C   UNL A   1      45.558  27.213  32.695  1.00  0.00     0.031 C 
ATOM     45  C   UNL A   1      41.785  28.056  29.490  1.00  0.00     0.029 A 
ATOM     46  N   UNL A   1      41.677  29.100  31.466  1.00  0.00    -0.354 N 
ATOM     47  C   UNL A   1      44.820  28.476  34.441  1.00  0.00     0.074 A 
ATOM     48  C   UNL A   1      45.820  27.563  33.942  1.00  0.00     0.031 C 
ATOM     49  C   UNL A   1      40.671  28.810  29.493  1.00  0.00     0.029 A 
ATOM     50  C   UNL A   1      40.537  29.469  30.792  1.00  0.00     0.049 A 
ATOM     51  H   UNL A   1      41.904  29.434  32.363  1.00  0.00     0.167 HD
ATOM     52  C   UNL A   1      44.869  29.071  35.655  1.00  0.00     0.034 A 
ATOM     53  C   UNL A   1      39.496  30.225  31.199  1.00  0.00     0.034 A 
ATOM     54  C   UNL A   1      43.853  29.973  36.128  1.00  0.00     0.049 A 
ATOM     55  C   UNL A   1      39.536  30.812  32.593  1.00  0.00     0.074 A 
ATOM     56  C   UNL A   1      43.808  30.662  37.326  1.00  0.00     0.029 A 
ATOM     57  N   UNL A   1      42.693  30.294  35.434  1.00  0.00    -0.354 N 
ATOM     58  N   UNL A   1      40.471  30.703  33.512  1.00  0.00    -0.248 NA
ATOM     59  C   UNL A   1      38.386  31.629  33.006  1.00  0.00     0.031 C 
ATOM     60  C   UNL A   1      42.575  31.313  37.401  1.00  0.00     0.029 A 
ATOM     61  C   UNL A   1      41.901  31.131  36.202  1.00  0.00     0.049 A 
ATOM     62  H   UNL A   1      42.467  29.974  34.532  1.00  0.00     0.167 HD
ATOM     63  C   UNL A   1      40.039  31.472  34.591  1.00  0.00     0.074 A 
ATOM     64  C   UNL A   1      38.769  32.049  34.202  1.00  0.00     0.031 C 
ATOM     65  C   UNL A   1      40.636  31.691  35.792  1.00  0.00     0.034 A 
BRANCH  52  66
ATOM     66  C   UNL A   1      46.012  28.708  36.570  1.00  0.00     0.023 A 
ATOM     67  C   UNL A   1      45.914  27.680  37.523  1.00  0.00     0.031 A 
ATOM     68  C   UNL A   1      47.221  29.422  36.493  1.00  0.00     0.131 A 
ATOM     69  C   UNL A   1      46.983  27.433  38.398  1.00  0.00     0.055 A 
ATOM     70  C   UNL A   1      48.311  29.114  37.306  1.00  0.00     0.041 A 
ATOM     71  F   UNL A   1      47.359  30.441  35.630  1.00  0.00    -0.206 F 
ATOM     72  C   UNL A   1      48.192  28.122  38.274  1.00  0.00     0.022 A 
BRANCH  69  73
ATOM     73  S   UNL A   1      46.724  26.304  39.793  1.00  0.00     0.124 S 
ATOM     74  O   UNL A   1      45.525  26.867  40.410  1.00  0.00    -0.237 OA
ATOM     75  O   UNL A   1      46.557  25.016  39.130  1.00  0.00    -0.237 OA
ATOM     76  O   UNL A   1      47.947  26.447  40.581  1.00  0.00    -0.744 OA
ENDBRANCH  69  73
ENDBRANCH  52  66
BRANCH  53  77
ATOM     77  C   UNL A   1      38.312  30.443  30.315  1.00  0.00     0.023 A 
ATOM     78  C   UNL A   1      37.958  31.730  29.878  1.00  0.00     0.031 A 
ATOM     79  C   UNL A   1      37.464  29.378  29.964  1.00  0.00     0.131 A 
ATOM     80  C   UNL A   1      36.756  31.927  29.178  1.00  0.00     0.055 A 
ATOM     81  C   UNL A   1      36.309  29.569  29.202  1.00  0.00     0.041 A 
ATOM     82  F   UNL A   1      37.743  28.126  30.362  1.00  0.00    -0.206 F 
ATOM     83  C   UNL A   1      35.940  30.854  28.820  1.00  0.00     0.022 A 
BRANCH  80  84
ATOM     84  S   UNL A   1      36.206  33.628  28.864  1.00  0.00     0.124 S 
ATOM     85  O   UNL A   1      37.468  34.356  28.900  1.00  0.00    -0.237 OA
ATOM     86  O   UNL A   1      35.571  33.504  27.557  1.00  0.00    -0.237 OA
ATOM     87  O   UNL A   1      35.295  33.900  29.975  1.00  0.00    -0.744 OA
ENDBRANCH  80  84
ENDBRANCH  53  77
BRANCH  65  88
ATOM     88  C   UNL A   1      39.951  32.642  36.745  1.00  0.00     0.023 A 
ATOM     89  C   UNL A   1      39.044  32.195  37.719  1.00  0.00     0.031 A 
ATOM     90  C   UNL A   1      40.219  34.021  36.674  1.00  0.00     0.131 A 
ATOM     91  C   UNL A   1      38.388  33.126  38.538  1.00  0.00     0.055 A 
ATOM     92  C   UNL A   1      39.629  34.932  37.548  1.00  0.00     0.041 A 
ATOM     93  F   UNL A   1      41.074  34.506  35.757  1.00  0.00    -0.206 F 
ATOM     94  C   UNL A   1      38.694  34.488  38.477  1.00  0.00     0.022 A 
BRANCH  91  95
ATOM     95  S   UNL A   1      37.035  32.547  39.597  1.00  0.00     0.124 S 
ATOM     96  O   UNL A   1      35.871  32.765  38.744  1.00  0.00    -0.237 OA
ATOM     97  O   UNL A   1      37.398  31.154  39.836  1.00  0.00    -0.237 OA
ATOM     98  O   UNL A   1      37.119  33.420  40.768  1.00  0.00    -0.744 OA
ENDBRANCH  91  95
ENDBRANCH  65  88
ENDBRANCH  39  40
ENDBRANCH  32  34
ENDBRANCH  31  32
ENDBRANCH  30  31
ENDBRANCH  29  30
ENDBRANCH  28  29
ENDBRANCH   1  28
TORSDOF 22
ENDMDL
MODEL 2
REMARK VINA RESULT:     -10.9      4.004      9.132
REMARK SMILES N#C/C(=C/c1cccc(OCC(=O)OCCOCCOC(=O)c2ccc(-c3c4nc(c(-c5cc(S(=O)(=O)[O-])ccc5F)c5ccc([nH]5)c(-c5cc(S(=O)(=O)[O-])ccc5F)c5nc(c(-c6cc(S(=O)(=O)[O-])ccc6F)c6ccc3[nH]6)C=C5)C=C4)cc2)c1)c1nc2ccccc2[nH]1
REMARK SMILES IDX 16 1 15 2 14 3 12 4 13 5 11 6 10 7 9 8 5 9 6 10 86 11 7 12
REMARK SMILES IDX 8 13 4 14 3 15 2 16 1 17 87 18 88 19 95 20 89 21 94 22 90 24
REMARK SMILES IDX 93 25 91 26 92 27 17 28 18 29 19 30 20 31 21 32 22 33 23 34
REMARK SMILES IDX 24 35 85 36 25 37 84 38 26 39 27 40 28 41 78 42 29 43 83 44
REMARK SMILES IDX 77 45 79 46 30 47 82 48 76 49 75 50 31 52 63 53 43 54 62 55
REMARK SMILES IDX 44 56 47 57 61 58 80 59 45 60 46 61 60 63 81 64 48 65 32 66
REMARK SMILES IDX 33 67 41 68 34 69 40 70 42 71 39 72 35 73 36 74 37 75 38 76
REMARK SMILES IDX 64 77 65 78 73 79 66 80 72 81 74 82 71 83 67 84 68 85 69 86
REMARK SMILES IDX 70 87 49 88 50 89 58 90 51 91 57 92 59 93 56 94 52 95 53 96
REMARK SMILES IDX 54 97 55 98
REMARK H PARENT 95 23 79 51 47 62
REMARK Flexibility Score: inf
ROOT
ATOM      1  C   UNL A   1      39.195  26.297  28.559  1.00  0.00     0.202 C 
ENDROOT
BRANCH   1   2
ATOM      2  C   UNL A   1      39.805  25.195  27.441  1.00  0.00     0.261 C 
BRANCH   2   3
ATOM      3  O   UNL A   1      38.511  23.839  26.648  1.00  0.00    -0.461 OA
BRANCH   3   4
ATOM      4  C   UNL A   1      37.451  23.389  25.714  1.00  0.00     0.344 C 
ATOM      5  O   UNL A   1      37.446  23.641  24.494  1.00  0.00    -0.248 OA
BRANCH   4   6
ATOM      6  C   UNL A   1      36.390  22.204  26.133  1.00  0.00     0.351 C 
BRANCH   6   7
ATOM      7  O   UNL A   1      35.075  22.111  26.656  1.00  0.00    -0.482 OA
BRANCH   7   8
ATOM      8  C   UNL A   1      33.912  21.987  25.891  1.00  0.00     0.120 A 
ATOM      9  C   UNL A   1      32.964  22.569  23.709  1.00  0.00    -0.021 A 
ATOM     10  C   UNL A   1      32.639  21.220  23.500  1.00  0.00     0.008 A 
ATOM     11  C   UNL A   1      33.399  22.957  25.012  1.00  0.00     0.054 A 
ATOM     12  C   UNL A   1      32.869  20.274  24.509  1.00  0.00     0.004 A 
ATOM     13  C   UNL A   1      33.533  20.650  25.688  1.00  0.00     0.046 A 
BRANCH   9  14
ATOM     14  C   UNL A   1      33.029  23.492  22.505  1.00  0.00     0.031 C 
ATOM     15  C   UNL A   1      32.653  24.784  22.221  1.00  0.00     0.095 C 
BRANCH  15  16
ATOM     16  C   UNL A   1      32.788  25.220  20.771  1.00  0.00     0.103 C 
ATOM     17  N   UNL A   1      32.900  25.583  19.567  1.00  0.00    -0.192 NA
ENDBRANCH  15  16
BRANCH  15  18
ATOM     18  C   UNL A   1      31.946  25.818  23.042  1.00  0.00     0.149 A 
ATOM     19  N   UNL A   1      30.534  25.764  24.022  1.00  0.00    -0.228 NA
ATOM     20  N   UNL A   1      31.870  27.347  22.022  1.00  0.00    -0.337 N 
ATOM     21  C   UNL A   1      29.254  27.136  23.489  1.00  0.00     0.089 A 
ATOM     22  C   UNL A   1      30.295  28.200  22.243  1.00  0.00     0.066 A 
ATOM     23  H   UNL A   1      32.593  27.659  21.432  1.00  0.00     0.168 HD
ATOM     24  C   UNL A   1      27.571  27.618  23.787  1.00  0.00     0.030 A 
ATOM     25  C   UNL A   1      29.688  29.820  21.816  1.00  0.00     0.028 A 
ATOM     26  C   UNL A   1      26.978  29.185  23.207  1.00  0.00     0.002 A 
ATOM     27  C   UNL A   1      28.020  30.280  22.311  1.00  0.00     0.002 A 
ENDBRANCH  15  18
ENDBRANCH   9  14
ENDBRANCH   7   8
ENDBRANCH   6   7
ENDBRANCH   4   6
ENDBRANCH   3   4
ENDBRANCH   2   3
ENDBRANCH   1   2
BRANCH   1  28
ATOM     28  O   UNL A   1      39.039  27.694  27.899  1.00  0.00    -0.374 OA
BRANCH  28  29
ATOM     29  C   UNL A   1      38.295  29.490  28.676  1.00  0.00     0.202 C 
BRANCH  29  30
ATOM     30  C   UNL A   1      36.674  29.437  29.579  1.00  0.00     0.261 C 
BRANCH  30  31
ATOM     31  O   UNL A   1      36.646  28.988  30.962  1.00  0.00    -0.460 OA
BRANCH  31  32
ATOM     32  C   UNL A   1      37.136  29.765  31.965  1.00  0.00     0.338 C 
ATOM     33  O   UNL A   1      36.599  30.625  32.634  1.00  0.00    -0.246 OA
BRANCH  32  34
ATOM     34  C   UNL A   1      38.524  29.293  32.112  1.00  0.00     0.060 A 
ATOM     35  C   UNL A   1      39.589  30.195  32.262  1.00  0.00     0.016 A 
ATOM     36  C   UNL A   1      38.711  27.920  32.297  1.00  0.00     0.016 A 
ATOM     37  C   UNL A   1      40.859  29.707  32.583  1.00  0.00     0.010 A 
ATOM     38  C   UNL A   1      39.970  27.438  32.624  1.00  0.00     0.010 A 
ATOM     39  C   UNL A   1      41.056  28.326  32.723  1.00  0.00    -0.014 A 
BRANCH  39  40
ATOM     40  C   UNL A   1      42.420  27.756  32.679  1.00  0.00     0.031 A 
ATOM     41  C   UNL A   1      43.097  27.533  34.004  1.00  0.00     0.074 A 
ATOM     42  C   UNL A   1      43.038  27.472  31.519  1.00  0.00     0.049 A 
ATOM     43  N   UNL A   1      44.316  27.143  34.260  1.00  0.00    -0.248 NA
ATOM     44  C   UNL A   1      42.287  27.806  35.204  1.00  0.00     0.031 C 
ATOM     45  C   UNL A   1      42.450  27.619  30.188  1.00  0.00     0.029 A 
ATOM     46  N   UNL A   1      44.306  27.009  31.277  1.00  0.00    -0.354 N 
ATOM     47  C   UNL A   1      44.420  27.143  35.647  1.00  0.00     0.074 A 
ATOM     48  C   UNL A   1      43.161  27.610  36.175  1.00  0.00     0.031 C 
ATOM     49  C   UNL A   1      43.361  27.252  29.269  1.00  0.00     0.029 A 
ATOM     50  C   UNL A   1      44.609  26.895  29.941  1.00  0.00     0.049 A 
ATOM     51  H   UNL A   1      44.940  26.778  31.995  1.00  0.00     0.167 HD
ATOM     52  C   UNL A   1      45.477  26.777  36.407  1.00  0.00     0.034 A 
ATOM     53  C   UNL A   1      45.774  26.571  29.341  1.00  0.00     0.034 A 
ATOM     54  C   UNL A   1      46.723  26.320  35.851  1.00  0.00     0.049 A 
ATOM     55  C   UNL A   1      46.967  26.246  30.215  1.00  0.00     0.074 A 
ATOM     56  C   UNL A   1      47.855  25.892  36.519  1.00  0.00     0.029 A 
ATOM     57  N   UNL A   1      47.008  26.254  34.493  1.00  0.00    -0.354 N 
ATOM     58  N   UNL A   1      47.050  26.220  31.527  1.00  0.00    -0.248 NA
ATOM     59  C   UNL A   1      48.219  25.900  29.530  1.00  0.00     0.031 C 
ATOM     60  C   UNL A   1      48.855  25.669  35.572  1.00  0.00     0.029 A 
ATOM     61  C   UNL A   1      48.316  25.841  34.306  1.00  0.00     0.049 A 
ATOM     62  H   UNL A   1      46.374  26.470  33.771  1.00  0.00     0.167 HD
ATOM     63  C   UNL A   1      48.350  25.813  31.819  1.00  0.00     0.074 A 
ATOM     64  C   UNL A   1      49.008  25.592  30.549  1.00  0.00     0.031 C 
ATOM     65  C   UNL A   1      48.949  25.631  33.026  1.00  0.00     0.034 A 
BRANCH  52  66
ATOM     66  C   UNL A   1      45.352  26.925  37.903  1.00  0.00     0.023 A 
ATOM     67  C   UNL A   1      45.705  28.109  38.573  1.00  0.00     0.031 A 
ATOM     68  C   UNL A   1      44.881  25.847  38.674  1.00  0.00     0.131 A 
ATOM     69  C   UNL A   1      45.637  28.166  39.974  1.00  0.00     0.055 A 
ATOM     70  C   UNL A   1      44.733  25.940  40.057  1.00  0.00     0.041 A 
ATOM     71  F   UNL A   1      44.566  24.678  38.093  1.00  0.00    -0.206 F 
ATOM     72  C   UNL A   1      45.123  27.101  40.717  1.00  0.00     0.022 A 
BRANCH  69  73
ATOM     73  S   UNL A   1      46.365  29.593  40.822  1.00  0.00     0.124 S 
ATOM     74  O   UNL A   1      45.597  29.621  42.066  1.00  0.00    -0.237 OA
ATOM     75  O   UNL A   1      47.765  29.208  40.945  1.00  0.00    -0.237 OA
ATOM     76  O   UNL A   1      46.100  30.705  39.911  1.00  0.00    -0.744 OA
ENDBRANCH  69  73
ENDBRANCH  52  66
BRANCH  53  77
ATOM     77  C   UNL A   1      45.899  26.576  27.853  1.00  0.00     0.023 A 
ATOM     78  C   UNL A   1      45.747  25.397  27.106  1.00  0.00     0.031 A 
ATOM     79  C   UNL A   1      46.262  27.746  27.161  1.00  0.00     0.131 A 
ATOM     80  C   UNL A   1      46.022  25.399  25.728  1.00  0.00     0.055 A 
ATOM     81  C   UNL A   1      46.459  27.759  25.778  1.00  0.00     0.041 A 
ATOM     82  F   UNL A   1      46.434  28.902  27.821  1.00  0.00    -0.206 F 
ATOM     83  C   UNL A   1      46.358  26.575  25.056  1.00  0.00     0.022 A 
BRANCH  80  84
ATOM     84  S   UNL A   1      46.071  23.810  24.853  1.00  0.00     0.124 S 
ATOM     85  O   UNL A   1      47.129  24.045  23.877  1.00  0.00    -0.237 OA
ATOM     86  O   UNL A   1      46.387  22.880  25.931  1.00  0.00    -0.237 OA
ATOM     87  O   UNL A   1      44.725  23.685  24.299  1.00  0.00    -0.744 OA
ENDBRANCH  80  84
ENDBRANCH  53  77
BRANCH  65  88
ATOM     88  C   UNL A   1      50.367  25.109  33.025  1.00  0.00     0.023 A 
ATOM     89  C   UNL A   1      50.655  23.735  33.036  1.00  0.00     0.031 A 
ATOM     90  C   UNL A   1      51.447  26.011  33.010  1.00  0.00     0.131 A 
ATOM     91  C   UNL A   1      51.987  23.304  33.098  1.00  0.00     0.055 A 
ATOM     92  C   UNL A   1      52.770  25.574  32.984  1.00  0.00     0.041 A 
ATOM     93  F   UNL A   1      51.232  27.337  33.006  1.00  0.00    -0.206 F 
ATOM     94  C   UNL A   1      53.047  24.213  33.045  1.00  0.00     0.022 A 
BRANCH  91  95
ATOM     95  S   UNL A   1      52.317  21.543  33.376  1.00  0.00     0.124 S 
ATOM     96  O   UNL A   1      51.488  21.263  34.546  1.00  0.00    -0.237 OA
ATOM     97  O   UNL A   1      51.875  20.939  32.123  1.00  0.00    -0.237 OA
ATOM     98  O   UNL A   1      53.759  21.497  33.613  1.00  0.00    -0.744 OA
ENDBRANCH  91  95
ENDBRANCH  65  88
ENDBRANCH  39  40
ENDBRANCH  32  34
ENDBRANCH  31  32
ENDBRANCH  30  31
ENDBRANCH  29  30
ENDBRANCH  28  29
ENDBRANCH   1  28
TORSDOF 22
ENDMDL
MODEL 3
REMARK VINA RESULT:     -10.7      3.458      9.643
REMARK SMILES N#C/C(=C/c1cccc(OCC(=O)OCCOCCOC(=O)c2ccc(-c3c4nc(c(-c5cc(S(=O)(=O)[O-])ccc5F)c5ccc([nH]5)c(-c5cc(S(=O)(=O)[O-])ccc5F)c5nc(c(-c6cc(S(=O)(=O)[O-])ccc6F)c6ccc3[nH]6)C=C5)C=C4)cc2)c1)c1nc2ccccc2[nH]1
REMARK SMILES IDX 16 1 15 2 14 3 12 4 13 5 11 6 10 7 9 8 5 9 6 10 86 11 7 12
REMARK SMILES IDX 8 13 4 14 3 15 2 16 1 17 87 18 88 19 95 20 89 21 94 22 90 24
REMARK SMILES IDX 93 25 91 26 92 27 17 28 18 29 19 30 20 31 21 32 22 33 23 34
REMARK SMILES IDX 24 35 85 36 25 37 84 38 26 39 27 40 28 41 78 42 29 43 83 44
REMARK SMILES IDX 77 45 79 46 30 47 82 48 76 49 75 50 31 52 63 53 43 54 62 55
REMARK SMILES IDX 44 56 47 57 61 58 80 59 45 60 46 61 60 63 81 64 48 65 32 66
REMARK SMILES IDX 33 67 41 68 34 69 40 70 42 71 39 72 35 73 36 74 37 75 38 76
REMARK SMILES IDX 64 77 65 78 73 79 66 80 72 81 74 82 71 83 67 84 68 85 69 86
REMARK SMILES IDX 70 87 49 88 50 89 58 90 51 91 57 92 59 93 56 94 52 95 53 96
REMARK SMILES IDX 54 97 55 98
REMARK H PARENT 95 23 79 51 47 62
REMARK Flexibility Score: inf
ROOT
ATOM      1  C   UNL A   1      31.024  26.382  25.960  1.00  0.00     0.202 C 
ENDROOT
BRANCH   1   2
ATOM      2  C   UNL A   1      32.232  25.395  25.325  1.00  0.00     0.261 C 
BRANCH   2   3
ATOM      3  O   UNL A   1      32.718  23.711  26.359  1.00  0.00    -0.461 OA
BRANCH   3   4
ATOM      4  C   UNL A   1      33.647  22.670  26.860  1.00  0.00     0.344 C 
ATOM      5  O   UNL A   1      33.883  22.471  28.066  1.00  0.00    -0.248 OA
BRANCH   4   6
ATOM      6  C   UNL A   1      34.158  21.444  25.891  1.00  0.00     0.351 C 
BRANCH   6   7
ATOM      7  O   UNL A   1      34.915  21.294  24.699  1.00  0.00    -0.482 OA
BRANCH   7   8
ATOM      8  C   UNL A   1      36.295  21.484  24.594  1.00  0.00     0.120 A 
ATOM      9  C   UNL A   1      38.177  22.618  25.676  1.00  0.00    -0.021 A 
ATOM     10  C   UNL A   1      38.862  21.395  25.748  1.00  0.00     0.008 A 
ATOM     11  C   UNL A   1      36.985  22.673  24.891  1.00  0.00     0.054 A 
ATOM     12  C   UNL A   1      38.309  20.242  25.172  1.00  0.00     0.004 A 
ATOM     13  C   UNL A   1      37.016  20.279  24.625  1.00  0.00     0.046 A 
BRANCH   9  14
ATOM     14  C   UNL A   1      38.620  23.749  26.588  1.00  0.00     0.031 C 
ATOM     15  C   UNL A   1      39.778  24.105  27.241  1.00  0.00     0.095 C 
BRANCH  15  16
ATOM     16  C   UNL A   1      39.675  25.280  28.200  1.00  0.00     0.103 C 
ATOM     17  N   UNL A   1      39.589  26.255  28.996  1.00  0.00    -0.192 NA
ENDBRANCH  15  16
BRANCH  15  18
ATOM     18  C   UNL A   1      41.113  23.433  27.336  1.00  0.00     0.149 A 
ATOM     19  N   UNL A   1      42.419  23.270  26.229  1.00  0.00    -0.228 NA
ATOM     20  N   UNL A   1      40.828  21.793  28.120  1.00  0.00    -0.337 N 
ATOM     21  C   UNL A   1      42.904  21.398  25.983  1.00  0.00     0.089 A 
ATOM     22  C   UNL A   1      41.872  20.524  27.375  1.00  0.00     0.066 A 
ATOM     23  H   UNL A   1      40.189  21.629  28.851  1.00  0.00     0.168 HD
ATOM     24  C   UNL A   1      43.914  20.379  24.935  1.00  0.00     0.030 A 
ATOM     25  C   UNL A   1      42.314  18.857  27.822  1.00  0.00     0.028 A 
ATOM     26  C   UNL A   1      44.199  18.679  25.354  1.00  0.00     0.002 A 
ATOM     27  C   UNL A   1      43.480  17.960  26.786  1.00  0.00     0.002 A 
ENDBRANCH  15  18
ENDBRANCH   9  14
ENDBRANCH   7   8
ENDBRANCH   6   7
ENDBRANCH   4   6
ENDBRANCH   3   4
ENDBRANCH   2   3
ENDBRANCH   1   2
BRANCH   1  28
ATOM     28  O   UNL A   1      31.440  27.874  25.848  1.00  0.00    -0.374 OA
BRANCH  28  29
ATOM     29  C   UNL A   1      31.932  29.264  27.334  1.00  0.00     0.202 C 
BRANCH  29  30
ATOM     30  C   UNL A   1      32.868  30.783  26.823  1.00  0.00     0.261 C 
BRANCH  30  31
ATOM     31  O   UNL A   1      34.187  31.027  27.384  1.00  0.00    -0.460 OA
BRANCH  31  32
ATOM     32  C   UNL A   1      34.496  32.217  27.965  1.00  0.00     0.338 C 
ATOM     33  O   UNL A   1      33.935  33.293  27.914  1.00  0.00    -0.246 OA
BRANCH  32  34
ATOM     34  C   UNL A   1      35.703  31.907  28.752  1.00  0.00     0.060 A 
ATOM     35  C   UNL A   1      35.900  30.636  29.314  1.00  0.00     0.016 A 
ATOM     36  C   UNL A   1      36.726  32.859  28.745  1.00  0.00     0.016 A 
ATOM     37  C   UNL A   1      37.136  30.328  29.892  1.00  0.00     0.010 A 
ATOM     38  C   UNL A   1      37.954  32.548  29.312  1.00  0.00     0.010 A 
ATOM     39  C   UNL A   1      38.147  31.298  29.926  1.00  0.00    -0.014 A 
BRANCH  39  40
ATOM     40  C   UNL A   1      39.296  31.150  30.845  1.00  0.00     0.031 A 
ATOM     41  C   UNL A   1      40.480  30.384  30.320  1.00  0.00     0.074 A 
ATOM     42  C   UNL A   1      39.282  31.650  32.093  1.00  0.00     0.049 A 
ATOM     43  N   UNL A   1      41.573  30.018  30.933  1.00  0.00    -0.248 NA
ATOM     44  C   UNL A   1      40.408  29.958  28.911  1.00  0.00     0.031 C 
ATOM     45  C   UNL A   1      38.198  32.437  32.678  1.00  0.00     0.029 A 
ATOM     46  N   UNL A   1      40.211  31.558  33.098  1.00  0.00    -0.354 N 
ATOM     47  C   UNL A   1      42.305  29.307  29.989  1.00  0.00     0.074 A 
ATOM     48  C   UNL A   1      41.518  29.254  28.781  1.00  0.00     0.031 C 
ATOM     49  C   UNL A   1      38.525  32.756  33.943  1.00  0.00     0.029 A 
ATOM     50  C   UNL A   1      39.816  32.152  34.274  1.00  0.00     0.049 A 
ATOM     51  H   UNL A   1      41.079  31.108  32.988  1.00  0.00     0.167 HD
ATOM     52  C   UNL A   1      43.532  28.753  30.125  1.00  0.00     0.034 A 
ATOM     53  C   UNL A   1      40.419  32.172  35.480  1.00  0.00     0.034 A 
ATOM     54  C   UNL A   1      44.291  28.817  31.345  1.00  0.00     0.049 A 
ATOM     55  C   UNL A   1      41.754  31.473  35.628  1.00  0.00     0.074 A 
ATOM     56  C   UNL A   1      45.557  28.321  31.595  1.00  0.00     0.029 A 
ATOM     57  N   UNL A   1      43.843  29.393  32.527  1.00  0.00    -0.354 N 
ATOM     58  N   UNL A   1      42.455  30.826  34.723  1.00  0.00    -0.248 NA
ATOM     59  C   UNL A   1      42.383  31.512  36.955  1.00  0.00     0.031 C 
ATOM     60  C   UNL A   1      45.831  28.504  32.951  1.00  0.00     0.029 A 
ATOM     61  C   UNL A   1      44.789  29.220  33.523  1.00  0.00     0.049 A 
ATOM     62  H   UNL A   1      42.982  29.856  32.640  1.00  0.00     0.167 HD
ATOM     63  C   UNL A   1      43.624  30.420  35.363  1.00  0.00     0.074 A 
ATOM     64  C   UNL A   1      43.539  30.908  36.724  1.00  0.00     0.031 C 
ATOM     65  C   UNL A   1      44.678  29.714  34.875  1.00  0.00     0.034 A 
BRANCH  52  66
ATOM     66  C   UNL A   1      44.086  27.978  28.956  1.00  0.00     0.023 A 
ATOM     67  C   UNL A   1      44.998  28.540  28.046  1.00  0.00     0.031 A 
ATOM     68  C   UNL A   1      43.676  26.650  28.741  1.00  0.00     0.131 A 
ATOM     69  C   UNL A   1      45.425  27.797  26.934  1.00  0.00     0.055 A 
ATOM     70  C   UNL A   1      44.170  25.888  27.684  1.00  0.00     0.041 A 
ATOM     71  F   UNL A   1      42.775  26.073  29.553  1.00  0.00    -0.206 F 
ATOM     72  C   UNL A   1      45.042  26.465  26.765  1.00  0.00     0.022 A 
BRANCH  69  73
ATOM     73  S   UNL A   1      46.369  28.639  25.635  1.00  0.00     0.124 S 
ATOM     74  O   UNL A   1      45.863  30.006  25.742  1.00  0.00    -0.237 OA
ATOM     75  O   UNL A   1      47.747  28.433  26.062  1.00  0.00    -0.237 OA
ATOM     76  O   UNL A   1      45.980  27.933  24.417  1.00  0.00    -0.744 OA
ENDBRANCH  69  73
ENDBRANCH  52  66
BRANCH  53  77
ATOM     77  C   UNL A   1      39.770  32.828  36.654  1.00  0.00     0.023 A 
ATOM     78  C   UNL A   1      38.994  32.090  37.563  1.00  0.00     0.031 A 
ATOM     79  C   UNL A   1      39.841  34.221  36.837  1.00  0.00     0.131 A 
ATOM     80  C   UNL A   1      38.270  32.752  38.567  1.00  0.00     0.055 A 
ATOM     81  C   UNL A   1      39.179  34.866  37.884  1.00  0.00     0.041 A 
ATOM     82  F   UNL A   1      40.556  34.983  35.995  1.00  0.00    -0.206 F 
ATOM     83  C   UNL A   1      38.372  34.132  38.746  1.00  0.00     0.022 A 
BRANCH  80  84
ATOM     84  S   UNL A   1      37.079  31.797  39.548  1.00  0.00     0.124 S 
ATOM     85  O   UNL A   1      36.205  32.849  40.054  1.00  0.00    -0.237 OA
ATOM     86  O   UNL A   1      36.501  30.910  38.545  1.00  0.00    -0.237 OA
ATOM     87  O   UNL A   1      37.914  31.141  40.553  1.00  0.00    -0.744 OA
ENDBRANCH  80  84
ENDBRANCH  53  77
BRANCH  65  88
ATOM     88  C   UNL A   1      45.849  29.485  35.801  1.00  0.00     0.023 A 
ATOM     89  C   UNL A   1      46.890  30.418  35.930  1.00  0.00     0.031 A 
ATOM     90  C   UNL A   1      45.916  28.308  36.570  1.00  0.00     0.131 A 
ATOM     91  C   UNL A   1      47.985  30.128  36.757  1.00  0.00     0.055 A 
ATOM     92  C   UNL A   1      46.965  28.066  37.455  1.00  0.00     0.041 A 
ATOM     93  F   UNL A   1      44.951  27.377  36.482  1.00  0.00    -0.206 F 
ATOM     94  C   UNL A   1      48.017  28.971  37.540  1.00  0.00     0.022 A 
BRANCH  91  95
ATOM     95  S   UNL A   1      49.429  31.224  36.699  1.00  0.00     0.124 S 
ATOM     96  O   UNL A   1      49.521  31.524  35.274  1.00  0.00    -0.237 OA
ATOM     97  O   UNL A   1      49.017  32.329  37.558  1.00  0.00    -0.237 OA
ATOM     98  O   UNL A   1      50.510  30.395  37.230  1.00  0.00    -0.744 OA
ENDBRANCH  91  95
ENDBRANCH  65  88
ENDBRANCH  39  40
ENDBRANCH  32  34
ENDBRANCH  31  32
ENDBRANCH  30  31
ENDBRANCH  29  30
ENDBRANCH  28  29
ENDBRANCH   1  28
TORSDOF 22
ENDMDL
