MODEL 1
REMARK VINA RESULT:     -12.1      0.000      0.000
REMARK SMILES O=C(OCCOCCOC(=O)[C@]1(NC(=O)C2CCN(C(=O)C3CC3)CC2)CCCc2ccccc21)c1ccc(-c2c3nc(c(-c4cc(S(=O)(=O)[O-])ccc4F)c4ccc([nH]4)c(-c4cc(S(=O)(=O)[O-])ccc4F)c4nc(c(-c5cc(S(=O)(=O)[O-])ccc5F)c5ccc2[nH]5)C=C4)C=C3)cc1
REMARK SMILES IDX 6 1 5 2 4 3 3 4 2 5 1 6 36 7 37 8 98 9 38 10 97 11 39 12
REMARK SMILES IDX 40 13 41 14 91 15 42 16 96 17 90 18 92 19 43 20 95 21 89 22
REMARK SMILES IDX 88 23 44 25 76 26 56 27 75 28 57 29 60 30 74 31 93 32 58 33
REMARK SMILES IDX 59 34 73 36 94 37 61 38 45 39 46 40 54 41 47 42 53 43 55 44
REMARK SMILES IDX 52 45 48 46 49 47 50 48 51 49 77 50 78 51 86 52 79 53 85 54
REMARK SMILES IDX 87 55 84 56 80 57 81 58 82 59 83 60 62 61 63 62 71 63 64 64
REMARK SMILES IDX 70 65 72 66 69 67 65 68 66 69 67 70 68 71 7 72 8 73 9 74
REMARK SMILES IDX 10 75 11 76 12 77 27 78 35 79 28 80 30 81 34 82 29 83 31 84
REMARK SMILES IDX 33 85 32 86 13 87 14 88 15 90 16 91 17 92 26 93 18 94 25 95
REMARK SMILES IDX 19 96 20 97 21 98 22 99 23 100 24 101
REMARK H PARENT 92 24 60 35 13 89
REMARK Flexibility Score: inf
ROOT
ATOM      1  O   UNL A   1      32.285  30.544  26.245  1.00  0.00    -0.374 OA
ENDROOT
BRANCH   1   2
ATOM      2  C   UNL A   1      31.301  31.480  26.644  1.00  0.00     0.202 C 
BRANCH   2   3
ATOM      3  C   UNL A   1      31.852  32.893  26.513  1.00  0.00     0.261 C 
BRANCH   3   4
ATOM      4  O   UNL A   1      32.072  33.466  27.816  1.00  0.00    -0.460 OA
BRANCH   4   5
ATOM      5  C   UNL A   1      33.194  34.180  28.111  1.00  0.00     0.338 C 
ATOM      6  O   UNL A   1      33.196  35.408  28.062  1.00  0.00    -0.246 OA
BRANCH   5   7
ATOM      7  C   UNL A   1      34.372  33.473  28.663  1.00  0.00     0.060 A 
ATOM      8  C   UNL A   1      35.577  34.114  28.973  1.00  0.00     0.016 A 
ATOM      9  C   UNL A   1      34.215  32.123  28.977  1.00  0.00     0.016 A 
ATOM     10  C   UNL A   1      36.653  33.404  29.468  1.00  0.00     0.010 A 
ATOM     11  C   UNL A   1      35.258  31.433  29.596  1.00  0.00     0.010 A 
ATOM     12  C   UNL A   1      36.484  32.074  29.838  1.00  0.00    -0.014 A 
BRANCH  12  13
ATOM     13  C   UNL A   1      37.610  31.377  30.488  1.00  0.00     0.031 A 
ATOM     14  C   UNL A   1      37.799  31.543  31.961  1.00  0.00     0.074 A 
ATOM     15  C   UNL A   1      38.395  30.572  29.743  1.00  0.00     0.049 A 
ATOM     16  N   UNL A   1      38.783  31.141  32.714  1.00  0.00    -0.248 NA
ATOM     17  C   UNL A   1      36.753  32.289  32.683  1.00  0.00     0.031 C 
ATOM     18  C   UNL A   1      38.206  30.310  28.312  1.00  0.00     0.029 A 
ATOM     19  N   UNL A   1      39.463  29.782  30.076  1.00  0.00    -0.354 N 
ATOM     20  C   UNL A   1      38.534  31.674  33.972  1.00  0.00     0.074 A 
ATOM     21  C   UNL A   1      37.281  32.392  33.893  1.00  0.00     0.031 C 
ATOM     22  C   UNL A   1      39.052  29.347  27.920  1.00  0.00     0.029 A 
ATOM     23  C   UNL A   1      39.918  28.994  29.038  1.00  0.00     0.049 A 
ATOM     24  H   UNL A   1      39.868  29.777  30.973  1.00  0.00     0.167 HD
ATOM     25  C   UNL A   1      39.323  31.595  35.068  1.00  0.00     0.034 A 
ATOM     26  C   UNL A   1      40.917  28.089  29.016  1.00  0.00     0.034 A 
ATOM     27  C   UNL A   1      40.548  30.837  35.081  1.00  0.00     0.049 A 
ATOM     28  C   UNL A   1      41.738  27.972  30.280  1.00  0.00     0.074 A 
ATOM     29  C   UNL A   1      41.488  30.718  36.086  1.00  0.00     0.029 A 
ATOM     30  N   UNL A   1      40.994  30.048  34.023  1.00  0.00    -0.354 N 
ATOM     31  N   UNL A   1      41.547  28.555  31.446  1.00  0.00    -0.248 NA
ATOM     32  C   UNL A   1      42.925  27.115  30.223  1.00  0.00     0.031 C 
ATOM     33  C   UNL A   1      42.530  29.914  35.613  1.00  0.00     0.029 A 
ATOM     34  C   UNL A   1      42.203  29.457  34.343  1.00  0.00     0.049 A 
ATOM     35  H   UNL A   1      40.518  29.929  33.169  1.00  0.00     0.167 HD
ATOM     36  C   UNL A   1      42.603  28.147  32.252  1.00  0.00     0.074 A 
ATOM     37  C   UNL A   1      43.379  27.208  31.463  1.00  0.00     0.031 C 
ATOM     38  C   UNL A   1      42.936  28.533  33.510  1.00  0.00     0.034 A 
BRANCH  25  39
ATOM     39  C   UNL A   1      38.948  32.448  36.254  1.00  0.00     0.023 A 
ATOM     40  C   UNL A   1      39.443  33.750  36.436  1.00  0.00     0.031 A 
ATOM     41  C   UNL A   1      38.136  31.904  37.266  1.00  0.00     0.131 A 
ATOM     42  C   UNL A   1      39.181  34.435  37.635  1.00  0.00     0.055 A 
ATOM     43  C   UNL A   1      37.811  32.623  38.419  1.00  0.00     0.041 A 
ATOM     44  F   UNL A   1      37.666  30.651  37.167  1.00  0.00    -0.206 F 
ATOM     45  C   UNL A   1      38.347  33.891  38.615  1.00  0.00     0.022 A 
BRANCH  42  46
ATOM     46  S   UNL A   1      40.067  35.984  37.964  1.00  0.00     0.124 S 
ATOM     47  O   UNL A   1      39.860  36.711  36.713  1.00  0.00    -0.237 OA
ATOM     48  O   UNL A   1      39.366  36.510  39.129  1.00  0.00    -0.237 OA
ATOM     49  O   UNL A   1      41.442  35.550  38.206  1.00  0.00    -0.744 OA
ENDBRANCH  42  46
ENDBRANCH  25  39
BRANCH  26  50
ATOM     50  C   UNL A   1      41.225  27.264  27.803  1.00  0.00     0.023 A 
ATOM     51  C   UNL A   1      40.878  25.902  27.755  1.00  0.00     0.031 A 
ATOM     52  C   UNL A   1      41.925  27.784  26.698  1.00  0.00     0.131 A 
ATOM     53  C   UNL A   1      41.284  25.102  26.673  1.00  0.00     0.055 A 
ATOM     54  C   UNL A   1      42.243  27.006  25.580  1.00  0.00     0.041 A 
ATOM     55  F   UNL A   1      42.325  29.066  26.682  1.00  0.00    -0.206 F 
ATOM     56  C   UNL A   1      41.941  25.650  25.572  1.00  0.00     0.022 A 
BRANCH  53  57
ATOM     57  S   UNL A   1      41.091  23.301  26.804  1.00  0.00     0.124 S 
ATOM     58  O   UNL A   1      41.992  22.831  25.757  1.00  0.00    -0.237 OA
ATOM     59  O   UNL A   1      41.518  23.047  28.176  1.00  0.00    -0.237 OA
ATOM     60  O   UNL A   1      39.669  23.089  26.542  1.00  0.00    -0.744 OA
ENDBRANCH  53  57
ENDBRANCH  26  50
BRANCH  38  61
ATOM     61  C   UNL A   1      44.190  27.929  34.085  1.00  0.00     0.023 A 
ATOM     62  C   UNL A   1      44.152  26.730  34.815  1.00  0.00     0.031 A 
ATOM     63  C   UNL A   1      45.433  28.555  33.891  1.00  0.00     0.131 A 
ATOM     64  C   UNL A   1      45.329  26.223  35.380  1.00  0.00     0.055 A 
ATOM     65  C   UNL A   1      46.610  28.009  34.396  1.00  0.00     0.041 A 
ATOM     66  F   UNL A   1      45.519  29.702  33.199  1.00  0.00    -0.206 F 
ATOM     67  C   UNL A   1      46.562  26.843  35.157  1.00  0.00     0.022 A 
BRANCH  64  68
ATOM     68  S   UNL A   1      45.211  24.794  36.488  1.00  0.00     0.124 S 
ATOM     69  O   UNL A   1      45.794  25.317  37.720  1.00  0.00    -0.237 OA
ATOM     70  O   UNL A   1      43.775  24.541  36.520  1.00  0.00    -0.237 OA
ATOM     71  O   UNL A   1      46.005  23.771  35.812  1.00  0.00    -0.744 OA
ENDBRANCH  64  68
ENDBRANCH  38  61
ENDBRANCH  12  13
ENDBRANCH   5   7
ENDBRANCH   4   5
ENDBRANCH   3   4
ENDBRANCH   2   3
ENDBRANCH   1   2
BRANCH   1  72
ATOM     72  C   UNL A   1      32.547  29.414  27.054  1.00  0.00     0.202 C 
BRANCH  72  73
ATOM     73  C   UNL A   1      33.966  28.938  26.756  1.00  0.00     0.261 C 
BRANCH  73  74
ATOM     74  O   UNL A   1      33.954  27.585  26.275  1.00  0.00    -0.461 OA
BRANCH  74  75
ATOM     75  C   UNL A   1      33.814  27.427  24.931  1.00  0.00     0.336 C 
ATOM     76  O   UNL A   1      33.768  28.341  24.113  1.00  0.00    -0.249 OA
BRANCH  75  77
ATOM     77  C   UNL A   1      33.597  25.958  24.523  1.00  0.00     0.164 C 
ATOM     78  C   UNL A   1      34.128  25.614  23.107  1.00  0.00     0.046 C 
ATOM     79  C   UNL A   1      32.055  25.778  24.571  1.00  0.00    -0.008 A 
ATOM     80  C   UNL A   1      33.319  26.254  21.972  1.00  0.00     0.008 C 
ATOM     81  C   UNL A   1      31.264  25.925  23.407  1.00  0.00    -0.042 A 
ATOM     82  C   UNL A   1      31.398  25.747  25.818  1.00  0.00     0.007 A 
ATOM     83  C   UNL A   1      31.855  25.853  22.024  1.00  0.00     0.036 C 
ATOM     84  C   UNL A   1      29.874  26.112  23.523  1.00  0.00     0.004 A 
ATOM     85  C   UNL A   1      30.018  25.941  25.917  1.00  0.00     0.000 A 
ATOM     86  C   UNL A   1      29.259  26.148  24.771  1.00  0.00     0.000 A 
BRANCH  77  87
ATOM     87  N   UNL A   1      34.293  25.078  25.530  1.00  0.00    -0.336 N 
ATOM     88  C   UNL A   1      34.211  23.721  25.783  1.00  0.00     0.224 C 
ATOM     89  H   UNL A   1      34.922  25.558  26.115  1.00  0.00     0.164 HD
ATOM     90  O   UNL A   1      34.395  23.351  26.945  1.00  0.00    -0.275 OA
BRANCH  88  91
ATOM     91  C   UNL A   1      34.085  22.688  24.646  1.00  0.00     0.082 C 
ATOM     92  C   UNL A   1      32.665  22.427  24.114  1.00  0.00     0.035 C 
ATOM     93  C   UNL A   1      34.845  21.394  25.034  1.00  0.00     0.035 C 
ATOM     94  C   UNL A   1      31.936  21.251  24.752  1.00  0.00     0.120 C 
ATOM     95  C   UNL A   1      33.950  20.382  25.746  1.00  0.00     0.120 C 
ATOM     96  N   UNL A   1      32.821  20.103  24.880  1.00  0.00    -0.342 N 
ATOM     97  C   UNL A   1      32.717  19.068  23.941  1.00  0.00     0.225 C 
ATOM     98  O   UNL A   1      32.025  19.217  22.933  1.00  0.00    -0.275 OA
BRANCH  97  99
ATOM     99  C   UNL A   1      33.364  17.727  24.104  1.00  0.00     0.079 C 
ATOM    100  C   UNL A   1      34.137  16.925  23.094  1.00  0.00     0.014 C 
ATOM    101  C   UNL A   1      34.859  17.576  24.242  1.00  0.00     0.014 C 
ENDBRANCH  97  99
ENDBRANCH  88  91
ENDBRANCH  77  87
ENDBRANCH  75  77
ENDBRANCH  74  75
ENDBRANCH  73  74
ENDBRANCH  72  73
ENDBRANCH   1  72
TORSDOF 20
ENDMDL
MODEL 2
REMARK VINA RESULT:     -12.1      1.213      1.601
REMARK SMILES O=C(OCCOCCOC(=O)[C@]1(NC(=O)C2CCN(C(=O)C3CC3)CC2)CCCc2ccccc21)c1ccc(-c2c3nc(c(-c4cc(S(=O)(=O)[O-])ccc4F)c4ccc([nH]4)c(-c4cc(S(=O)(=O)[O-])ccc4F)c4nc(c(-c5cc(S(=O)(=O)[O-])ccc5F)c5ccc2[nH]5)C=C4)C=C3)cc1
REMARK SMILES IDX 6 1 5 2 4 3 3 4 2 5 1 6 36 7 37 8 98 9 38 10 97 11 39 12
REMARK SMILES IDX 40 13 41 14 91 15 42 16 96 17 90 18 92 19 43 20 95 21 89 22
REMARK SMILES IDX 88 23 44 25 76 26 56 27 75 28 57 29 60 30 74 31 93 32 58 33
REMARK SMILES IDX 59 34 73 36 94 37 61 38 45 39 46 40 54 41 47 42 53 43 55 44
REMARK SMILES IDX 52 45 48 46 49 47 50 48 51 49 77 50 78 51 86 52 79 53 85 54
REMARK SMILES IDX 87 55 84 56 80 57 81 58 82 59 83 60 62 61 63 62 71 63 64 64
REMARK SMILES IDX 70 65 72 66 69 67 65 68 66 69 67 70 68 71 7 72 8 73 9 74
REMARK SMILES IDX 10 75 11 76 12 77 27 78 35 79 28 80 30 81 34 82 29 83 31 84
REMARK SMILES IDX 33 85 32 86 13 87 14 88 15 90 16 91 17 92 26 93 18 94 25 95
REMARK SMILES IDX 19 96 20 97 21 98 22 99 23 100 24 101
REMARK H PARENT 92 24 60 35 13 89
REMARK Flexibility Score: inf
ROOT
ATOM      1  O   UNL A   1      32.051  30.249  27.399  1.00  0.00    -0.374 OA
ENDROOT
BRANCH   1   2
ATOM      2  C   UNL A   1      31.709  31.100  26.321  1.00  0.00     0.202 C 
BRANCH   2   3
ATOM      3  C   UNL A   1      31.514  32.522  26.828  1.00  0.00     0.261 C 
BRANCH   3   4
ATOM      4  O   UNL A   1      32.770  33.226  26.838  1.00  0.00    -0.460 OA
BRANCH   4   5
ATOM      5  C   UNL A   1      33.267  33.801  27.968  1.00  0.00     0.338 C 
ATOM      6  O   UNL A   1      32.718  34.776  28.478  1.00  0.00    -0.246 OA
BRANCH   5   7
ATOM      7  C   UNL A   1      34.379  33.137  28.685  1.00  0.00     0.060 A 
ATOM      8  C   UNL A   1      34.351  31.793  29.072  1.00  0.00     0.016 A 
ATOM      9  C   UNL A   1      35.542  33.882  28.883  1.00  0.00     0.016 A 
ATOM     10  C   UNL A   1      35.409  31.227  29.756  1.00  0.00     0.010 A 
ATOM     11  C   UNL A   1      36.659  33.276  29.459  1.00  0.00     0.010 A 
ATOM     12  C   UNL A   1      36.591  31.945  29.903  1.00  0.00    -0.014 A 
BRANCH  12  13
ATOM     13  C   UNL A   1      37.750  31.272  30.519  1.00  0.00     0.031 A 
ATOM     14  C   UNL A   1      37.997  31.468  31.979  1.00  0.00     0.074 A 
ATOM     15  C   UNL A   1      38.513  30.460  29.757  1.00  0.00     0.049 A 
ATOM     16  N   UNL A   1      39.016  31.090  32.698  1.00  0.00    -0.248 NA
ATOM     17  C   UNL A   1      36.974  32.216  32.730  1.00  0.00     0.031 C 
ATOM     18  C   UNL A   1      38.268  30.171  28.339  1.00  0.00     0.029 A 
ATOM     19  N   UNL A   1      39.602  29.688  30.060  1.00  0.00    -0.354 N 
ATOM     20  C   UNL A   1      38.813  31.644  33.955  1.00  0.00     0.074 A 
ATOM     21  C   UNL A   1      37.550  32.347  33.915  1.00  0.00     0.031 C 
ATOM     22  C   UNL A   1      39.108  29.208  27.932  1.00  0.00     0.029 A 
ATOM     23  C   UNL A   1      40.022  28.885  29.019  1.00  0.00     0.049 A 
ATOM     24  H   UNL A   1      40.044  29.704  30.940  1.00  0.00     0.167 HD
ATOM     25  C   UNL A   1      39.647  31.593  35.019  1.00  0.00     0.034 A 
ATOM     26  C   UNL A   1      41.029  27.990  28.972  1.00  0.00     0.034 A 
ATOM     27  C   UNL A   1      40.880  30.847  34.996  1.00  0.00     0.049 A 
ATOM     28  C   UNL A   1      41.903  27.905  30.204  1.00  0.00     0.074 A 
ATOM     29  C   UNL A   1      41.861  30.758  35.964  1.00  0.00     0.029 A 
ATOM     30  N   UNL A   1      41.291  30.044  33.935  1.00  0.00    -0.354 N 
ATOM     31  N   UNL A   1      41.754  28.508  31.365  1.00  0.00    -0.248 NA
ATOM     32  C   UNL A   1      43.096  27.059  30.114  1.00  0.00     0.031 C 
ATOM     33  C   UNL A   1      42.892  29.955  35.463  1.00  0.00     0.029 A 
ATOM     34  C   UNL A   1      42.517  29.471  34.216  1.00  0.00     0.049 A 
ATOM     35  H   UNL A   1      40.781  29.904  33.104  1.00  0.00     0.167 HD
ATOM     36  C   UNL A   1      42.846  28.125  32.134  1.00  0.00     0.074 A 
ATOM     37  C   UNL A   1      43.600  27.180  31.332  1.00  0.00     0.031 C 
ATOM     38  C   UNL A   1      43.226  28.539  33.371  1.00  0.00     0.034 A 
BRANCH  25  39
ATOM     39  C   UNL A   1      39.312  32.464  36.204  1.00  0.00     0.023 A 
ATOM     40  C   UNL A   1      38.531  32.011  37.280  1.00  0.00     0.031 A 
ATOM     41  C   UNL A   1      39.721  33.811  36.208  1.00  0.00     0.131 A 
ATOM     42  C   UNL A   1      38.124  32.914  38.276  1.00  0.00     0.055 A 
ATOM     43  C   UNL A   1      39.383  34.683  37.245  1.00  0.00     0.041 A 
ATOM     44  F   UNL A   1      40.436  34.312  35.189  1.00  0.00    -0.206 F 
ATOM     45  C   UNL A   1      38.567  34.239  38.280  1.00  0.00     0.022 A 
BRANCH  42  46
ATOM     46  S   UNL A   1      36.885  32.374  39.487  1.00  0.00     0.124 S 
ATOM     47  O   UNL A   1      37.174  33.258  40.615  1.00  0.00    -0.237 OA
ATOM     48  O   UNL A   1      35.630  32.623  38.790  1.00  0.00    -0.237 OA
ATOM     49  O   UNL A   1      37.209  30.967  39.708  1.00  0.00    -0.744 OA
ENDBRANCH  42  46
ENDBRANCH  25  39
BRANCH  26  50
ATOM     50  C   UNL A   1      41.297  27.145  27.763  1.00  0.00     0.023 A 
ATOM     51  C   UNL A   1      40.925  25.789  27.739  1.00  0.00     0.031 A 
ATOM     52  C   UNL A   1      41.981  27.640  26.636  1.00  0.00     0.131 A 
ATOM     53  C   UNL A   1      41.294  24.969  26.659  1.00  0.00     0.055 A 
ATOM     54  C   UNL A   1      42.260  26.844  25.521  1.00  0.00     0.041 A 
ATOM     55  F   UNL A   1      42.401  28.915  26.596  1.00  0.00    -0.206 F 
ATOM     56  C   UNL A   1      41.936  25.493  25.537  1.00  0.00     0.022 A 
BRANCH  53  57
ATOM     57  S   UNL A   1      41.073  23.174  26.816  1.00  0.00     0.124 S 
ATOM     58  O   UNL A   1      39.636  23.034  26.605  1.00  0.00    -0.237 OA
ATOM     59  O   UNL A   1      41.928  22.666  25.749  1.00  0.00    -0.237 OA
ATOM     60  O   UNL A   1      41.531  22.890  28.174  1.00  0.00    -0.744 OA
ENDBRANCH  53  57
ENDBRANCH  26  50
BRANCH  38  61
ATOM     61  C   UNL A   1      44.509  27.959  33.904  1.00  0.00     0.023 A 
ATOM     62  C   UNL A   1      44.514  26.770  34.653  1.00  0.00     0.031 A 
ATOM     63  C   UNL A   1      45.735  28.596  33.653  1.00  0.00     0.131 A 
ATOM     64  C   UNL A   1      45.719  26.285  35.178  1.00  0.00     0.055 A 
ATOM     65  C   UNL A   1      46.939  28.071  34.119  1.00  0.00     0.041 A 
ATOM     66  F   UNL A   1      45.781  29.734  32.941  1.00  0.00    -0.206 F 
ATOM     67  C   UNL A   1      46.934  26.917  34.898  1.00  0.00     0.022 A 
BRANCH  64  68
ATOM     68  S   UNL A   1      45.662  24.872  36.311  1.00  0.00     0.124 S 
ATOM     69  O   UNL A   1      46.246  23.808  35.498  1.00  0.00    -0.237 OA
ATOM     70  O   UNL A   1      46.474  25.336  37.431  1.00  0.00    -0.237 OA
ATOM     71  O   UNL A   1      44.237  24.722  36.598  1.00  0.00    -0.744 OA
ENDBRANCH  64  68
ENDBRANCH  38  61
ENDBRANCH  12  13
ENDBRANCH   5   7
ENDBRANCH   4   5
ENDBRANCH   3   4
ENDBRANCH   2   3
ENDBRANCH   1   2
BRANCH   1  72
ATOM     72  C   UNL A   1      32.402  28.903  27.148  1.00  0.00     0.202 C 
BRANCH  72  73
ATOM     73  C   UNL A   1      33.867  28.866  26.725  1.00  0.00     0.261 C 
BRANCH  73  74
ATOM     74  O   UNL A   1      34.181  27.612  26.101  1.00  0.00    -0.461 OA
BRANCH  74  75
ATOM     75  C   UNL A   1      33.733  27.447  24.827  1.00  0.00     0.336 C 
ATOM     76  O   UNL A   1      33.411  28.355  24.067  1.00  0.00    -0.249 OA
BRANCH  75  77
ATOM     77  C   UNL A   1      33.550  25.966  24.447  1.00  0.00     0.164 C 
ATOM     78  C   UNL A   1      34.080  25.609  23.033  1.00  0.00     0.046 C 
ATOM     79  C   UNL A   1      32.013  25.747  24.509  1.00  0.00    -0.008 A 
ATOM     80  C   UNL A   1      33.246  26.208  21.893  1.00  0.00     0.008 C 
ATOM     81  C   UNL A   1      31.210  25.854  23.349  1.00  0.00    -0.042 A 
ATOM     82  C   UNL A   1      31.366  25.723  25.763  1.00  0.00     0.007 A 
ATOM     83  C   UNL A   1      31.793  25.771  21.963  1.00  0.00     0.036 C 
ATOM     84  C   UNL A   1      29.817  26.008  23.472  1.00  0.00     0.004 A 
ATOM     85  C   UNL A   1      29.982  25.884  25.868  1.00  0.00     0.000 A 
ATOM     86  C   UNL A   1      29.211  26.051  24.724  1.00  0.00     0.000 A 
BRANCH  77  87
ATOM     87  N   UNL A   1      34.275  25.121  25.465  1.00  0.00    -0.336 N 
ATOM     88  C   UNL A   1      34.233  23.767  25.739  1.00  0.00     0.224 C 
ATOM     89  H   UNL A   1      34.892  25.629  26.039  1.00  0.00     0.164 HD
ATOM     90  O   UNL A   1      34.432  23.420  26.906  1.00  0.00    -0.275 OA
BRANCH  88  91
ATOM     91  C   UNL A   1      34.133  22.713  24.619  1.00  0.00     0.082 C 
ATOM     92  C   UNL A   1      32.730  22.465  24.037  1.00  0.00     0.035 C 
ATOM     93  C   UNL A   1      34.854  21.415  25.062  1.00  0.00     0.035 C 
ATOM     94  C   UNL A   1      31.956  21.316  24.669  1.00  0.00     0.120 C 
ATOM     95  C   UNL A   1      33.915  20.433  25.758  1.00  0.00     0.120 C 
ATOM     96  N   UNL A   1      32.815  20.155  24.854  1.00  0.00    -0.342 N 
ATOM     97  C   UNL A   1      32.729  19.104  23.933  1.00  0.00     0.225 C 
ATOM     98  O   UNL A   1      32.080  19.243  22.895  1.00  0.00    -0.275 OA
BRANCH  97  99
ATOM     99  C   UNL A   1      33.346  17.755  24.147  1.00  0.00     0.079 C 
ATOM    100  C   UNL A   1      34.006  16.850  23.144  1.00  0.00     0.014 C 
ATOM    101  C   UNL A   1      34.842  17.559  24.175  1.00  0.00     0.014 C 
ENDBRANCH  97  99
ENDBRANCH  88  91
ENDBRANCH  77  87
ENDBRANCH  75  77
ENDBRANCH  74  75
ENDBRANCH  73  74
ENDBRANCH  72  73
ENDBRANCH   1  72
TORSDOF 20
ENDMDL
MODEL 3
REMARK VINA RESULT:     -11.7      2.215      4.674
REMARK SMILES O=C(OCCOCCOC(=O)[C@]1(NC(=O)C2CCN(C(=O)C3CC3)CC2)CCCc2ccccc21)c1ccc(-c2c3nc(c(-c4cc(S(=O)(=O)[O-])ccc4F)c4ccc([nH]4)c(-c4cc(S(=O)(=O)[O-])ccc4F)c4nc(c(-c5cc(S(=O)(=O)[O-])ccc5F)c5ccc2[nH]5)C=C4)C=C3)cc1
REMARK SMILES IDX 6 1 5 2 4 3 3 4 2 5 1 6 36 7 37 8 98 9 38 10 97 11 39 12
REMARK SMILES IDX 40 13 41 14 91 15 42 16 96 17 90 18 92 19 43 20 95 21 89 22
REMARK SMILES IDX 88 23 44 25 76 26 56 27 75 28 57 29 60 30 74 31 93 32 58 33
REMARK SMILES IDX 59 34 73 36 94 37 61 38 45 39 46 40 54 41 47 42 53 43 55 44
REMARK SMILES IDX 52 45 48 46 49 47 50 48 51 49 77 50 78 51 86 52 79 53 85 54
REMARK SMILES IDX 87 55 84 56 80 57 81 58 82 59 83 60 62 61 63 62 71 63 64 64
REMARK SMILES IDX 70 65 72 66 69 67 65 68 66 69 67 70 68 71 7 72 8 73 9 74
REMARK SMILES IDX 10 75 11 76 12 77 27 78 35 79 28 80 30 81 34 82 29 83 31 84
REMARK SMILES IDX 33 85 32 86 13 87 14 88 15 90 16 91 17 92 26 93 18 94 25 95
REMARK SMILES IDX 19 96 20 97 21 98 22 99 23 100 24 101
REMARK H PARENT 92 24 60 35 13 89
REMARK Flexibility Score: inf
ROOT
ATOM      1  O   UNL A   1      31.513  29.888  27.276  1.00  0.00    -0.374 OA
ENDROOT
BRANCH   1   2
ATOM      2  C   UNL A   1      31.806  30.883  26.312  1.00  0.00     0.202 C 
BRANCH   2   3
ATOM      3  C   UNL A   1      31.510  32.261  26.888  1.00  0.00     0.261 C 
BRANCH   3   4
ATOM      4  O   UNL A   1      32.673  33.104  26.792  1.00  0.00    -0.460 OA
BRANCH   4   5
ATOM      5  C   UNL A   1      33.274  33.633  27.894  1.00  0.00     0.338 C 
ATOM      6  O   UNL A   1      32.758  34.561  28.514  1.00  0.00    -0.246 OA
BRANCH   5   7
ATOM      7  C   UNL A   1      34.475  32.969  28.450  1.00  0.00     0.060 A 
ATOM      8  C   UNL A   1      35.659  33.652  28.753  1.00  0.00     0.016 A 
ATOM      9  C   UNL A   1      34.363  31.616  28.772  1.00  0.00     0.016 A 
ATOM     10  C   UNL A   1      36.758  32.980  29.252  1.00  0.00     0.010 A 
ATOM     11  C   UNL A   1      35.428  30.965  29.395  1.00  0.00     0.010 A 
ATOM     12  C   UNL A   1      36.633  31.647  29.631  1.00  0.00    -0.014 A 
BRANCH  12  13
ATOM     13  C   UNL A   1      37.782  30.992  30.284  1.00  0.00     0.031 A 
ATOM     14  C   UNL A   1      37.956  31.158  31.759  1.00  0.00     0.074 A 
ATOM     15  C   UNL A   1      38.602  30.222  29.539  1.00  0.00     0.049 A 
ATOM     16  N   UNL A   1      38.951  30.791  32.515  1.00  0.00    -0.248 NA
ATOM     17  C   UNL A   1      36.877  31.858  32.478  1.00  0.00     0.031 C 
ATOM     18  C   UNL A   1      38.431  29.961  28.105  1.00  0.00     0.029 A 
ATOM     19  N   UNL A   1      39.698  29.474  29.874  1.00  0.00    -0.354 N 
ATOM     20  C   UNL A   1      38.674  31.307  33.774  1.00  0.00     0.074 A 
ATOM     21  C   UNL A   1      37.394  31.975  33.691  1.00  0.00     0.031 C 
ATOM     22  C   UNL A   1      39.317  29.034  27.714  1.00  0.00     0.029 A 
ATOM     23  C   UNL A   1      40.190  28.709  28.835  1.00  0.00     0.049 A 
ATOM     24  H   UNL A   1      40.098  29.479  30.774  1.00  0.00     0.167 HD
ATOM     25  C   UNL A   1      39.459  31.253  34.875  1.00  0.00     0.034 A 
ATOM     26  C   UNL A   1      41.224  27.844  28.814  1.00  0.00     0.034 A 
ATOM     27  C   UNL A   1      40.713  30.543  34.891  1.00  0.00     0.049 A 
ATOM     28  C   UNL A   1      42.042  27.753  30.083  1.00  0.00     0.074 A 
ATOM     29  C   UNL A   1      41.651  30.457  35.901  1.00  0.00     0.029 A 
ATOM     30  N   UNL A   1      41.196  29.779  33.831  1.00  0.00    -0.354 N 
ATOM     31  N   UNL A   1      41.822  28.322  31.250  1.00  0.00    -0.248 NA
ATOM     32  C   UNL A   1      43.262  26.944  30.028  1.00  0.00     0.031 C 
ATOM     33  C   UNL A   1      42.726  29.696  35.430  1.00  0.00     0.029 A 
ATOM     34  C   UNL A   1      42.425  29.234  34.156  1.00  0.00     0.049 A 
ATOM     35  H   UNL A   1      40.729  29.646  32.974  1.00  0.00     0.167 HD
ATOM     36  C   UNL A   1      42.888  27.951  32.060  1.00  0.00     0.074 A 
ATOM     37  C   UNL A   1      43.705  27.048  31.271  1.00  0.00     0.031 C 
ATOM     38  C   UNL A   1      43.198  28.343  33.323  1.00  0.00     0.034 A 
BRANCH  25  39
ATOM     39  C   UNL A   1      39.044  32.084  36.062  1.00  0.00     0.023 A 
ATOM     40  C   UNL A   1      38.272  31.566  37.116  1.00  0.00     0.031 A 
ATOM     41  C   UNL A   1      39.365  33.454  36.093  1.00  0.00     0.131 A 
ATOM     42  C   UNL A   1      37.787  32.427  38.115  1.00  0.00     0.055 A 
ATOM     43  C   UNL A   1      38.950  34.287  37.133  1.00  0.00     0.041 A 
ATOM     44  F   UNL A   1      40.067  34.014  35.095  1.00  0.00    -0.206 F 
ATOM     45  C   UNL A   1      38.144  33.778  38.145  1.00  0.00     0.022 A 
BRANCH  42  46
ATOM     46  S   UNL A   1      36.562  31.792  39.292  1.00  0.00     0.124 S 
ATOM     47  O   UNL A   1      35.408  32.641  39.001  1.00  0.00    -0.237 OA
ATOM     48  O   UNL A   1      36.438  30.394  38.899  1.00  0.00    -0.237 OA
ATOM     49  O   UNL A   1      37.184  32.022  40.595  1.00  0.00    -0.744 OA
ENDBRANCH  42  46
ENDBRANCH  25  39
BRANCH  26  50
ATOM     50  C   UNL A   1      41.571  27.038  27.599  1.00  0.00     0.023 A 
ATOM     51  C   UNL A   1      41.274  25.665  27.540  1.00  0.00     0.031 A 
ATOM     52  C   UNL A   1      42.261  27.590  26.502  1.00  0.00     0.131 A 
ATOM     53  C   UNL A   1      41.717  24.887  26.457  1.00  0.00     0.055 A 
ATOM     54  C   UNL A   1      42.615  26.832  25.382  1.00  0.00     0.041 A 
ATOM     55  F   UNL A   1      42.614  28.886  26.497  1.00  0.00    -0.206 F 
ATOM     56  C   UNL A   1      42.363  25.466  25.364  1.00  0.00     0.022 A 
BRANCH  53  57
ATOM     57  S   UNL A   1      41.588  23.080  26.576  1.00  0.00     0.124 S 
ATOM     58  O   UNL A   1      42.399  22.651  25.441  1.00  0.00    -0.237 OA
ATOM     59  O   UNL A   1      42.150  22.820  27.896  1.00  0.00    -0.237 OA
ATOM     60  O   UNL A   1      40.154  22.830  26.444  1.00  0.00    -0.744 OA
ENDBRANCH  53  57
ENDBRANCH  26  50
BRANCH  38  61
ATOM     61  C   UNL A   1      44.472  27.787  33.901  1.00  0.00     0.023 A 
ATOM     62  C   UNL A   1      44.478  26.579  34.619  1.00  0.00     0.031 A 
ATOM     63  C   UNL A   1      45.689  28.466  33.724  1.00  0.00     0.131 A 
ATOM     64  C   UNL A   1      45.671  26.116  35.188  1.00  0.00     0.055 A 
ATOM     65  C   UNL A   1      46.884  27.964  34.234  1.00  0.00     0.041 A 
ATOM     66  F   UNL A   1      45.733  29.623  33.044  1.00  0.00    -0.206 F 
ATOM     67  C   UNL A   1      46.878  26.789  34.983  1.00  0.00     0.022 A 
BRANCH  64  68
ATOM     68  S   UNL A   1      45.604  24.672  36.282  1.00  0.00     0.124 S 
ATOM     69  O   UNL A   1      46.871  24.776  37.000  1.00  0.00    -0.237 OA
ATOM     70  O   UNL A   1      44.402  24.931  37.068  1.00  0.00    -0.237 OA
ATOM     71  O   UNL A   1      45.507  23.546  35.355  1.00  0.00    -0.744 OA
ENDBRANCH  64  68
ENDBRANCH  38  61
ENDBRANCH  12  13
ENDBRANCH   5   7
ENDBRANCH   4   5
ENDBRANCH   3   4
ENDBRANCH   2   3
ENDBRANCH   1   2
BRANCH   1  72
ATOM     72  C   UNL A   1      32.414  28.817  27.477  1.00  0.00     0.202 C 
BRANCH  72  73
ATOM     73  C   UNL A   1      32.741  28.212  26.116  1.00  0.00     0.261 C 
BRANCH  73  74
ATOM     74  O   UNL A   1      32.294  26.850  26.048  1.00  0.00    -0.461 OA
BRANCH  74  75
ATOM     75  C   UNL A   1      33.086  25.991  25.351  1.00  0.00     0.336 C 
ATOM     76  O   UNL A   1      34.309  25.929  25.438  1.00  0.00    -0.249 OA
BRANCH  75  77
ATOM     77  C   UNL A   1      32.301  25.154  24.325  1.00  0.00     0.164 C 
ATOM     78  C   UNL A   1      30.868  24.776  24.786  1.00  0.00     0.046 C 
ATOM     79  C   UNL A   1      33.158  23.870  24.150  1.00  0.00    -0.008 A 
ATOM     80  C   UNL A   1      30.837  23.759  25.934  1.00  0.00     0.008 C 
ATOM     81  C   UNL A   1      32.885  22.699  24.895  1.00  0.00    -0.042 A 
ATOM     82  C   UNL A   1      34.386  23.945  23.461  1.00  0.00     0.007 A 
ATOM     83  C   UNL A   1      31.557  22.471  25.568  1.00  0.00     0.036 C 
ATOM     84  C   UNL A   1      33.858  21.688  24.994  1.00  0.00     0.004 A 
ATOM     85  C   UNL A   1      35.345  22.936  23.575  1.00  0.00     0.000 A 
ATOM     86  C   UNL A   1      35.091  21.818  24.361  1.00  0.00     0.000 A 
BRANCH  77  87
ATOM     87  N   UNL A   1      32.206  25.941  23.043  1.00  0.00    -0.336 N 
ATOM     88  C   UNL A   1      31.214  26.757  22.531  1.00  0.00     0.224 C 
ATOM     89  H   UNL A   1      32.997  25.859  22.463  1.00  0.00     0.164 HD
ATOM     90  O   UNL A   1      31.100  26.808  21.304  1.00  0.00    -0.275 OA
BRANCH  88  91
ATOM     91  C   UNL A   1      30.403  27.712  23.429  1.00  0.00     0.082 C 
ATOM     92  C   UNL A   1      28.885  27.467  23.493  1.00  0.00     0.035 C 
ATOM     93  C   UNL A   1      30.777  29.179  23.097  1.00  0.00     0.035 C 
ATOM     94  C   UNL A   1      28.051  28.286  22.516  1.00  0.00     0.120 C 
ATOM     95  C   UNL A   1      29.873  29.785  22.026  1.00  0.00     0.120 C 
ATOM     96  N   UNL A   1      28.502  29.670  22.486  1.00  0.00    -0.342 N 
ATOM     97  C   UNL A   1      27.773  30.628  23.203  1.00  0.00     0.225 C 
ATOM     98  O   UNL A   1      26.888  30.274  23.982  1.00  0.00    -0.275 OA
BRANCH  97  99
ATOM     99  C   UNL A   1      27.960  32.106  23.045  1.00  0.00     0.079 C 
ATOM    100  C   UNL A   1      29.240  32.890  22.957  1.00  0.00     0.014 C 
ATOM    101  C   UNL A   1      28.382  32.720  21.733  1.00  0.00     0.014 C 
ENDBRANCH  97  99
ENDBRANCH  88  91
ENDBRANCH  77  87
ENDBRANCH  75  77
ENDBRANCH  74  75
ENDBRANCH  73  74
ENDBRANCH  72  73
ENDBRANCH   1  72
TORSDOF 20
ENDMDL
