MODEL 1
REMARK VINA RESULT:     -10.6      0.000      0.000
REMARK SMILES COc1c[nH]c(C[N@H+]2CCC[C@@H](c3ccc(C(=O)OCCOCCOC(=O)c4ccc(-c5c6nc(c(-c7cc(S(=O)(=O)[O-])ccc7F)c7ccc([nH]7)c(-c7cc(S(=O)(=O)[O-])ccc7F)c7nc(c(-c8cc(S(=O)(=O)[O-])ccc8F)c8ccc5[nH]8)C=C7)C=C6)cc4)cc3)C2)cc1=O
REMARK SMILES IDX 21 1 20 2 19 3 17 4 18 5 16 6 13 7 14 8 92 9 15 10 91 11
REMARK SMILES IDX 12 12 8 13 9 14 93 15 10 17 11 18 7 19 6 20 3 21 4 22 95 23
REMARK SMILES IDX 5 24 94 25 96 26 2 28 1 29 22 30 23 31 24 32 25 33 26 34
REMARK SMILES IDX 27 35 28 36 29 37 90 38 30 39 89 40 31 41 32 42 33 43 83 44
REMARK SMILES IDX 34 45 88 46 82 47 84 48 35 49 87 50 81 51 80 52 36 54 68 55
REMARK SMILES IDX 48 56 67 57 49 58 52 59 66 60 85 61 50 62 51 63 65 65 86 66
REMARK SMILES IDX 53 67 37 68 38 69 46 70 39 71 45 72 47 73 44 74 40 75 41 76
REMARK SMILES IDX 42 77 43 78 69 79 70 80 78 81 71 82 77 83 79 84 76 85 72 86
REMARK SMILES IDX 73 87 74 88 75 89 54 90 55 91 63 92 56 93 62 94 64 95 61 96
REMARK SMILES IDX 57 97 58 98 59 99 60 100
REMARK H PARENT 8 16 5 27 84 53 52 64
REMARK Flexibility Score: inf
ROOT
ATOM      1  C   UNL A   1      43.324  21.171  25.738  1.00  0.00     0.202 C 
ENDROOT
BRANCH   1   2
ATOM      2  C   UNL A   1      42.297  20.493  26.651  1.00  0.00     0.261 C 
BRANCH   2   3
ATOM      3  O   UNL A   1      40.964  20.612  26.134  1.00  0.00    -0.460 OA
BRANCH   3   4
ATOM      4  C   UNL A   1      40.156  21.420  26.858  1.00  0.00     0.338 C 
ATOM      5  O   UNL A   1      40.370  21.871  27.973  1.00  0.00    -0.246 OA
BRANCH   4   6
ATOM      6  C   UNL A   1      39.008  21.863  26.041  1.00  0.00     0.060 A 
ATOM      7  C   UNL A   1      36.696  22.799  24.763  1.00  0.00    -0.039 A 
ATOM      8  C   UNL A   1      37.498  23.671  25.520  1.00  0.00     0.005 A 
ATOM      9  C   UNL A   1      37.136  21.481  24.560  1.00  0.00     0.005 A 
ATOM     10  C   UNL A   1      38.629  23.201  26.174  1.00  0.00     0.016 A 
ATOM     11  C   UNL A   1      38.298  21.014  25.188  1.00  0.00     0.016 A 
BRANCH   7  12
ATOM     12  C   UNL A   1      35.279  23.213  24.368  1.00  0.00     0.074 C 
ATOM     13  N   UNL A   1      32.897  22.358  24.745  1.00  0.00    -0.329 N 
ATOM     14  C   UNL A   1      32.530  23.661  25.313  1.00  0.00     0.262 C 
ATOM     15  C   UNL A   1      34.333  22.098  24.876  1.00  0.00     0.270 C 
ATOM     16  H   UNL A   1      32.684  22.400  23.749  1.00  0.00     0.348 HD
ATOM     17  C   UNL A   1      33.360  24.798  24.706  1.00  0.00     0.062 C 
ATOM     18  C   UNL A   1      34.856  24.577  24.928  1.00  0.00     0.020 C 
BRANCH  13  19
ATOM     19  C   UNL A   1      32.083  21.248  25.305  1.00  0.00     0.317 C 
BRANCH  19  20
ATOM     20  C   UNL A   1      32.518  19.824  24.946  1.00  0.00     0.074 A 
ATOM     21  C   UNL A   1      32.984  17.028  24.567  1.00  0.00     0.182 A 
ATOM     22  C   UNL A   1      33.065  17.624  25.764  1.00  0.00     0.133 A 
ATOM     23  C   UNL A   1      32.771  17.944  23.389  1.00  0.00     0.223 A 
ATOM     24  N   UNL A   1      32.934  18.972  25.955  1.00  0.00    -0.357 N 
ATOM     25  C   UNL A   1      32.474  19.380  23.676  1.00  0.00     0.083 A 
ATOM     26  O   UNL A   1      32.797  17.560  22.224  1.00  0.00    -0.286 OA
ATOM     27  H   UNL A   1      33.142  19.350  26.841  1.00  0.00     0.166 HD
BRANCH  21  28
ATOM     28  O   UNL A   1      33.005  15.650  24.472  1.00  0.00    -0.491 OA
ATOM     29  C   UNL A   1      32.372  14.985  25.557  1.00  0.00     0.278 C 
ENDBRANCH  21  28
ENDBRANCH  19  20
ENDBRANCH  13  19
ENDBRANCH   7  12
ENDBRANCH   4   6
ENDBRANCH   3   4
ENDBRANCH   2   3
ENDBRANCH   1   2
BRANCH   1  30
ATOM     30  O   UNL A   1      42.851  22.190  24.858  1.00  0.00    -0.374 OA
BRANCH  30  31
ATOM     31  C   UNL A   1      42.710  23.509  25.389  1.00  0.00     0.202 C 
BRANCH  31  32
ATOM     32  C   UNL A   1      43.985  24.329  25.631  1.00  0.00     0.261 C 
BRANCH  32  33
ATOM     33  O   UNL A   1      43.841  25.707  25.246  1.00  0.00    -0.460 OA
BRANCH  33  34
ATOM     34  C   UNL A   1      42.734  26.324  25.731  1.00  0.00     0.338 C 
ATOM     35  O   UNL A   1      41.666  26.478  25.156  1.00  0.00    -0.246 OA
BRANCH  34  36
ATOM     36  C   UNL A   1      42.928  26.619  27.162  1.00  0.00     0.060 A 
ATOM     37  C   UNL A   1      44.110  27.266  27.546  1.00  0.00     0.016 A 
ATOM     38  C   UNL A   1      41.986  26.235  28.116  1.00  0.00     0.016 A 
ATOM     39  C   UNL A   1      44.360  27.522  28.893  1.00  0.00     0.010 A 
ATOM     40  C   UNL A   1      42.246  26.479  29.468  1.00  0.00     0.010 A 
ATOM     41  C   UNL A   1      43.440  27.108  29.865  1.00  0.00    -0.014 A 
BRANCH  41  42
ATOM     42  C   UNL A   1      43.765  27.240  31.306  1.00  0.00     0.031 A 
ATOM     43  C   UNL A   1      43.526  28.555  31.992  1.00  0.00     0.074 A 
ATOM     44  C   UNL A   1      44.271  26.198  31.991  1.00  0.00     0.049 A 
ATOM     45  N   UNL A   1      43.837  28.927  33.206  1.00  0.00    -0.248 NA
ATOM     46  C   UNL A   1      42.851  29.590  31.196  1.00  0.00     0.031 C 
ATOM     47  C   UNL A   1      44.491  24.859  31.446  1.00  0.00     0.029 A 
ATOM     48  N   UNL A   1      44.708  26.109  33.289  1.00  0.00    -0.354 N 
ATOM     49  C   UNL A   1      43.403  30.243  33.321  1.00  0.00     0.074 A 
ATOM     50  C   UNL A   1      42.840  30.612  32.039  1.00  0.00     0.031 C 
ATOM     51  C   UNL A   1      45.034  24.085  32.400  1.00  0.00     0.029 A 
ATOM     52  C   UNL A   1      45.251  24.885  33.604  1.00  0.00     0.049 A 
ATOM     53  H   UNL A   1      44.637  26.849  33.934  1.00  0.00     0.167 HD
ATOM     54  C   UNL A   1      43.465  31.063  34.399  1.00  0.00     0.034 A 
ATOM     55  C   UNL A   1      45.888  24.473  34.718  1.00  0.00     0.034 A 
ATOM     56  C   UNL A   1      44.046  30.679  35.664  1.00  0.00     0.049 A 
ATOM     57  C   UNL A   1      46.059  25.443  35.864  1.00  0.00     0.074 A 
ATOM     58  C   UNL A   1      44.143  31.422  36.828  1.00  0.00     0.029 A 
ATOM     59  N   UNL A   1      44.647  29.454  35.925  1.00  0.00    -0.354 N 
ATOM     60  N   UNL A   1      45.638  26.684  35.967  1.00  0.00    -0.248 NA
ATOM     61  C   UNL A   1      46.792  24.959  37.042  1.00  0.00     0.031 C 
ATOM     62  C   UNL A   1      44.875  30.681  37.761  1.00  0.00     0.029 A 
ATOM     63  C   UNL A   1      45.160  29.440  37.214  1.00  0.00     0.049 A 
ATOM     64  H   UNL A   1      44.700  28.705  35.289  1.00  0.00     0.167 HD
ATOM     65  C   UNL A   1      46.035  27.117  37.230  1.00  0.00     0.074 A 
ATOM     66  C   UNL A   1      46.712  26.001  37.857  1.00  0.00     0.031 C 
ATOM     67  C   UNL A   1      45.852  28.326  37.820  1.00  0.00     0.034 A 
BRANCH  54  68
ATOM     68  C   UNL A   1      42.943  32.470  34.234  1.00  0.00     0.023 A 
ATOM     69  C   UNL A   1      41.653  32.835  34.652  1.00  0.00     0.031 A 
ATOM     70  C   UNL A   1      43.740  33.454  33.622  1.00  0.00     0.131 A 
ATOM     71  C   UNL A   1      41.171  34.127  34.388  1.00  0.00     0.055 A 
ATOM     72  C   UNL A   1      43.286  34.760  33.438  1.00  0.00     0.041 A 
ATOM     73  F   UNL A   1      44.974  33.158  33.180  1.00  0.00    -0.206 F 
ATOM     74  C   UNL A   1      41.987  35.100  33.807  1.00  0.00     0.022 A 
BRANCH  71  75
ATOM     75  S   UNL A   1      39.413  34.471  34.677  1.00  0.00     0.124 S 
ATOM     76  O   UNL A   1      39.440  35.897  34.989  1.00  0.00    -0.237 OA
ATOM     77  O   UNL A   1      38.808  34.106  33.401  1.00  0.00    -0.237 OA
ATOM     78  O   UNL A   1      39.074  33.601  35.801  1.00  0.00    -0.744 OA
ENDBRANCH  71  75
ENDBRANCH  54  68
BRANCH  55  79
ATOM     79  C   UNL A   1      46.469  23.101  34.795  1.00  0.00     0.023 A 
ATOM     80  C   UNL A   1      47.838  22.880  34.573  1.00  0.00     0.031 A 
ATOM     81  C   UNL A   1      45.652  21.981  35.037  1.00  0.00     0.131 A 
ATOM     82  C   UNL A   1      48.340  21.569  34.554  1.00  0.00     0.055 A 
ATOM     83  C   UNL A   1      46.167  20.685  35.075  1.00  0.00     0.041 A 
ATOM     84  F   UNL A   1      44.336  22.134  35.250  1.00  0.00    -0.206 F 
ATOM     85  C   UNL A   1      47.518  20.472  34.818  1.00  0.00     0.022 A 
BRANCH  82  86
ATOM     86  S   UNL A   1      50.073  21.312  34.083  1.00  0.00     0.124 S 
ATOM     87  O   UNL A   1      50.461  22.647  33.645  1.00  0.00    -0.237 OA
ATOM     88  O   UNL A   1      50.661  20.851  35.337  1.00  0.00    -0.237 OA
ATOM     89  O   UNL A   1      49.992  20.306  33.027  1.00  0.00    -0.744 OA
ENDBRANCH  82  86
ENDBRANCH  55  79
BRANCH  67  90
ATOM     90  C   UNL A   1      46.368  28.492  39.230  1.00  0.00     0.023 A 
ATOM     91  C   UNL A   1      45.538  28.301  40.348  1.00  0.00     0.031 A 
ATOM     92  C   UNL A   1      47.712  28.839  39.457  1.00  0.00     0.131 A 
ATOM     93  C   UNL A   1      46.049  28.498  41.641  1.00  0.00     0.055 A 
ATOM     94  C   UNL A   1      48.231  28.973  40.745  1.00  0.00     0.041 A 
ATOM     95  F   UNL A   1      48.550  29.038  38.426  1.00  0.00    -0.206 F 
ATOM     96  C   UNL A   1      47.395  28.813  41.847  1.00  0.00     0.022 A 
BRANCH  93  97
ATOM     97  S   UNL A   1      44.912  28.412  43.052  1.00  0.00     0.124 S 
ATOM     98  O   UNL A   1      44.527  29.810  43.215  1.00  0.00    -0.237 OA
ATOM     99  O   UNL A   1      43.869  27.517  42.559  1.00  0.00    -0.237 OA
ATOM    100  O   UNL A   1      45.739  27.866  44.126  1.00  0.00    -0.744 OA
ENDBRANCH  93  97
ENDBRANCH  67  90
ENDBRANCH  41  42
ENDBRANCH  34  36
ENDBRANCH  33  34
ENDBRANCH  32  33
ENDBRANCH  31  32
ENDBRANCH  30  31
ENDBRANCH   1  30
TORSDOF 21
ENDMDL
MODEL 2
REMARK VINA RESULT:     -10.2      5.335     11.486
REMARK SMILES COc1c[nH]c(C[N@H+]2CCC[C@@H](c3ccc(C(=O)OCCOCCOC(=O)c4ccc(-c5c6nc(c(-c7cc(S(=O)(=O)[O-])ccc7F)c7ccc([nH]7)c(-c7cc(S(=O)(=O)[O-])ccc7F)c7nc(c(-c8cc(S(=O)(=O)[O-])ccc8F)c8ccc5[nH]8)C=C7)C=C6)cc4)cc3)C2)cc1=O
REMARK SMILES IDX 21 1 20 2 19 3 17 4 18 5 16 6 13 7 14 8 92 9 15 10 91 11
REMARK SMILES IDX 12 12 8 13 9 14 93 15 10 17 11 18 7 19 6 20 3 21 4 22 95 23
REMARK SMILES IDX 5 24 94 25 96 26 2 28 1 29 22 30 23 31 24 32 25 33 26 34
REMARK SMILES IDX 27 35 28 36 29 37 90 38 30 39 89 40 31 41 32 42 33 43 83 44
REMARK SMILES IDX 34 45 88 46 82 47 84 48 35 49 87 50 81 51 80 52 36 54 68 55
REMARK SMILES IDX 48 56 67 57 49 58 52 59 66 60 85 61 50 62 51 63 65 65 86 66
REMARK SMILES IDX 53 67 37 68 38 69 46 70 39 71 45 72 47 73 44 74 40 75 41 76
REMARK SMILES IDX 42 77 43 78 69 79 70 80 78 81 71 82 77 83 79 84 76 85 72 86
REMARK SMILES IDX 73 87 74 88 75 89 54 90 55 91 63 92 56 93 62 94 64 95 61 96
REMARK SMILES IDX 57 97 58 98 59 99 60 100
REMARK H PARENT 8 16 5 27 84 53 52 64
REMARK Flexibility Score: inf
ROOT
ATOM      1  C   UNL A   1      36.890  32.129  31.843  1.00  0.00     0.202 C 
ENDROOT
BRANCH   1   2
ATOM      2  C   UNL A   1      35.863  31.143  31.276  1.00  0.00     0.261 C 
BRANCH   2   3
ATOM      3  O   UNL A   1      36.385  29.808  31.215  1.00  0.00    -0.460 OA
BRANCH   3   4
ATOM      4  C   UNL A   1      36.663  29.376  29.963  1.00  0.00     0.338 C 
ATOM      5  O   UNL A   1      35.900  29.334  29.009  1.00  0.00    -0.246 OA
BRANCH   4   6
ATOM      6  C   UNL A   1      38.110  29.115  29.821  1.00  0.00     0.060 A 
ATOM      7  C   UNL A   1      40.800  28.585  29.239  1.00  0.00    -0.039 A 
ATOM      8  C   UNL A   1      40.144  29.683  28.654  1.00  0.00     0.005 A 
ATOM      9  C   UNL A   1      40.120  27.830  30.208  1.00  0.00     0.005 A 
ATOM     10  C   UNL A   1      38.804  29.929  28.923  1.00  0.00     0.016 A 
ATOM     11  C   UNL A   1      38.779  28.100  30.511  1.00  0.00     0.016 A 
BRANCH   7  12
ATOM     12  C   UNL A   1      42.129  28.095  28.666  1.00  0.00     0.074 C 
ATOM     13  N   UNL A   1      43.397  25.879  28.489  1.00  0.00    -0.329 N 
ATOM     14  C   UNL A   1      43.456  26.041  27.032  1.00  0.00     0.262 C 
ATOM     15  C   UNL A   1      42.263  26.605  29.067  1.00  0.00     0.270 C 
ATOM     16  H   UNL A   1      44.249  26.293  28.867  1.00  0.00     0.348 HD
ATOM     17  C   UNL A   1      43.476  27.519  26.625  1.00  0.00     0.062 C 
ATOM     18  C   UNL A   1      42.243  28.257  27.145  1.00  0.00     0.020 C 
BRANCH  13  19
ATOM     19  C   UNL A   1      43.403  24.452  28.900  1.00  0.00     0.317 C 
BRANCH  19  20
ATOM     20  C   UNL A   1      42.948  23.430  27.854  1.00  0.00     0.074 A 
ATOM     21  C   UNL A   1      42.424  21.240  26.090  1.00  0.00     0.182 A 
ATOM     22  C   UNL A   1      43.621  21.837  26.175  1.00  0.00     0.133 A 
ATOM     23  C   UNL A   1      41.312  21.882  26.880  1.00  0.00     0.223 A 
ATOM     24  N   UNL A   1      43.870  22.941  26.944  1.00  0.00    -0.357 N 
ATOM     25  C   UNL A   1      41.679  22.980  27.823  1.00  0.00     0.083 A 
ATOM     26  O   UNL A   1      40.141  21.523  26.807  1.00  0.00    -0.286 OA
ATOM     27  H   UNL A   1      44.734  23.402  26.849  1.00  0.00     0.166 HD
BRANCH  21  28
ATOM     28  O   UNL A   1      42.283  20.059  25.388  1.00  0.00    -0.491 OA
ATOM     29  C   UNL A   1      42.651  18.900  26.125  1.00  0.00     0.278 C 
ENDBRANCH  21  28
ENDBRANCH  19  20
ENDBRANCH  13  19
ENDBRANCH   7  12
ENDBRANCH   4   6
ENDBRANCH   3   4
ENDBRANCH   2   3
ENDBRANCH   1   2
BRANCH   1  30
ATOM     30  O   UNL A   1      36.601  33.521  31.723  1.00  0.00    -0.374 OA
BRANCH  30  31
ATOM     31  C   UNL A   1      36.403  34.263  32.928  1.00  0.00     0.202 C 
BRANCH  31  32
ATOM     32  C   UNL A   1      36.310  33.484  34.246  1.00  0.00     0.261 C 
BRANCH  32  33
ATOM     33  O   UNL A   1      37.425  33.734  35.119  1.00  0.00    -0.460 OA
BRANCH  33  34
ATOM     34  C   UNL A   1      37.863  32.654  35.814  1.00  0.00     0.338 C 
ATOM     35  O   UNL A   1      37.390  32.203  36.847  1.00  0.00    -0.246 OA
BRANCH  34  36
ATOM     36  C   UNL A   1      38.894  31.954  35.028  1.00  0.00     0.060 A 
ATOM     37  C   UNL A   1      40.183  32.501  34.998  1.00  0.00     0.016 A 
ATOM     38  C   UNL A   1      38.594  30.802  34.301  1.00  0.00     0.016 A 
ATOM     39  C   UNL A   1      41.179  31.902  34.229  1.00  0.00     0.010 A 
ATOM     40  C   UNL A   1      39.590  30.211  33.518  1.00  0.00     0.010 A 
ATOM     41  C   UNL A   1      40.882  30.766  33.464  1.00  0.00    -0.014 A 
BRANCH  41  42
ATOM     42  C   UNL A   1      41.889  30.210  32.528  1.00  0.00     0.031 A 
ATOM     43  C   UNL A   1      42.517  28.880  32.835  1.00  0.00     0.074 A 
ATOM     44  C   UNL A   1      42.242  30.889  31.422  1.00  0.00     0.049 A 
ATOM     45  N   UNL A   1      43.490  28.260  32.222  1.00  0.00    -0.248 NA
ATOM     46  C   UNL A   1      41.973  28.157  33.994  1.00  0.00     0.031 C 
ATOM     47  C   UNL A   1      41.659  32.160  30.992  1.00  0.00     0.029 A 
ATOM     48  N   UNL A   1      43.187  30.612  30.466  1.00  0.00    -0.354 N 
ATOM     49  C   UNL A   1      43.685  27.075  32.922  1.00  0.00     0.074 A 
ATOM     50  C   UNL A   1      42.750  27.084  34.028  1.00  0.00     0.031 C 
ATOM     51  C   UNL A   1      42.271  32.559  29.864  1.00  0.00     0.029 A 
ATOM     52  C   UNL A   1      43.323  31.603  29.522  1.00  0.00     0.049 A 
ATOM     53  H   UNL A   1      43.717  29.782  30.456  1.00  0.00     0.167 HD
ATOM     54  C   UNL A   1      44.560  26.072  32.663  1.00  0.00     0.034 A 
ATOM     55  C   UNL A   1      44.219  31.743  28.525  1.00  0.00     0.034 A 
ATOM     56  C   UNL A   1      45.495  26.091  31.563  1.00  0.00     0.049 A 
ATOM     57  C   UNL A   1      45.268  30.673  28.328  1.00  0.00     0.074 A 
ATOM     58  C   UNL A   1      46.412  25.122  31.195  1.00  0.00     0.029 A 
ATOM     59  N   UNL A   1      45.649  27.142  30.667  1.00  0.00    -0.354 N 
ATOM     60  N   UNL A   1      45.439  29.551  28.992  1.00  0.00    -0.248 NA
ATOM     61  C   UNL A   1      46.245  30.888  27.252  1.00  0.00     0.031 C 
ATOM     62  C   UNL A   1      47.175  25.619  30.133  1.00  0.00     0.029 A 
ATOM     63  C   UNL A   1      46.679  26.864  29.780  1.00  0.00     0.049 A 
ATOM     64  H   UNL A   1      45.108  27.963  30.663  1.00  0.00     0.167 HD
ATOM     65  C   UNL A   1      46.527  28.919  28.395  1.00  0.00     0.074 A 
ATOM     66  C   UNL A   1      46.961  29.774  27.310  1.00  0.00     0.031 C 
ATOM     67  C   UNL A   1      47.114  27.736  28.713  1.00  0.00     0.034 A 
BRANCH  54  68
ATOM     68  C   UNL A   1      44.582  24.903  33.618  1.00  0.00     0.023 A 
ATOM     69  C   UNL A   1      45.077  25.025  34.927  1.00  0.00     0.031 A 
ATOM     70  C   UNL A   1      44.125  23.640  33.201  1.00  0.00     0.131 A 
ATOM     71  C   UNL A   1      45.172  23.890  35.748  1.00  0.00     0.055 A 
ATOM     72  C   UNL A   1      44.145  22.533  34.051  1.00  0.00     0.041 A 
ATOM     73  F   UNL A   1      43.663  23.456  31.953  1.00  0.00    -0.206 F 
ATOM     74  C   UNL A   1      44.685  22.650  35.328  1.00  0.00     0.022 A 
BRANCH  71  75
ATOM     75  S   UNL A   1      46.079  24.027  37.313  1.00  0.00     0.124 S 
ATOM     76  O   UNL A   1      45.645  22.819  38.010  1.00  0.00    -0.237 OA
ATOM     77  O   UNL A   1      47.468  24.047  36.870  1.00  0.00    -0.237 OA
ATOM     78  O   UNL A   1      45.587  25.278  37.885  1.00  0.00    -0.744 OA
ENDBRANCH  71  75
ENDBRANCH  54  68
BRANCH  55  79
ATOM     79  C   UNL A   1      44.214  32.964  27.667  1.00  0.00     0.023 A 
ATOM     80  C   UNL A   1      44.587  34.214  28.185  1.00  0.00     0.031 A 
ATOM     81  C   UNL A   1      43.781  32.908  26.329  1.00  0.00     0.131 A 
ATOM     82  C   UNL A   1      44.479  35.363  27.385  1.00  0.00     0.055 A 
ATOM     83  C   UNL A   1      43.730  34.043  25.521  1.00  0.00     0.041 A 
ATOM     84  F   UNL A   1      43.407  31.739  25.785  1.00  0.00    -0.206 F 
ATOM     85  C   UNL A   1      44.068  35.284  26.052  1.00  0.00     0.022 A 
BRANCH  82  86
ATOM     86  S   UNL A   1      44.794  36.980  28.142  1.00  0.00     0.124 S 
ATOM     87  O   UNL A   1      45.901  36.675  29.040  1.00  0.00    -0.237 OA
ATOM     88  O   UNL A   1      45.117  37.801  26.980  1.00  0.00    -0.237 OA
ATOM     89  O   UNL A   1      43.528  37.301  28.797  1.00  0.00    -0.744 OA
ENDBRANCH  82  86
ENDBRANCH  55  79
BRANCH  67  90
ATOM     90  C   UNL A   1      48.270  27.284  27.852  1.00  0.00     0.023 A 
ATOM     91  C   UNL A   1      49.602  27.579  28.191  1.00  0.00     0.031 A 
ATOM     92  C   UNL A   1      48.034  26.539  26.683  1.00  0.00     0.131 A 
ATOM     93  C   UNL A   1      50.646  27.168  27.347  1.00  0.00     0.055 A 
ATOM     94  C   UNL A   1      49.079  26.080  25.879  1.00  0.00     0.041 A 
ATOM     95  F   UNL A   1      46.782  26.232  26.308  1.00  0.00    -0.206 F 
ATOM     96  C   UNL A   1      50.394  26.404  26.204  1.00  0.00     0.022 A 
BRANCH  93  97
ATOM     97  S   UNL A   1      52.335  27.711  27.719  1.00  0.00     0.124 S 
ATOM     98  O   UNL A   1      52.701  28.420  26.497  1.00  0.00    -0.237 OA
ATOM     99  O   UNL A   1      52.143  28.541  28.904  1.00  0.00    -0.237 OA
ATOM    100  O   UNL A   1      53.055  26.460  27.950  1.00  0.00    -0.744 OA
ENDBRANCH  93  97
ENDBRANCH  67  90
ENDBRANCH  41  42
ENDBRANCH  34  36
ENDBRANCH  33  34
ENDBRANCH  32  33
ENDBRANCH  31  32
ENDBRANCH  30  31
ENDBRANCH   1  30
TORSDOF 21
ENDMDL
MODEL 3
REMARK VINA RESULT:     -10.0      4.699     11.056
REMARK SMILES COc1c[nH]c(C[N@H+]2CCC[C@@H](c3ccc(C(=O)OCCOCCOC(=O)c4ccc(-c5c6nc(c(-c7cc(S(=O)(=O)[O-])ccc7F)c7ccc([nH]7)c(-c7cc(S(=O)(=O)[O-])ccc7F)c7nc(c(-c8cc(S(=O)(=O)[O-])ccc8F)c8ccc5[nH]8)C=C7)C=C6)cc4)cc3)C2)cc1=O
REMARK SMILES IDX 21 1 20 2 19 3 17 4 18 5 16 6 13 7 14 8 92 9 15 10 91 11
REMARK SMILES IDX 12 12 8 13 9 14 93 15 10 17 11 18 7 19 6 20 3 21 4 22 95 23
REMARK SMILES IDX 5 24 94 25 96 26 2 28 1 29 22 30 23 31 24 32 25 33 26 34
REMARK SMILES IDX 27 35 28 36 29 37 90 38 30 39 89 40 31 41 32 42 33 43 83 44
REMARK SMILES IDX 34 45 88 46 82 47 84 48 35 49 87 50 81 51 80 52 36 54 68 55
REMARK SMILES IDX 48 56 67 57 49 58 52 59 66 60 85 61 50 62 51 63 65 65 86 66
REMARK SMILES IDX 53 67 37 68 38 69 46 70 39 71 45 72 47 73 44 74 40 75 41 76
REMARK SMILES IDX 42 77 43 78 69 79 70 80 78 81 71 82 77 83 79 84 76 85 72 86
REMARK SMILES IDX 73 87 74 88 75 89 54 90 55 91 63 92 56 93 62 94 64 95 61 96
REMARK SMILES IDX 57 97 58 98 59 99 60 100
REMARK H PARENT 8 16 5 27 84 53 52 64
REMARK Flexibility Score: inf
ROOT
ATOM      1  C   UNL A   1      34.445  33.154  31.687  1.00  0.00     0.202 C 
ENDROOT
BRANCH   1   2
ATOM      2  C   UNL A   1      35.420  32.146  31.069  1.00  0.00     0.261 C 
BRANCH   2   3
ATOM      3  O   UNL A   1      35.422  32.217  29.636  1.00  0.00    -0.460 OA
BRANCH   3   4
ATOM      4  C   UNL A   1      36.635  32.470  29.093  1.00  0.00     0.338 C 
ATOM      5  O   UNL A   1      37.135  33.565  28.880  1.00  0.00    -0.246 OA
BRANCH   4   6
ATOM      6  C   UNL A   1      37.401  31.217  28.941  1.00  0.00     0.060 A 
ATOM      7  C   UNL A   1      39.085  29.015  28.525  1.00  0.00    -0.039 A 
ATOM      8  C   UNL A   1      39.496  30.087  29.337  1.00  0.00     0.005 A 
ATOM      9  C   UNL A   1      37.774  29.012  28.023  1.00  0.00     0.005 A 
ATOM     10  C   UNL A   1      38.671  31.189  29.521  1.00  0.00     0.016 A 
ATOM     11  C   UNL A   1      36.925  30.105  28.240  1.00  0.00     0.016 A 
BRANCH   7  12
ATOM     12  C   UNL A   1      40.112  28.003  28.019  1.00  0.00     0.074 C 
ATOM     13  N   UNL A   1      40.153  25.523  27.389  1.00  0.00    -0.329 N 
ATOM     14  C   UNL A   1      40.663  25.880  26.060  1.00  0.00     0.262 C 
ATOM     15  C   UNL A   1      39.402  26.627  27.992  1.00  0.00     0.270 C 
ATOM     16  H   UNL A   1      40.965  25.348  27.979  1.00  0.00     0.348 HD
ATOM     17  C   UNL A   1      41.497  27.165  26.098  1.00  0.00     0.062 C 
ATOM     18  C   UNL A   1      40.684  28.342  26.637  1.00  0.00     0.020 C 
BRANCH  13  19
ATOM     19  C   UNL A   1      39.363  24.265  27.372  1.00  0.00     0.317 C 
BRANCH  19  20
ATOM     20  C   UNL A   1      40.132  22.972  27.083  1.00  0.00     0.074 A 
ATOM     21  C   UNL A   1      41.631  20.537  27.013  1.00  0.00     0.182 A 
ATOM     22  C   UNL A   1      42.123  21.681  27.508  1.00  0.00     0.133 A 
ATOM     23  C   UNL A   1      40.278  20.633  26.356  1.00  0.00     0.223 A 
ATOM     24  N   UNL A   1      41.458  22.876  27.470  1.00  0.00    -0.357 N 
ATOM     25  C   UNL A   1      39.535  21.921  26.490  1.00  0.00     0.083 A 
ATOM     26  O   UNL A   1      39.755  19.700  25.753  1.00  0.00    -0.286 OA
ATOM     27  H   UNL A   1      41.938  23.696  27.729  1.00  0.00     0.166 HD
BRANCH  21  28
ATOM     28  O   UNL A   1      42.311  19.349  27.199  1.00  0.00    -0.491 OA
ATOM     29  C   UNL A   1      43.029  18.908  26.055  1.00  0.00     0.278 C 
ENDBRANCH  21  28
ENDBRANCH  19  20
ENDBRANCH  13  19
ENDBRANCH   7  12
ENDBRANCH   4   6
ENDBRANCH   3   4
ENDBRANCH   2   3
ENDBRANCH   1   2
BRANCH   1  30
ATOM     30  O   UNL A   1      34.698  34.539  31.457  1.00  0.00    -0.374 OA
BRANCH  30  31
ATOM     31  C   UNL A   1      35.132  35.326  32.568  1.00  0.00     0.202 C 
BRANCH  31  32
ATOM     32  C   UNL A   1      35.350  34.618  33.911  1.00  0.00     0.261 C 
BRANCH  32  33
ATOM     33  O   UNL A   1      36.729  34.609  34.318  1.00  0.00    -0.460 OA
BRANCH  33  34
ATOM     34  C   UNL A   1      37.067  33.616  35.177  1.00  0.00     0.338 C 
ATOM     35  O   UNL A   1      36.449  33.258  36.169  1.00  0.00    -0.246 OA
BRANCH  34  36
ATOM     36  C   UNL A   1      38.212  32.866  34.629  1.00  0.00     0.060 A 
ATOM     37  C   UNL A   1      39.499  33.242  35.035  1.00  0.00     0.016 A 
ATOM     38  C   UNL A   1      38.030  31.839  33.704  1.00  0.00     0.016 A 
ATOM     39  C   UNL A   1      40.615  32.595  34.507  1.00  0.00     0.010 A 
ATOM     40  C   UNL A   1      39.152  31.202  33.163  1.00  0.00     0.010 A 
ATOM     41  C   UNL A   1      40.449  31.586  33.549  1.00  0.00    -0.014 A 
BRANCH  41  42
ATOM     42  C   UNL A   1      41.629  30.998  32.870  1.00  0.00     0.031 A 
ATOM     43  C   UNL A   1      42.270  29.771  33.453  1.00  0.00     0.074 A 
ATOM     44  C   UNL A   1      42.124  31.556  31.751  1.00  0.00     0.049 A 
ATOM     45  N   UNL A   1      43.367  29.157  33.094  1.00  0.00    -0.248 NA
ATOM     46  C   UNL A   1      41.581  29.160  34.600  1.00  0.00     0.031 C 
ATOM     47  C   UNL A   1      41.550  32.712  31.063  1.00  0.00     0.029 A 
ATOM     48  N   UNL A   1      43.230  31.235  31.005  1.00  0.00    -0.354 N 
ATOM     49  C   UNL A   1      43.507  28.089  33.974  1.00  0.00     0.074 A 
ATOM     50  C   UNL A   1      42.401  28.164  34.905  1.00  0.00     0.031 C 
ATOM     51  C   UNL A   1      42.320  33.013  30.002  1.00  0.00     0.029 A 
ATOM     52  C   UNL A   1      43.466  32.107  29.967  1.00  0.00     0.049 A 
ATOM     53  H   UNL A   1      43.800  30.455  31.194  1.00  0.00     0.167 HD
ATOM     54  C   UNL A   1      44.469  27.133  33.998  1.00  0.00     0.034 A 
ATOM     55  C   UNL A   1      44.508  32.189  29.116  1.00  0.00     0.034 A 
ATOM     56  C   UNL A   1      45.574  27.086  33.069  1.00  0.00     0.049 A 
ATOM     57  C   UNL A   1      45.634  31.189  29.238  1.00  0.00     0.074 A 
ATOM     58  C   UNL A   1      46.592  26.153  32.989  1.00  0.00     0.029 A 
ATOM     59  N   UNL A   1      45.816  28.023  32.073  1.00  0.00    -0.354 N 
ATOM     60  N   UNL A   1      45.755  30.177  30.069  1.00  0.00    -0.248 NA
ATOM     61  C   UNL A   1      46.764  31.342  28.312  1.00  0.00     0.031 C 
ATOM     62  C   UNL A   1      47.493  26.570  32.004  1.00  0.00     0.029 A 
ATOM     63  C   UNL A   1      46.994  27.717  31.407  1.00  0.00     0.049 A 
ATOM     64  H   UNL A   1      45.237  28.792  31.869  1.00  0.00     0.167 HD
ATOM     65  C   UNL A   1      46.962  29.562  29.746  1.00  0.00     0.074 A 
ATOM     66  C   UNL A   1      47.522  30.304  28.637  1.00  0.00     0.031 C 
ATOM     67  C   UNL A   1      47.552  28.479  30.313  1.00  0.00     0.034 A 
BRANCH  54  68
ATOM     68  C   UNL A   1      44.396  26.100  35.096  1.00  0.00     0.023 A 
ATOM     69  C   UNL A   1      44.709  26.412  36.429  1.00  0.00     0.031 A 
ATOM     70  C   UNL A   1      44.035  24.774  34.798  1.00  0.00     0.131 A 
ATOM     71  C   UNL A   1      44.725  25.399  37.401  1.00  0.00     0.055 A 
ATOM     72  C   UNL A   1      43.972  23.788  35.784  1.00  0.00     0.041 A 
ATOM     73  F   UNL A   1      43.748  24.409  33.537  1.00  0.00    -0.206 F 
ATOM     74  C   UNL A   1      44.334  24.094  37.093  1.00  0.00     0.022 A 
BRANCH  71  75
ATOM     75  S   UNL A   1      45.412  25.779  39.036  1.00  0.00     0.124 S 
ATOM     76  O   UNL A   1      46.789  26.136  38.701  1.00  0.00    -0.237 OA
ATOM     77  O   UNL A   1      44.560  26.871  39.490  1.00  0.00    -0.237 OA
ATOM     78  O   UNL A   1      45.264  24.523  39.769  1.00  0.00    -0.744 OA
ENDBRANCH  71  75
ENDBRANCH  54  68
BRANCH  55  79
ATOM     79  C   UNL A   1      44.578  33.287  28.108  1.00  0.00     0.023 A 
ATOM     80  C   UNL A   1      44.945  34.590  28.481  1.00  0.00     0.031 A 
ATOM     81  C   UNL A   1      44.224  33.061  26.765  1.00  0.00     0.131 A 
ATOM     82  C   UNL A   1      44.907  35.625  27.533  1.00  0.00     0.055 A 
ATOM     83  C   UNL A   1      44.244  34.082  25.814  1.00  0.00     0.041 A 
ATOM     84  F   UNL A   1      43.860  31.836  26.355  1.00  0.00    -0.206 F 
ATOM     85  C   UNL A   1      44.574  35.377  26.200  1.00  0.00     0.022 A 
BRANCH  82  86
ATOM     86  S   UNL A   1      45.209  37.324  28.092  1.00  0.00     0.124 S 
ATOM     87  O   UNL A   1      45.183  38.059  26.834  1.00  0.00    -0.237 OA
ATOM     88  O   UNL A   1      44.083  37.550  28.993  1.00  0.00    -0.237 OA
ATOM     89  O   UNL A   1      46.516  37.239  28.741  1.00  0.00    -0.744 OA
ENDBRANCH  82  86
ENDBRANCH  55  79
BRANCH  67  90
ATOM     90  C   UNL A   1      48.861  28.013  29.718  1.00  0.00     0.023 A 
ATOM     91  C   UNL A   1      48.907  27.050  28.696  1.00  0.00     0.031 A 
ATOM     92  C   UNL A   1      50.078  28.550  30.176  1.00  0.00     0.131 A 
ATOM     93  C   UNL A   1      50.146  26.621  28.194  1.00  0.00     0.055 A 
ATOM     94  C   UNL A   1      51.303  28.166  29.631  1.00  0.00     0.041 A 
ATOM     95  F   UNL A   1      50.094  29.471  31.153  1.00  0.00    -0.206 F 
ATOM     96  C   UNL A   1      51.343  27.188  28.641  1.00  0.00     0.022 A 
BRANCH  93  97
ATOM     97  S   UNL A   1      50.179  25.255  27.001  1.00  0.00     0.124 S 
ATOM     98  O   UNL A   1      51.608  24.978  26.899  1.00  0.00    -0.237 OA
ATOM     99  O   UNL A   1      49.378  24.235  27.671  1.00  0.00    -0.237 OA
ATOM    100  O   UNL A   1      49.571  25.831  25.803  1.00  0.00    -0.744 OA
ENDBRANCH  93  97
ENDBRANCH  67  90
ENDBRANCH  41  42
ENDBRANCH  34  36
ENDBRANCH  33  34
ENDBRANCH  32  33
ENDBRANCH  31  32
ENDBRANCH  30  31
ENDBRANCH   1  30
TORSDOF 21
ENDMDL
