MODEL 1
REMARK VINA RESULT:     -10.5      0.000      0.000
REMARK SMILES CC(=C\c1ccco1)/C=C1/SC(=S)N(CC(=O)OCCOCCOC(=O)c2ccc(-c3c4nc(c(-c5cc(S(=O)(=O)[O-])ccc5F)c5ccc([nH]5)c(-c5cc(S(=O)(=O)[O-])ccc5F)c5nc(c(-c6cc(S(=O)(=O)[O-])ccc6F)c6ccc3[nH]6)C=C5)C=C4)cc2)C1=O
REMARK SMILES IDX 21 1 20 2 19 3 18 4 16 5 17 6 15 7 14 8 9 9 10 10 11 11
REMARK SMILES IDX 90 12 12 13 91 14 13 15 2 16 1 17 3 18 4 19 5 20 8 21 6 22
REMARK SMILES IDX 7 23 22 24 23 25 24 26 25 27 26 28 27 29 28 30 89 31 29 32
REMARK SMILES IDX 88 33 30 34 31 35 32 36 82 37 33 38 87 39 81 40 83 41 34 42
REMARK SMILES IDX 86 43 80 44 79 45 35 47 67 48 47 49 66 50 48 51 51 52 65 53
REMARK SMILES IDX 84 54 49 55 50 56 64 58 85 59 52 60 36 61 37 62 45 63 38 64
REMARK SMILES IDX 44 65 46 66 43 67 39 68 40 69 41 70 42 71 68 72 69 73 77 74
REMARK SMILES IDX 70 75 76 76 78 77 75 78 71 79 72 80 73 81 74 82 53 83 54 84
REMARK SMILES IDX 62 85 55 86 61 87 63 88 60 89 56 90 57 91 58 92 59 93
REMARK H PARENT 83 46 51 57
REMARK Flexibility Score: inf
ROOT
ATOM      1  O   UNL A   1      37.840  20.943  24.666  1.00  0.00    -0.374 OA
ENDROOT
BRANCH   1   2
ATOM      2  C   UNL A   1      37.206  21.826  25.586  1.00  0.00     0.202 C 
BRANCH   2   3
ATOM      3  C   UNL A   1      37.141  23.323  25.227  1.00  0.00     0.261 C 
BRANCH   3   4
ATOM      4  O   UNL A   1      35.879  23.786  24.680  1.00  0.00    -0.462 OA
BRANCH   4   5
ATOM      5  C   UNL A   1      35.565  23.285  23.454  1.00  0.00     0.326 C 
ATOM      6  O   UNL A   1      36.388  23.021  22.580  1.00  0.00    -0.250 OA
BRANCH   5   7
ATOM      7  C   UNL A   1      34.087  22.962  23.239  1.00  0.00     0.250 C 
BRANCH   7   8
ATOM      8  N   UNL A   1      33.049  23.369  24.193  1.00  0.00    -0.282 N 
ATOM      9  C   UNL A   1      30.741  25.943  25.481  1.00  0.00     0.024 C 
ATOM     10  C   UNL A   1      31.591  24.920  25.262  1.00  0.00     0.080 C 
ATOM     11  S   UNL A   1      31.789  23.650  26.422  1.00  0.00    -0.054 SA
ATOM     12  C   UNL A   1      32.478  24.628  24.087  1.00  0.00     0.266 C 
ATOM     13  C   UNL A   1      32.761  22.661  25.339  1.00  0.00     0.148 C 
ATOM     14  O   UNL A   1      32.748  25.439  23.210  1.00  0.00    -0.268 OA
ATOM     15  S   UNL A   1      33.263  21.124  25.742  1.00  0.00    -0.052 S 
BRANCH   9  16
ATOM     16  C   UNL A   1      30.225  26.938  24.536  1.00  0.00    -0.046 C 
ATOM     17  C   UNL A   1      28.924  26.576  23.881  1.00  0.00     0.044 C 
ATOM     18  C   UNL A   1      30.811  28.142  24.368  1.00  0.00     0.050 C 
BRANCH  18  19
ATOM     19  C   UNL A   1      30.279  29.106  23.459  1.00  0.00     0.126 A 
ATOM     20  C   UNL A   1      29.609  30.302  23.710  1.00  0.00     0.050 A 
ATOM     21  O   UNL A   1      30.315  28.940  22.092  1.00  0.00    -0.465 OA
ATOM     22  C   UNL A   1      29.122  30.798  22.479  1.00  0.00     0.042 A 
ATOM     23  C   UNL A   1      29.596  29.940  21.523  1.00  0.00     0.195 A 
ENDBRANCH  18  19
ENDBRANCH   9  16
ENDBRANCH   7   8
ENDBRANCH   5   7
ENDBRANCH   4   5
ENDBRANCH   3   4
ENDBRANCH   2   3
ENDBRANCH   1   2
BRANCH   1  24
ATOM     24  C   UNL A   1      37.867  19.570  25.011  1.00  0.00     0.202 C 
BRANCH  24  25
ATOM     25  C   UNL A   1      39.186  18.983  25.513  1.00  0.00     0.261 C 
BRANCH  25  26
ATOM     26  O   UNL A   1      39.740  19.564  26.699  1.00  0.00    -0.460 OA
BRANCH  26  27
ATOM     27  C   UNL A   1      41.046  19.908  26.617  1.00  0.00     0.338 C 
ATOM     28  O   UNL A   1      41.996  19.172  26.380  1.00  0.00    -0.246 OA
BRANCH  27  29
ATOM     29  C   UNL A   1      41.182  21.346  26.875  1.00  0.00     0.060 A 
ATOM     30  C   UNL A   1      40.952  22.262  25.843  1.00  0.00     0.016 A 
ATOM     31  C   UNL A   1      41.630  21.775  28.125  1.00  0.00     0.016 A 
ATOM     32  C   UNL A   1      41.193  23.621  26.059  1.00  0.00     0.010 A 
ATOM     33  C   UNL A   1      41.857  23.135  28.342  1.00  0.00     0.010 A 
ATOM     34  C   UNL A   1      41.664  24.065  27.304  1.00  0.00    -0.014 A 
BRANCH  34  35
ATOM     35  C   UNL A   1      42.060  25.481  27.507  1.00  0.00     0.031 A 
ATOM     36  C   UNL A   1      43.403  25.943  27.008  1.00  0.00     0.074 A 
ATOM     37  C   UNL A   1      41.242  26.333  28.151  1.00  0.00     0.049 A 
ATOM     38  N   UNL A   1      44.001  27.093  27.175  1.00  0.00    -0.248 NA
ATOM     39  C   UNL A   1      44.176  24.968  26.223  1.00  0.00     0.031 C 
ATOM     40  C   UNL A   1      39.905  26.004  28.643  1.00  0.00     0.029 A 
ATOM     41  N   UNL A   1      41.421  27.644  28.517  1.00  0.00    -0.354 N 
ATOM     42  C   UNL A   1      45.228  26.980  26.527  1.00  0.00     0.074 A 
ATOM     43  C   UNL A   1      45.297  25.636  25.994  1.00  0.00     0.031 C 
ATOM     44  C   UNL A   1      39.390  27.080  29.260  1.00  0.00     0.029 A 
ATOM     45  C   UNL A   1      40.376  28.157  29.251  1.00  0.00     0.049 A 
ATOM     46  H   UNL A   1      42.220  28.166  28.278  1.00  0.00     0.167 HD
ATOM     47  C   UNL A   1      46.200  27.916  26.387  1.00  0.00     0.034 A 
ATOM     48  C   UNL A   1      40.248  29.348  29.874  1.00  0.00     0.034 A 
ATOM     49  C   UNL A   1      46.112  29.246  26.940  1.00  0.00     0.049 A 
ATOM     50  C   UNL A   1      41.377  30.345  29.776  1.00  0.00     0.074 A 
ATOM     51  C   UNL A   1      47.029  30.279  26.855  1.00  0.00     0.029 A 
ATOM     52  N   UNL A   1      45.047  29.723  27.694  1.00  0.00    -0.354 N 
ATOM     53  N   UNL A   1      42.531  30.228  29.158  1.00  0.00    -0.248 NA
ATOM     54  C   UNL A   1      41.187  31.636  30.453  1.00  0.00     0.031 C 
ATOM     55  C   UNL A   1      46.553  31.352  27.614  1.00  0.00     0.029 A 
ATOM     56  C   UNL A   1      45.300  31.023  28.105  1.00  0.00     0.049 A 
ATOM     57  H   UNL A   1      44.233  29.213  27.907  1.00  0.00     0.167 HD
ATOM     58  C   UNL A   1      43.184  31.445  29.338  1.00  0.00     0.074 A 
ATOM     59  C   UNL A   1      42.299  32.280  30.125  1.00  0.00     0.031 C 
ATOM     60  C   UNL A   1      44.400  31.842  28.884  1.00  0.00     0.034 A 
BRANCH  47  61
ATOM     61  C   UNL A   1      47.457  27.509  25.655  1.00  0.00     0.023 A 
ATOM     62  C   UNL A   1      47.688  27.874  24.318  1.00  0.00     0.031 A 
ATOM     63  C   UNL A   1      48.428  26.720  26.298  1.00  0.00     0.131 A 
ATOM     64  C   UNL A   1      48.821  27.390  23.645  1.00  0.00     0.055 A 
ATOM     65  C   UNL A   1      49.593  26.308  25.647  1.00  0.00     0.041 A 
ATOM     66  F   UNL A   1      48.253  26.320  27.567  1.00  0.00    -0.206 F 
ATOM     67  C   UNL A   1      49.788  26.630  24.308  1.00  0.00     0.022 A 
BRANCH  64  68
ATOM     68  S   UNL A   1      48.940  27.645  21.853  1.00  0.00     0.124 S 
ATOM     69  O   UNL A   1      47.537  27.834  21.488  1.00  0.00    -0.237 OA
ATOM     70  O   UNL A   1      49.789  28.827  21.758  1.00  0.00    -0.237 OA
ATOM     71  O   UNL A   1      49.540  26.404  21.368  1.00  0.00    -0.744 OA
ENDBRANCH  64  68
ENDBRANCH  47  61
BRANCH  48  72
ATOM     72  C   UNL A   1      39.027  29.650  30.675  1.00  0.00     0.023 A 
ATOM     73  C   UNL A   1      38.022  30.495  30.180  1.00  0.00     0.031 A 
ATOM     74  C   UNL A   1      38.866  29.125  31.971  1.00  0.00     0.131 A 
ATOM     75  C   UNL A   1      36.921  30.822  30.989  1.00  0.00     0.055 A 
ATOM     76  C   UNL A   1      37.744  29.410  32.750  1.00  0.00     0.041 A 
ATOM     77  F   UNL A   1      39.798  28.312  32.495  1.00  0.00    -0.206 F 
ATOM     78  C   UNL A   1      36.768  30.273  32.264  1.00  0.00     0.022 A 
BRANCH  75  79
ATOM     79  S   UNL A   1      35.727  32.043  30.379  1.00  0.00     0.124 S 
ATOM     80  O   UNL A   1      35.260  31.413  29.148  1.00  0.00    -0.237 OA
ATOM     81  O   UNL A   1      34.766  32.101  31.476  1.00  0.00    -0.237 OA
ATOM     82  O   UNL A   1      36.534  33.247  30.196  1.00  0.00    -0.744 OA
ENDBRANCH  75  79
ENDBRANCH  48  72
BRANCH  60  83
ATOM     83  C   UNL A   1      44.814  33.265  29.159  1.00  0.00     0.023 A 
ATOM     84  C   UNL A   1      44.389  34.336  28.355  1.00  0.00     0.031 A 
ATOM     85  C   UNL A   1      45.626  33.551  30.272  1.00  0.00     0.131 A 
ATOM     86  C   UNL A   1      44.806  35.643  28.658  1.00  0.00     0.055 A 
ATOM     87  C   UNL A   1      45.994  34.856  30.597  1.00  0.00     0.041 A 
ATOM     88  F   UNL A   1      46.059  32.563  31.072  1.00  0.00    -0.206 F 
ATOM     89  C   UNL A   1      45.590  35.909  29.784  1.00  0.00     0.022 A 
BRANCH  86  90
ATOM     90  S   UNL A   1      44.351  36.990  27.532  1.00  0.00     0.124 S 
ATOM     91  O   UNL A   1      45.292  36.796  26.433  1.00  0.00    -0.237 OA
ATOM     92  O   UNL A   1      42.954  36.693  27.235  1.00  0.00    -0.237 OA
ATOM     93  O   UNL A   1      44.572  38.194  28.331  1.00  0.00    -0.744 OA
ENDBRANCH  86  90
ENDBRANCH  60  83
ENDBRANCH  34  35
ENDBRANCH  27  29
ENDBRANCH  26  27
ENDBRANCH  25  26
ENDBRANCH  24  25
ENDBRANCH   1  24
TORSDOF 20
ENDMDL
MODEL 2
REMARK VINA RESULT:     -10.5      5.040      8.904
REMARK SMILES CC(=C\c1ccco1)/C=C1/SC(=S)N(CC(=O)OCCOCCOC(=O)c2ccc(-c3c4nc(c(-c5cc(S(=O)(=O)[O-])ccc5F)c5ccc([nH]5)c(-c5cc(S(=O)(=O)[O-])ccc5F)c5nc(c(-c6cc(S(=O)(=O)[O-])ccc6F)c6ccc3[nH]6)C=C5)C=C4)cc2)C1=O
REMARK SMILES IDX 21 1 20 2 19 3 18 4 16 5 17 6 15 7 14 8 9 9 10 10 11 11
REMARK SMILES IDX 90 12 12 13 91 14 13 15 2 16 1 17 3 18 4 19 5 20 8 21 6 22
REMARK SMILES IDX 7 23 22 24 23 25 24 26 25 27 26 28 27 29 28 30 89 31 29 32
REMARK SMILES IDX 88 33 30 34 31 35 32 36 82 37 33 38 87 39 81 40 83 41 34 42
REMARK SMILES IDX 86 43 80 44 79 45 35 47 67 48 47 49 66 50 48 51 51 52 65 53
REMARK SMILES IDX 84 54 49 55 50 56 64 58 85 59 52 60 36 61 37 62 45 63 38 64
REMARK SMILES IDX 44 65 46 66 43 67 39 68 40 69 41 70 42 71 68 72 69 73 77 74
REMARK SMILES IDX 70 75 76 76 78 77 75 78 71 79 72 80 73 81 74 82 53 83 54 84
REMARK SMILES IDX 62 85 55 86 61 87 63 88 60 89 56 90 57 91 58 92 59 93
REMARK H PARENT 83 46 51 57
REMARK Flexibility Score: inf
ROOT
ATOM      1  O   UNL A   1      31.268  29.835  24.896  1.00  0.00    -0.374 OA
ENDROOT
BRANCH   1   2
ATOM      2  C   UNL A   1      30.967  29.137  23.693  1.00  0.00     0.202 C 
BRANCH   2   3
ATOM      3  C   UNL A   1      32.124  28.438  22.952  1.00  0.00     0.261 C 
BRANCH   3   4
ATOM      4  O   UNL A   1      31.959  27.014  22.726  1.00  0.00    -0.462 OA
BRANCH   4   5
ATOM      5  C   UNL A   1      33.112  26.331  22.487  1.00  0.00     0.326 C 
ATOM      6  O   UNL A   1      33.566  26.109  21.368  1.00  0.00    -0.250 OA
BRANCH   5   7
ATOM      7  C   UNL A   1      33.897  25.919  23.730  1.00  0.00     0.250 C 
BRANCH   7   8
ATOM      8  N   UNL A   1      33.338  25.023  24.749  1.00  0.00    -0.282 N 
ATOM      9  C   UNL A   1      32.346  21.630  25.807  1.00  0.00     0.024 C 
ATOM     10  C   UNL A   1      32.509  22.948  25.575  1.00  0.00     0.080 C 
ATOM     11  S   UNL A   1      31.780  24.139  26.600  1.00  0.00    -0.054 SA
ATOM     12  C   UNL A   1      33.286  23.659  24.507  1.00  0.00     0.266 C 
ATOM     13  C   UNL A   1      32.645  25.475  25.850  1.00  0.00     0.148 C 
ATOM     14  O   UNL A   1      33.721  23.118  23.498  1.00  0.00    -0.268 OA
ATOM     15  S   UNL A   1      32.542  27.037  26.421  1.00  0.00    -0.052 S 
BRANCH   9  16
ATOM     16  C   UNL A   1      33.087  20.493  25.252  1.00  0.00    -0.046 C 
ATOM     17  C   UNL A   1      34.576  20.559  25.428  1.00  0.00     0.044 C 
ATOM     18  C   UNL A   1      32.464  19.410  24.740  1.00  0.00     0.050 C 
BRANCH  18  19
ATOM     19  C   UNL A   1      33.204  18.304  24.225  1.00  0.00     0.126 A 
ATOM     20  C   UNL A   1      33.296  17.813  22.923  1.00  0.00     0.050 A 
ATOM     21  O   UNL A   1      33.950  17.468  25.026  1.00  0.00    -0.465 OA
ATOM     22  C   UNL A   1      34.003  16.591  22.964  1.00  0.00     0.042 A 
ATOM     23  C   UNL A   1      34.395  16.435  24.267  1.00  0.00     0.195 A 
ENDBRANCH  18  19
ENDBRANCH   9  16
ENDBRANCH   7   8
ENDBRANCH   5   7
ENDBRANCH   4   5
ENDBRANCH   3   4
ENDBRANCH   2   3
ENDBRANCH   1   2
BRANCH   1  24
ATOM     24  C   UNL A   1      30.602  31.068  25.104  1.00  0.00     0.202 C 
BRANCH  24  25
ATOM     25  C   UNL A   1      31.093  31.966  26.240  1.00  0.00     0.261 C 
BRANCH  25  26
ATOM     26  O   UNL A   1      32.363  31.637  26.817  1.00  0.00    -0.460 OA
BRANCH  26  27
ATOM     27  C   UNL A   1      32.989  32.655  27.450  1.00  0.00     0.338 C 
ATOM     28  O   UNL A   1      32.592  33.806  27.582  1.00  0.00    -0.246 OA
BRANCH  27  29
ATOM     29  C   UNL A   1      34.276  32.179  27.971  1.00  0.00     0.060 A 
ATOM     30  C   UNL A   1      34.418  30.841  28.355  1.00  0.00     0.016 A 
ATOM     31  C   UNL A   1      35.314  33.092  28.162  1.00  0.00     0.016 A 
ATOM     32  C   UNL A   1      35.606  30.417  28.955  1.00  0.00     0.010 A 
ATOM     33  C   UNL A   1      36.505  32.662  28.751  1.00  0.00     0.010 A 
ATOM     34  C   UNL A   1      36.650  31.329  29.174  1.00  0.00    -0.014 A 
BRANCH  34  35
ATOM     35  C   UNL A   1      37.860  30.931  29.938  1.00  0.00     0.031 A 
ATOM     36  C   UNL A   1      38.803  29.924  29.339  1.00  0.00     0.074 A 
ATOM     37  C   UNL A   1      38.095  31.444  31.159  1.00  0.00     0.049 A 
ATOM     38  N   UNL A   1      39.850  29.347  29.870  1.00  0.00    -0.248 NA
ATOM     39  C   UNL A   1      38.518  29.505  27.959  1.00  0.00     0.031 C 
ATOM     40  C   UNL A   1      37.268  32.454  31.820  1.00  0.00     0.029 A 
ATOM     41  N   UNL A   1      39.086  31.175  32.069  1.00  0.00    -0.354 N 
ATOM     42  C   UNL A   1      40.345  28.487  28.894  1.00  0.00     0.074 A 
ATOM     43  C   UNL A   1      39.461  28.597  27.753  1.00  0.00     0.031 C 
ATOM     44  C   UNL A   1      37.779  32.709  33.036  1.00  0.00     0.029 A 
ATOM     45  C   UNL A   1      38.937  31.847  33.261  1.00  0.00     0.049 A 
ATOM     46  H   UNL A   1      39.832  30.559  31.887  1.00  0.00     0.167 HD
ATOM     47  C   UNL A   1      41.439  27.687  28.947  1.00  0.00     0.034 A 
ATOM     48  C   UNL A   1      39.634  31.750  34.412  1.00  0.00     0.034 A 
ATOM     49  C   UNL A   1      42.297  27.585  30.103  1.00  0.00     0.049 A 
ATOM     50  C   UNL A   1      40.799  30.792  34.479  1.00  0.00     0.074 A 
ATOM     51  C   UNL A   1      43.436  26.817  30.268  1.00  0.00     0.029 A 
ATOM     52  N   UNL A   1      42.103  28.267  31.298  1.00  0.00    -0.354 N 
ATOM     53  N   UNL A   1      41.259  29.986  33.549  1.00  0.00    -0.248 NA
ATOM     54  C   UNL A   1      41.542  30.731  35.746  1.00  0.00     0.031 C 
ATOM     55  C   UNL A   1      43.888  26.978  31.581  1.00  0.00     0.029 A 
ATOM     56  C   UNL A   1      43.082  27.912  32.213  1.00  0.00     0.049 A 
ATOM     57  H   UNL A   1      41.375  28.907  31.470  1.00  0.00     0.167 HD
ATOM     58  C   UNL A   1      42.369  29.356  34.106  1.00  0.00     0.074 A 
ATOM     59  C   UNL A   1      42.508  29.871  35.452  1.00  0.00     0.031 C 
ATOM     60  C   UNL A   1      43.207  28.444  33.550  1.00  0.00     0.034 A 
BRANCH  47  61
ATOM     61  C   UNL A   1      41.729  26.824  27.742  1.00  0.00     0.023 A 
ATOM     62  C   UNL A   1      41.552  25.429  27.769  1.00  0.00     0.031 A 
ATOM     63  C   UNL A   1      42.218  27.401  26.557  1.00  0.00     0.131 A 
ATOM     64  C   UNL A   1      41.931  24.653  26.662  1.00  0.00     0.055 A 
ATOM     65  C   UNL A   1      42.516  26.632  25.430  1.00  0.00     0.041 A 
ATOM     66  F   UNL A   1      42.430  28.724  26.478  1.00  0.00    -0.206 F 
ATOM     67  C   UNL A   1      42.387  25.248  25.483  1.00  0.00     0.022 A 
BRANCH  64  68
ATOM     68  S   UNL A   1      41.954  22.848  26.836  1.00  0.00     0.124 S 
ATOM     69  O   UNL A   1      43.388  22.572  26.855  1.00  0.00    -0.237 OA
ATOM     70  O   UNL A   1      41.247  22.643  28.095  1.00  0.00    -0.237 OA
ATOM     71  O   UNL A   1      41.253  22.380  25.642  1.00  0.00    -0.744 OA
ENDBRANCH  64  68
ENDBRANCH  47  61
BRANCH  48  72
ATOM     72  C   UNL A   1      39.231  32.549  35.606  1.00  0.00     0.023 A 
ATOM     73  C   UNL A   1      39.684  33.864  35.788  1.00  0.00     0.031 A 
ATOM     74  C   UNL A   1      38.414  31.989  36.605  1.00  0.00     0.131 A 
ATOM     75  C   UNL A   1      39.350  34.564  36.959  1.00  0.00     0.055 A 
ATOM     76  C   UNL A   1      38.040  32.708  37.742  1.00  0.00     0.041 A 
ATOM     77  F   UNL A   1      37.953  30.734  36.483  1.00  0.00    -0.206 F 
ATOM     78  C   UNL A   1      38.519  34.000  37.930  1.00  0.00     0.022 A 
BRANCH  75  79
ATOM     79  S   UNL A   1      40.085  36.198  37.235  1.00  0.00     0.124 S 
ATOM     80  O   UNL A   1      41.443  35.849  37.640  1.00  0.00    -0.237 OA
ATOM     81  O   UNL A   1      39.946  36.818  35.921  1.00  0.00    -0.237 OA
ATOM     82  O   UNL A   1      39.249  36.775  38.285  1.00  0.00    -0.744 OA
ENDBRANCH  75  79
ENDBRANCH  48  72
BRANCH  60  83
ATOM     83  C   UNL A   1      44.393  28.000  34.369  1.00  0.00     0.023 A 
ATOM     84  C   UNL A   1      44.353  26.855  35.181  1.00  0.00     0.031 A 
ATOM     85  C   UNL A   1      45.595  28.728  34.304  1.00  0.00     0.131 A 
ATOM     86  C   UNL A   1      45.488  26.488  35.923  1.00  0.00     0.055 A 
ATOM     87  C   UNL A   1      46.734  28.329  35.002  1.00  0.00     0.041 A 
ATOM     88  F   UNL A   1      45.685  29.830  33.541  1.00  0.00    -0.206 F 
ATOM     89  C   UNL A   1      46.683  27.208  35.823  1.00  0.00     0.022 A 
BRANCH  86  90
ATOM     90  S   UNL A   1      45.372  25.082  37.063  1.00  0.00     0.124 S 
ATOM     91  O   UNL A   1      46.776  24.732  37.255  1.00  0.00    -0.237 OA
ATOM     92  O   UNL A   1      44.696  25.667  38.216  1.00  0.00    -0.237 OA
ATOM     93  O   UNL A   1      44.585  24.100  36.317  1.00  0.00    -0.744 OA
ENDBRANCH  86  90
ENDBRANCH  60  83
ENDBRANCH  34  35
ENDBRANCH  27  29
ENDBRANCH  26  27
ENDBRANCH  25  26
ENDBRANCH  24  25
ENDBRANCH   1  24
TORSDOF 20
ENDMDL
MODEL 3
REMARK VINA RESULT:     -10.5      5.291      9.140
REMARK SMILES CC(=C\c1ccco1)/C=C1/SC(=S)N(CC(=O)OCCOCCOC(=O)c2ccc(-c3c4nc(c(-c5cc(S(=O)(=O)[O-])ccc5F)c5ccc([nH]5)c(-c5cc(S(=O)(=O)[O-])ccc5F)c5nc(c(-c6cc(S(=O)(=O)[O-])ccc6F)c6ccc3[nH]6)C=C5)C=C4)cc2)C1=O
REMARK SMILES IDX 21 1 20 2 19 3 18 4 16 5 17 6 15 7 14 8 9 9 10 10 11 11
REMARK SMILES IDX 90 12 12 13 91 14 13 15 2 16 1 17 3 18 4 19 5 20 8 21 6 22
REMARK SMILES IDX 7 23 22 24 23 25 24 26 25 27 26 28 27 29 28 30 89 31 29 32
REMARK SMILES IDX 88 33 30 34 31 35 32 36 82 37 33 38 87 39 81 40 83 41 34 42
REMARK SMILES IDX 86 43 80 44 79 45 35 47 67 48 47 49 66 50 48 51 51 52 65 53
REMARK SMILES IDX 84 54 49 55 50 56 64 58 85 59 52 60 36 61 37 62 45 63 38 64
REMARK SMILES IDX 44 65 46 66 43 67 39 68 40 69 41 70 42 71 68 72 69 73 77 74
REMARK SMILES IDX 70 75 76 76 78 77 75 78 71 79 72 80 73 81 74 82 53 83 54 84
REMARK SMILES IDX 62 85 55 86 61 87 63 88 60 89 56 90 57 91 58 92 59 93
REMARK H PARENT 83 46 51 57
REMARK Flexibility Score: inf
ROOT
ATOM      1  O   UNL A   1      32.199  30.735  26.164  1.00  0.00    -0.374 OA
ENDROOT
BRANCH   1   2
ATOM      2  C   UNL A   1      33.240  30.235  26.997  1.00  0.00     0.202 C 
BRANCH   2   3
ATOM      3  C   UNL A   1      33.451  28.710  27.058  1.00  0.00     0.261 C 
BRANCH   3   4
ATOM      4  O   UNL A   1      32.577  27.919  26.212  1.00  0.00    -0.462 OA
BRANCH   4   5
ATOM      5  C   UNL A   1      31.470  27.424  26.831  1.00  0.00     0.326 C 
ATOM      6  O   UNL A   1      31.074  27.786  27.936  1.00  0.00    -0.250 OA
BRANCH   5   7
ATOM      7  C   UNL A   1      30.655  26.424  26.013  1.00  0.00     0.250 C 
BRANCH   7   8
ATOM      8  N   UNL A   1      31.134  25.881  24.736  1.00  0.00    -0.282 N 
ATOM      9  C   UNL A   1      33.124  23.389  22.881  1.00  0.00     0.024 C 
ATOM     10  C   UNL A   1      32.459  24.460  23.358  1.00  0.00     0.080 C 
ATOM     11  S   UNL A   1      32.080  25.810  22.341  1.00  0.00    -0.054 SA
ATOM     12  C   UNL A   1      31.914  24.736  24.729  1.00  0.00     0.266 C 
ATOM     13  C   UNL A   1      31.047  26.570  23.546  1.00  0.00     0.148 C 
ATOM     14  O   UNL A   1      32.212  24.094  25.728  1.00  0.00    -0.268 OA
ATOM     15  S   UNL A   1      30.170  27.951  23.228  1.00  0.00    -0.052 S 
BRANCH   9  16
ATOM     16  C   UNL A   1      33.287  22.060  23.476  1.00  0.00    -0.046 C 
ATOM     17  C   UNL A   1      34.525  21.884  24.306  1.00  0.00     0.044 C 
ATOM     18  C   UNL A   1      32.332  21.110  23.388  1.00  0.00     0.050 C 
BRANCH  18  19
ATOM     19  C   UNL A   1      32.501  19.829  23.994  1.00  0.00     0.126 A 
ATOM     20  C   UNL A   1      32.587  18.565  23.413  1.00  0.00     0.050 A 
ATOM     21  O   UNL A   1      32.553  19.651  25.359  1.00  0.00    -0.465 OA
ATOM     22  C   UNL A   1      32.562  17.603  24.447  1.00  0.00     0.042 A 
ATOM     23  C   UNL A   1      32.558  18.319  25.615  1.00  0.00     0.195 A 
ENDBRANCH  18  19
ENDBRANCH   9  16
ENDBRANCH   7   8
ENDBRANCH   5   7
ENDBRANCH   4   5
ENDBRANCH   3   4
ENDBRANCH   2   3
ENDBRANCH   1   2
BRANCH   1  24
ATOM     24  C   UNL A   1      31.455  31.833  26.660  1.00  0.00     0.202 C 
BRANCH  24  25
ATOM     25  C   UNL A   1      32.201  33.137  26.941  1.00  0.00     0.261 C 
BRANCH  25  26
ATOM     26  O   UNL A   1      32.285  33.549  28.310  1.00  0.00    -0.460 OA
BRANCH  26  27
ATOM     27  C   UNL A   1      33.271  34.432  28.587  1.00  0.00     0.338 C 
ATOM     28  O   UNL A   1      33.231  35.651  28.481  1.00  0.00    -0.246 OA
BRANCH  27  29
ATOM     29  C   UNL A   1      34.459  33.699  29.042  1.00  0.00     0.060 A 
ATOM     30  C   UNL A   1      34.309  32.552  29.829  1.00  0.00     0.016 A 
ATOM     31  C   UNL A   1      35.726  34.212  28.759  1.00  0.00     0.016 A 
ATOM     32  C   UNL A   1      35.440  31.923  30.355  1.00  0.00     0.010 A 
ATOM     33  C   UNL A   1      36.855  33.572  29.274  1.00  0.00     0.010 A 
ATOM     34  C   UNL A   1      36.719  32.439  30.096  1.00  0.00    -0.014 A 
BRANCH  34  35
ATOM     35  C   UNL A   1      37.918  31.869  30.762  1.00  0.00     0.031 A 
ATOM     36  C   UNL A   1      38.719  30.816  30.046  1.00  0.00     0.074 A 
ATOM     37  C   UNL A   1      38.267  32.270  31.998  1.00  0.00     0.049 A 
ATOM     38  N   UNL A   1      39.726  30.102  30.478  1.00  0.00    -0.248 NA
ATOM     39  C   UNL A   1      38.323  30.526  28.660  1.00  0.00     0.031 C 
ATOM     40  C   UNL A   1      37.585  33.309  32.769  1.00  0.00     0.029 A 
ATOM     41  N   UNL A   1      39.270  31.840  32.830  1.00  0.00    -0.354 N 
ATOM     42  C   UNL A   1      40.078  29.267  29.421  1.00  0.00     0.074 A 
ATOM     43  C   UNL A   1      39.154  29.544  28.343  1.00  0.00     0.031 C 
ATOM     44  C   UNL A   1      38.181  33.426  33.967  1.00  0.00     0.029 A 
ATOM     45  C   UNL A   1      39.252  32.438  34.069  1.00  0.00     0.049 A 
ATOM     46  H   UNL A   1      39.938  31.166  32.566  1.00  0.00     0.167 HD
ATOM     47  C   UNL A   1      41.084  28.359  29.360  1.00  0.00     0.034 A 
ATOM     48  C   UNL A   1      39.993  32.192  35.169  1.00  0.00     0.034 A 
ATOM     49  C   UNL A   1      41.985  28.091  30.455  1.00  0.00     0.049 A 
ATOM     50  C   UNL A   1      41.054  31.119  35.107  1.00  0.00     0.074 A 
ATOM     51  C   UNL A   1      43.045  27.202  30.504  1.00  0.00     0.029 A 
ATOM     52  N   UNL A   1      41.924  28.704  31.701  1.00  0.00    -0.354 N 
ATOM     53  N   UNL A   1      41.379  30.338  34.102  1.00  0.00    -0.248 NA
ATOM     54  C   UNL A   1      41.850  30.896  36.322  1.00  0.00     0.031 C 
ATOM     55  C   UNL A   1      43.577  27.225  31.797  1.00  0.00     0.029 A 
ATOM     56  C   UNL A   1      42.906  28.189  32.533  1.00  0.00     0.049 A 
ATOM     57  H   UNL A   1      41.277  29.400  31.956  1.00  0.00     0.167 HD
ATOM     58  C   UNL A   1      42.445  29.562  34.552  1.00  0.00     0.074 A 
ATOM     59  C   UNL A   1      42.705  29.966  35.919  1.00  0.00     0.031 C 
ATOM     60  C   UNL A   1      43.154  28.611  33.892  1.00  0.00     0.034 A 
BRANCH  47  61
ATOM     61  C   UNL A   1      41.221  27.557  28.088  1.00  0.00     0.023 A 
ATOM     62  C   UNL A   1      40.849  26.202  28.020  1.00  0.00     0.031 A 
ATOM     63  C   UNL A   1      41.759  28.148  26.930  1.00  0.00     0.131 A 
ATOM     64  C   UNL A   1      41.088  25.467  26.849  1.00  0.00     0.055 A 
ATOM     65  C   UNL A   1      41.919  27.432  25.742  1.00  0.00     0.041 A 
ATOM     66  F   UNL A   1      42.154  29.431  26.939  1.00  0.00    -0.206 F 
ATOM     67  C   UNL A   1      41.597  26.079  25.701  1.00  0.00     0.022 A 
BRANCH  64  68
ATOM     68  S   UNL A   1      40.860  23.669  26.893  1.00  0.00     0.124 S 
ATOM     69  O   UNL A   1      41.825  23.223  25.890  1.00  0.00    -0.237 OA
ATOM     70  O   UNL A   1      41.181  23.343  28.277  1.00  0.00    -0.237 OA
ATOM     71  O   UNL A   1      39.458  23.492  26.518  1.00  0.00    -0.744 OA
ENDBRANCH  64  68
ENDBRANCH  47  61
BRANCH  48  72
ATOM     72  C   UNL A   1      39.737  32.942  36.433  1.00  0.00     0.023 A 
ATOM     73  C   UNL A   1      38.902  32.420  37.432  1.00  0.00     0.031 A 
ATOM     74  C   UNL A   1      40.299  34.215  36.642  1.00  0.00     0.131 A 
ATOM     75  C   UNL A   1      38.619  33.183  38.577  1.00  0.00     0.055 A 
ATOM     76  C   UNL A   1      40.058  34.947  37.806  1.00  0.00     0.041 A 
ATOM     77  F   UNL A   1      41.105  34.763  35.718  1.00  0.00    -0.206 F 
ATOM     78  C   UNL A   1      39.203  34.436  38.777  1.00  0.00     0.022 A 
BRANCH  75  79
ATOM     79  S   UNL A   1      37.409  32.547  39.768  1.00  0.00     0.124 S 
ATOM     80  O   UNL A   1      38.153  31.462  40.397  1.00  0.00    -0.237 OA
ATOM     81  O   UNL A   1      37.157  33.720  40.600  1.00  0.00    -0.237 OA
ATOM     82  O   UNL A   1      36.289  32.131  38.927  1.00  0.00    -0.744 OA
ENDBRANCH  75  79
ENDBRANCH  48  72
BRANCH  60  83
ATOM     83  C   UNL A   1      44.327  27.995  34.611  1.00  0.00     0.023 A 
ATOM     84  C   UNL A   1      45.606  28.576  34.589  1.00  0.00     0.031 A 
ATOM     85  C   UNL A   1      44.145  26.817  35.358  1.00  0.00     0.131 A 
ATOM     86  C   UNL A   1      46.663  27.958  35.277  1.00  0.00     0.055 A 
ATOM     87  C   UNL A   1      45.186  26.236  36.081  1.00  0.00     0.041 A 
ATOM     88  F   UNL A   1      42.941  26.222  35.411  1.00  0.00    -0.206 F 
ATOM     89  C   UNL A   1      46.456  26.803  36.037  1.00  0.00     0.022 A 
BRANCH  86  90
ATOM     90  S   UNL A   1      48.331  28.656  35.127  1.00  0.00     0.124 S 
ATOM     91  O   UNL A   1      49.109  27.765  35.983  1.00  0.00    -0.237 OA
ATOM     92  O   UNL A   1      48.589  28.549  33.695  1.00  0.00    -0.237 OA
ATOM     93  O   UNL A   1      48.178  30.020  35.630  1.00  0.00    -0.744 OA
ENDBRANCH  86  90
ENDBRANCH  60  83
ENDBRANCH  34  35
ENDBRANCH  27  29
ENDBRANCH  26  27
ENDBRANCH  25  26
ENDBRANCH  24  25
ENDBRANCH   1  24
TORSDOF 20
ENDMDL
