MODEL 1
REMARK VINA RESULT:     -10.2      0.000      0.000
REMARK SMILES C[C@@H](CC(=O)OCCOCCOC(=O)c1ccc(-c2c3nc(c(-c4cc(S(=O)(=O)[O-])ccc4F)c4ccc([nH]4)c(-c4cc(S(=O)(=O)[O-])ccc4F)c4nc(c(-c5cc(S(=O)(=O)[O-])ccc5F)c5ccc2[nH]5)C=C4)C=C3)cc1)NC(=O)CCCN1C(=O)CN(C)C1=O
REMARK SMILES IDX 7 1 6 2 4 3 5 4 3 5 2 6 1 7 78 8 79 9 80 11 81 12 82 13
REMARK SMILES IDX 83 14 84 15 85 16 90 17 86 18 87 19 88 20 91 21 89 22 8 23
REMARK SMILES IDX 9 24 10 25 11 26 12 27 13 28 14 29 15 30 16 31 77 32 17 33
REMARK SMILES IDX 76 34 18 35 19 36 20 37 70 38 21 39 75 40 69 41 71 42 22 43
REMARK SMILES IDX 74 44 68 45 67 46 23 48 55 49 35 50 54 51 36 52 39 53 53 54
REMARK SMILES IDX 72 55 37 56 38 57 52 59 73 60 40 61 24 62 25 63 33 64 26 65
REMARK SMILES IDX 32 66 34 67 31 68 27 69 28 70 29 71 30 72 56 73 57 74 65 75
REMARK SMILES IDX 58 76 64 77 66 78 63 79 59 80 60 81 61 82 62 83 41 84 42 85
REMARK SMILES IDX 50 86 43 87 49 88 51 89 48 90 44 91 45 92 46 93 47 94
REMARK H PARENT 78 10 71 47 39 58
REMARK Flexibility Score: inf
ROOT
ATOM      1  C   UNL A   1      33.944  24.674  23.182  1.00  0.00     0.261 C 
ENDROOT
BRANCH   1   2
ATOM      2  O   UNL A   1      32.692  24.802  22.492  1.00  0.00    -0.463 OA
BRANCH   2   3
ATOM      3  C   UNL A   1      32.551  25.890  21.712  1.00  0.00     0.307 C 
ATOM      4  O   UNL A   1      33.356  26.267  20.865  1.00  0.00    -0.252 OA
BRANCH   3   5
ATOM      5  C   UNL A   1      31.254  26.620  21.928  1.00  0.00     0.147 C 
BRANCH   5   6
ATOM      6  C   UNL A   1      30.756  27.059  23.310  1.00  0.00     0.090 C 
ATOM      7  C   UNL A   1      29.891  28.304  23.414  1.00  0.00     0.031 C 
BRANCH   6   8
ATOM      8  N   UNL A   1      31.768  27.055  24.358  1.00  0.00    -0.353 N 
ATOM      9  C   UNL A   1      31.753  26.400  25.557  1.00  0.00     0.220 C 
ATOM     10  H   UNL A   1      32.571  27.597  24.178  1.00  0.00     0.163 HD
ATOM     11  O   UNL A   1      32.658  26.619  26.362  1.00  0.00    -0.275 OA
BRANCH   9  12
ATOM     12  C   UNL A   1      30.670  25.377  25.858  1.00  0.00     0.102 C 
BRANCH  12  13
ATOM     13  C   UNL A   1      30.859  23.983  25.234  1.00  0.00     0.032 C 
BRANCH  13  14
ATOM     14  C   UNL A   1      30.769  22.748  26.160  1.00  0.00     0.131 C 
BRANCH  14  15
ATOM     15  N   UNL A   1      31.999  21.977  26.277  1.00  0.00    -0.263 N 
ATOM     16  C   UNL A   1      32.944  22.127  27.252  1.00  0.00     0.250 C 
ATOM     17  C   UNL A   1      32.398  21.026  25.370  1.00  0.00     0.326 C 
ATOM     18  O   UNL A   1      32.857  22.821  28.256  1.00  0.00    -0.272 OA
ATOM     19  C   UNL A   1      34.192  21.368  26.835  1.00  0.00     0.221 C 
ATOM     20  N   UNL A   1      33.711  20.687  25.663  1.00  0.00    -0.318 N 
ATOM     21  O   UNL A   1      31.759  20.616  24.423  1.00  0.00    -0.248 OA
ATOM     22  C   UNL A   1      34.585  19.929  24.796  1.00  0.00     0.149 C 
ENDBRANCH  14  15
ENDBRANCH  13  14
ENDBRANCH  12  13
ENDBRANCH   9  12
ENDBRANCH   6   8
ENDBRANCH   5   6
ENDBRANCH   3   5
ENDBRANCH   2   3
ENDBRANCH   1   2
BRANCH   1  23
ATOM     23  C   UNL A   1      34.419  23.224  23.111  1.00  0.00     0.202 C 
BRANCH  23  24
ATOM     24  O   UNL A   1      35.810  23.037  22.845  1.00  0.00    -0.374 OA
BRANCH  24  25
ATOM     25  C   UNL A   1      36.730  23.152  23.931  1.00  0.00     0.202 C 
BRANCH  25  26
ATOM     26  C   UNL A   1      37.408  21.862  24.408  1.00  0.00     0.261 C 
BRANCH  26  27
ATOM     27  O   UNL A   1      37.642  21.880  25.834  1.00  0.00    -0.460 OA
BRANCH  27  28
ATOM     28  C   UNL A   1      38.942  21.677  26.177  1.00  0.00     0.338 C 
ATOM     29  O   UNL A   1      39.657  20.762  25.799  1.00  0.00    -0.246 OA
BRANCH  28  30
ATOM     30  C   UNL A   1      39.497  22.833  26.908  1.00  0.00     0.060 A 
ATOM     31  C   UNL A   1      38.880  24.072  26.693  1.00  0.00     0.016 A 
ATOM     32  C   UNL A   1      40.683  22.756  27.640  1.00  0.00     0.016 A 
ATOM     33  C   UNL A   1      39.474  25.244  27.154  1.00  0.00     0.010 A 
ATOM     34  C   UNL A   1      41.282  23.941  28.100  1.00  0.00     0.010 A 
ATOM     35  C   UNL A   1      40.705  25.195  27.820  1.00  0.00    -0.014 A 
BRANCH  35  36
ATOM     36  C   UNL A   1      41.439  26.467  28.066  1.00  0.00     0.031 A 
ATOM     37  C   UNL A   1      42.845  26.622  27.544  1.00  0.00     0.074 A 
ATOM     38  C   UNL A   1      40.835  27.510  28.667  1.00  0.00     0.049 A 
ATOM     39  N   UNL A   1      43.660  27.644  27.635  1.00  0.00    -0.248 NA
ATOM     40  C   UNL A   1      43.404  25.473  26.818  1.00  0.00     0.031 C 
ATOM     41  C   UNL A   1      39.457  27.516  29.157  1.00  0.00     0.029 A 
ATOM     42  N   UNL A   1      41.300  28.769  28.960  1.00  0.00    -0.354 N 
ATOM     43  C   UNL A   1      44.829  27.259  26.986  1.00  0.00     0.074 A 
ATOM     44  C   UNL A   1      44.628  25.896  26.539  1.00  0.00     0.031 C 
ATOM     45  C   UNL A   1      39.189  28.719  29.690  1.00  0.00     0.029 A 
ATOM     46  C   UNL A   1      40.386  29.556  29.623  1.00  0.00     0.049 A 
ATOM     47  H   UNL A   1      42.203  29.079  28.719  1.00  0.00     0.167 HD
ATOM     48  C   UNL A   1      45.962  27.978  26.774  1.00  0.00     0.034 A 
ATOM     49  C   UNL A   1      40.507  30.796  30.142  1.00  0.00     0.034 A 
ATOM     50  C   UNL A   1      46.153  29.335  27.226  1.00  0.00     0.049 A 
ATOM     51  C   UNL A   1      41.812  31.539  29.985  1.00  0.00     0.074 A 
ATOM     52  C   UNL A   1      47.257  30.154  27.048  1.00  0.00     0.029 A 
ATOM     53  N   UNL A   1      45.232  30.072  27.960  1.00  0.00    -0.354 N 
ATOM     54  N   UNL A   1      42.910  31.163  29.370  1.00  0.00    -0.248 NA
ATOM     55  C   UNL A   1      41.891  32.878  30.584  1.00  0.00     0.031 C 
ATOM     56  C   UNL A   1      47.037  31.348  27.743  1.00  0.00     0.029 A 
ATOM     57  C   UNL A   1      45.758  31.316  28.277  1.00  0.00     0.049 A 
ATOM     58  H   UNL A   1      44.335  29.757  28.217  1.00  0.00     0.167 HD
ATOM     59  C   UNL A   1      43.796  32.233  29.481  1.00  0.00     0.074 A 
ATOM     60  C   UNL A   1      43.100  33.273  30.209  1.00  0.00     0.031 C 
ATOM     61  C   UNL A   1      45.066  32.348  29.015  1.00  0.00     0.034 A 
BRANCH  48  62
ATOM     62  C   UNL A   1      47.105  27.284  26.069  1.00  0.00     0.023 A 
ATOM     63  C   UNL A   1      48.096  26.576  26.770  1.00  0.00     0.031 A 
ATOM     64  C   UNL A   1      47.211  27.347  24.667  1.00  0.00     0.131 A 
ATOM     65  C   UNL A   1      49.183  26.021  26.078  1.00  0.00     0.055 A 
ATOM     66  C   UNL A   1      48.251  26.723  23.976  1.00  0.00     0.041 A 
ATOM     67  F   UNL A   1      46.308  28.028  23.943  1.00  0.00    -0.206 F 
ATOM     68  C   UNL A   1      49.254  26.067  24.683  1.00  0.00     0.022 A 
BRANCH  65  69
ATOM     69  S   UNL A   1      50.581  25.368  27.033  1.00  0.00     0.124 S 
ATOM     70  O   UNL A   1      51.439  24.839  25.975  1.00  0.00    -0.237 OA
ATOM     71  O   UNL A   1      51.071  26.555  27.723  1.00  0.00    -0.237 OA
ATOM     72  O   UNL A   1      49.967  24.356  27.890  1.00  0.00    -0.744 OA
ENDBRANCH  65  69
ENDBRANCH  48  62
BRANCH  49  73
ATOM     73  C   UNL A   1      39.379  31.402  30.910  1.00  0.00     0.023 A 
ATOM     74  C   UNL A   1      39.369  31.410  32.314  1.00  0.00     0.031 A 
ATOM     75  C   UNL A   1      38.260  31.931  30.241  1.00  0.00     0.131 A 
ATOM     76  C   UNL A   1      38.245  31.894  33.002  1.00  0.00     0.055 A 
ATOM     77  C   UNL A   1      37.170  32.465  30.929  1.00  0.00     0.041 A 
ATOM     78  F   UNL A   1      38.213  31.941  28.899  1.00  0.00    -0.206 F 
ATOM     79  C   UNL A   1      37.153  32.437  32.319  1.00  0.00     0.022 A 
BRANCH  76  80
ATOM     80  S   UNL A   1      38.188  31.720  34.806  1.00  0.00     0.124 S 
ATOM     81  O   UNL A   1      38.307  30.276  34.968  1.00  0.00    -0.237 OA
ATOM     82  O   UNL A   1      39.341  32.511  35.224  1.00  0.00    -0.237 OA
ATOM     83  O   UNL A   1      36.886  32.284  35.161  1.00  0.00    -0.744 OA
ENDBRANCH  76  80
ENDBRANCH  49  73
BRANCH  61  84
ATOM     84  C   UNL A   1      45.771  33.668  29.235  1.00  0.00     0.023 A 
ATOM     85  C   UNL A   1      46.572  33.908  30.365  1.00  0.00     0.031 A 
ATOM     86  C   UNL A   1      45.631  34.707  28.295  1.00  0.00     0.131 A 
ATOM     87  C   UNL A   1      47.156  35.171  30.555  1.00  0.00     0.055 A 
ATOM     88  C   UNL A   1      46.268  35.939  28.457  1.00  0.00     0.041 A 
ATOM     89  F   UNL A   1      44.875  34.539  27.199  1.00  0.00    -0.206 F 
ATOM     90  C   UNL A   1      47.025  36.181  29.598  1.00  0.00     0.022 A 
BRANCH  87  91
ATOM     91  S   UNL A   1      48.013  35.512  32.118  1.00  0.00     0.124 S 
ATOM     92  O   UNL A   1      48.226  34.168  32.646  1.00  0.00    -0.237 OA
ATOM     93  O   UNL A   1      49.209  36.219  31.671  1.00  0.00    -0.237 OA
ATOM     94  O   UNL A   1      47.056  36.327  32.863  1.00  0.00    -0.744 OA
ENDBRANCH  87  91
ENDBRANCH  61  84
ENDBRANCH  35  36
ENDBRANCH  28  30
ENDBRANCH  27  28
ENDBRANCH  26  27
ENDBRANCH  25  26
ENDBRANCH  24  25
ENDBRANCH  23  24
ENDBRANCH   1  23
TORSDOF 23
ENDMDL
MODEL 2
REMARK VINA RESULT:      -9.9      1.954      7.647
REMARK SMILES C[C@@H](CC(=O)OCCOCCOC(=O)c1ccc(-c2c3nc(c(-c4cc(S(=O)(=O)[O-])ccc4F)c4ccc([nH]4)c(-c4cc(S(=O)(=O)[O-])ccc4F)c4nc(c(-c5cc(S(=O)(=O)[O-])ccc5F)c5ccc2[nH]5)C=C4)C=C3)cc1)NC(=O)CCCN1C(=O)CN(C)C1=O
REMARK SMILES IDX 7 1 6 2 4 3 5 4 3 5 2 6 1 7 78 8 79 9 80 11 81 12 82 13
REMARK SMILES IDX 83 14 84 15 85 16 90 17 86 18 87 19 88 20 91 21 89 22 8 23
REMARK SMILES IDX 9 24 10 25 11 26 12 27 13 28 14 29 15 30 16 31 77 32 17 33
REMARK SMILES IDX 76 34 18 35 19 36 20 37 70 38 21 39 75 40 69 41 71 42 22 43
REMARK SMILES IDX 74 44 68 45 67 46 23 48 55 49 35 50 54 51 36 52 39 53 53 54
REMARK SMILES IDX 72 55 37 56 38 57 52 59 73 60 40 61 24 62 25 63 33 64 26 65
REMARK SMILES IDX 32 66 34 67 31 68 27 69 28 70 29 71 30 72 56 73 57 74 65 75
REMARK SMILES IDX 58 76 64 77 66 78 63 79 59 80 60 81 61 82 62 83 41 84 42 85
REMARK SMILES IDX 50 86 43 87 49 88 51 89 48 90 44 91 45 92 46 93 47 94
REMARK H PARENT 78 10 71 47 39 58
REMARK Flexibility Score: inf
ROOT
ATOM      1  C   UNL A   1      34.105  24.768  23.404  1.00  0.00     0.261 C 
ENDROOT
BRANCH   1   2
ATOM      2  O   UNL A   1      32.807  25.051  22.863  1.00  0.00    -0.463 OA
BRANCH   2   3
ATOM      3  C   UNL A   1      32.689  26.199  22.170  1.00  0.00     0.307 C 
ATOM      4  O   UNL A   1      33.590  26.745  21.539  1.00  0.00    -0.252 OA
BRANCH   3   5
ATOM      5  C   UNL A   1      31.297  26.767  22.182  1.00  0.00     0.147 C 
BRANCH   5   6
ATOM      6  C   UNL A   1      30.518  27.058  23.471  1.00  0.00     0.090 C 
ATOM      7  C   UNL A   1      29.501  28.187  23.472  1.00  0.00     0.031 C 
BRANCH   6   8
ATOM      8  N   UNL A   1      31.328  27.103  24.681  1.00  0.00    -0.353 N 
ATOM      9  C   UNL A   1      31.212  26.349  25.814  1.00  0.00     0.220 C 
ATOM     10  H   UNL A   1      32.057  27.766  24.682  1.00  0.00     0.163 HD
ATOM     11  O   UNL A   1      31.924  26.621  26.781  1.00  0.00    -0.275 OA
BRANCH   9  12
ATOM     12  C   UNL A   1      30.264  25.161  25.851  1.00  0.00     0.102 C 
BRANCH  12  13
ATOM     13  C   UNL A   1      30.728  23.897  25.107  1.00  0.00     0.032 C 
BRANCH  13  14
ATOM     14  C   UNL A   1      30.653  22.542  25.849  1.00  0.00     0.131 C 
BRANCH  14  15
ATOM     15  N   UNL A   1      31.938  21.900  26.088  1.00  0.00    -0.263 N 
ATOM     16  C   UNL A   1      32.872  22.303  27.000  1.00  0.00     0.250 C 
ATOM     17  C   UNL A   1      32.405  20.826  25.373  1.00  0.00     0.326 C 
ATOM     18  O   UNL A   1      32.736  23.168  27.854  1.00  0.00    -0.272 OA
ATOM     19  C   UNL A   1      34.173  21.573  26.713  1.00  0.00     0.221 C 
ATOM     20  N   UNL A   1      33.740  20.646  25.701  1.00  0.00    -0.318 N 
ATOM     21  O   UNL A   1      31.795  20.196  24.533  1.00  0.00    -0.248 OA
ATOM     22  C   UNL A   1      34.666  19.802  24.979  1.00  0.00     0.149 C 
ENDBRANCH  14  15
ENDBRANCH  13  14
ENDBRANCH  12  13
ENDBRANCH   9  12
ENDBRANCH   6   8
ENDBRANCH   5   6
ENDBRANCH   3   5
ENDBRANCH   2   3
ENDBRANCH   1   2
BRANCH   1  23
ATOM     23  C   UNL A   1      34.394  23.272  23.282  1.00  0.00     0.202 C 
BRANCH  23  24
ATOM     24  O   UNL A   1      35.724  22.924  22.899  1.00  0.00    -0.374 OA
BRANCH  24  25
ATOM     25  C   UNL A   1      36.756  22.998  23.884  1.00  0.00     0.202 C 
BRANCH  25  26
ATOM     26  C   UNL A   1      37.411  21.678  24.305  1.00  0.00     0.261 C 
BRANCH  26  27
ATOM     27  O   UNL A   1      37.603  21.612  25.737  1.00  0.00    -0.460 OA
BRANCH  27  28
ATOM     28  C   UNL A   1      38.900  21.431  26.106  1.00  0.00     0.338 C 
ATOM     29  O   UNL A   1      39.619  20.496  25.789  1.00  0.00    -0.246 OA
BRANCH  28  30
ATOM     30  C   UNL A   1      39.446  22.628  26.775  1.00  0.00     0.060 A 
ATOM     31  C   UNL A   1      38.889  23.861  26.416  1.00  0.00     0.016 A 
ATOM     32  C   UNL A   1      40.576  22.576  27.592  1.00  0.00     0.016 A 
ATOM     33  C   UNL A   1      39.494  25.050  26.819  1.00  0.00     0.010 A 
ATOM     34  C   UNL A   1      41.185  23.777  27.994  1.00  0.00     0.010 A 
ATOM     35  C   UNL A   1      40.674  25.020  27.571  1.00  0.00    -0.014 A 
BRANCH  35  36
ATOM     36  C   UNL A   1      41.435  26.286  27.762  1.00  0.00     0.031 A 
ATOM     37  C   UNL A   1      40.773  27.449  28.458  1.00  0.00     0.074 A 
ATOM     38  C   UNL A   1      42.730  26.377  27.403  1.00  0.00     0.049 A 
ATOM     39  N   UNL A   1      41.253  28.636  28.737  1.00  0.00    -0.248 NA
ATOM     40  C   UNL A   1      39.388  27.242  28.904  1.00  0.00     0.031 C 
ATOM     41  C   UNL A   1      43.508  25.305  26.783  1.00  0.00     0.029 A 
ATOM     42  N   UNL A   1      43.621  27.416  27.514  1.00  0.00    -0.354 N 
ATOM     43  C   UNL A   1      40.227  29.319  29.383  1.00  0.00     0.074 A 
ATOM     44  C   UNL A   1      39.089  28.425  29.420  1.00  0.00     0.031 C 
ATOM     45  C   UNL A   1      44.760  25.742  26.569  1.00  0.00     0.029 A 
ATOM     46  C   UNL A   1      44.864  27.138  26.992  1.00  0.00     0.049 A 
ATOM     47  H   UNL A   1      43.393  28.280  27.929  1.00  0.00     0.167 HD
ATOM     48  C   UNL A   1      40.237  30.572  29.906  1.00  0.00     0.034 A 
ATOM     49  C   UNL A   1      45.951  27.924  26.844  1.00  0.00     0.034 A 
ATOM     50  C   UNL A   1      41.377  31.458  29.862  1.00  0.00     0.049 A 
ATOM     51  C   UNL A   1      45.905  29.350  27.340  1.00  0.00     0.074 A 
ATOM     52  C   UNL A   1      41.492  32.739  30.375  1.00  0.00     0.029 A 
ATOM     53  N   UNL A   1      42.593  31.166  29.258  1.00  0.00    -0.354 N 
ATOM     54  N   UNL A   1      44.929  29.983  27.948  1.00  0.00    -0.248 NA
ATOM     55  C   UNL A   1      47.113  30.163  27.139  1.00  0.00     0.031 C 
ATOM     56  C   UNL A   1      42.741  33.251  30.009  1.00  0.00     0.029 A 
ATOM     57  C   UNL A   1      43.446  32.257  29.350  1.00  0.00     0.049 A 
ATOM     58  H   UNL A   1      42.818  30.309  28.827  1.00  0.00     0.167 HD
ATOM     59  C   UNL A   1      45.418  31.258  28.229  1.00  0.00     0.074 A 
ATOM     60  C   UNL A   1      46.779  31.297  27.737  1.00  0.00     0.031 C 
ATOM     61  C   UNL A   1      44.800  32.298  28.846  1.00  0.00     0.034 A 
BRANCH  48  62
ATOM     62  C   UNL A   1      38.952  31.081  30.518  1.00  0.00     0.023 A 
ATOM     63  C   UNL A   1      37.903  31.594  29.737  1.00  0.00     0.031 A 
ATOM     64  C   UNL A   1      38.782  31.065  31.916  1.00  0.00     0.131 A 
ATOM     65  C   UNL A   1      36.765  32.132  30.357  1.00  0.00     0.055 A 
ATOM     66  C   UNL A   1      37.613  31.527  32.523  1.00  0.00     0.041 A 
ATOM     67  F   UNL A   1      39.758  30.609  32.717  1.00  0.00    -0.206 F 
ATOM     68  C   UNL A   1      36.602  32.079  31.743  1.00  0.00     0.022 A 
BRANCH  65  69
ATOM     69  S   UNL A   1      35.567  33.039  29.340  1.00  0.00     0.124 S 
ATOM     70  O   UNL A   1      35.567  34.351  29.984  1.00  0.00    -0.237 OA
ATOM     71  O   UNL A   1      36.171  32.977  28.014  1.00  0.00    -0.237 OA
ATOM     72  O   UNL A   1      34.332  32.275  29.501  1.00  0.00    -0.744 OA
ENDBRANCH  65  69
ENDBRANCH  48  62
BRANCH  49  73
ATOM     73  C   UNL A   1      47.166  27.404  26.149  1.00  0.00     0.023 A 
ATOM     74  C   UNL A   1      48.250  26.874  26.866  1.00  0.00     0.031 A 
ATOM     75  C   UNL A   1      47.281  27.490  24.750  1.00  0.00     0.131 A 
ATOM     76  C   UNL A   1      49.418  26.492  26.187  1.00  0.00     0.055 A 
ATOM     77  C   UNL A   1      48.421  27.054  24.073  1.00  0.00     0.041 A 
ATOM     78  F   UNL A   1      46.278  27.996  24.015  1.00  0.00    -0.206 F 
ATOM     79  C   UNL A   1      49.504  26.563  24.794  1.00  0.00     0.022 A 
BRANCH  76  80
ATOM     80  S   UNL A   1      50.864  25.987  27.158  1.00  0.00     0.124 S 
ATOM     81  O   UNL A   1      51.337  24.831  26.406  1.00  0.00    -0.237 OA
ATOM     82  O   UNL A   1      51.701  27.181  27.098  1.00  0.00    -0.237 OA
ATOM     83  O   UNL A   1      50.302  25.689  28.474  1.00  0.00    -0.744 OA
ENDBRANCH  76  80
ENDBRANCH  49  73
BRANCH  61  84
ATOM     84  C   UNL A   1      45.611  33.555  29.071  1.00  0.00     0.023 A 
ATOM     85  C   UNL A   1      45.578  34.636  28.172  1.00  0.00     0.031 A 
ATOM     86  C   UNL A   1      46.437  33.667  30.205  1.00  0.00     0.131 A 
ATOM     87  C   UNL A   1      46.396  35.756  28.393  1.00  0.00     0.055 A 
ATOM     88  C   UNL A   1      47.198  34.811  30.454  1.00  0.00     0.041 A 
ATOM     89  F   UNL A   1      46.514  32.666  31.096  1.00  0.00    -0.206 F 
ATOM     90  C   UNL A   1      47.190  35.858  29.538  1.00  0.00     0.022 A 
BRANCH  87  91
ATOM     91  S   UNL A   1      46.484  37.040  27.115  1.00  0.00     0.124 S 
ATOM     92  O   UNL A   1      45.084  37.432  26.982  1.00  0.00    -0.237 OA
ATOM     93  O   UNL A   1      47.367  38.029  27.725  1.00  0.00    -0.237 OA
ATOM     94  O   UNL A   1      47.044  36.339  25.961  1.00  0.00    -0.744 OA
ENDBRANCH  87  91
ENDBRANCH  61  84
ENDBRANCH  35  36
ENDBRANCH  28  30
ENDBRANCH  27  28
ENDBRANCH  26  27
ENDBRANCH  25  26
ENDBRANCH  24  25
ENDBRANCH  23  24
ENDBRANCH   1  23
TORSDOF 23
ENDMDL
MODEL 3
REMARK VINA RESULT:      -9.8      2.006      7.677
REMARK SMILES C[C@@H](CC(=O)OCCOCCOC(=O)c1ccc(-c2c3nc(c(-c4cc(S(=O)(=O)[O-])ccc4F)c4ccc([nH]4)c(-c4cc(S(=O)(=O)[O-])ccc4F)c4nc(c(-c5cc(S(=O)(=O)[O-])ccc5F)c5ccc2[nH]5)C=C4)C=C3)cc1)NC(=O)CCCN1C(=O)CN(C)C1=O
REMARK SMILES IDX 7 1 6 2 4 3 5 4 3 5 2 6 1 7 78 8 79 9 80 11 81 12 82 13
REMARK SMILES IDX 83 14 84 15 85 16 90 17 86 18 87 19 88 20 91 21 89 22 8 23
REMARK SMILES IDX 9 24 10 25 11 26 12 27 13 28 14 29 15 30 16 31 77 32 17 33
REMARK SMILES IDX 76 34 18 35 19 36 20 37 70 38 21 39 75 40 69 41 71 42 22 43
REMARK SMILES IDX 74 44 68 45 67 46 23 48 55 49 35 50 54 51 36 52 39 53 53 54
REMARK SMILES IDX 72 55 37 56 38 57 52 59 73 60 40 61 24 62 25 63 33 64 26 65
REMARK SMILES IDX 32 66 34 67 31 68 27 69 28 70 29 71 30 72 56 73 57 74 65 75
REMARK SMILES IDX 58 76 64 77 66 78 63 79 59 80 60 81 61 82 62 83 41 84 42 85
REMARK SMILES IDX 50 86 43 87 49 88 51 89 48 90 44 91 45 92 46 93 47 94
REMARK H PARENT 78 10 71 47 39 58
REMARK Flexibility Score: inf
ROOT
ATOM      1  C   UNL A   1      34.473  25.188  23.505  1.00  0.00     0.261 C 
ENDROOT
BRANCH   1   2
ATOM      2  O   UNL A   1      33.090  25.524  23.321  1.00  0.00    -0.463 OA
BRANCH   2   3
ATOM      3  C   UNL A   1      32.766  26.084  22.140  1.00  0.00     0.307 C 
ATOM      4  O   UNL A   1      33.473  26.087  21.136  1.00  0.00    -0.252 OA
BRANCH   3   5
ATOM      5  C   UNL A   1      31.391  26.691  22.120  1.00  0.00     0.147 C 
BRANCH   5   6
ATOM      6  C   UNL A   1      30.860  27.607  23.230  1.00  0.00     0.090 C 
ATOM      7  C   UNL A   1      30.213  28.926  22.843  1.00  0.00     0.031 C 
BRANCH   6   8
ATOM      8  N   UNL A   1      31.766  27.797  24.355  1.00  0.00    -0.353 N 
ATOM      9  C   UNL A   1      31.651  27.325  25.632  1.00  0.00     0.220 C 
ATOM     10  H   UNL A   1      32.568  28.338  24.171  1.00  0.00     0.163 HD
ATOM     11  O   UNL A   1      32.468  27.696  26.476  1.00  0.00    -0.275 OA
BRANCH   9  12
ATOM     12  C   UNL A   1      30.570  26.315  25.982  1.00  0.00     0.102 C 
BRANCH  12  13
ATOM     13  C   UNL A   1      30.919  24.836  25.742  1.00  0.00     0.032 C 
BRANCH  13  14
ATOM     14  C   UNL A   1      31.491  24.017  26.923  1.00  0.00     0.131 C 
BRANCH  14  15
ATOM     15  N   UNL A   1      32.186  22.795  26.545  1.00  0.00    -0.263 N 
ATOM     16  C   UNL A   1      33.511  22.536  26.751  1.00  0.00     0.250 C 
ATOM     17  C   UNL A   1      31.599  21.756  25.866  1.00  0.00     0.326 C 
ATOM     18  O   UNL A   1      34.297  23.210  27.404  1.00  0.00    -0.272 OA
ATOM     19  C   UNL A   1      33.896  21.311  25.939  1.00  0.00     0.221 C 
ATOM     20  N   UNL A   1      32.605  20.891  25.464  1.00  0.00    -0.318 N 
ATOM     21  O   UNL A   1      30.423  21.650  25.584  1.00  0.00    -0.248 OA
ATOM     22  C   UNL A   1      32.445  19.822  24.503  1.00  0.00     0.149 C 
ENDBRANCH  14  15
ENDBRANCH  13  14
ENDBRANCH  12  13
ENDBRANCH   9  12
ENDBRANCH   6   8
ENDBRANCH   5   6
ENDBRANCH   3   5
ENDBRANCH   2   3
ENDBRANCH   1   2
BRANCH   1  23
ATOM     23  C   UNL A   1      34.641  23.671  23.442  1.00  0.00     0.202 C 
BRANCH  23  24
ATOM     24  O   UNL A   1      35.828  23.202  22.801  1.00  0.00    -0.374 OA
BRANCH  24  25
ATOM     25  C   UNL A   1      36.983  22.959  23.605  1.00  0.00     0.202 C 
BRANCH  25  26
ATOM     26  C   UNL A   1      37.030  21.632  24.371  1.00  0.00     0.261 C 
BRANCH  26  27
ATOM     27  O   UNL A   1      37.385  21.831  25.759  1.00  0.00    -0.460 OA
BRANCH  27  28
ATOM     28  C   UNL A   1      38.696  21.590  26.027  1.00  0.00     0.338 C 
ATOM     29  O   UNL A   1      39.358  20.649  25.618  1.00  0.00    -0.246 OA
BRANCH  28  30
ATOM     30  C   UNL A   1      39.330  22.734  26.711  1.00  0.00     0.060 A 
ATOM     31  C   UNL A   1      38.721  23.984  26.545  1.00  0.00     0.016 A 
ATOM     32  C   UNL A   1      40.567  22.633  27.347  1.00  0.00     0.016 A 
ATOM     33  C   UNL A   1      39.373  25.144  26.957  1.00  0.00     0.010 A 
ATOM     34  C   UNL A   1      41.224  23.805  27.759  1.00  0.00     0.010 A 
ATOM     35  C   UNL A   1      40.651  25.071  27.524  1.00  0.00    -0.014 A 
BRANCH  35  36
ATOM     36  C   UNL A   1      41.427  26.329  27.711  1.00  0.00     0.031 A 
ATOM     37  C   UNL A   1      40.821  27.459  28.506  1.00  0.00     0.074 A 
ATOM     38  C   UNL A   1      42.690  26.437  27.258  1.00  0.00     0.049 A 
ATOM     39  N   UNL A   1      41.323  28.633  28.799  1.00  0.00    -0.248 NA
ATOM     40  C   UNL A   1      39.474  27.230  29.046  1.00  0.00     0.031 C 
ATOM     41  C   UNL A   1      43.416  25.395  26.535  1.00  0.00     0.029 A 
ATOM     42  N   UNL A   1      43.589  27.472  27.346  1.00  0.00    -0.354 N 
ATOM     43  C   UNL A   1      40.351  29.286  29.551  1.00  0.00     0.074 A 
ATOM     44  C   UNL A   1      39.217  28.389  29.635  1.00  0.00     0.031 C 
ATOM     45  C   UNL A   1      44.649  25.843  26.244  1.00  0.00     0.029 A 
ATOM     46  C   UNL A   1      44.787  27.220  26.718  1.00  0.00     0.049 A 
ATOM     47  H   UNL A   1      43.394  28.317  27.814  1.00  0.00     0.167 HD
ATOM     48  C   UNL A   1      40.402  30.515  30.125  1.00  0.00     0.034 A 
ATOM     49  C   UNL A   1      45.861  28.012  26.522  1.00  0.00     0.034 A 
ATOM     50  C   UNL A   1      41.537  31.404  30.032  1.00  0.00     0.049 A 
ATOM     51  C   UNL A   1      45.856  29.416  27.082  1.00  0.00     0.074 A 
ATOM     52  C   UNL A   1      41.693  32.662  30.591  1.00  0.00     0.029 A 
ATOM     53  N   UNL A   1      42.703  31.141  29.325  1.00  0.00    -0.354 N 
ATOM     54  N   UNL A   1      44.930  30.020  27.790  1.00  0.00    -0.248 NA
ATOM     55  C   UNL A   1      47.045  30.239  26.824  1.00  0.00     0.031 C 
ATOM     56  C   UNL A   1      42.911  33.191  30.153  1.00  0.00     0.029 A 
ATOM     57  C   UNL A   1      43.562  32.228  29.398  1.00  0.00     0.049 A 
ATOM     58  H   UNL A   1      42.893  30.304  28.841  1.00  0.00     0.167 HD
ATOM     59  C   UNL A   1      45.441  31.283  28.088  1.00  0.00     0.074 A 
ATOM     60  C   UNL A   1      46.760  31.345  27.495  1.00  0.00     0.031 C 
ATOM     61  C   UNL A   1      44.874  32.293  28.795  1.00  0.00     0.034 A 
BRANCH  48  62
ATOM     62  C   UNL A   1      39.169  30.995  30.856  1.00  0.00     0.023 A 
ATOM     63  C   UNL A   1      38.104  31.627  30.191  1.00  0.00     0.031 A 
ATOM     64  C   UNL A   1      39.065  30.827  32.249  1.00  0.00     0.131 A 
ATOM     65  C   UNL A   1      37.019  32.130  30.925  1.00  0.00     0.055 A 
ATOM     66  C   UNL A   1      37.945  31.256  32.963  1.00  0.00     0.041 A 
ATOM     67  F   UNL A   1      40.059  30.251  32.944  1.00  0.00    -0.206 F 
ATOM     68  C   UNL A   1      36.920  31.926  32.303  1.00  0.00     0.022 A 
BRANCH  65  69
ATOM     69  S   UNL A   1      35.811  33.186  30.078  1.00  0.00     0.124 S 
ATOM     70  O   UNL A   1      35.304  33.997  31.182  1.00  0.00    -0.237 OA
ATOM     71  O   UNL A   1      36.635  33.882  29.097  1.00  0.00    -0.237 OA
ATOM     72  O   UNL A   1      34.852  32.233  29.524  1.00  0.00    -0.744 OA
ENDBRANCH  65  69
ENDBRANCH  48  62
BRANCH  49  73
ATOM     73  C   UNL A   1      47.019  27.525  25.715  1.00  0.00     0.023 A 
ATOM     74  C   UNL A   1      47.182  27.896  24.371  1.00  0.00     0.031 A 
ATOM     75  C   UNL A   1      47.948  26.626  26.267  1.00  0.00     0.131 A 
ATOM     76  C   UNL A   1      48.223  27.335  23.613  1.00  0.00     0.055 A 
ATOM     77  C   UNL A   1      49.016  26.117  25.527  1.00  0.00     0.041 A 
ATOM     78  F   UNL A   1      47.835  26.231  27.546  1.00  0.00    -0.206 F 
ATOM     79  C   UNL A   1      49.150  26.461  24.186  1.00  0.00     0.022 A 
BRANCH  76  80
ATOM     80  S   UNL A   1      48.294  27.692  21.836  1.00  0.00     0.124 S 
ATOM     81  O   UNL A   1      49.451  28.574  21.757  1.00  0.00    -0.237 OA
ATOM     82  O   UNL A   1      48.461  26.358  21.266  1.00  0.00    -0.237 OA
ATOM     83  O   UNL A   1      47.005  28.325  21.564  1.00  0.00    -0.744 OA
ENDBRANCH  76  80
ENDBRANCH  49  73
BRANCH  61  84
ATOM     84  C   UNL A   1      45.701  33.541  29.012  1.00  0.00     0.023 A 
ATOM     85  C   UNL A   1      46.632  33.646  30.060  1.00  0.00     0.031 A 
ATOM     86  C   UNL A   1      45.548  34.647  28.155  1.00  0.00     0.131 A 
ATOM     87  C   UNL A   1      47.332  34.848  30.258  1.00  0.00     0.055 A 
ATOM     88  C   UNL A   1      46.295  35.815  28.316  1.00  0.00     0.041 A 
ATOM     89  F   UNL A   1      44.671  34.607  27.139  1.00  0.00    -0.206 F 
ATOM     90  C   UNL A   1      47.183  35.925  29.381  1.00  0.00     0.022 A 
BRANCH  87  91
ATOM     91  S   UNL A   1      48.371  35.023  31.735  1.00  0.00     0.124 S 
ATOM     92  O   UNL A   1      47.631  34.241  32.720  1.00  0.00    -0.237 OA
ATOM     93  O   UNL A   1      49.641  34.454  31.293  1.00  0.00    -0.237 OA
ATOM     94  O   UNL A   1      48.389  36.464  31.974  1.00  0.00    -0.744 OA
ENDBRANCH  87  91
ENDBRANCH  61  84
ENDBRANCH  35  36
ENDBRANCH  28  30
ENDBRANCH  27  28
ENDBRANCH  26  27
ENDBRANCH  25  26
ENDBRANCH  24  25
ENDBRANCH  23  24
ENDBRANCH   1  23
TORSDOF 23
ENDMDL
