MODEL 1
REMARK VINA RESULT:     -11.8      0.000      0.000
REMARK SMILES O=C1OC(c2ccc(Cl)cc2)=N/C1=C/Nc1ccc(O)c(C(=O)OCCOCCOC(=O)c2ccc(-c3c4nc(c(-c5cc(S(=O)(=O)[O-])ccc5F)c5ccc([nH]5)c(-c5cc(S(=O)(=O)[O-])ccc5F)c5nc(c(-c6cc(S(=O)(=O)[O-])ccc6F)c6ccc3[nH]6)C=C5)C=C4)cc2)c1
REMARK SMILES IDX 27 1 26 2 25 3 24 4 22 5 23 6 21 7 16 8 17 9 96 10 18 11
REMARK SMILES IDX 19 12 15 13 14 15 1 16 2 17 3 18 13 19 4 20 12 21 5 22 6 23
REMARK SMILES IDX 11 24 7 25 10 26 8 27 9 28 20 29 28 31 29 32 30 33 31 34
REMARK SMILES IDX 32 35 33 36 34 37 95 38 35 39 94 40 36 41 37 42 38 43 88 44
REMARK SMILES IDX 39 45 93 46 87 47 89 48 40 49 92 50 86 51 85 52 41 54 73 55
REMARK SMILES IDX 53 56 72 57 54 58 57 59 71 60 90 61 55 62 56 63 70 65 91 66
REMARK SMILES IDX 58 67 42 68 43 69 51 70 44 71 50 72 52 73 49 74 45 75 46 76
REMARK SMILES IDX 47 77 48 78 74 79 75 80 83 81 76 82 82 83 84 84 81 85 77 86
REMARK SMILES IDX 78 87 79 88 80 89 59 90 60 91 68 92 61 93 67 94 69 95 66 96
REMARK SMILES IDX 62 97 63 98 64 99 65 100
REMARK H PARENT 15 14 20 30 89 53 57 64
REMARK Flexibility Score: inf
ROOT
ATOM      1  O   UNL A   1      35.233  23.368  22.734  1.00  0.00    -0.374 OA
ENDROOT
BRANCH   1   2
ATOM      2  C   UNL A   1      33.852  23.729  22.743  1.00  0.00     0.202 C 
BRANCH   2   3
ATOM      3  C   UNL A   1      33.485  25.136  22.266  1.00  0.00     0.261 C 
BRANCH   3   4
ATOM      4  O   UNL A   1      34.049  26.139  23.121  1.00  0.00    -0.460 OA
BRANCH   4   5
ATOM      5  C   UNL A   1      33.357  27.299  23.187  1.00  0.00     0.342 C 
ATOM      6  O   UNL A   1      33.098  28.046  22.254  1.00  0.00    -0.246 OA
BRANCH   5   7
ATOM      7  C   UNL A   1      32.736  27.477  24.519  1.00  0.00     0.103 A 
ATOM      8  C   UNL A   1      31.509  26.377  26.314  1.00  0.00     0.039 A 
ATOM      9  C   UNL A   1      31.365  27.617  26.941  1.00  0.00     0.030 A 
ATOM     10  C   UNL A   1      32.197  26.318  25.102  1.00  0.00     0.045 A 
ATOM     11  C   UNL A   1      31.952  28.769  26.403  1.00  0.00     0.049 A 
ATOM     12  C   UNL A   1      32.642  28.697  25.192  1.00  0.00     0.130 A 
BRANCH   8  13
ATOM     13  N   UNL A   1      30.894  25.220  26.812  1.00  0.00    -0.360 N 
ATOM     14  H   UNL A   1      30.497  25.266  27.712  1.00  0.00     0.166 HD
BRANCH  13  15
ATOM     15  C   UNL A   1      30.805  24.031  26.133  1.00  0.00     0.119 C 
ATOM     16  O   UNL A   1      33.622  23.970  27.229  1.00  0.00    -0.244 OA
ATOM     17  C   UNL A   1      33.100  23.124  26.535  1.00  0.00     0.365 C 
ATOM     18  O   UNL A   1      33.640  21.943  26.115  1.00  0.00    -0.402 OA
ATOM     19  C   UNL A   1      31.739  23.095  25.935  1.00  0.00     0.168 C 
ATOM     20  C   UNL A   1      32.703  21.364  25.332  1.00  0.00     0.231 C 
ATOM     21  N   UNL A   1      31.574  21.971  25.170  1.00  0.00    -0.204 NA
BRANCH  20  22
ATOM     22  C   UNL A   1      33.112  20.109  24.712  1.00  0.00     0.037 A 
ATOM     23  C   UNL A   1      34.341  19.532  25.040  1.00  0.00     0.015 A 
ATOM     24  C   UNL A   1      32.237  19.479  23.822  1.00  0.00     0.015 A 
ATOM     25  C   UNL A   1      34.693  18.305  24.474  1.00  0.00     0.021 A 
ATOM     26  C   UNL A   1      32.603  18.262  23.244  1.00  0.00     0.021 A 
ATOM     27  C   UNL A   1      33.826  17.678  23.576  1.00  0.00     0.041 A 
ATOM     28  Cl  UNL A   1      34.266  16.167  22.879  1.00  0.00    -0.084 Cl
ENDBRANCH  20  22
ENDBRANCH  13  15
ENDBRANCH   8  13
BRANCH  12  29
ATOM     29  O   UNL A   1      33.182  29.833  24.666  1.00  0.00    -0.507 OA
ATOM     30  H   UNL A   1      33.460  30.526  25.233  1.00  0.00     0.293 HD
ENDBRANCH  12  29
ENDBRANCH   5   7
ENDBRANCH   4   5
ENDBRANCH   3   4
ENDBRANCH   2   3
ENDBRANCH   1   2
BRANCH   1  31
ATOM     31  C   UNL A   1      35.909  23.291  23.989  1.00  0.00     0.202 C 
BRANCH  31  32
ATOM     32  C   UNL A   1      36.849  22.105  24.241  1.00  0.00     0.261 C 
BRANCH  32  33
ATOM     33  O   UNL A   1      37.189  21.923  25.625  1.00  0.00    -0.460 OA
BRANCH  33  34
ATOM     34  C   UNL A   1      38.506  21.685  25.849  1.00  0.00     0.338 C 
ATOM     35  O   UNL A   1      39.169  20.760  25.410  1.00  0.00    -0.246 OA
BRANCH  34  36
ATOM     36  C   UNL A   1      39.107  22.822  26.570  1.00  0.00     0.060 A 
ATOM     37  C   UNL A   1      38.490  24.074  26.445  1.00  0.00     0.016 A 
ATOM     38  C   UNL A   1      40.294  22.685  27.288  1.00  0.00     0.016 A 
ATOM     39  C   UNL A   1      39.086  25.205  26.997  1.00  0.00     0.010 A 
ATOM     40  C   UNL A   1      40.895  23.823  27.837  1.00  0.00     0.010 A 
ATOM     41  C   UNL A   1      40.312  25.093  27.663  1.00  0.00    -0.014 A 
BRANCH  41  42
ATOM     42  C   UNL A   1      41.063  26.317  28.044  1.00  0.00     0.031 A 
ATOM     43  C   UNL A   1      40.336  27.417  28.769  1.00  0.00     0.074 A 
ATOM     44  C   UNL A   1      42.373  26.437  27.766  1.00  0.00     0.049 A 
ATOM     45  N   UNL A   1      40.761  28.602  29.122  1.00  0.00    -0.248 NA
ATOM     46  C   UNL A   1      38.938  27.143  29.137  1.00  0.00     0.031 C 
ATOM     47  C   UNL A   1      43.196  25.416  27.121  1.00  0.00     0.029 A 
ATOM     48  N   UNL A   1      43.241  27.479  27.986  1.00  0.00    -0.354 N 
ATOM     49  C   UNL A   1      39.680  29.222  29.741  1.00  0.00     0.074 A 
ATOM     50  C   UNL A   1      38.571  28.294  29.679  1.00  0.00     0.031 C 
ATOM     51  C   UNL A   1      44.448  25.884  26.989  1.00  0.00     0.029 A 
ATOM     52  C   UNL A   1      44.505  27.256  27.492  1.00  0.00     0.049 A 
ATOM     53  H   UNL A   1      42.983  28.306  28.453  1.00  0.00     0.167 HD
ATOM     54  C   UNL A   1      39.623  30.450  30.316  1.00  0.00     0.034 A 
ATOM     55  C   UNL A   1      45.573  28.077  27.422  1.00  0.00     0.034 A 
ATOM     56  C   UNL A   1      40.740  31.364  30.362  1.00  0.00     0.049 A 
ATOM     57  C   UNL A   1      45.458  29.477  27.979  1.00  0.00     0.074 A 
ATOM     58  C   UNL A   1      40.796  32.625  30.929  1.00  0.00     0.029 A 
ATOM     59  N   UNL A   1      41.991  31.123  29.808  1.00  0.00    -0.354 N 
ATOM     60  N   UNL A   1      44.430  30.055  28.560  1.00  0.00    -0.248 NA
ATOM     61  C   UNL A   1      46.648  30.332  27.878  1.00  0.00     0.031 C 
ATOM     62  C   UNL A   1      42.048  33.179  30.643  1.00  0.00     0.029 A 
ATOM     63  C   UNL A   1      42.811  32.228  29.985  1.00  0.00     0.049 A 
ATOM     64  H   UNL A   1      42.257  30.291  29.355  1.00  0.00     0.167 HD
ATOM     65  C   UNL A   1      44.867  31.326  28.928  1.00  0.00     0.074 A 
ATOM     66  C   UNL A   1      46.251  31.426  28.511  1.00  0.00     0.031 C 
ATOM     67  C   UNL A   1      44.190  32.319  29.562  1.00  0.00     0.034 A 
BRANCH  54  68
ATOM     68  C   UNL A   1      38.296  30.893  30.886  1.00  0.00     0.023 A 
ATOM     69  C   UNL A   1      37.329  31.547  30.101  1.00  0.00     0.031 A 
ATOM     70  C   UNL A   1      38.003  30.679  32.245  1.00  0.00     0.131 A 
ATOM     71  C   UNL A   1      36.152  32.025  30.696  1.00  0.00     0.055 A 
ATOM     72  C   UNL A   1      36.791  31.079  32.810  1.00  0.00     0.041 A 
ATOM     73  F   UNL A   1      38.896  30.085  33.051  1.00  0.00    -0.206 F 
ATOM     74  C   UNL A   1      35.863  31.771  32.038  1.00  0.00     0.022 A 
BRANCH  71  75
ATOM     75  S   UNL A   1      35.074  33.116  29.728  1.00  0.00     0.124 S 
ATOM     76  O   UNL A   1      36.013  34.146  29.291  1.00  0.00    -0.237 OA
ATOM     77  O   UNL A   1      34.573  32.224  28.689  1.00  0.00    -0.237 OA
ATOM     78  O   UNL A   1      34.079  33.565  30.700  1.00  0.00    -0.744 OA
ENDBRANCH  71  75
ENDBRANCH  54  68
BRANCH  55  79
ATOM     79  C   UNL A   1      46.833  27.624  26.765  1.00  0.00     0.023 A 
ATOM     80  C   UNL A   1      47.058  27.842  25.396  1.00  0.00     0.031 A 
ATOM     81  C   UNL A   1      47.807  26.908  27.485  1.00  0.00     0.131 A 
ATOM     82  C   UNL A   1      48.200  27.305  24.781  1.00  0.00     0.055 A 
ATOM     83  C   UNL A   1      48.973  26.433  26.881  1.00  0.00     0.041 A 
ATOM     84  F   UNL A   1      47.642  26.663  28.795  1.00  0.00    -0.206 F 
ATOM     85  C   UNL A   1      49.168  26.618  25.517  1.00  0.00     0.022 A 
BRANCH  82  86
ATOM     86  S   UNL A   1      48.351  27.427  22.976  1.00  0.00     0.124 S 
ATOM     87  O   UNL A   1      47.167  28.207  22.634  1.00  0.00    -0.237 OA
ATOM     88  O   UNL A   1      49.634  28.107  22.826  1.00  0.00    -0.237 OA
ATOM     89  O   UNL A   1      48.330  26.033  22.539  1.00  0.00    -0.744 OA
ENDBRANCH  82  86
ENDBRANCH  55  79
BRANCH  67  90
ATOM     90  C   UNL A   1      44.956  33.577  29.902  1.00  0.00     0.023 A 
ATOM     91  C   UNL A   1      44.980  34.693  29.047  1.00  0.00     0.031 A 
ATOM     92  C   UNL A   1      45.675  33.657  31.108  1.00  0.00     0.131 A 
ATOM     93  C   UNL A   1      45.754  35.815  29.383  1.00  0.00     0.055 A 
ATOM     94  C   UNL A   1      46.386  34.802  31.470  1.00  0.00     0.041 A 
ATOM     95  F   UNL A   1      45.695  32.621  31.963  1.00  0.00    -0.206 F 
ATOM     96  C   UNL A   1      46.439  35.885  30.598  1.00  0.00     0.022 A 
BRANCH  93  97
ATOM     97  S   UNL A   1      45.938  37.144  28.163  1.00  0.00     0.124 S 
ATOM     98  O   UNL A   1      46.181  36.397  26.933  1.00  0.00    -0.237 OA
ATOM     99  O   UNL A   1      44.651  37.828  28.248  1.00  0.00    -0.237 OA
ATOM    100  O   UNL A   1      47.080  37.911  28.658  1.00  0.00    -0.744 OA
ENDBRANCH  93  97
ENDBRANCH  67  90
ENDBRANCH  41  42
ENDBRANCH  34  36
ENDBRANCH  33  34
ENDBRANCH  32  33
ENDBRANCH  31  32
ENDBRANCH   1  31
TORSDOF 21
ENDMDL
MODEL 2
REMARK VINA RESULT:     -11.7      5.137     11.711
REMARK SMILES O=C1OC(c2ccc(Cl)cc2)=N/C1=C/Nc1ccc(O)c(C(=O)OCCOCCOC(=O)c2ccc(-c3c4nc(c(-c5cc(S(=O)(=O)[O-])ccc5F)c5ccc([nH]5)c(-c5cc(S(=O)(=O)[O-])ccc5F)c5nc(c(-c6cc(S(=O)(=O)[O-])ccc6F)c6ccc3[nH]6)C=C5)C=C4)cc2)c1
REMARK SMILES IDX 27 1 26 2 25 3 24 4 22 5 23 6 21 7 16 8 17 9 96 10 18 11
REMARK SMILES IDX 19 12 15 13 14 15 1 16 2 17 3 18 13 19 4 20 12 21 5 22 6 23
REMARK SMILES IDX 11 24 7 25 10 26 8 27 9 28 20 29 28 31 29 32 30 33 31 34
REMARK SMILES IDX 32 35 33 36 34 37 95 38 35 39 94 40 36 41 37 42 38 43 88 44
REMARK SMILES IDX 39 45 93 46 87 47 89 48 40 49 92 50 86 51 85 52 41 54 73 55
REMARK SMILES IDX 53 56 72 57 54 58 57 59 71 60 90 61 55 62 56 63 70 65 91 66
REMARK SMILES IDX 58 67 42 68 43 69 51 70 44 71 50 72 52 73 49 74 45 75 46 76
REMARK SMILES IDX 47 77 48 78 74 79 75 80 83 81 76 82 82 83 84 84 81 85 77 86
REMARK SMILES IDX 78 87 79 88 80 89 59 90 60 91 68 92 61 93 67 94 69 95 66 96
REMARK SMILES IDX 62 97 63 98 64 99 65 100
REMARK H PARENT 15 14 20 30 89 53 57 64
REMARK Flexibility Score: inf
ROOT
ATOM      1  O   UNL A   1      42.708  19.191  27.062  1.00  0.00    -0.374 OA
ENDROOT
BRANCH   1   2
ATOM      2  C   UNL A   1      42.779  19.031  25.646  1.00  0.00     0.202 C 
BRANCH   2   3
ATOM      3  C   UNL A   1      44.143  19.224  24.979  1.00  0.00     0.261 C 
BRANCH   3   4
ATOM      4  O   UNL A   1      44.292  20.557  24.474  1.00  0.00    -0.460 OA
BRANCH   4   5
ATOM      5  C   UNL A   1      45.338  21.252  24.974  1.00  0.00     0.342 C 
ATOM      6  O   UNL A   1      46.448  20.810  25.235  1.00  0.00    -0.246 OA
BRANCH   5   7
ATOM      7  C   UNL A   1      45.062  22.707  24.978  1.00  0.00     0.103 A 
ATOM      8  C   UNL A   1      46.044  24.925  25.217  1.00  0.00     0.039 A 
ATOM      9  C   UNL A   1      44.757  25.470  25.186  1.00  0.00     0.030 A 
ATOM     10  C   UNL A   1      46.185  23.542  25.112  1.00  0.00     0.045 A 
ATOM     11  C   UNL A   1      43.635  24.655  24.988  1.00  0.00     0.049 A 
ATOM     12  C   UNL A   1      43.789  23.272  24.880  1.00  0.00     0.130 A 
BRANCH   8  13
ATOM     13  N   UNL A   1      47.175  25.716  25.457  1.00  0.00    -0.360 N 
ATOM     14  H   UNL A   1      47.207  26.224  26.299  1.00  0.00     0.166 HD
BRANCH  13  15
ATOM     15  C   UNL A   1      48.241  25.830  24.600  1.00  0.00     0.119 C 
ATOM     16  O   UNL A   1      46.498  28.175  23.821  1.00  0.00    -0.244 OA
ATOM     17  C   UNL A   1      47.551  27.859  23.311  1.00  0.00     0.365 C 
ATOM     18  O   UNL A   1      48.210  28.495  22.299  1.00  0.00    -0.402 OA
ATOM     19  C   UNL A   1      48.448  26.710  23.615  1.00  0.00     0.168 C 
ATOM     20  C   UNL A   1      49.308  27.749  22.044  1.00  0.00     0.231 C 
ATOM     21  N   UNL A   1      49.516  26.692  22.758  1.00  0.00    -0.204 NA
BRANCH  20  22
ATOM     22  C   UNL A   1      50.123  28.218  20.929  1.00  0.00     0.037 A 
ATOM     23  C   UNL A   1      50.605  29.530  20.915  1.00  0.00     0.015 A 
ATOM     24  C   UNL A   1      50.445  27.323  19.904  1.00  0.00     0.015 A 
ATOM     25  C   UNL A   1      51.424  29.946  19.864  1.00  0.00     0.021 A 
ATOM     26  C   UNL A   1      51.249  27.750  18.846  1.00  0.00     0.021 A 
ATOM     27  C   UNL A   1      51.740  29.057  18.833  1.00  0.00     0.041 A 
ATOM     28  Cl  UNL A   1      52.749  29.576  17.539  1.00  0.00    -0.084 Cl
ENDBRANCH  20  22
ENDBRANCH  13  15
ENDBRANCH   8  13
BRANCH  12  29
ATOM     29  O   UNL A   1      42.684  22.490  24.718  1.00  0.00    -0.507 OA
ATOM     30  H   UNL A   1      42.574  21.720  25.240  1.00  0.00     0.293 HD
ENDBRANCH  12  29
ENDBRANCH   5   7
ENDBRANCH   4   5
ENDBRANCH   3   4
ENDBRANCH   2   3
ENDBRANCH   1   2
BRANCH   1  31
ATOM     31  C   UNL A   1      41.551  19.827  27.603  1.00  0.00     0.202 C 
BRANCH  31  32
ATOM     32  C   UNL A   1      40.591  20.539  26.640  1.00  0.00     0.261 C 
BRANCH  32  33
ATOM     33  O   UNL A   1      40.641  21.972  26.733  1.00  0.00    -0.460 OA
BRANCH  33  34
ATOM     34  C   UNL A   1      39.460  22.589  26.472  1.00  0.00     0.338 C 
ATOM     35  O   UNL A   1      38.427  22.064  26.093  1.00  0.00    -0.246 OA
BRANCH  34  36
ATOM     36  C   UNL A   1      39.529  24.001  26.889  1.00  0.00     0.060 A 
ATOM     37  C   UNL A   1      40.029  24.931  25.968  1.00  0.00     0.016 A 
ATOM     38  C   UNL A   1      39.188  24.396  28.183  1.00  0.00     0.016 A 
ATOM     39  C   UNL A   1      40.237  26.254  26.353  1.00  0.00     0.010 A 
ATOM     40  C   UNL A   1      39.404  25.724  28.570  1.00  0.00     0.010 A 
ATOM     41  C   UNL A   1      39.962  26.649  27.667  1.00  0.00    -0.014 A 
BRANCH  41  42
ATOM     42  C   UNL A   1      40.401  27.985  28.145  1.00  0.00     0.031 A 
ATOM     43  C   UNL A   1      41.871  28.306  28.154  1.00  0.00     0.074 A 
ATOM     44  C   UNL A   1      39.504  28.904  28.546  1.00  0.00     0.049 A 
ATOM     45  N   UNL A   1      42.488  29.367  28.604  1.00  0.00    -0.248 NA
ATOM     46  C   UNL A   1      42.764  27.286  27.582  1.00  0.00     0.031 C 
ATOM     47  C   UNL A   1      38.053  28.729  28.528  1.00  0.00     0.029 A 
ATOM     48  N   UNL A   1      39.685  30.166  29.056  1.00  0.00    -0.354 N 
ATOM     49  C   UNL A   1      43.843  29.139  28.385  1.00  0.00     0.074 A 
ATOM     50  C   UNL A   1      43.956  27.821  27.796  1.00  0.00     0.031 C 
ATOM     51  C   UNL A   1      37.474  29.840  29.013  1.00  0.00     0.029 A 
ATOM     52  C   UNL A   1      38.512  30.784  29.424  1.00  0.00     0.049 A 
ATOM     53  H   UNL A   1      40.568  30.589  29.148  1.00  0.00     0.167 HD
ATOM     54  C   UNL A   1      44.893  29.958  28.643  1.00  0.00     0.034 A 
ATOM     55  C   UNL A   1      38.304  31.960  30.052  1.00  0.00     0.034 A 
ATOM     56  C   UNL A   1      44.759  31.267  29.238  1.00  0.00     0.049 A 
ATOM     57  C   UNL A   1      39.495  32.813  30.422  1.00  0.00     0.074 A 
ATOM     58  C   UNL A   1      45.753  32.184  29.531  1.00  0.00     0.029 A 
ATOM     59  N   UNL A   1      43.560  31.840  29.642  1.00  0.00    -0.354 N 
ATOM     60  N   UNL A   1      40.773  32.587  30.213  1.00  0.00    -0.248 NA
ATOM     61  C   UNL A   1      39.216  34.083  31.106  1.00  0.00     0.031 C 
ATOM     62  C   UNL A   1      45.167  33.269  30.190  1.00  0.00     0.029 A 
ATOM     63  C   UNL A   1      43.795  33.079  30.219  1.00  0.00     0.049 A 
ATOM     64  H   UNL A   1      42.673  31.427  29.536  1.00  0.00     0.167 HD
ATOM     65  C   UNL A   1      41.443  33.706  30.704  1.00  0.00     0.074 A 
ATOM     66  C   UNL A   1      40.428  34.607  31.210  1.00  0.00     0.031 C 
ATOM     67  C   UNL A   1      42.775  33.970  30.726  1.00  0.00     0.034 A 
BRANCH  54  68
ATOM     68  C   UNL A   1      46.278  29.436  28.339  1.00  0.00     0.023 A 
ATOM     69  C   UNL A   1      47.004  28.666  29.265  1.00  0.00     0.031 A 
ATOM     70  C   UNL A   1      46.891  29.734  27.109  1.00  0.00     0.131 A 
ATOM     71  C   UNL A   1      48.322  28.283  28.976  1.00  0.00     0.055 A 
ATOM     72  C   UNL A   1      48.171  29.274  26.793  1.00  0.00     0.041 A 
ATOM     73  F   UNL A   1      46.260  30.486  26.194  1.00  0.00    -0.206 F 
ATOM     74  C   UNL A   1      48.901  28.558  27.735  1.00  0.00     0.022 A 
BRANCH  71  75
ATOM     75  S   UNL A   1      49.324  27.556  30.302  1.00  0.00     0.124 S 
ATOM     76  O   UNL A   1      50.597  28.250  30.124  1.00  0.00    -0.237 OA
ATOM     77  O   UNL A   1      48.566  27.905  31.498  1.00  0.00    -0.237 OA
ATOM     78  O   UNL A   1      49.348  26.133  29.971  1.00  0.00    -0.744 OA
ENDBRANCH  71  75
ENDBRANCH  54  68
BRANCH  55  79
ATOM     79  C   UNL A   1      36.922  32.389  30.416  1.00  0.00     0.023 A 
ATOM     80  C   UNL A   1      36.130  33.125  29.521  1.00  0.00     0.031 A 
ATOM     81  C   UNL A   1      36.395  32.121  31.693  1.00  0.00     0.131 A 
ATOM     82  C   UNL A   1      34.879  33.613  29.931  1.00  0.00     0.055 A 
ATOM     83  C   UNL A   1      35.124  32.553  32.074  1.00  0.00     0.041 A 
ATOM     84  F   UNL A   1      37.111  31.428  32.593  1.00  0.00    -0.206 F 
ATOM     85  C   UNL A   1      34.363  33.317  31.196  1.00  0.00     0.022 A 
BRANCH  82  86
ATOM     86  S   UNL A   1      33.979  34.733  28.824  1.00  0.00     0.124 S 
ATOM     87  O   UNL A   1      32.863  33.895  28.402  1.00  0.00    -0.237 OA
ATOM     88  O   UNL A   1      33.649  35.840  29.718  1.00  0.00    -0.237 OA
ATOM     89  O   UNL A   1      34.958  35.043  27.785  1.00  0.00    -0.744 OA
ENDBRANCH  82  86
ENDBRANCH  55  79
BRANCH  67  90
ATOM     90  C   UNL A   1      43.209  35.316  31.258  1.00  0.00     0.023 A 
ATOM     91  C   UNL A   1      43.349  35.568  32.634  1.00  0.00     0.031 A 
ATOM     92  C   UNL A   1      43.487  36.368  30.365  1.00  0.00     0.131 A 
ATOM     93  C   UNL A   1      43.699  36.853  33.078  1.00  0.00     0.055 A 
ATOM     94  C   UNL A   1      43.903  37.624  30.810  1.00  0.00     0.041 A 
ATOM     95  F   UNL A   1      43.366  36.191  29.039  1.00  0.00    -0.206 F 
ATOM     96  C   UNL A   1      43.998  37.875  32.175  1.00  0.00     0.022 A 
BRANCH  93  97
ATOM     97  S   UNL A   1      43.659  37.201  34.858  1.00  0.00     0.124 S 
ATOM     98  O   UNL A   1      44.397  36.066  35.405  1.00  0.00    -0.237 OA
ATOM     99  O   UNL A   1      44.330  38.494  34.939  1.00  0.00    -0.237 OA
ATOM    100  O   UNL A   1      42.232  37.222  35.173  1.00  0.00    -0.744 OA
ENDBRANCH  93  97
ENDBRANCH  67  90
ENDBRANCH  41  42
ENDBRANCH  34  36
ENDBRANCH  33  34
ENDBRANCH  32  33
ENDBRANCH  31  32
ENDBRANCH   1  31
TORSDOF 21
ENDMDL
MODEL 3
REMARK VINA RESULT:     -11.6      2.006      2.284
REMARK SMILES O=C1OC(c2ccc(Cl)cc2)=N/C1=C/Nc1ccc(O)c(C(=O)OCCOCCOC(=O)c2ccc(-c3c4nc(c(-c5cc(S(=O)(=O)[O-])ccc5F)c5ccc([nH]5)c(-c5cc(S(=O)(=O)[O-])ccc5F)c5nc(c(-c6cc(S(=O)(=O)[O-])ccc6F)c6ccc3[nH]6)C=C5)C=C4)cc2)c1
REMARK SMILES IDX 27 1 26 2 25 3 24 4 22 5 23 6 21 7 16 8 17 9 96 10 18 11
REMARK SMILES IDX 19 12 15 13 14 15 1 16 2 17 3 18 13 19 4 20 12 21 5 22 6 23
REMARK SMILES IDX 11 24 7 25 10 26 8 27 9 28 20 29 28 31 29 32 30 33 31 34
REMARK SMILES IDX 32 35 33 36 34 37 95 38 35 39 94 40 36 41 37 42 38 43 88 44
REMARK SMILES IDX 39 45 93 46 87 47 89 48 40 49 92 50 86 51 85 52 41 54 73 55
REMARK SMILES IDX 53 56 72 57 54 58 57 59 71 60 90 61 55 62 56 63 70 65 91 66
REMARK SMILES IDX 58 67 42 68 43 69 51 70 44 71 50 72 52 73 49 74 45 75 46 76
REMARK SMILES IDX 47 77 48 78 74 79 75 80 83 81 76 82 82 83 84 84 81 85 77 86
REMARK SMILES IDX 78 87 79 88 80 89 59 90 60 91 68 92 61 93 67 94 69 95 66 96
REMARK SMILES IDX 62 97 63 98 64 99 65 100
REMARK H PARENT 15 14 20 30 89 53 57 64
REMARK Flexibility Score: inf
ROOT
ATOM      1  O   UNL A   1      35.574  22.819  22.753  1.00  0.00    -0.374 OA
ENDROOT
BRANCH   1   2
ATOM      2  C   UNL A   1      34.149  22.902  22.788  1.00  0.00     0.202 C 
BRANCH   2   3
ATOM      3  C   UNL A   1      33.458  23.690  21.673  1.00  0.00     0.261 C 
BRANCH   3   4
ATOM      4  O   UNL A   1      33.468  25.097  21.947  1.00  0.00    -0.460 OA
BRANCH   4   5
ATOM      5  C   UNL A   1      32.385  25.780  21.510  1.00  0.00     0.342 C 
ATOM      6  O   UNL A   1      32.054  25.952  20.345  1.00  0.00    -0.246 OA
BRANCH   5   7
ATOM      7  C   UNL A   1      31.487  26.134  22.632  1.00  0.00     0.103 A 
ATOM      8  C   UNL A   1      30.617  25.424  24.795  1.00  0.00     0.039 A 
ATOM      9  C   UNL A   1      29.741  26.513  24.772  1.00  0.00     0.030 A 
ATOM     10  C   UNL A   1      31.486  25.244  23.719  1.00  0.00     0.045 A 
ATOM     11  C   UNL A   1      29.776  27.442  23.726  1.00  0.00     0.049 A 
ATOM     12  C   UNL A   1      30.653  27.254  22.656  1.00  0.00     0.130 A 
BRANCH   8  13
ATOM     13  N   UNL A   1      30.570  24.459  25.809  1.00  0.00    -0.360 N 
ATOM     14  H   UNL A   1      30.505  24.776  26.739  1.00  0.00     0.166 HD
BRANCH  13  15
ATOM     15  C   UNL A   1      30.607  23.103  25.598  1.00  0.00     0.119 C 
ATOM     16  O   UNL A   1      33.461  23.742  26.366  1.00  0.00    -0.244 OA
ATOM     17  C   UNL A   1      33.022  22.653  26.063  1.00  0.00     0.365 C 
ATOM     18  O   UNL A   1      33.694  21.465  26.029  1.00  0.00    -0.402 OA
ATOM     19  C   UNL A   1      31.647  22.265  25.647  1.00  0.00     0.168 C 
ATOM     20  C   UNL A   1      32.803  20.547  25.591  1.00  0.00     0.231 C 
ATOM     21  N   UNL A   1      31.596  20.931  25.340  1.00  0.00    -0.204 NA
BRANCH  20  22
ATOM     22  C   UNL A   1      33.346  19.206  25.408  1.00  0.00     0.037 A 
ATOM     23  C   UNL A   1      32.696  18.104  25.968  1.00  0.00     0.015 A 
ATOM     24  C   UNL A   1      34.495  19.043  24.630  1.00  0.00     0.015 A 
ATOM     25  C   UNL A   1      33.202  16.822  25.740  1.00  0.00     0.021 A 
ATOM     26  C   UNL A   1      35.008  17.762  24.420  1.00  0.00     0.021 A 
ATOM     27  C   UNL A   1      34.357  16.657  24.971  1.00  0.00     0.041 A 
ATOM     28  Cl  UNL A   1      34.977  15.076  24.695  1.00  0.00    -0.084 Cl
ENDBRANCH  20  22
ENDBRANCH  13  15
ENDBRANCH   8  13
BRANCH  12  29
ATOM     29  O   UNL A   1      30.654  28.152  21.630  1.00  0.00    -0.507 OA
ATOM     30  H   UNL A   1      29.958  28.775  21.552  1.00  0.00     0.293 HD
ENDBRANCH  12  29
ENDBRANCH   5   7
ENDBRANCH   4   5
ENDBRANCH   3   4
ENDBRANCH   2   3
ENDBRANCH   1   2
BRANCH   1  31
ATOM     31  C   UNL A   1      36.268  22.768  23.998  1.00  0.00     0.202 C 
BRANCH  31  32
ATOM     32  C   UNL A   1      37.160  21.552  24.288  1.00  0.00     0.261 C 
BRANCH  32  33
ATOM     33  O   UNL A   1      37.470  21.385  25.681  1.00  0.00    -0.460 OA
BRANCH  33  34
ATOM     34  C   UNL A   1      38.790  21.203  25.941  1.00  0.00     0.338 C 
ATOM     35  O   UNL A   1      39.484  20.264  25.588  1.00  0.00    -0.246 OA
BRANCH  34  36
ATOM     36  C   UNL A   1      39.347  22.413  26.573  1.00  0.00     0.060 A 
ATOM     37  C   UNL A   1      38.838  23.655  26.170  1.00  0.00     0.016 A 
ATOM     38  C   UNL A   1      40.404  22.340  27.481  1.00  0.00     0.016 A 
ATOM     39  C   UNL A   1      39.416  24.832  26.637  1.00  0.00     0.010 A 
ATOM     40  C   UNL A   1      40.987  23.524  27.944  1.00  0.00     0.010 A 
ATOM     41  C   UNL A   1      40.520  24.774  27.497  1.00  0.00    -0.014 A 
BRANCH  41  42
ATOM     42  C   UNL A   1      41.282  26.010  27.807  1.00  0.00     0.031 A 
ATOM     43  C   UNL A   1      40.601  27.107  28.582  1.00  0.00     0.074 A 
ATOM     44  C   UNL A   1      42.564  26.146  27.423  1.00  0.00     0.049 A 
ATOM     45  N   UNL A   1      41.037  28.300  28.892  1.00  0.00    -0.248 NA
ATOM     46  C   UNL A   1      39.242  26.817  29.064  1.00  0.00     0.031 C 
ATOM     47  C   UNL A   1      43.345  25.130  26.720  1.00  0.00     0.029 A 
ATOM     48  N   UNL A   1      43.432  27.200  27.565  1.00  0.00    -0.354 N 
ATOM     49  C   UNL A   1      40.003  28.911  29.593  1.00  0.00     0.074 A 
ATOM     50  C   UNL A   1      38.905  27.967  29.627  1.00  0.00     0.031 C 
ATOM     51  C   UNL A   1      44.576  25.614  26.484  1.00  0.00     0.029 A 
ATOM     52  C   UNL A   1      44.655  26.990  26.971  1.00  0.00     0.049 A 
ATOM     53  H   UNL A   1      43.202  28.027  28.046  1.00  0.00     0.167 HD
ATOM     54  C   UNL A   1      39.976  30.141  30.162  1.00  0.00     0.034 A 
ATOM     55  C   UNL A   1      45.702  27.824  26.810  1.00  0.00     0.034 A 
ATOM     56  C   UNL A   1      41.080  31.071  30.111  1.00  0.00     0.049 A 
ATOM     57  C   UNL A   1      45.614  29.227  27.365  1.00  0.00     0.074 A 
ATOM     58  C   UNL A   1      41.165  32.336  30.664  1.00  0.00     0.029 A 
ATOM     59  N   UNL A   1      42.285  30.842  29.459  1.00  0.00    -0.354 N 
ATOM     60  N   UNL A   1      44.629  29.796  28.024  1.00  0.00    -0.248 NA
ATOM     61  C   UNL A   1      46.780  30.097  27.162  1.00  0.00     0.031 C 
ATOM     62  C   UNL A   1      42.382  32.904  30.274  1.00  0.00     0.029 A 
ATOM     63  C   UNL A   1      43.102  31.958  29.562  1.00  0.00     0.049 A 
ATOM     64  H   UNL A   1      42.524  30.010  28.992  1.00  0.00     0.167 HD
ATOM     65  C   UNL A   1      45.077  31.076  28.347  1.00  0.00     0.074 A 
ATOM     66  C   UNL A   1      46.421  31.190  27.819  1.00  0.00     0.031 C 
ATOM     67  C   UNL A   1      44.440  32.064  29.027  1.00  0.00     0.034 A 
BRANCH  54  68
ATOM     68  C   UNL A   1      38.694  30.572  30.836  1.00  0.00     0.023 A 
ATOM     69  C   UNL A   1      37.646  31.181  30.123  1.00  0.00     0.031 A 
ATOM     70  C   UNL A   1      38.526  30.390  32.220  1.00  0.00     0.131 A 
ATOM     71  C   UNL A   1      36.514  31.651  30.806  1.00  0.00     0.055 A 
ATOM     72  C   UNL A   1      37.359  30.779  32.880  1.00  0.00     0.041 A 
ATOM     73  F   UNL A   1      39.500  29.838  32.960  1.00  0.00    -0.206 F 
ATOM     74  C   UNL A   1      36.350  31.428  32.175  1.00  0.00     0.022 A 
BRANCH  71  75
ATOM     75  S   UNL A   1      35.329  32.690  29.909  1.00  0.00     0.124 S 
ATOM     76  O   UNL A   1      36.175  33.803  29.484  1.00  0.00    -0.237 OA
ATOM     77  O   UNL A   1      34.865  31.799  28.851  1.00  0.00    -0.237 OA
ATOM     78  O   UNL A   1      34.333  33.027  30.923  1.00  0.00    -0.744 OA
ENDBRANCH  71  75
ENDBRANCH  54  68
BRANCH  55  79
ATOM     79  C   UNL A   1      46.911  27.383  26.055  1.00  0.00     0.023 A 
ATOM     80  C   UNL A   1      48.066  26.947  26.722  1.00  0.00     0.031 A 
ATOM     81  C   UNL A   1      46.950  27.452  24.650  1.00  0.00     0.131 A 
ATOM     82  C   UNL A   1      49.226  26.646  25.990  1.00  0.00     0.055 A 
ATOM     83  C   UNL A   1      48.086  27.090  23.922  1.00  0.00     0.041 A 
ATOM     84  F   UNL A   1      45.877  27.869  23.958  1.00  0.00    -0.206 F 
ATOM     85  C   UNL A   1      49.238  26.697  24.594  1.00  0.00     0.022 A 
BRANCH  82  86
ATOM     86  S   UNL A   1      50.756  26.289  26.897  1.00  0.00     0.124 S 
ATOM     87  O   UNL A   1      50.746  24.831  26.929  1.00  0.00    -0.237 OA
ATOM     88  O   UNL A   1      51.766  26.905  26.042  1.00  0.00    -0.237 OA
ATOM     89  O   UNL A   1      50.548  26.945  28.186  1.00  0.00    -0.744 OA
ENDBRANCH  82  86
ENDBRANCH  55  79
BRANCH  67  90
ATOM     90  C   UNL A   1      45.214  33.334  29.296  1.00  0.00     0.023 A 
ATOM     91  C   UNL A   1      46.002  33.502  30.448  1.00  0.00     0.031 A 
ATOM     92  C   UNL A   1      45.158  34.398  28.377  1.00  0.00     0.131 A 
ATOM     93  C   UNL A   1      46.654  34.723  30.679  1.00  0.00     0.055 A 
ATOM     94  C   UNL A   1      45.866  35.585  28.577  1.00  0.00     0.041 A 
ATOM     95  F   UNL A   1      44.418  34.301  27.261  1.00  0.00    -0.206 F 
ATOM     96  C   UNL A   1      46.609  35.757  29.741  1.00  0.00     0.022 A 
BRANCH  93  97
ATOM     97  S   UNL A   1      47.482  34.983  32.271  1.00  0.00     0.124 S 
ATOM     98  O   UNL A   1      46.798  34.020  33.129  1.00  0.00    -0.237 OA
ATOM     99  O   UNL A   1      48.874  34.678  31.955  1.00  0.00    -0.237 OA
ATOM    100  O   UNL A   1      47.210  36.387  32.576  1.00  0.00    -0.744 OA
ENDBRANCH  93  97
ENDBRANCH  67  90
ENDBRANCH  41  42
ENDBRANCH  34  36
ENDBRANCH  33  34
ENDBRANCH  32  33
ENDBRANCH  31  32
ENDBRANCH   1  31
TORSDOF 21
ENDMDL
