MODEL 1
REMARK VINA RESULT:     -10.8      0.000      0.000
REMARK SMILES O=C(OCCOCCOC(=O)[C@@H]1CCCC[C@H]1C(=O)Nc1ccc(NC(=O)c2ccco2)cc1)c1ccc(-c2c3nc(c(-c4cc(S(=O)(=O)[O-])ccc4F)c4ccc([nH]4)c(-c4cc(S(=O)(=O)[O-])ccc4F)c4nc(c(-c5cc(S(=O)(=O)[O-])ccc5F)c5ccc2[nH]5)C=C4)C=C3)cc1
REMARK SMILES IDX 7 1 6 2 5 3 4 4 3 5 2 6 1 7 35 8 36 9 97 10 37 11 96 12
REMARK SMILES IDX 38 13 39 14 40 15 90 16 41 17 95 18 89 19 91 20 42 21 94 22
REMARK SMILES IDX 88 23 87 24 43 26 75 27 55 28 74 29 56 30 59 31 73 32 92 33
REMARK SMILES IDX 57 34 58 35 72 37 93 38 60 39 44 40 45 41 53 42 46 43 52 44
REMARK SMILES IDX 54 45 51 46 47 47 48 48 49 49 50 50 76 51 77 52 85 53 78 54
REMARK SMILES IDX 84 55 86 56 83 57 79 58 80 59 81 60 82 61 61 62 62 63 70 64
REMARK SMILES IDX 63 65 69 66 71 67 68 68 64 69 65 70 66 71 67 72 8 73 9 74
REMARK SMILES IDX 10 75 11 76 12 77 13 78 17 79 14 80 16 81 15 82 18 83 19 84
REMARK SMILES IDX 20 85 21 87 22 88 34 89 23 90 33 91 24 92 25 93 26 94 27 96
REMARK SMILES IDX 28 97 29 98 32 99 30 100 31 101
REMARK H PARENT 91 25 59 36 20 86 25 95
REMARK Flexibility Score: inf
ROOT
ATOM      1  C   UNL A   1      36.627  22.008  25.510  1.00  0.00     0.202 C 
ENDROOT
BRANCH   1   2
ATOM      2  O   UNL A   1      37.905  21.431  25.228  1.00  0.00    -0.374 OA
BRANCH   2   3
ATOM      3  C   UNL A   1      37.903  20.029  24.963  1.00  0.00     0.202 C 
BRANCH   3   4
ATOM      4  C   UNL A   1      39.028  19.190  25.600  1.00  0.00     0.261 C 
BRANCH   4   5
ATOM      5  O   UNL A   1      40.224  19.956  25.818  1.00  0.00    -0.460 OA
BRANCH   5   6
ATOM      6  C   UNL A   1      40.739  20.371  27.000  1.00  0.00     0.338 C 
ATOM      7  O   UNL A   1      40.953  19.540  27.882  1.00  0.00    -0.246 OA
BRANCH   6   8
ATOM      8  C   UNL A   1      41.071  21.798  27.281  1.00  0.00     0.060 A 
ATOM      9  C   UNL A   1      40.626  22.875  26.516  1.00  0.00     0.016 A 
ATOM     10  C   UNL A   1      41.840  22.079  28.421  1.00  0.00     0.016 A 
ATOM     11  C   UNL A   1      40.970  24.173  26.801  1.00  0.00     0.010 A 
ATOM     12  C   UNL A   1      42.177  23.395  28.742  1.00  0.00     0.010 A 
ATOM     13  C   UNL A   1      41.752  24.435  27.911  1.00  0.00    -0.014 A 
BRANCH  13  14
ATOM     14  C   UNL A   1      42.226  25.813  28.036  1.00  0.00     0.031 A 
ATOM     15  C   UNL A   1      43.545  26.141  27.425  1.00  0.00     0.074 A 
ATOM     16  C   UNL A   1      41.377  26.752  28.485  1.00  0.00     0.049 A 
ATOM     17  N   UNL A   1      44.227  27.247  27.474  1.00  0.00    -0.248 NA
ATOM     18  C   UNL A   1      44.174  25.070  26.631  1.00  0.00     0.031 C 
ATOM     19  C   UNL A   1      39.987  26.506  28.884  1.00  0.00     0.029 A 
ATOM     20  N   UNL A   1      41.540  28.096  28.643  1.00  0.00    -0.354 N 
ATOM     21  C   UNL A   1      45.393  26.993  26.762  1.00  0.00     0.074 A 
ATOM     22  C   UNL A   1      45.313  25.636  26.273  1.00  0.00     0.031 C 
ATOM     23  C   UNL A   1      39.426  27.669  29.245  1.00  0.00     0.029 A 
ATOM     24  C   UNL A   1      40.443  28.711  29.196  1.00  0.00     0.049 A 
ATOM     25  H   UNL A   1      42.361  28.577  28.388  1.00  0.00     0.167 HD
ATOM     26  C   UNL A   1      46.440  27.831  26.578  1.00  0.00     0.034 A 
ATOM     27  C   UNL A   1      40.320  29.961  29.677  1.00  0.00     0.034 A 
ATOM     28  C   UNL A   1      46.450  29.162  27.133  1.00  0.00     0.049 A 
ATOM     29  C   UNL A   1      41.535  30.842  29.584  1.00  0.00     0.074 A 
ATOM     30  C   UNL A   1      47.473  30.088  27.175  1.00  0.00     0.029 A 
ATOM     31  N   UNL A   1      45.353  29.749  27.763  1.00  0.00    -0.354 N 
ATOM     32  N   UNL A   1      42.709  30.566  29.056  1.00  0.00    -0.248 NA
ATOM     33  C   UNL A   1      41.429  32.183  30.161  1.00  0.00     0.031 C 
ATOM     34  C   UNL A   1      47.009  31.210  27.877  1.00  0.00     0.029 A 
ATOM     35  C   UNL A   1      45.676  31.015  28.215  1.00  0.00     0.049 A 
ATOM     36  H   UNL A   1      44.472  29.323  27.871  1.00  0.00     0.167 HD
ATOM     37  C   UNL A   1      43.486  31.701  29.235  1.00  0.00     0.074 A 
ATOM     38  C   UNL A   1      42.636  32.671  29.907  1.00  0.00     0.031 C 
ATOM     39  C   UNL A   1      44.780  31.930  28.886  1.00  0.00     0.034 A 
BRANCH  26  40
ATOM     40  C   UNL A   1      47.656  27.243  25.905  1.00  0.00     0.023 A 
ATOM     41  C   UNL A   1      48.688  26.623  26.634  1.00  0.00     0.031 A 
ATOM     42  C   UNL A   1      47.866  27.465  24.532  1.00  0.00     0.131 A 
ATOM     43  C   UNL A   1      49.918  26.349  26.013  1.00  0.00     0.055 A 
ATOM     44  C   UNL A   1      49.060  27.109  23.900  1.00  0.00     0.041 A 
ATOM     45  F   UNL A   1      46.937  28.088  23.791  1.00  0.00    -0.206 F 
ATOM     46  C   UNL A   1      50.103  26.569  24.645  1.00  0.00     0.022 A 
BRANCH  43  47
ATOM     47  S   UNL A   1      51.339  25.905  27.054  1.00  0.00     0.124 S 
ATOM     48  O   UNL A   1      51.902  24.772  26.322  1.00  0.00    -0.237 OA
ATOM     49  O   UNL A   1      52.133  27.130  27.042  1.00  0.00    -0.237 OA
ATOM     50  O   UNL A   1      50.733  25.566  28.340  1.00  0.00    -0.744 OA
ENDBRANCH  43  47
ENDBRANCH  26  40
BRANCH  27  51
ATOM     51  C   UNL A   1      39.070  30.364  30.382  1.00  0.00     0.023 A 
ATOM     52  C   UNL A   1      38.113  31.193  29.780  1.00  0.00     0.031 A 
ATOM     53  C   UNL A   1      38.801  29.879  31.678  1.00  0.00     0.131 A 
ATOM     54  C   UNL A   1      36.933  31.513  30.475  1.00  0.00     0.055 A 
ATOM     55  C   UNL A   1      37.609  30.163  32.345  1.00  0.00     0.041 A 
ATOM     56  F   UNL A   1      39.682  29.082  32.302  1.00  0.00    -0.206 F 
ATOM     57  C   UNL A   1      36.668  30.990  31.744  1.00  0.00     0.022 A 
BRANCH  54  58
ATOM     58  S   UNL A   1      35.748  32.656  29.711  1.00  0.00     0.124 S 
ATOM     59  O   UNL A   1      36.549  33.247  28.646  1.00  0.00    -0.237 OA
ATOM     60  O   UNL A   1      34.684  31.752  29.289  1.00  0.00    -0.237 OA
ATOM     61  O   UNL A   1      35.396  33.562  30.803  1.00  0.00    -0.744 OA
ENDBRANCH  54  58
ENDBRANCH  27  51
BRANCH  39  62
ATOM     62  C   UNL A   1      45.316  33.297  29.196  1.00  0.00     0.023 A 
ATOM     63  C   UNL A   1      45.241  34.341  28.262  1.00  0.00     0.031 A 
ATOM     64  C   UNL A   1      45.882  33.555  30.455  1.00  0.00     0.131 A 
ATOM     65  C   UNL A   1      45.760  35.599  28.591  1.00  0.00     0.055 A 
ATOM     66  C   UNL A   1      46.356  34.819  30.794  1.00  0.00     0.041 A 
ATOM     67  F   UNL A   1      45.969  32.581  31.377  1.00  0.00    -0.206 F 
ATOM     68  C   UNL A   1      46.303  35.848  29.856  1.00  0.00     0.022 A 
BRANCH  65  69
ATOM     69  S   UNL A   1      45.758  36.898  27.329  1.00  0.00     0.124 S 
ATOM     70  O   UNL A   1      46.229  38.054  28.085  1.00  0.00    -0.237 OA
ATOM     71  O   UNL A   1      46.682  36.370  26.331  1.00  0.00    -0.237 OA
ATOM     72  O   UNL A   1      44.360  36.961  26.905  1.00  0.00    -0.744 OA
ENDBRANCH  65  69
ENDBRANCH  39  62
ENDBRANCH  13  14
ENDBRANCH   6   8
ENDBRANCH   5   6
ENDBRANCH   4   5
ENDBRANCH   3   4
ENDBRANCH   2   3
ENDBRANCH   1   2
BRANCH   1  73
ATOM     73  C   UNL A   1      36.755  23.497  25.813  1.00  0.00     0.261 C 
BRANCH  73  74
ATOM     74  O   UNL A   1      35.443  24.079  25.948  1.00  0.00    -0.463 OA
BRANCH  74  75
ATOM     75  C   UNL A   1      34.835  24.464  24.801  1.00  0.00     0.309 C 
ATOM     76  O   UNL A   1      35.399  24.776  23.760  1.00  0.00    -0.252 OA
BRANCH  75  77
ATOM     77  C   UNL A   1      33.332  24.522  24.955  1.00  0.00     0.111 C 
ATOM     78  C   UNL A   1      32.996  24.197  26.414  1.00  0.00     0.016 C 
ATOM     79  C   UNL A   1      32.539  23.659  23.959  1.00  0.00     0.093 C 
ATOM     80  C   UNL A   1      31.495  24.306  26.651  1.00  0.00     0.001 C 
ATOM     81  C   UNL A   1      31.034  23.681  24.259  1.00  0.00     0.014 C 
ATOM     82  C   UNL A   1      30.738  23.367  25.721  1.00  0.00     0.001 C 
BRANCH  79  83
ATOM     83  C   UNL A   1      32.706  23.815  22.440  1.00  0.00     0.228 C 
ATOM     84  O   UNL A   1      33.006  22.806  21.785  1.00  0.00    -0.274 OA
ATOM     85  N   UNL A   1      32.396  24.916  21.698  1.00  0.00    -0.326 N 
ATOM     86  H   UNL A   1      32.381  24.739  20.730  1.00  0.00     0.169 HD
BRANCH  85  87
ATOM     87  C   UNL A   1      32.097  26.240  22.019  1.00  0.00     0.041 A 
ATOM     88  C   UNL A   1      30.761  26.625  21.993  1.00  0.00     0.028 A 
ATOM     89  C   UNL A   1      33.048  27.207  22.299  1.00  0.00     0.028 A 
ATOM     90  C   UNL A   1      30.380  27.860  22.526  1.00  0.00     0.028 A 
ATOM     91  C   UNL A   1      32.671  28.419  22.880  1.00  0.00     0.028 A 
ATOM     92  C   UNL A   1      31.324  28.699  23.109  1.00  0.00     0.041 A 
BRANCH  92  93
ATOM     93  N   UNL A   1      31.038  29.792  23.945  1.00  0.00    -0.319 N 
ATOM     94  C   UNL A   1      31.483  30.155  25.202  1.00  0.00     0.291 C 
ATOM     95  H   UNL A   1      30.391  30.426  23.558  1.00  0.00     0.170 HD
ATOM     96  O   UNL A   1      31.063  31.223  25.657  1.00  0.00    -0.265 OA
BRANCH  94  97
ATOM     97  C   UNL A   1      32.428  29.334  25.916  1.00  0.00     0.191 A 
ATOM     98  C   UNL A   1      32.347  28.069  26.475  1.00  0.00     0.056 A 
ATOM     99  O   UNL A   1      33.677  29.847  26.135  1.00  0.00    -0.459 OA
ATOM    100  C   UNL A   1      33.588  27.832  27.120  1.00  0.00     0.043 A 
ATOM    101  C   UNL A   1      34.363  28.941  26.876  1.00  0.00     0.196 A 
ENDBRANCH  94  97
ENDBRANCH  92  93
ENDBRANCH  85  87
ENDBRANCH  79  83
ENDBRANCH  75  77
ENDBRANCH  74  75
ENDBRANCH  73  74
ENDBRANCH   1  73
TORSDOF 21
ENDMDL
MODEL 2
REMARK VINA RESULT:     -10.7      1.995      4.093
REMARK SMILES O=C(OCCOCCOC(=O)[C@@H]1CCCC[C@H]1C(=O)Nc1ccc(NC(=O)c2ccco2)cc1)c1ccc(-c2c3nc(c(-c4cc(S(=O)(=O)[O-])ccc4F)c4ccc([nH]4)c(-c4cc(S(=O)(=O)[O-])ccc4F)c4nc(c(-c5cc(S(=O)(=O)[O-])ccc5F)c5ccc2[nH]5)C=C4)C=C3)cc1
REMARK SMILES IDX 7 1 6 2 5 3 4 4 3 5 2 6 1 7 35 8 36 9 97 10 37 11 96 12
REMARK SMILES IDX 38 13 39 14 40 15 90 16 41 17 95 18 89 19 91 20 42 21 94 22
REMARK SMILES IDX 88 23 87 24 43 26 75 27 55 28 74 29 56 30 59 31 73 32 92 33
REMARK SMILES IDX 57 34 58 35 72 37 93 38 60 39 44 40 45 41 53 42 46 43 52 44
REMARK SMILES IDX 54 45 51 46 47 47 48 48 49 49 50 50 76 51 77 52 85 53 78 54
REMARK SMILES IDX 84 55 86 56 83 57 79 58 80 59 81 60 82 61 61 62 62 63 70 64
REMARK SMILES IDX 63 65 69 66 71 67 68 68 64 69 65 70 66 71 67 72 8 73 9 74
REMARK SMILES IDX 10 75 11 76 12 77 13 78 17 79 14 80 16 81 15 82 18 83 19 84
REMARK SMILES IDX 20 85 21 87 22 88 34 89 23 90 33 91 24 92 25 93 26 94 27 96
REMARK SMILES IDX 28 97 29 98 32 99 30 100 31 101
REMARK H PARENT 91 25 59 36 20 86 25 95
REMARK Flexibility Score: inf
ROOT
ATOM      1  C   UNL A   1      34.972  22.987  24.100  1.00  0.00     0.202 C 
ENDROOT
BRANCH   1   2
ATOM      2  O   UNL A   1      35.365  22.549  25.402  1.00  0.00    -0.374 OA
BRANCH   2   3
ATOM      3  C   UNL A   1      36.759  22.295  25.572  1.00  0.00     0.202 C 
BRANCH   3   4
ATOM      4  C   UNL A   1      37.236  20.840  25.402  1.00  0.00     0.261 C 
BRANCH   4   5
ATOM      5  O   UNL A   1      38.665  20.742  25.300  1.00  0.00    -0.460 OA
BRANCH   5   6
ATOM      6  C   UNL A   1      39.580  20.908  26.286  1.00  0.00     0.338 C 
ATOM      7  O   UNL A   1      40.063  19.914  26.826  1.00  0.00    -0.246 OA
BRANCH   6   8
ATOM      8  C   UNL A   1      40.040  22.253  26.743  1.00  0.00     0.060 A 
ATOM      9  C   UNL A   1      39.597  23.460  26.206  1.00  0.00     0.016 A 
ATOM     10  C   UNL A   1      40.940  22.305  27.819  1.00  0.00     0.016 A 
ATOM     11  C   UNL A   1      40.060  24.675  26.647  1.00  0.00     0.010 A 
ATOM     12  C   UNL A   1      41.401  23.532  28.298  1.00  0.00     0.010 A 
ATOM     13  C   UNL A   1      40.968  24.714  27.689  1.00  0.00    -0.014 A 
BRANCH  13  14
ATOM     14  C   UNL A   1      41.549  26.025  27.969  1.00  0.00     0.031 A 
ATOM     15  C   UNL A   1      42.897  26.312  27.402  1.00  0.00     0.074 A 
ATOM     16  C   UNL A   1      40.774  26.974  28.519  1.00  0.00     0.049 A 
ATOM     17  N   UNL A   1      43.665  27.347  27.577  1.00  0.00    -0.248 NA
ATOM     18  C   UNL A   1      43.448  25.290  26.494  1.00  0.00     0.031 C 
ATOM     19  C   UNL A   1      39.364  26.798  28.885  1.00  0.00     0.029 A 
ATOM     20  N   UNL A   1      41.041  28.274  28.828  1.00  0.00    -0.354 N 
ATOM     21  C   UNL A   1      44.815  27.082  26.844  1.00  0.00     0.074 A 
ATOM     22  C   UNL A   1      44.633  25.799  26.204  1.00  0.00     0.031 C 
ATOM     23  C   UNL A   1      38.893  27.955  29.374  1.00  0.00     0.029 A 
ATOM     24  C   UNL A   1      39.992  28.910  29.444  1.00  0.00     0.049 A 
ATOM     25  H   UNL A   1      41.901  28.713  28.631  1.00  0.00     0.167 HD
ATOM     26  C   UNL A   1      45.928  27.847  26.757  1.00  0.00     0.034 A 
ATOM     27  C   UNL A   1      39.963  30.104  30.063  1.00  0.00     0.034 A 
ATOM     28  C   UNL A   1      46.038  29.102  27.458  1.00  0.00     0.049 A 
ATOM     29  C   UNL A   1      41.246  30.889  30.072  1.00  0.00     0.074 A 
ATOM     30  C   UNL A   1      47.131  29.932  27.607  1.00  0.00     0.029 A 
ATOM     31  N   UNL A   1      44.984  29.702  28.148  1.00  0.00    -0.354 N 
ATOM     32  N   UNL A   1      42.400  30.580  29.519  1.00  0.00    -0.248 NA
ATOM     33  C   UNL A   1      41.241  32.161  30.797  1.00  0.00     0.031 C 
ATOM     34  C   UNL A   1      46.751  31.002  28.429  1.00  0.00     0.029 A 
ATOM     35  C   UNL A   1      45.403  30.879  28.741  1.00  0.00     0.049 A 
ATOM     36  H   UNL A   1      44.071  29.339  28.206  1.00  0.00     0.167 HD
ATOM     37  C   UNL A   1      43.263  31.622  29.827  1.00  0.00     0.074 A 
ATOM     38  C   UNL A   1      42.486  32.575  30.602  1.00  0.00     0.031 C 
ATOM     39  C   UNL A   1      44.575  31.782  29.508  1.00  0.00     0.034 A 
BRANCH  26  40
ATOM     40  C   UNL A   1      47.100  27.242  26.025  1.00  0.00     0.023 A 
ATOM     41  C   UNL A   1      48.081  26.478  26.685  1.00  0.00     0.031 A 
ATOM     42  C   UNL A   1      47.332  27.585  24.680  1.00  0.00     0.131 A 
ATOM     43  C   UNL A   1      49.290  26.179  26.035  1.00  0.00     0.055 A 
ATOM     44  C   UNL A   1      48.499  27.207  24.012  1.00  0.00     0.041 A 
ATOM     45  F   UNL A   1      46.454  28.346  24.008  1.00  0.00    -0.206 F 
ATOM     46  C   UNL A   1      49.497  26.520  24.696  1.00  0.00     0.022 A 
BRANCH  43  47
ATOM     47  S   UNL A   1      50.671  25.530  27.022  1.00  0.00     0.124 S 
ATOM     48  O   UNL A   1      50.055  24.374  27.671  1.00  0.00    -0.237 OA
ATOM     49  O   UNL A   1      51.673  25.233  26.005  1.00  0.00    -0.237 OA
ATOM     50  O   UNL A   1      51.001  26.634  27.921  1.00  0.00    -0.744 OA
ENDBRANCH  43  47
ENDBRANCH  26  40
BRANCH  27  51
ATOM     51  C   UNL A   1      38.742  30.525  30.807  1.00  0.00     0.023 A 
ATOM     52  C   UNL A   1      37.709  31.244  30.190  1.00  0.00     0.031 A 
ATOM     53  C   UNL A   1      38.579  30.168  32.160  1.00  0.00     0.131 A 
ATOM     54  C   UNL A   1      36.561  31.585  30.926  1.00  0.00     0.055 A 
ATOM     55  C   UNL A   1      37.418  30.469  32.874  1.00  0.00     0.041 A 
ATOM     56  F   UNL A   1      39.536  29.478  32.801  1.00  0.00    -0.206 F 
ATOM     57  C   UNL A   1      36.402  31.187  32.257  1.00  0.00     0.022 A 
BRANCH  54  58
ATOM     58  S   UNL A   1      35.275  32.590  30.132  1.00  0.00     0.124 S 
ATOM     59  O   UNL A   1      34.833  31.711  29.055  1.00  0.00    -0.237 OA
ATOM     60  O   UNL A   1      34.330  32.793  31.225  1.00  0.00    -0.237 OA
ATOM     61  O   UNL A   1      35.995  33.788  29.704  1.00  0.00    -0.744 OA
ENDBRANCH  54  58
ENDBRANCH  27  51
BRANCH  39  62
ATOM     62  C   UNL A   1      45.215  33.058  29.973  1.00  0.00     0.023 A 
ATOM     63  C   UNL A   1      45.208  34.212  29.174  1.00  0.00     0.031 A 
ATOM     64  C   UNL A   1      45.813  33.117  31.241  1.00  0.00     0.131 A 
ATOM     65  C   UNL A   1      45.824  35.379  29.643  1.00  0.00     0.055 A 
ATOM     66  C   UNL A   1      46.384  34.293  31.722  1.00  0.00     0.041 A 
ATOM     67  F   UNL A   1      45.837  32.034  32.036  1.00  0.00    -0.206 F 
ATOM     68  C   UNL A   1      46.398  35.430  30.918  1.00  0.00     0.022 A 
BRANCH  65  69
ATOM     69  S   UNL A   1      45.903  36.820  28.549  1.00  0.00     0.124 S 
ATOM     70  O   UNL A   1      45.229  37.841  29.346  1.00  0.00    -0.237 OA
ATOM     71  O   UNL A   1      47.340  36.999  28.367  1.00  0.00    -0.237 OA
ATOM     72  O   UNL A   1      45.178  36.385  27.356  1.00  0.00    -0.744 OA
ENDBRANCH  65  69
ENDBRANCH  39  62
ENDBRANCH  13  14
ENDBRANCH   6   8
ENDBRANCH   5   6
ENDBRANCH   4   5
ENDBRANCH   3   4
ENDBRANCH   2   3
ENDBRANCH   1   2
BRANCH   1  73
ATOM     73  C   UNL A   1      34.810  24.504  24.059  1.00  0.00     0.261 C 
BRANCH  73  74
ATOM     74  O   UNL A   1      34.253  24.966  25.305  1.00  0.00    -0.463 OA
BRANCH  74  75
ATOM     75  C   UNL A   1      33.632  26.170  25.276  1.00  0.00     0.309 C 
ATOM     76  O   UNL A   1      33.860  27.113  26.022  1.00  0.00    -0.252 OA
BRANCH  75  77
ATOM     77  C   UNL A   1      32.550  26.217  24.221  1.00  0.00     0.111 C 
ATOM     78  C   UNL A   1      32.922  27.309  23.213  1.00  0.00     0.016 C 
ATOM     79  C   UNL A   1      31.118  26.371  24.759  1.00  0.00     0.093 C 
ATOM     80  C   UNL A   1      31.902  27.361  22.083  1.00  0.00     0.001 C 
ATOM     81  C   UNL A   1      30.096  26.530  23.624  1.00  0.00     0.014 C 
ATOM     82  C   UNL A   1      30.506  27.615  22.635  1.00  0.00     0.001 C 
BRANCH  79  83
ATOM     83  C   UNL A   1      30.523  25.385  25.775  1.00  0.00     0.228 C 
ATOM     84  O   UNL A   1      29.880  25.853  26.726  1.00  0.00    -0.274 OA
ATOM     85  N   UNL A   1      30.481  24.027  25.660  1.00  0.00    -0.326 N 
ATOM     86  H   UNL A   1      29.879  23.601  26.311  1.00  0.00     0.169 HD
BRANCH  85  87
ATOM     87  C   UNL A   1      31.111  23.113  24.815  1.00  0.00     0.041 A 
ATOM     88  C   UNL A   1      31.687  21.988  25.395  1.00  0.00     0.028 A 
ATOM     89  C   UNL A   1      31.253  23.286  23.449  1.00  0.00     0.028 A 
ATOM     90  C   UNL A   1      32.121  20.932  24.588  1.00  0.00     0.028 A 
ATOM     91  C   UNL A   1      31.637  22.215  22.638  1.00  0.00     0.028 A 
ATOM     92  C   UNL A   1      31.958  20.984  23.208  1.00  0.00     0.041 A 
BRANCH  92  93
ATOM     93  N   UNL A   1      32.054  19.887  22.334  1.00  0.00    -0.319 N 
ATOM     94  C   UNL A   1      32.440  18.573  22.516  1.00  0.00     0.291 C 
ATOM     95  H   UNL A   1      31.794  20.097  21.408  1.00  0.00     0.170 HD
ATOM     96  O   UNL A   1      32.372  17.829  21.533  1.00  0.00    -0.265 OA
BRANCH  94  97
ATOM     97  C   UNL A   1      32.859  18.098  23.810  1.00  0.00     0.191 A 
ATOM     98  C   UNL A   1      34.102  17.908  24.390  1.00  0.00     0.056 A 
ATOM     99  O   UNL A   1      31.884  17.731  24.698  1.00  0.00    -0.459 OA
ATOM    100  C   UNL A   1      33.870  17.336  25.667  1.00  0.00     0.043 A 
ATOM    101  C   UNL A   1      32.505  17.257  25.807  1.00  0.00     0.196 A 
ENDBRANCH  94  97
ENDBRANCH  92  93
ENDBRANCH  85  87
ENDBRANCH  79  83
ENDBRANCH  75  77
ENDBRANCH  74  75
ENDBRANCH  73  74
ENDBRANCH   1  73
TORSDOF 21
ENDMDL
MODEL 3
REMARK VINA RESULT:     -10.6      1.600      2.527
REMARK SMILES O=C(OCCOCCOC(=O)[C@@H]1CCCC[C@H]1C(=O)Nc1ccc(NC(=O)c2ccco2)cc1)c1ccc(-c2c3nc(c(-c4cc(S(=O)(=O)[O-])ccc4F)c4ccc([nH]4)c(-c4cc(S(=O)(=O)[O-])ccc4F)c4nc(c(-c5cc(S(=O)(=O)[O-])ccc5F)c5ccc2[nH]5)C=C4)C=C3)cc1
REMARK SMILES IDX 7 1 6 2 5 3 4 4 3 5 2 6 1 7 35 8 36 9 97 10 37 11 96 12
REMARK SMILES IDX 38 13 39 14 40 15 90 16 41 17 95 18 89 19 91 20 42 21 94 22
REMARK SMILES IDX 88 23 87 24 43 26 75 27 55 28 74 29 56 30 59 31 73 32 92 33
REMARK SMILES IDX 57 34 58 35 72 37 93 38 60 39 44 40 45 41 53 42 46 43 52 44
REMARK SMILES IDX 54 45 51 46 47 47 48 48 49 49 50 50 76 51 77 52 85 53 78 54
REMARK SMILES IDX 84 55 86 56 83 57 79 58 80 59 81 60 82 61 61 62 62 63 70 64
REMARK SMILES IDX 63 65 69 66 71 67 68 68 64 69 65 70 66 71 67 72 8 73 9 74
REMARK SMILES IDX 10 75 11 76 12 77 13 78 17 79 14 80 16 81 15 82 18 83 19 84
REMARK SMILES IDX 20 85 21 87 22 88 34 89 23 90 33 91 24 92 25 93 26 94 27 96
REMARK SMILES IDX 28 97 29 98 32 99 30 100 31 101
REMARK H PARENT 91 25 59 36 20 86 25 95
REMARK Flexibility Score: inf
ROOT
ATOM      1  C   UNL A   1      36.162  21.009  25.148  1.00  0.00     0.202 C 
ENDROOT
BRANCH   1   2
ATOM      2  O   UNL A   1      36.741  19.711  25.000  1.00  0.00    -0.374 OA
BRANCH   2   3
ATOM      3  C   UNL A   1      38.127  19.690  24.661  1.00  0.00     0.202 C 
BRANCH   3   4
ATOM      4  C   UNL A   1      39.123  20.156  25.741  1.00  0.00     0.261 C 
BRANCH   4   5
ATOM      5  O   UNL A   1      40.172  19.200  25.966  1.00  0.00    -0.460 OA
BRANCH   5   6
ATOM      6  C   UNL A   1      41.488  19.447  26.172  1.00  0.00     0.338 C 
ATOM      7  O   UNL A   1      42.282  18.508  26.151  1.00  0.00    -0.246 OA
BRANCH   6   8
ATOM      8  C   UNL A   1      42.024  20.819  26.416  1.00  0.00     0.060 A 
ATOM      9  C   UNL A   1      42.305  21.341  27.677  1.00  0.00     0.016 A 
ATOM     10  C   UNL A   1      42.314  21.616  25.297  1.00  0.00     0.016 A 
ATOM     11  C   UNL A   1      42.782  22.616  27.856  1.00  0.00     0.010 A 
ATOM     12  C   UNL A   1      42.824  22.905  25.459  1.00  0.00     0.010 A 
ATOM     13  C   UNL A   1      43.037  23.403  26.747  1.00  0.00    -0.014 A 
BRANCH  13  14
ATOM     14  C   UNL A   1      43.361  24.800  27.029  1.00  0.00     0.031 A 
ATOM     15  C   UNL A   1      44.680  25.306  26.553  1.00  0.00     0.074 A 
ATOM     16  C   UNL A   1      42.395  25.609  27.492  1.00  0.00     0.049 A 
ATOM     17  N   UNL A   1      45.244  26.461  26.752  1.00  0.00    -0.248 NA
ATOM     18  C   UNL A   1      45.466  24.379  25.719  1.00  0.00     0.031 C 
ATOM     19  C   UNL A   1      41.012  25.199  27.759  1.00  0.00     0.029 A 
ATOM     20  N   UNL A   1      42.412  26.941  27.780  1.00  0.00    -0.354 N 
ATOM     21  C   UNL A   1      46.475  26.386  26.113  1.00  0.00     0.074 A 
ATOM     22  C   UNL A   1      46.565  25.080  25.501  1.00  0.00     0.031 C 
ATOM     23  C   UNL A   1      40.314  26.266  28.177  1.00  0.00     0.029 A 
ATOM     24  C   UNL A   1      41.224  27.397  28.298  1.00  0.00     0.049 A 
ATOM     25  H   UNL A   1      43.196  27.519  27.633  1.00  0.00     0.167 HD
ATOM     26  C   UNL A   1      47.444  27.330  26.085  1.00  0.00     0.034 A 
ATOM     27  C   UNL A   1      40.945  28.579  28.877  1.00  0.00     0.034 A 
ATOM     28  C   UNL A   1      47.284  28.598  26.754  1.00  0.00     0.049 A 
ATOM     29  C   UNL A   1      42.069  29.574  28.956  1.00  0.00     0.074 A 
ATOM     30  C   UNL A   1      48.203  29.607  26.957  1.00  0.00     0.029 A 
ATOM     31  N   UNL A   1      46.092  29.018  27.347  1.00  0.00    -0.354 N 
ATOM     32  N   UNL A   1      43.298  29.459  28.498  1.00  0.00    -0.248 NA
ATOM     33  C   UNL A   1      41.791  30.838  29.640  1.00  0.00     0.031 C 
ATOM     34  C   UNL A   1      47.584  30.609  27.717  1.00  0.00     0.029 A 
ATOM     35  C   UNL A   1      46.257  30.259  27.932  1.00  0.00     0.049 A 
ATOM     36  H   UNL A   1      45.253  28.504  27.348  1.00  0.00     0.167 HD
ATOM     37  C   UNL A   1      43.944  30.640  28.836  1.00  0.00     0.074 A 
ATOM     38  C   UNL A   1      42.958  31.458  29.524  1.00  0.00     0.031 C 
ATOM     39  C   UNL A   1      45.230  31.019  28.610  1.00  0.00     0.034 A 
BRANCH  26  40
ATOM     40  C   UNL A   1      48.755  26.925  25.459  1.00  0.00     0.023 A 
ATOM     41  C   UNL A   1      49.812  26.387  26.218  1.00  0.00     0.031 A 
ATOM     42  C   UNL A   1      49.013  27.247  24.114  1.00  0.00     0.131 A 
ATOM     43  C   UNL A   1      51.098  26.292  25.660  1.00  0.00     0.055 A 
ATOM     44  C   UNL A   1      50.273  27.066  23.539  1.00  0.00     0.041 A 
ATOM     45  F   UNL A   1      48.059  27.800  23.349  1.00  0.00    -0.206 F 
ATOM     46  C   UNL A   1      51.330  26.608  24.319  1.00  0.00     0.022 A 
BRANCH  43  47
ATOM     47  S   UNL A   1      52.502  25.956  26.762  1.00  0.00     0.124 S 
ATOM     48  O   UNL A   1      51.840  25.834  28.059  1.00  0.00    -0.237 OA
ATOM     49  O   UNL A   1      53.051  24.723  26.207  1.00  0.00    -0.237 OA
ATOM     50  O   UNL A   1      53.348  27.139  26.613  1.00  0.00    -0.744 OA
ENDBRANCH  43  47
ENDBRANCH  26  40
BRANCH  27  51
ATOM     51  C   UNL A   1      39.615  28.795  29.516  1.00  0.00     0.023 A 
ATOM     52  C   UNL A   1      38.551  29.398  28.831  1.00  0.00     0.031 A 
ATOM     53  C   UNL A   1      39.384  28.354  30.835  1.00  0.00     0.131 A 
ATOM     54  C   UNL A   1      37.306  29.544  29.467  1.00  0.00     0.055 A 
ATOM     55  C   UNL A   1      38.134  28.462  31.446  1.00  0.00     0.041 A 
ATOM     56  F   UNL A   1      40.367  27.770  31.539  1.00  0.00    -0.206 F 
ATOM     57  C   UNL A   1      37.086  29.065  30.762  1.00  0.00     0.022 A 
BRANCH  54  58
ATOM     58  S   UNL A   1      35.969  30.404  28.591  1.00  0.00     0.124 S 
ATOM     59  O   UNL A   1      35.416  31.247  29.645  1.00  0.00    -0.237 OA
ATOM     60  O   UNL A   1      36.696  31.094  27.531  1.00  0.00    -0.237 OA
ATOM     61  O   UNL A   1      35.101  29.317  28.141  1.00  0.00    -0.744 OA
ENDBRANCH  54  58
ENDBRANCH  27  51
BRANCH  39  62
ATOM     62  C   UNL A   1      45.604  32.394  29.080  1.00  0.00     0.023 A 
ATOM     63  C   UNL A   1      45.445  33.518  28.254  1.00  0.00     0.031 A 
ATOM     64  C   UNL A   1      46.100  32.575  30.381  1.00  0.00     0.131 A 
ATOM     65  C   UNL A   1      45.815  34.781  28.732  1.00  0.00     0.055 A 
ATOM     66  C   UNL A   1      46.423  33.840  30.867  1.00  0.00     0.041 A 
ATOM     67  F   UNL A   1      46.263  31.525  31.203  1.00  0.00    -0.206 F 
ATOM     68  C   UNL A   1      46.288  34.951  30.037  1.00  0.00     0.022 A 
BRANCH  65  69
ATOM     69  S   UNL A   1      45.711  36.199  27.609  1.00  0.00     0.124 S 
ATOM     70  O   UNL A   1      46.897  36.014  26.779  1.00  0.00    -0.237 OA
ATOM     71  O   UNL A   1      44.429  35.983  26.946  1.00  0.00    -0.237 OA
ATOM     72  O   UNL A   1      45.755  37.351  28.508  1.00  0.00    -0.744 OA
ENDBRANCH  65  69
ENDBRANCH  39  62
ENDBRANCH  13  14
ENDBRANCH   6   8
ENDBRANCH   5   6
ENDBRANCH   4   5
ENDBRANCH   3   4
ENDBRANCH   2   3
ENDBRANCH   1   2
BRANCH   1  73
ATOM     73  C   UNL A   1      34.702  21.010  24.705  1.00  0.00     0.261 C 
BRANCH  73  74
ATOM     74  O   UNL A   1      34.479  22.086  23.773  1.00  0.00    -0.463 OA
BRANCH  74  75
ATOM     75  C   UNL A   1      33.194  22.485  23.612  1.00  0.00     0.309 C 
ATOM     76  O   UNL A   1      32.633  22.682  22.542  1.00  0.00    -0.252 OA
BRANCH  75  77
ATOM     77  C   UNL A   1      32.509  22.721  24.940  1.00  0.00     0.111 C 
ATOM     78  C   UNL A   1      31.041  22.309  24.792  1.00  0.00     0.016 C 
ATOM     79  C   UNL A   1      32.672  24.137  25.517  1.00  0.00     0.093 C 
ATOM     80  C   UNL A   1      30.310  22.460  26.120  1.00  0.00     0.001 C 
ATOM     81  C   UNL A   1      31.851  24.327  26.801  1.00  0.00     0.014 C 
ATOM     82  C   UNL A   1      30.401  23.895  26.620  1.00  0.00     0.001 C 
BRANCH  79  83
ATOM     83  C   UNL A   1      34.055  24.759  25.761  1.00  0.00     0.228 C 
ATOM     84  O   UNL A   1      34.850  24.136  26.479  1.00  0.00    -0.274 OA
ATOM     85  N   UNL A   1      34.575  25.853  25.135  1.00  0.00    -0.326 N 
ATOM     86  H   UNL A   1      35.542  25.960  25.281  1.00  0.00     0.169 HD
BRANCH  85  87
ATOM     87  C   UNL A   1      34.027  26.853  24.331  1.00  0.00     0.041 A 
ATOM     88  C   UNL A   1      33.837  26.568  22.983  1.00  0.00     0.028 A 
ATOM     89  C   UNL A   1      33.720  28.128  24.775  1.00  0.00     0.028 A 
ATOM     90  C   UNL A   1      33.085  27.434  22.185  1.00  0.00     0.028 A 
ATOM     91  C   UNL A   1      32.924  28.973  24.000  1.00  0.00     0.028 A 
ATOM     92  C   UNL A   1      32.499  28.570  22.734  1.00  0.00     0.041 A 
BRANCH  92  93
ATOM     93  N   UNL A   1      31.481  29.333  22.135  1.00  0.00    -0.319 N 
ATOM     94  C   UNL A   1      30.103  29.243  22.160  1.00  0.00     0.291 C 
ATOM     95  H   UNL A   1      31.818  30.080  21.590  1.00  0.00     0.170 HD
ATOM     96  O   UNL A   1      29.475  30.113  21.549  1.00  0.00    -0.265 OA
BRANCH  94  97
ATOM     97  C   UNL A   1      29.444  28.201  22.906  1.00  0.00     0.191 A 
ATOM     98  C   UNL A   1      29.896  27.033  23.498  1.00  0.00     0.056 A 
ATOM     99  O   UNL A   1      28.094  28.315  23.100  1.00  0.00    -0.459 OA
ATOM    100  C   UNL A   1      28.752  26.375  24.019  1.00  0.00     0.043 A 
ATOM    101  C   UNL A   1      27.684  27.200  23.757  1.00  0.00     0.196 A 
ENDBRANCH  94  97
ENDBRANCH  92  93
ENDBRANCH  85  87
ENDBRANCH  79  83
ENDBRANCH  75  77
ENDBRANCH  74  75
ENDBRANCH  73  74
ENDBRANCH   1  73
TORSDOF 21
ENDMDL
