MODEL 1
REMARK VINA RESULT:     -12.2      0.000      0.000
REMARK SMILES O=C(OCCOCCOC(=O)c1ccc(-c2c3nc(c(-c4cc(S(=O)(=O)[O-])ccc4F)c4ccc([nH]4)c(-c4cc(S(=O)(=O)[O-])ccc4F)c4nc(c(-c5cc(S(=O)(=O)[O-])ccc5F)c5ccc2[nH]5)C=C4)C=C3)cc1)C1=Cc2cc(Cl)cc(C#Cc3ccccc3)c2O[C@@H]1C(F)(F)F
REMARK SMILES IDX 7 1 6 2 5 3 4 4 3 5 2 6 1 7 75 8 76 9 93 10 77 11 92 12
REMARK SMILES IDX 78 13 91 14 79 15 82 16 80 17 81 18 94 19 95 20 96 21 97 22
REMARK SMILES IDX 83 23 84 24 85 25 86 26 90 27 87 28 89 29 88 30 8 31 9 32
REMARK SMILES IDX 10 33 11 34 12 35 13 36 74 37 14 38 73 39 15 40 16 41 17 42
REMARK SMILES IDX 67 43 18 44 72 45 66 46 68 47 19 48 71 49 65 50 64 51 20 53
REMARK SMILES IDX 52 54 32 55 51 56 33 57 36 58 50 59 69 60 34 61 35 62 49 64
REMARK SMILES IDX 70 65 37 66 21 67 22 68 30 69 23 70 29 71 31 72 28 73 24 74
REMARK SMILES IDX 25 75 26 76 27 77 53 78 54 79 62 80 55 81 61 82 63 83 60 84
REMARK SMILES IDX 56 85 57 86 58 87 59 88 38 89 39 90 47 91 40 92 46 93 48 94
REMARK SMILES IDX 45 95 41 96 42 97 43 98 44 99
REMARK H PARENT 68 52 36 63
REMARK Flexibility Score: inf
ROOT
ATOM      1  C   UNL A   1      35.208  22.346  26.678  1.00  0.00     0.202 C 
ENDROOT
BRANCH   1   2
ATOM      2  O   UNL A   1      33.887  21.887  26.977  1.00  0.00    -0.374 OA
BRANCH   2   3
ATOM      3  C   UNL A   1      32.683  22.594  27.651  1.00  0.00     0.202 C 
BRANCH   3   4
ATOM      4  C   UNL A   1      31.008  23.710  26.816  1.00  0.00     0.261 C 
BRANCH   4   5
ATOM      5  O   UNL A   1      30.650  23.879  25.330  1.00  0.00    -0.460 OA
BRANCH   5   6
ATOM      6  C   UNL A   1      31.018  22.834  24.585  1.00  0.00     0.338 C 
ATOM      7  O   UNL A   1      31.225  21.693  24.909  1.00  0.00    -0.246 OA
BRANCH   6   8
ATOM      8  C   UNL A   1      31.411  23.609  23.428  1.00  0.00     0.087 C 
ATOM      9  C   UNL A   1      30.400  24.678  23.157  1.00  0.00     0.027 C 
ATOM     10  C   UNL A   1      33.228  23.942  24.012  1.00  0.00     0.316 C 
ATOM     11  C   UNL A   1      30.703  26.449  23.484  1.00  0.00     0.020 A 
ATOM     12  O   UNL A   1      33.544  25.795  24.413  1.00  0.00    -0.474 OA
ATOM     13  C   UNL A   1      29.690  27.342  23.293  1.00  0.00     0.032 A 
ATOM     14  C   UNL A   1      32.195  27.004  24.227  1.00  0.00     0.143 A 
ATOM     15  C   UNL A   1      29.967  28.627  23.780  1.00  0.00     0.043 A 
ATOM     16  C   UNL A   1      32.340  28.257  24.746  1.00  0.00     0.069 A 
ATOM     17  Cl  UNL A   1      28.758  29.840  23.500  1.00  0.00    -0.084 Cl
ATOM     18  C   UNL A   1      31.182  29.034  24.492  1.00  0.00     0.041 A 
BRANCH  10  19
ATOM     19  C   UNL A   1      34.027  22.958  23.065  1.00  0.00     0.430 C 
ATOM     20  F   UNL A   1      33.688  22.991  21.764  1.00  0.00    -0.167 F 
ATOM     21  F   UNL A   1      35.341  23.346  23.103  1.00  0.00    -0.167 F 
ATOM     22  F   UNL A   1      34.057  21.671  23.488  1.00  0.00    -0.167 F 
ENDBRANCH  10  19
BRANCH  16  23
ATOM     23  C   UNL A   1      33.469  28.796  25.444  1.00  0.00    -0.058 C 
ATOM     24  C   UNL A   1      34.281  29.284  26.184  1.00  0.00    -0.062 C 
BRANCH  24  25
ATOM     25  C   UNL A   1      34.988  29.958  27.251  1.00  0.00     0.025 A 
ATOM     26  C   UNL A   1      34.595  31.240  27.654  1.00  0.00     0.017 A 
ATOM     27  C   UNL A   1      36.229  29.462  27.673  1.00  0.00     0.017 A 
ATOM     28  C   UNL A   1      35.467  32.042  28.403  1.00  0.00     0.001 A 
ATOM     29  C   UNL A   1      37.111  30.275  28.399  1.00  0.00     0.001 A 
ATOM     30  C   UNL A   1      36.734  31.571  28.750  1.00  0.00     0.000 A 
ENDBRANCH  24  25
ENDBRANCH  16  23
ENDBRANCH   6   8
ENDBRANCH   5   6
ENDBRANCH   4   5
ENDBRANCH   3   4
ENDBRANCH   2   3
ENDBRANCH   1   2
BRANCH   1  31
ATOM     31  C   UNL A   1      36.167  21.606  25.771  1.00  0.00     0.261 C 
BRANCH  31  32
ATOM     32  O   UNL A   1      37.348  22.299  25.438  1.00  0.00    -0.460 OA
BRANCH  32  33
ATOM     33  C   UNL A   1      38.518  21.737  25.836  1.00  0.00     0.338 C 
ATOM     34  O   UNL A   1      38.881  20.589  25.696  1.00  0.00    -0.246 OA
BRANCH  33  35
ATOM     35  C   UNL A   1      39.219  22.826  26.546  1.00  0.00     0.060 A 
ATOM     36  C   UNL A   1      40.253  22.616  27.458  1.00  0.00     0.016 A 
ATOM     37  C   UNL A   1      38.906  24.116  26.143  1.00  0.00     0.016 A 
ATOM     38  C   UNL A   1      41.036  23.711  27.894  1.00  0.00     0.010 A 
ATOM     39  C   UNL A   1      39.738  25.162  26.505  1.00  0.00     0.010 A 
ATOM     40  C   UNL A   1      40.803  25.002  27.397  1.00  0.00    -0.014 A 
BRANCH  40  41
ATOM     41  C   UNL A   1      41.472  26.249  27.886  1.00  0.00     0.031 A 
ATOM     42  C   UNL A   1      42.890  26.507  27.409  1.00  0.00     0.074 A 
ATOM     43  C   UNL A   1      40.950  27.073  28.824  1.00  0.00     0.049 A 
ATOM     44  N   UNL A   1      43.710  27.479  27.720  1.00  0.00    -0.248 NA
ATOM     45  C   UNL A   1      43.504  25.478  26.546  1.00  0.00     0.031 C 
ATOM     46  C   UNL A   1      39.695  26.876  29.543  1.00  0.00     0.029 A 
ATOM     47  N   UNL A   1      41.427  28.257  29.347  1.00  0.00    -0.354 N 
ATOM     48  C   UNL A   1      44.914  27.144  27.108  1.00  0.00     0.074 A 
ATOM     49  C   UNL A   1      44.780  25.801  26.610  1.00  0.00     0.031 C 
ATOM     50  C   UNL A   1      39.457  27.933  30.342  1.00  0.00     0.029 A 
ATOM     51  C   UNL A   1      40.556  28.885  30.215  1.00  0.00     0.049 A 
ATOM     52  H   UNL A   1      42.312  28.623  29.120  1.00  0.00     0.167 HD
ATOM     53  C   UNL A   1      45.998  27.916  26.865  1.00  0.00     0.034 A 
ATOM     54  C   UNL A   1      40.626  30.098  30.810  1.00  0.00     0.034 A 
ATOM     55  C   UNL A   1      46.103  29.272  27.315  1.00  0.00     0.049 A 
ATOM     56  C   UNL A   1      41.836  30.969  30.534  1.00  0.00     0.074 A 
ATOM     57  C   UNL A   1      47.097  30.194  27.053  1.00  0.00     0.029 A 
ATOM     58  N   UNL A   1      45.174  29.900  28.133  1.00  0.00    -0.354 N 
ATOM     59  N   UNL A   1      42.897  30.710  29.804  1.00  0.00    -0.248 NA
ATOM     60  C   UNL A   1      41.843  32.307  31.143  1.00  0.00     0.031 C 
ATOM     61  C   UNL A   1      46.816  31.349  27.786  1.00  0.00     0.029 A 
ATOM     62  C   UNL A   1      45.591  31.185  28.417  1.00  0.00     0.049 A 
ATOM     63  H   UNL A   1      44.341  29.489  28.461  1.00  0.00     0.167 HD
ATOM     64  C   UNL A   1      43.662  31.877  29.815  1.00  0.00     0.074 A 
ATOM     65  C   UNL A   1      42.939  32.837  30.620  1.00  0.00     0.031 C 
ATOM     66  C   UNL A   1      44.849  32.136  29.207  1.00  0.00     0.034 A 
BRANCH  53  67
ATOM     67  C   UNL A   1      47.113  27.299  26.056  1.00  0.00     0.023 A 
ATOM     68  C   UNL A   1      48.127  26.534  26.669  1.00  0.00     0.031 A 
ATOM     69  C   UNL A   1      47.218  27.542  24.679  1.00  0.00     0.131 A 
ATOM     70  C   UNL A   1      49.259  26.157  25.935  1.00  0.00     0.055 A 
ATOM     71  C   UNL A   1      48.292  27.059  23.929  1.00  0.00     0.041 A 
ATOM     72  F   UNL A   1      46.298  28.284  24.043  1.00  0.00    -0.206 F 
ATOM     73  C   UNL A   1      49.333  26.384  24.561  1.00  0.00     0.022 A 
BRANCH  70  74
ATOM     74  S   UNL A   1      50.713  25.559  26.844  1.00  0.00     0.124 S 
ATOM     75  O   UNL A   1      50.144  24.453  27.611  1.00  0.00    -0.237 OA
ATOM     76  O   UNL A   1      51.628  25.189  25.771  1.00  0.00    -0.237 OA
ATOM     77  O   UNL A   1      51.116  26.717  27.641  1.00  0.00    -0.744 OA
ENDBRANCH  70  74
ENDBRANCH  53  67
BRANCH  54  78
ATOM     78  C   UNL A   1      39.516  30.624  31.672  1.00  0.00     0.023 A 
ATOM     79  C   UNL A   1      38.786  31.766  31.289  1.00  0.00     0.031 A 
ATOM     80  C   UNL A   1      39.234  30.069  32.931  1.00  0.00     0.131 A 
ATOM     81  C   UNL A   1      37.870  32.356  32.178  1.00  0.00     0.055 A 
ATOM     82  C   UNL A   1      38.276  30.623  33.789  1.00  0.00     0.041 A 
ATOM     83  F   UNL A   1      39.897  28.982  33.357  1.00  0.00    -0.206 F 
ATOM     84  C   UNL A   1      37.601  31.784  33.420  1.00  0.00     0.022 A 
BRANCH  81  85
ATOM     85  S   UNL A   1      37.123  33.952  31.736  1.00  0.00     0.124 S 
ATOM     86  O   UNL A   1      37.514  34.784  32.868  1.00  0.00    -0.237 OA
ATOM     87  O   UNL A   1      37.773  34.250  30.464  1.00  0.00    -0.237 OA
ATOM     88  O   UNL A   1      35.696  33.649  31.647  1.00  0.00    -0.744 OA
ENDBRANCH  81  85
ENDBRANCH  54  78
BRANCH  66  89
ATOM     89  C   UNL A   1      45.402  33.536  29.312  1.00  0.00     0.023 A 
ATOM     90  C   UNL A   1      44.970  34.577  28.475  1.00  0.00     0.031 A 
ATOM     91  C   UNL A   1      46.374  33.832  30.287  1.00  0.00     0.131 A 
ATOM     92  C   UNL A   1      45.558  35.846  28.581  1.00  0.00     0.055 A 
ATOM     93  C   UNL A   1      46.891  35.117  30.445  1.00  0.00     0.041 A 
ATOM     94  F   UNL A   1      46.828  32.876  31.114  1.00  0.00    -0.206 F 
ATOM     95  C   UNL A   1      46.496  36.129  29.577  1.00  0.00     0.022 A 
BRANCH  92  96
ATOM     96  S   UNL A   1      45.174  37.086  27.316  1.00  0.00     0.124 S 
ATOM     97  O   UNL A   1      43.842  36.674  26.884  1.00  0.00    -0.237 OA
ATOM     98  O   UNL A   1      45.240  38.333  28.072  1.00  0.00    -0.237 OA
ATOM     99  O   UNL A   1      46.233  36.903  26.326  1.00  0.00    -0.744 OA
ENDBRANCH  92  96
ENDBRANCH  66  89
ENDBRANCH  40  41
ENDBRANCH  33  35
ENDBRANCH  32  33
ENDBRANCH  31  32
ENDBRANCH   1  31
TORSDOF 20
ENDMDL
MODEL 2
REMARK VINA RESULT:     -11.3      2.634      7.756
REMARK SMILES O=C(OCCOCCOC(=O)c1ccc(-c2c3nc(c(-c4cc(S(=O)(=O)[O-])ccc4F)c4ccc([nH]4)c(-c4cc(S(=O)(=O)[O-])ccc4F)c4nc(c(-c5cc(S(=O)(=O)[O-])ccc5F)c5ccc2[nH]5)C=C4)C=C3)cc1)C1=Cc2cc(Cl)cc(C#Cc3ccccc3)c2O[C@@H]1C(F)(F)F
REMARK SMILES IDX 7 1 6 2 5 3 4 4 3 5 2 6 1 7 75 8 76 9 93 10 77 11 92 12
REMARK SMILES IDX 78 13 91 14 79 15 82 16 80 17 81 18 94 19 95 20 96 21 97 22
REMARK SMILES IDX 83 23 84 24 85 25 86 26 90 27 87 28 89 29 88 30 8 31 9 32
REMARK SMILES IDX 10 33 11 34 12 35 13 36 74 37 14 38 73 39 15 40 16 41 17 42
REMARK SMILES IDX 67 43 18 44 72 45 66 46 68 47 19 48 71 49 65 50 64 51 20 53
REMARK SMILES IDX 52 54 32 55 51 56 33 57 36 58 50 59 69 60 34 61 35 62 49 64
REMARK SMILES IDX 70 65 37 66 21 67 22 68 30 69 23 70 29 71 31 72 28 73 24 74
REMARK SMILES IDX 25 75 26 76 27 77 53 78 54 79 62 80 55 81 61 82 63 83 60 84
REMARK SMILES IDX 56 85 57 86 58 87 59 88 38 89 39 90 47 91 40 92 46 93 48 94
REMARK SMILES IDX 45 95 41 96 42 97 43 98 44 99
REMARK H PARENT 68 52 36 63
REMARK Flexibility Score: inf
ROOT
ATOM      1  C   UNL A   1      34.403  21.790  27.043  1.00  0.00     0.202 C 
ENDROOT
BRANCH   1   2
ATOM      2  O   UNL A   1      33.551  22.915  26.809  1.00  0.00    -0.374 OA
BRANCH   2   3
ATOM      3  C   UNL A   1      32.064  23.168  27.166  1.00  0.00     0.202 C 
BRANCH   3   4
ATOM      4  C   UNL A   1      30.553  24.443  26.252  1.00  0.00     0.261 C 
BRANCH   4   5
ATOM      5  O   UNL A   1      30.488  24.905  24.786  1.00  0.00    -0.460 OA
BRANCH   5   6
ATOM      6  C   UNL A   1      30.932  23.982  23.930  1.00  0.00     0.338 C 
ATOM      7  O   UNL A   1      30.969  22.784  24.042  1.00  0.00    -0.246 OA
BRANCH   6   8
ATOM      8  C   UNL A   1      31.637  24.907  23.069  1.00  0.00     0.087 C 
ATOM      9  C   UNL A   1      30.695  25.946  22.549  1.00  0.00     0.027 C 
ATOM     10  C   UNL A   1      33.091  25.263  24.298  1.00  0.00     0.316 C 
ATOM     11  C   UNL A   1      30.700  27.680  23.124  1.00  0.00     0.020 A 
ATOM     12  O   UNL A   1      33.075  27.070  24.953  1.00  0.00    -0.474 OA
ATOM     13  C   UNL A   1      29.744  28.536  22.661  1.00  0.00     0.032 A 
ATOM     14  C   UNL A   1      31.776  28.221  24.402  1.00  0.00     0.143 A 
ATOM     15  C   UNL A   1      29.713  29.767  23.329  1.00  0.00     0.043 A 
ATOM     16  C   UNL A   1      31.614  29.410  25.050  1.00  0.00     0.069 A 
ATOM     17  Cl  UNL A   1      28.576  30.940  22.743  1.00  0.00    -0.084 Cl
ATOM     18  C   UNL A   1      30.555  30.150  24.466  1.00  0.00     0.041 A 
BRANCH  10  19
ATOM     19  C   UNL A   1      34.260  24.440  23.620  1.00  0.00     0.430 C 
ATOM     20  F   UNL A   1      34.591  24.813  22.371  1.00  0.00    -0.167 F 
ATOM     21  F   UNL A   1      35.387  24.654  24.369  1.00  0.00    -0.167 F 
ATOM     22  F   UNL A   1      34.096  23.095  23.657  1.00  0.00    -0.167 F 
ENDBRANCH  10  19
BRANCH  16  23
ATOM     23  C   UNL A   1      32.368  29.922  26.155  1.00  0.00    -0.058 C 
ATOM     24  C   UNL A   1      33.159  30.358  26.949  1.00  0.00    -0.062 C 
BRANCH  24  25
ATOM     25  C   UNL A   1      34.333  30.807  27.664  1.00  0.00     0.025 A 
ATOM     26  C   UNL A   1      34.495  32.164  27.968  1.00  0.00     0.017 A 
ATOM     27  C   UNL A   1      35.433  29.946  27.788  1.00  0.00     0.017 A 
ATOM     28  C   UNL A   1      35.758  32.664  28.316  1.00  0.00     0.001 A 
ATOM     29  C   UNL A   1      36.700  30.451  28.110  1.00  0.00     0.001 A 
ATOM     30  C   UNL A   1      36.864  31.813  28.358  1.00  0.00     0.000 A 
ENDBRANCH  24  25
ENDBRANCH  16  23
ENDBRANCH   6   8
ENDBRANCH   5   6
ENDBRANCH   4   5
ENDBRANCH   3   4
ENDBRANCH   2   3
ENDBRANCH   1   2
BRANCH   1  31
ATOM     31  C   UNL A   1      35.525  21.380  26.114  1.00  0.00     0.261 C 
BRANCH  31  32
ATOM     32  O   UNL A   1      36.557  22.327  25.951  1.00  0.00    -0.460 OA
BRANCH  32  33
ATOM     33  C   UNL A   1      37.825  21.848  25.913  1.00  0.00     0.338 C 
ATOM     34  O   UNL A   1      38.186  20.704  25.734  1.00  0.00    -0.246 OA
BRANCH  33  35
ATOM     35  C   UNL A   1      38.666  23.023  26.215  1.00  0.00     0.060 A 
ATOM     36  C   UNL A   1      38.203  24.339  26.176  1.00  0.00     0.016 A 
ATOM     37  C   UNL A   1      39.935  22.754  26.707  1.00  0.00     0.016 A 
ATOM     38  C   UNL A   1      38.993  25.377  26.724  1.00  0.00     0.010 A 
ATOM     39  C   UNL A   1      40.655  23.765  27.322  1.00  0.00     0.010 A 
ATOM     40  C   UNL A   1      40.225  25.095  27.332  1.00  0.00    -0.014 A 
BRANCH  40  41
ATOM     41  C   UNL A   1      41.201  26.121  27.819  1.00  0.00     0.031 A 
ATOM     42  C   UNL A   1      40.684  27.164  28.793  1.00  0.00     0.074 A 
ATOM     43  C   UNL A   1      42.460  26.257  27.341  1.00  0.00     0.049 A 
ATOM     44  N   UNL A   1      41.303  28.187  29.325  1.00  0.00    -0.248 NA
ATOM     45  C   UNL A   1      39.249  27.106  29.134  1.00  0.00     0.031 C 
ATOM     46  C   UNL A   1      43.062  25.480  26.262  1.00  0.00     0.029 A 
ATOM     47  N   UNL A   1      43.472  27.121  27.705  1.00  0.00    -0.354 N 
ATOM     48  C   UNL A   1      40.320  28.878  30.024  1.00  0.00     0.074 A 
ATOM     49  C   UNL A   1      39.053  28.295  29.671  1.00  0.00     0.031 C 
ATOM     50  C   UNL A   1      44.351  25.835  26.109  1.00  0.00     0.029 A 
ATOM     51  C   UNL A   1      44.674  26.889  27.065  1.00  0.00     0.049 A 
ATOM     52  H   UNL A   1      43.348  27.841  28.364  1.00  0.00     0.167 HD
ATOM     53  C   UNL A   1      40.452  29.833  30.974  1.00  0.00     0.034 A 
ATOM     54  C   UNL A   1      45.894  27.441  27.255  1.00  0.00     0.034 A 
ATOM     55  C   UNL A   1      41.721  30.371  31.364  1.00  0.00     0.049 A 
ATOM     56  C   UNL A   1      46.047  28.506  28.323  1.00  0.00     0.074 A 
ATOM     57  C   UNL A   1      42.004  31.265  32.378  1.00  0.00     0.029 A 
ATOM     58  N   UNL A   1      42.924  30.065  30.745  1.00  0.00    -0.354 N 
ATOM     59  N   UNL A   1      45.135  29.031  29.110  1.00  0.00    -0.248 NA
ATOM     60  C   UNL A   1      47.402  29.032  28.547  1.00  0.00     0.031 C 
ATOM     61  C   UNL A   1      43.366  31.569  32.313  1.00  0.00     0.029 A 
ATOM     62  C   UNL A   1      43.949  30.782  31.331  1.00  0.00     0.049 A 
ATOM     63  H   UNL A   1      43.031  29.430  30.000  1.00  0.00     0.167 HD
ATOM     64  C   UNL A   1      45.819  29.898  29.961  1.00  0.00     0.074 A 
ATOM     65  C   UNL A   1      47.216  29.821  29.594  1.00  0.00     0.031 C 
ATOM     66  C   UNL A   1      45.340  30.680  30.964  1.00  0.00     0.034 A 
BRANCH  53  67
ATOM     67  C   UNL A   1      39.189  30.306  31.653  1.00  0.00     0.023 A 
ATOM     68  C   UNL A   1      38.596  31.542  31.321  1.00  0.00     0.031 A 
ATOM     69  C   UNL A   1      38.615  29.565  32.696  1.00  0.00     0.131 A 
ATOM     70  C   UNL A   1      37.557  32.054  32.108  1.00  0.00     0.055 A 
ATOM     71  C   UNL A   1      37.502  30.029  33.400  1.00  0.00     0.041 A 
ATOM     72  F   UNL A   1      39.148  28.393  33.075  1.00  0.00    -0.206 F 
ATOM     73  C   UNL A   1      36.982  31.291  33.124  1.00  0.00     0.022 A 
BRANCH  70  74
ATOM     74  S   UNL A   1      37.118  33.806  31.918  1.00  0.00     0.124 S 
ATOM     75  O   UNL A   1      35.665  33.729  31.776  1.00  0.00    -0.237 OA
ATOM     76  O   UNL A   1      37.608  34.392  33.159  1.00  0.00    -0.237 OA
ATOM     77  O   UNL A   1      37.833  34.208  30.709  1.00  0.00    -0.744 OA
ENDBRANCH  70  74
ENDBRANCH  53  67
BRANCH  54  78
ATOM     78  C   UNL A   1      47.100  26.982  26.489  1.00  0.00     0.023 A 
ATOM     79  C   UNL A   1      47.370  27.484  25.201  1.00  0.00     0.031 A 
ATOM     80  C   UNL A   1      47.941  25.967  26.977  1.00  0.00     0.131 A 
ATOM     81  C   UNL A   1      48.397  26.925  24.421  1.00  0.00     0.055 A 
ATOM     82  C   UNL A   1      49.002  25.455  26.220  1.00  0.00     0.041 A 
ATOM     83  F   UNL A   1      47.736  25.444  28.196  1.00  0.00    -0.206 F 
ATOM     84  C   UNL A   1      49.223  25.923  24.927  1.00  0.00     0.022 A 
BRANCH  81  85
ATOM     85  S   UNL A   1      48.561  27.443  22.687  1.00  0.00     0.124 S 
ATOM     86  O   UNL A   1      49.808  28.198  22.721  1.00  0.00    -0.237 OA
ATOM     87  O   UNL A   1      48.604  26.162  21.990  1.00  0.00    -0.237 OA
ATOM     88  O   UNL A   1      47.357  28.236  22.453  1.00  0.00    -0.744 OA
ENDBRANCH  81  85
ENDBRANCH  54  78
BRANCH  66  89
ATOM     89  C   UNL A   1      46.338  31.450  31.794  1.00  0.00     0.023 A 
ATOM     90  C   UNL A   1      46.932  30.907  32.944  1.00  0.00     0.031 A 
ATOM     91  C   UNL A   1      46.709  32.752  31.411  1.00  0.00     0.131 A 
ATOM     92  C   UNL A   1      47.812  31.687  33.709  1.00  0.00     0.055 A 
ATOM     93  C   UNL A   1      47.650  33.490  32.127  1.00  0.00     0.041 A 
ATOM     94  F   UNL A   1      46.171  33.325  30.322  1.00  0.00    -0.206 F 
ATOM     95  C   UNL A   1      48.194  32.965  33.293  1.00  0.00     0.022 A 
BRANCH  92  96
ATOM     96  S   UNL A   1      48.348  31.057  35.322  1.00  0.00     0.124 S 
ATOM     97  O   UNL A   1      48.665  29.666  35.013  1.00  0.00    -0.237 OA
ATOM     98  O   UNL A   1      49.488  31.916  35.627  1.00  0.00    -0.237 OA
ATOM     99  O   UNL A   1      47.177  31.254  36.172  1.00  0.00    -0.744 OA
ENDBRANCH  92  96
ENDBRANCH  66  89
ENDBRANCH  40  41
ENDBRANCH  33  35
ENDBRANCH  32  33
ENDBRANCH  31  32
ENDBRANCH   1  31
TORSDOF 20
ENDMDL
MODEL 3
REMARK VINA RESULT:     -11.2      4.067      8.009
REMARK SMILES O=C(OCCOCCOC(=O)c1ccc(-c2c3nc(c(-c4cc(S(=O)(=O)[O-])ccc4F)c4ccc([nH]4)c(-c4cc(S(=O)(=O)[O-])ccc4F)c4nc(c(-c5cc(S(=O)(=O)[O-])ccc5F)c5ccc2[nH]5)C=C4)C=C3)cc1)C1=Cc2cc(Cl)cc(C#Cc3ccccc3)c2O[C@@H]1C(F)(F)F
REMARK SMILES IDX 7 1 6 2 5 3 4 4 3 5 2 6 1 7 75 8 76 9 93 10 77 11 92 12
REMARK SMILES IDX 78 13 91 14 79 15 82 16 80 17 81 18 94 19 95 20 96 21 97 22
REMARK SMILES IDX 83 23 84 24 85 25 86 26 90 27 87 28 89 29 88 30 8 31 9 32
REMARK SMILES IDX 10 33 11 34 12 35 13 36 74 37 14 38 73 39 15 40 16 41 17 42
REMARK SMILES IDX 67 43 18 44 72 45 66 46 68 47 19 48 71 49 65 50 64 51 20 53
REMARK SMILES IDX 52 54 32 55 51 56 33 57 36 58 50 59 69 60 34 61 35 62 49 64
REMARK SMILES IDX 70 65 37 66 21 67 22 68 30 69 23 70 29 71 31 72 28 73 24 74
REMARK SMILES IDX 25 75 26 76 27 77 53 78 54 79 62 80 55 81 61 82 63 83 60 84
REMARK SMILES IDX 56 85 57 86 58 87 59 88 38 89 39 90 47 91 40 92 46 93 48 94
REMARK SMILES IDX 45 95 41 96 42 97 43 98 44 99
REMARK H PARENT 68 52 36 63
REMARK Flexibility Score: inf
ROOT
ATOM      1  C   UNL A   1      46.637  26.331  25.606  1.00  0.00     0.202 C 
ENDROOT
BRANCH   1   2
ATOM      2  O   UNL A   1      47.181  25.334  26.475  1.00  0.00    -0.374 OA
BRANCH   2   3
ATOM      3  C   UNL A   1      46.756  23.869  26.748  1.00  0.00     0.202 C 
BRANCH   3   4
ATOM      4  C   UNL A   1      46.098  22.279  25.411  1.00  0.00     0.261 C 
BRANCH   4   5
ATOM      5  O   UNL A   1      44.857  21.386  25.568  1.00  0.00    -0.460 OA
BRANCH   5   6
ATOM      6  C   UNL A   1      43.716  22.032  25.313  1.00  0.00     0.338 C 
ATOM      7  O   UNL A   1      43.447  22.794  24.421  1.00  0.00    -0.246 OA
BRANCH   6   8
ATOM      8  C   UNL A   1      43.117  21.789  26.607  1.00  0.00     0.087 C 
ATOM      9  C   UNL A   1      43.043  23.064  27.387  1.00  0.00     0.027 C 
ATOM     10  C   UNL A   1      41.577  20.821  25.942  1.00  0.00     0.316 C 
ATOM     11  C   UNL A   1      41.482  23.961  27.693  1.00  0.00     0.020 A 
ATOM     12  O   UNL A   1      39.933  21.781  26.209  1.00  0.00    -0.474 OA
ATOM     13  C   UNL A   1      41.523  25.164  28.336  1.00  0.00     0.032 A 
ATOM     14  C   UNL A   1      39.959  23.416  27.008  1.00  0.00     0.143 A 
ATOM     15  C   UNL A   1      40.305  25.857  28.321  1.00  0.00     0.043 A 
ATOM     16  C   UNL A   1      38.844  24.201  26.970  1.00  0.00     0.069 A 
ATOM     17  Cl  UNL A   1      40.255  27.359  29.188  1.00  0.00    -0.084 Cl
ATOM     18  C   UNL A   1      39.077  25.424  27.647  1.00  0.00     0.041 A 
BRANCH  10  19
ATOM     19  C   UNL A   1      41.963  19.340  26.343  1.00  0.00     0.430 C 
ATOM     20  F   UNL A   1      43.160  18.908  25.910  1.00  0.00    -0.167 F 
ATOM     21  F   UNL A   1      42.042  19.304  27.710  1.00  0.00    -0.167 F 
ATOM     22  F   UNL A   1      41.019  18.413  26.049  1.00  0.00    -0.167 F 
ENDBRANCH  10  19
BRANCH  16  23
ATOM     23  C   UNL A   1      37.578  23.903  26.369  1.00  0.00    -0.058 C 
ATOM     24  C   UNL A   1      36.524  23.848  25.792  1.00  0.00    -0.062 C 
BRANCH  24  25
ATOM     25  C   UNL A   1      35.300  24.112  25.070  1.00  0.00     0.025 A 
ATOM     26  C   UNL A   1      35.180  23.737  23.727  1.00  0.00     0.017 A 
ATOM     27  C   UNL A   1      34.357  24.996  25.616  1.00  0.00     0.017 A 
ATOM     28  C   UNL A   1      34.178  24.299  22.923  1.00  0.00     0.001 A 
ATOM     29  C   UNL A   1      33.374  25.578  24.806  1.00  0.00     0.001 A 
ATOM     30  C   UNL A   1      33.295  25.240  23.455  1.00  0.00     0.000 A 
ENDBRANCH  24  25
ENDBRANCH  16  23
ENDBRANCH   6   8
ENDBRANCH   5   6
ENDBRANCH   4   5
ENDBRANCH   3   4
ENDBRANCH   2   3
ENDBRANCH   1   2
BRANCH   1  31
ATOM     31  C   UNL A   1      45.281  26.218  24.945  1.00  0.00     0.261 C 
BRANCH  31  32
ATOM     32  O   UNL A   1      44.205  25.929  25.808  1.00  0.00    -0.460 OA
BRANCH  32  33
ATOM     33  C   UNL A   1      43.041  26.587  25.574  1.00  0.00     0.338 C 
ATOM     34  O   UNL A   1      42.133  26.259  24.840  1.00  0.00    -0.246 OA
BRANCH  33  35
ATOM     35  C   UNL A   1      43.163  27.830  26.360  1.00  0.00     0.060 A 
ATOM     36  C   UNL A   1      42.489  29.012  26.052  1.00  0.00     0.016 A 
ATOM     37  C   UNL A   1      43.877  27.733  27.546  1.00  0.00     0.016 A 
ATOM     38  C   UNL A   1      42.460  30.069  26.993  1.00  0.00     0.010 A 
ATOM     39  C   UNL A   1      43.762  28.737  28.493  1.00  0.00     0.010 A 
ATOM     40  C   UNL A   1      43.078  29.931  28.245  1.00  0.00    -0.014 A 
BRANCH  40  41
ATOM     41  C   UNL A   1      43.228  31.023  29.257  1.00  0.00     0.031 A 
ATOM     42  C   UNL A   1      44.502  31.849  29.204  1.00  0.00     0.074 A 
ATOM     43  C   UNL A   1      42.376  31.224  30.289  1.00  0.00     0.049 A 
ATOM     44  N   UNL A   1      44.903  32.813  29.992  1.00  0.00    -0.248 NA
ATOM     45  C   UNL A   1      45.505  31.466  28.190  1.00  0.00     0.031 C 
ATOM     46  C   UNL A   1      41.213  30.406  30.619  1.00  0.00     0.029 A 
ATOM     47  N   UNL A   1      42.365  32.192  31.272  1.00  0.00    -0.354 N 
ATOM     48  C   UNL A   1      46.194  33.111  29.569  1.00  0.00     0.074 A 
ATOM     49  C   UNL A   1      46.578  32.094  28.625  1.00  0.00     0.031 C 
ATOM     50  C   UNL A   1      40.556  30.947  31.662  1.00  0.00     0.029 A 
ATOM     51  C   UNL A   1      41.261  32.147  32.100  1.00  0.00     0.049 A 
ATOM     52  H   UNL A   1      43.083  32.858  31.374  1.00  0.00     0.167 HD
ATOM     53  C   UNL A   1      46.957  34.195  29.835  1.00  0.00     0.034 A 
ATOM     54  C   UNL A   1      40.854  32.994  33.073  1.00  0.00     0.034 A 
ATOM     55  C   UNL A   1      46.545  35.234  30.732  1.00  0.00     0.049 A 
ATOM     56  C   UNL A   1      41.703  34.214  33.370  1.00  0.00     0.074 A 
ATOM     57  C   UNL A   1      47.174  36.430  31.013  1.00  0.00     0.029 A 
ATOM     58  N   UNL A   1      45.391  35.192  31.501  1.00  0.00    -0.354 N 
ATOM     59  N   UNL A   1      42.845  34.583  32.834  1.00  0.00    -0.248 NA
ATOM     60  C   UNL A   1      41.193  35.147  34.386  1.00  0.00     0.031 C 
ATOM     61  C   UNL A   1      46.448  37.071  32.021  1.00  0.00     0.029 A 
ATOM     62  C   UNL A   1      45.310  36.324  32.287  1.00  0.00     0.049 A 
ATOM     63  H   UNL A   1      44.730  34.463  31.488  1.00  0.00     0.167 HD
ATOM     64  C   UNL A   1      43.151  35.820  33.402  1.00  0.00     0.074 A 
ATOM     65  C   UNL A   1      42.075  36.132  34.316  1.00  0.00     0.031 C 
ATOM     66  C   UNL A   1      44.220  36.630  33.181  1.00  0.00     0.034 A 
BRANCH  53  67
ATOM     67  C   UNL A   1      48.281  34.297  29.116  1.00  0.00     0.023 A 
ATOM     68  C   UNL A   1      48.367  34.815  27.807  1.00  0.00     0.031 A 
ATOM     69  C   UNL A   1      49.454  33.799  29.701  1.00  0.00     0.131 A 
ATOM     70  C   UNL A   1      49.562  34.701  27.086  1.00  0.00     0.055 A 
ATOM     71  C   UNL A   1      50.671  33.799  29.017  1.00  0.00     0.041 A 
ATOM     72  F   UNL A   1      49.433  33.271  30.934  1.00  0.00    -0.206 F 
ATOM     73  C   UNL A   1      50.725  34.228  27.694  1.00  0.00     0.022 A 
BRANCH  70  74
ATOM     74  S   UNL A   1      49.514  34.980  25.293  1.00  0.00     0.124 S 
ATOM     75  O   UNL A   1      49.806  36.410  25.212  1.00  0.00    -0.237 OA
ATOM     76  O   UNL A   1      50.556  34.087  24.804  1.00  0.00    -0.237 OA
ATOM     77  O   UNL A   1      48.148  34.611  24.926  1.00  0.00    -0.744 OA
ENDBRANCH  70  74
ENDBRANCH  53  67
BRANCH  54  78
ATOM     78  C   UNL A   1      39.563  32.794  33.811  1.00  0.00     0.023 A 
ATOM     79  C   UNL A   1      38.342  33.225  33.257  1.00  0.00     0.031 A 
ATOM     80  C   UNL A   1      39.532  32.268  35.114  1.00  0.00     0.131 A 
ATOM     81  C   UNL A   1      37.163  33.194  34.023  1.00  0.00     0.055 A 
ATOM     82  C   UNL A   1      38.345  32.183  35.851  1.00  0.00     0.041 A 
ATOM     83  F   UNL A   1      40.662  31.842  35.700  1.00  0.00    -0.206 F 
ATOM     84  C   UNL A   1      37.155  32.664  35.312  1.00  0.00     0.022 A 
BRANCH  81  85
ATOM     85  S   UNL A   1      35.663  33.972  33.355  1.00  0.00     0.124 S 
ATOM     86  O   UNL A   1      35.850  35.363  33.752  1.00  0.00    -0.237 OA
ATOM     87  O   UNL A   1      35.783  33.688  31.929  1.00  0.00    -0.237 OA
ATOM     88  O   UNL A   1      34.580  33.267  34.039  1.00  0.00    -0.744 OA
ENDBRANCH  81  85
ENDBRANCH  54  78
BRANCH  66  89
ATOM     89  C   UNL A   1      44.239  37.972  33.871  1.00  0.00     0.023 A 
ATOM     90  C   UNL A   1      43.573  39.092  33.349  1.00  0.00     0.031 A 
ATOM     91  C   UNL A   1      44.932  38.122  35.087  1.00  0.00     0.131 A 
ATOM     92  C   UNL A   1      43.670  40.328  34.004  1.00  0.00     0.055 A 
ATOM     93  C   UNL A   1      44.952  39.333  35.778  1.00  0.00     0.041 A 
ATOM     94  F   UNL A   1      45.591  37.087  35.632  1.00  0.00    -0.206 F 
ATOM     95  C   UNL A   1      44.333  40.450  35.227  1.00  0.00     0.022 A 
BRANCH  92  96
ATOM     96  S   UNL A   1      43.028  41.803  33.168  1.00  0.00     0.124 S 
ATOM     97  O   UNL A   1      41.730  41.974  33.813  1.00  0.00    -0.237 OA
ATOM     98  O   UNL A   1      44.037  42.807  33.490  1.00  0.00    -0.237 OA
ATOM     99  O   UNL A   1      42.976  41.404  31.763  1.00  0.00    -0.744 OA
ENDBRANCH  92  96
ENDBRANCH  66  89
ENDBRANCH  40  41
ENDBRANCH  33  35
ENDBRANCH  32  33
ENDBRANCH  31  32
ENDBRANCH   1  31
TORSDOF 20
ENDMDL
