MODEL 1
REMARK VINA RESULT:     -10.9      0.000      0.000
REMARK SMILES O=C(COc1ccc(F)cc1)Nc1sccc1C(=O)OCCOCCOC(=O)c1ccc(-c2c3nc(c(-c4cc(S(=O)(=O)[O-])ccc4F)c4ccc([nH]4)c(-c4cc(S(=O)(=O)[O-])ccc4F)c4nc(c(-c5cc(S(=O)(=O)[O-])ccc5F)c5ccc2[nH]5)C=C4)C=C3)cc1
REMARK SMILES IDX 22 1 21 2 20 3 18 4 19 5 17 6 13 7 14 8 15 9 16 10 12 11
REMARK SMILES IDX 1 12 2 13 3 15 4 16 5 17 6 18 11 19 7 20 10 21 8 22 9 23
REMARK SMILES IDX 23 24 24 25 25 26 26 27 27 28 28 29 29 30 30 31 91 32 31 33
REMARK SMILES IDX 90 34 32 35 33 36 34 37 84 38 35 39 89 40 83 41 85 42 36 43
REMARK SMILES IDX 88 44 82 45 81 46 37 48 69 49 49 50 68 51 50 52 53 53 67 54
REMARK SMILES IDX 86 55 51 56 52 57 66 59 87 60 54 61 38 62 39 63 47 64 40 65
REMARK SMILES IDX 46 66 48 67 45 68 41 69 42 70 43 71 44 72 70 73 71 74 79 75
REMARK SMILES IDX 72 76 78 77 80 78 77 79 73 80 74 81 75 82 76 83 55 84 56 85
REMARK SMILES IDX 64 86 57 87 63 88 65 89 62 90 58 91 59 92 60 93 61 94
REMARK H PARENT 12 14 85 47 53 58
REMARK Flexibility Score: inf
ROOT
ATOM      1  C   UNL A   1      32.713  28.271  27.130  1.00  0.00     0.202 C 
ENDROOT
BRANCH   1   2
ATOM      2  C   UNL A   1      32.427  26.880  26.558  1.00  0.00     0.261 C 
BRANCH   2   3
ATOM      3  O   UNL A   1      31.018  26.635  26.664  1.00  0.00    -0.460 OA
BRANCH   3   4
ATOM      4  C   UNL A   1      30.490  25.705  25.821  1.00  0.00     0.341 C 
ATOM      5  O   UNL A   1      29.858  24.716  26.172  1.00  0.00    -0.246 OA
BRANCH   4   6
ATOM      6  C   UNL A   1      30.520  26.163  24.435  1.00  0.00     0.094 A 
ATOM      7  C   UNL A   1      30.913  25.457  23.314  1.00  0.00     0.110 A 
ATOM      8  S   UNL A   1      31.081  26.449  21.932  1.00  0.00    -0.126 S 
ATOM      9  C   UNL A   1      30.457  27.807  22.751  1.00  0.00     0.068 A 
ATOM     10  C   UNL A   1      30.194  27.522  24.071  1.00  0.00     0.029 A 
BRANCH   7  11
ATOM     11  N   UNL A   1      31.175  24.142  23.006  1.00  0.00    -0.314 N 
ATOM     12  O   UNL A   1      33.109  23.828  24.273  1.00  0.00    -0.271 OA
ATOM     13  C   UNL A   1      32.218  23.406  23.543  1.00  0.00     0.262 C 
ATOM     14  H   UNL A   1      30.582  23.695  22.361  1.00  0.00     0.170 HD
BRANCH  13  15
ATOM     15  C   UNL A   1      32.090  21.920  23.205  1.00  0.00     0.329 C 
BRANCH  15  16
ATOM     16  O   UNL A   1      32.092  21.118  24.395  1.00  0.00    -0.484 OA
BRANCH  16  17
ATOM     17  C   UNL A   1      32.546  19.853  24.123  1.00  0.00     0.120 A 
ATOM     18  C   UNL A   1      33.274  19.147  25.084  1.00  0.00     0.049 A 
ATOM     19  C   UNL A   1      32.224  19.266  22.901  1.00  0.00     0.049 A 
ATOM     20  C   UNL A   1      33.738  17.865  24.795  1.00  0.00     0.043 A 
ATOM     21  C   UNL A   1      32.681  17.977  22.618  1.00  0.00     0.043 A 
ATOM     22  C   UNL A   1      33.440  17.292  23.564  1.00  0.00     0.123 A 
ATOM     23  F   UNL A   1      33.882  16.059  23.289  1.00  0.00    -0.207 F 
ENDBRANCH  16  17
ENDBRANCH  15  16
ENDBRANCH  13  15
ENDBRANCH   7  11
ENDBRANCH   4   6
ENDBRANCH   3   4
ENDBRANCH   2   3
ENDBRANCH   1   2
BRANCH   1  24
ATOM     24  O   UNL A   1      31.665  29.218  26.882  1.00  0.00    -0.374 OA
BRANCH  24  25
ATOM     25  C   UNL A   1      31.933  30.223  25.904  1.00  0.00     0.202 C 
BRANCH  25  26
ATOM     26  C   UNL A   1      31.804  31.662  26.409  1.00  0.00     0.261 C 
BRANCH  26  27
ATOM     27  O   UNL A   1      32.494  31.853  27.657  1.00  0.00    -0.460 OA
BRANCH  27  28
ATOM     28  C   UNL A   1      33.417  32.846  27.645  1.00  0.00     0.338 C 
ATOM     29  O   UNL A   1      33.215  34.032  27.446  1.00  0.00    -0.246 OA
BRANCH  28  30
ATOM     30  C   UNL A   1      34.740  32.321  28.042  1.00  0.00     0.060 A 
ATOM     31  C   UNL A   1      34.809  30.974  28.416  1.00  0.00     0.016 A 
ATOM     32  C   UNL A   1      35.873  33.137  28.129  1.00  0.00     0.016 A 
ATOM     33  C   UNL A   1      35.998  30.447  28.915  1.00  0.00     0.010 A 
ATOM     34  C   UNL A   1      37.065  32.609  28.641  1.00  0.00     0.010 A 
ATOM     35  C   UNL A   1      37.124  31.270  29.063  1.00  0.00    -0.014 A 
BRANCH  35  36
ATOM     36  C   UNL A   1      38.315  30.736  29.770  1.00  0.00     0.031 A 
ATOM     37  C   UNL A   1      38.570  31.149  31.195  1.00  0.00     0.074 A 
ATOM     38  C   UNL A   1      39.111  29.828  29.177  1.00  0.00     0.049 A 
ATOM     39  N   UNL A   1      39.522  30.770  32.006  1.00  0.00    -0.248 NA
ATOM     40  C   UNL A   1      37.622  32.108  31.783  1.00  0.00     0.031 C 
ATOM     41  C   UNL A   1      38.926  29.300  27.825  1.00  0.00     0.029 A 
ATOM     42  N   UNL A   1      40.221  29.172  29.645  1.00  0.00    -0.354 N 
ATOM     43  C   UNL A   1      39.278  31.423  33.209  1.00  0.00     0.074 A 
ATOM     44  C   UNL A   1      38.107  32.251  33.009  1.00  0.00     0.031 C 
ATOM     45  C   UNL A   1      39.884  28.389  27.579  1.00  0.00     0.029 A 
ATOM     46  C   UNL A   1      40.762  28.287  28.743  1.00  0.00     0.049 A 
ATOM     47  H   UNL A   1      40.596  29.322  30.543  1.00  0.00     0.167 HD
ATOM     48  C   UNL A   1      39.960  31.335  34.376  1.00  0.00     0.034 A 
ATOM     49  C   UNL A   1      41.842  27.486  28.845  1.00  0.00     0.034 A 
ATOM     50  C   UNL A   1      41.134  30.525  34.570  1.00  0.00     0.049 A 
ATOM     51  C   UNL A   1      42.639  27.475  30.125  1.00  0.00     0.074 A 
ATOM     52  C   UNL A   1      41.917  30.399  35.706  1.00  0.00     0.029 A 
ATOM     53  N   UNL A   1      41.696  29.702  33.606  1.00  0.00    -0.354 N 
ATOM     54  N   UNL A   1      42.423  28.143  31.233  1.00  0.00    -0.248 NA
ATOM     55  C   UNL A   1      43.824  26.605  30.167  1.00  0.00     0.031 C 
ATOM     56  C   UNL A   1      42.974  29.530  35.416  1.00  0.00     0.029 A 
ATOM     57  C   UNL A   1      42.820  29.077  34.116  1.00  0.00     0.049 A 
ATOM     58  H   UNL A   1      41.345  29.580  32.695  1.00  0.00     0.167 HD
ATOM     59  C   UNL A   1      43.428  27.749  32.113  1.00  0.00     0.074 A 
ATOM     60  C   UNL A   1      44.257  26.797  31.406  1.00  0.00     0.031 C 
ATOM     61  C   UNL A   1      43.637  28.134  33.396  1.00  0.00     0.034 A 
BRANCH  48  62
ATOM     62  C   UNL A   1      39.468  32.164  35.529  1.00  0.00     0.023 A 
ATOM     63  C   UNL A   1      39.922  33.479  35.727  1.00  0.00     0.031 A 
ATOM     64  C   UNL A   1      38.520  31.641  36.423  1.00  0.00     0.131 A 
ATOM     65  C   UNL A   1      39.447  34.219  36.820  1.00  0.00     0.055 A 
ATOM     66  C   UNL A   1      38.015  32.400  37.479  1.00  0.00     0.041 A 
ATOM     67  F   UNL A   1      38.071  30.383  36.282  1.00  0.00    -0.206 F 
ATOM     68  C   UNL A   1      38.481  33.695  37.685  1.00  0.00     0.022 A 
BRANCH  65  69
ATOM     69  S   UNL A   1      40.140  35.866  37.130  1.00  0.00     0.124 S 
ATOM     70  O   UNL A   1      41.570  35.572  37.196  1.00  0.00    -0.237 OA
ATOM     71  O   UNL A   1      39.698  36.625  35.967  1.00  0.00    -0.237 OA
ATOM     72  O   UNL A   1      39.529  36.259  38.399  1.00  0.00    -0.744 OA
ENDBRANCH  65  69
ENDBRANCH  48  62
BRANCH  49  73
ATOM     73  C   UNL A   1      42.255  26.638  27.694  1.00  0.00     0.023 A 
ATOM     74  C   UNL A   1      41.851  25.297  27.602  1.00  0.00     0.031 A 
ATOM     75  C   UNL A   1      43.088  27.154  26.687  1.00  0.00     0.131 A 
ATOM     76  C   UNL A   1      42.306  24.508  26.535  1.00  0.00     0.055 A 
ATOM     77  C   UNL A   1      43.510  26.373  25.611  1.00  0.00     0.041 A 
ATOM     78  F   UNL A   1      43.493  28.434  26.732  1.00  0.00    -0.206 F 
ATOM     79  C   UNL A   1      43.124  25.038  25.535  1.00  0.00     0.022 A 
BRANCH  76  80
ATOM     80  S   UNL A   1      41.843  22.755  26.492  1.00  0.00     0.124 S 
ATOM     81  O   UNL A   1      42.448  22.257  27.722  1.00  0.00    -0.237 OA
ATOM     82  O   UNL A   1      40.385  22.825  26.476  1.00  0.00    -0.237 OA
ATOM     83  O   UNL A   1      42.454  22.273  25.255  1.00  0.00    -0.744 OA
ENDBRANCH  76  80
ENDBRANCH  49  73
BRANCH  61  84
ATOM     84  C   UNL A   1      44.777  27.494  34.134  1.00  0.00     0.023 A 
ATOM     85  C   UNL A   1      44.602  26.312  34.872  1.00  0.00     0.031 A 
ATOM     86  C   UNL A   1      46.064  28.049  34.054  1.00  0.00     0.131 A 
ATOM     87  C   UNL A   1      45.700  25.730  35.522  1.00  0.00     0.055 A 
ATOM     88  C   UNL A   1      47.160  27.451  34.676  1.00  0.00     0.041 A 
ATOM     89  F   UNL A   1      46.278  29.176  33.353  1.00  0.00    -0.206 F 
ATOM     90  C   UNL A   1      46.981  26.285  35.417  1.00  0.00     0.022 A 
BRANCH  87  91
ATOM     91  S   UNL A   1      45.446  24.229  36.507  1.00  0.00     0.124 S 
ATOM     92  O   UNL A   1      44.819  24.762  37.713  1.00  0.00    -0.237 OA
ATOM     93  O   UNL A   1      44.586  23.423  35.647  1.00  0.00    -0.237 OA
ATOM     94  O   UNL A   1      46.799  23.705  36.688  1.00  0.00    -0.744 OA
ENDBRANCH  87  91
ENDBRANCH  61  84
ENDBRANCH  35  36
ENDBRANCH  28  30
ENDBRANCH  27  28
ENDBRANCH  26  27
ENDBRANCH  25  26
ENDBRANCH  24  25
ENDBRANCH   1  24
TORSDOF 21
ENDMDL
MODEL 2
REMARK VINA RESULT:     -10.5      1.853      2.190
REMARK SMILES O=C(COc1ccc(F)cc1)Nc1sccc1C(=O)OCCOCCOC(=O)c1ccc(-c2c3nc(c(-c4cc(S(=O)(=O)[O-])ccc4F)c4ccc([nH]4)c(-c4cc(S(=O)(=O)[O-])ccc4F)c4nc(c(-c5cc(S(=O)(=O)[O-])ccc5F)c5ccc2[nH]5)C=C4)C=C3)cc1
REMARK SMILES IDX 22 1 21 2 20 3 18 4 19 5 17 6 13 7 14 8 15 9 16 10 12 11
REMARK SMILES IDX 1 12 2 13 3 15 4 16 5 17 6 18 11 19 7 20 10 21 8 22 9 23
REMARK SMILES IDX 23 24 24 25 25 26 26 27 27 28 28 29 29 30 30 31 91 32 31 33
REMARK SMILES IDX 90 34 32 35 33 36 34 37 84 38 35 39 89 40 83 41 85 42 36 43
REMARK SMILES IDX 88 44 82 45 81 46 37 48 69 49 49 50 68 51 50 52 53 53 67 54
REMARK SMILES IDX 86 55 51 56 52 57 66 59 87 60 54 61 38 62 39 63 47 64 40 65
REMARK SMILES IDX 46 66 48 67 45 68 41 69 42 70 43 71 44 72 70 73 71 74 79 75
REMARK SMILES IDX 72 76 78 77 80 78 77 79 73 80 74 81 75 82 76 83 55 84 56 85
REMARK SMILES IDX 64 86 57 87 63 88 65 89 62 90 58 91 59 92 60 93 61 94
REMARK H PARENT 12 14 85 47 53 58
REMARK Flexibility Score: inf
ROOT
ATOM      1  C   UNL A   1      33.575  29.632  26.983  1.00  0.00     0.202 C 
ENDROOT
BRANCH   1   2
ATOM      2  C   UNL A   1      33.283  28.314  26.261  1.00  0.00     0.261 C 
BRANCH   2   3
ATOM      3  O   UNL A   1      31.964  27.886  26.628  1.00  0.00    -0.460 OA
BRANCH   3   4
ATOM      4  C   UNL A   1      31.491  26.764  26.021  1.00  0.00     0.341 C 
ATOM      5  O   UNL A   1      31.175  25.731  26.600  1.00  0.00    -0.246 OA
BRANCH   4   6
ATOM      6  C   UNL A   1      31.135  27.019  24.628  1.00  0.00     0.094 A 
ATOM      7  C   UNL A   1      31.427  26.245  23.521  1.00  0.00     0.110 A 
ATOM      8  S   UNL A   1      31.091  27.046  22.048  1.00  0.00    -0.126 S 
ATOM      9  C   UNL A   1      30.380  28.369  22.854  1.00  0.00     0.068 A 
ATOM     10  C   UNL A   1      30.463  28.230  24.220  1.00  0.00     0.029 A 
BRANCH   7  11
ATOM     11  N   UNL A   1      31.890  24.970  23.289  1.00  0.00    -0.314 N 
ATOM     12  O   UNL A   1      33.853  25.478  22.137  1.00  0.00    -0.271 OA
ATOM     13  C   UNL A   1      33.089  24.676  22.663  1.00  0.00     0.262 C 
ATOM     14  H   UNL A   1      31.331  24.218  23.589  1.00  0.00     0.170 HD
BRANCH  13  15
ATOM     15  C   UNL A   1      33.438  23.192  22.787  1.00  0.00     0.329 C 
BRANCH  15  16
ATOM     16  O   UNL A   1      33.553  22.801  24.163  1.00  0.00    -0.484 OA
BRANCH  16  17
ATOM     17  C   UNL A   1      34.755  22.181  24.389  1.00  0.00     0.120 A 
ATOM     18  C   UNL A   1      34.790  20.848  24.805  1.00  0.00     0.049 A 
ATOM     19  C   UNL A   1      35.935  22.882  24.145  1.00  0.00     0.049 A 
ATOM     20  C   UNL A   1      36.017  20.230  25.039  1.00  0.00     0.043 A 
ATOM     21  C   UNL A   1      37.163  22.257  24.370  1.00  0.00     0.043 A 
ATOM     22  C   UNL A   1      37.193  20.940  24.823  1.00  0.00     0.123 A 
ATOM     23  F   UNL A   1      38.370  20.343  25.044  1.00  0.00    -0.207 F 
ENDBRANCH  16  17
ENDBRANCH  15  16
ENDBRANCH  13  15
ENDBRANCH   7  11
ENDBRANCH   4   6
ENDBRANCH   3   4
ENDBRANCH   2   3
ENDBRANCH   1   2
BRANCH   1  24
ATOM     24  O   UNL A   1      32.396  30.390  27.288  1.00  0.00    -0.374 OA
BRANCH  24  25
ATOM     25  C   UNL A   1      31.957  31.313  26.291  1.00  0.00     0.202 C 
BRANCH  25  26
ATOM     26  C   UNL A   1      31.864  32.768  26.759  1.00  0.00     0.261 C 
BRANCH  26  27
ATOM     27  O   UNL A   1      32.484  32.957  28.043  1.00  0.00    -0.460 OA
BRANCH  27  28
ATOM     28  C   UNL A   1      33.560  33.780  28.034  1.00  0.00     0.338 C 
ATOM     29  O   UNL A   1      33.555  34.990  27.877  1.00  0.00    -0.246 OA
BRANCH  28  30
ATOM     30  C   UNL A   1      34.785  33.029  28.378  1.00  0.00     0.060 A 
ATOM     31  C   UNL A   1      34.634  31.888  29.174  1.00  0.00     0.016 A 
ATOM     32  C   UNL A   1      36.061  33.467  28.005  1.00  0.00     0.016 A 
ATOM     33  C   UNL A   1      35.757  31.203  29.633  1.00  0.00     0.010 A 
ATOM     34  C   UNL A   1      37.189  32.783  28.477  1.00  0.00     0.010 A 
ATOM     35  C   UNL A   1      37.042  31.666  29.316  1.00  0.00    -0.014 A 
BRANCH  35  36
ATOM     36  C   UNL A   1      38.214  31.034  29.970  1.00  0.00     0.031 A 
ATOM     37  C   UNL A   1      38.535  31.381  31.400  1.00  0.00     0.074 A 
ATOM     38  C   UNL A   1      38.934  30.098  29.325  1.00  0.00     0.049 A 
ATOM     39  N   UNL A   1      39.482  30.915  32.171  1.00  0.00    -0.248 NA
ATOM     40  C   UNL A   1      37.666  32.377  32.046  1.00  0.00     0.031 C 
ATOM     41  C   UNL A   1      38.679  29.629  27.963  1.00  0.00     0.029 A 
ATOM     42  N   UNL A   1      40.013  29.358  29.739  1.00  0.00    -0.354 N 
ATOM     43  C   UNL A   1      39.313  31.541  33.401  1.00  0.00     0.074 A 
ATOM     44  C   UNL A   1      38.192  32.448  33.262  1.00  0.00     0.031 C 
ATOM     45  C   UNL A   1      39.570  28.668  27.660  1.00  0.00     0.029 A 
ATOM     46  C   UNL A   1      40.471  28.471  28.794  1.00  0.00     0.049 A 
ATOM     47  H   UNL A   1      40.420  29.452  30.630  1.00  0.00     0.167 HD
ATOM     48  C   UNL A   1      40.019  31.370  34.543  1.00  0.00     0.034 A 
ATOM     49  C   UNL A   1      41.500  27.601  28.839  1.00  0.00     0.034 A 
ATOM     50  C   UNL A   1      41.143  30.481  34.677  1.00  0.00     0.049 A 
ATOM     51  C   UNL A   1      42.328  27.496  30.094  1.00  0.00     0.074 A 
ATOM     52  C   UNL A   1      41.947  30.267  35.785  1.00  0.00     0.029 A 
ATOM     53  N   UNL A   1      41.625  29.658  33.671  1.00  0.00    -0.354 N 
ATOM     54  N   UNL A   1      42.186  28.137  31.229  1.00  0.00    -0.248 NA
ATOM     55  C   UNL A   1      43.456  26.551  30.073  1.00  0.00     0.031 C 
ATOM     56  C   UNL A   1      42.937  29.343  35.437  1.00  0.00     0.029 A 
ATOM     57  C   UNL A   1      42.720  28.946  34.127  1.00  0.00     0.049 A 
ATOM     58  H   UNL A   1      41.242  29.589  32.767  1.00  0.00     0.167 HD
ATOM     59  C   UNL A   1      43.187  27.651  32.065  1.00  0.00     0.074 A 
ATOM     60  C   UNL A   1      43.933  26.672  31.304  1.00  0.00     0.031 C 
ATOM     61  C   UNL A   1      43.454  27.978  33.354  1.00  0.00     0.034 A 
BRANCH  48  62
ATOM     62  C   UNL A   1      39.613  32.189  35.737  1.00  0.00     0.023 A 
ATOM     63  C   UNL A   1      38.703  31.694  36.686  1.00  0.00     0.031 A 
ATOM     64  C   UNL A   1      40.158  33.468  35.936  1.00  0.00     0.131 A 
ATOM     65  C   UNL A   1      38.341  32.492  37.781  1.00  0.00     0.055 A 
ATOM     66  C   UNL A   1      39.831  34.236  37.053  1.00  0.00     0.041 A 
ATOM     67  F   UNL A   1      41.018  33.989  35.045  1.00  0.00    -0.206 F 
ATOM     68  C   UNL A   1      38.915  33.751  37.981  1.00  0.00     0.022 A 
BRANCH  65  69
ATOM     69  S   UNL A   1      37.070  31.885  38.924  1.00  0.00     0.124 S 
ATOM     70  O   UNL A   1      36.956  30.487  38.517  1.00  0.00    -0.237 OA
ATOM     71  O   UNL A   1      37.673  32.122  40.230  1.00  0.00    -0.237 OA
ATOM     72  O   UNL A   1      35.909  32.717  38.614  1.00  0.00    -0.744 OA
ENDBRANCH  65  69
ENDBRANCH  48  62
BRANCH  49  73
ATOM     73  C   UNL A   1      41.826  26.768  27.650  1.00  0.00     0.023 A 
ATOM     74  C   UNL A   1      41.496  25.404  27.608  1.00  0.00     0.031 A 
ATOM     75  C   UNL A   1      42.502  27.323  26.550  1.00  0.00     0.131 A 
ATOM     76  C   UNL A   1      41.869  24.633  26.498  1.00  0.00     0.055 A 
ATOM     77  C   UNL A   1      42.842  26.559  25.434  1.00  0.00     0.041 A 
ATOM     78  F   UNL A   1      42.832  28.625  26.544  1.00  0.00    -0.206 F 
ATOM     79  C   UNL A   1      42.532  25.202  25.407  1.00  0.00     0.022 A 
BRANCH  76  80
ATOM     80  S   UNL A   1      41.511  22.855  26.513  1.00  0.00     0.124 S 
ATOM     81  O   UNL A   1      42.274  22.390  25.360  1.00  0.00    -0.237 OA
ATOM     82  O   UNL A   1      42.016  22.454  27.822  1.00  0.00    -0.237 OA
ATOM     83  O   UNL A   1      40.058  22.800  26.365  1.00  0.00    -0.744 OA
ENDBRANCH  76  80
ENDBRANCH  49  73
BRANCH  61  84
ATOM     84  C   UNL A   1      44.571  27.241  34.038  1.00  0.00     0.023 A 
ATOM     85  C   UNL A   1      44.358  26.001  34.660  1.00  0.00     0.031 A 
ATOM     86  C   UNL A   1      45.872  27.768  34.019  1.00  0.00     0.131 A 
ATOM     87  C   UNL A   1      45.435  25.333  35.261  1.00  0.00     0.055 A 
ATOM     88  C   UNL A   1      46.946  27.086  34.591  1.00  0.00     0.041 A 
ATOM     89  F   UNL A   1      46.121  28.949  33.429  1.00  0.00    -0.206 F 
ATOM     90  C   UNL A   1      46.730  25.861  35.218  1.00  0.00     0.022 A 
BRANCH  87  91
ATOM     91  S   UNL A   1      45.133  23.753  36.099  1.00  0.00     0.124 S 
ATOM     92  O   UNL A   1      45.239  24.133  37.505  1.00  0.00    -0.237 OA
ATOM     93  O   UNL A   1      43.796  23.396  35.637  1.00  0.00    -0.237 OA
ATOM     94  O   UNL A   1      46.206  22.892  35.605  1.00  0.00    -0.744 OA
ENDBRANCH  87  91
ENDBRANCH  61  84
ENDBRANCH  35  36
ENDBRANCH  28  30
ENDBRANCH  27  28
ENDBRANCH  26  27
ENDBRANCH  25  26
ENDBRANCH  24  25
ENDBRANCH   1  24
TORSDOF 21
ENDMDL
MODEL 3
REMARK VINA RESULT:     -10.3      2.535      4.128
REMARK SMILES O=C(COc1ccc(F)cc1)Nc1sccc1C(=O)OCCOCCOC(=O)c1ccc(-c2c3nc(c(-c4cc(S(=O)(=O)[O-])ccc4F)c4ccc([nH]4)c(-c4cc(S(=O)(=O)[O-])ccc4F)c4nc(c(-c5cc(S(=O)(=O)[O-])ccc5F)c5ccc2[nH]5)C=C4)C=C3)cc1
REMARK SMILES IDX 22 1 21 2 20 3 18 4 19 5 17 6 13 7 14 8 15 9 16 10 12 11
REMARK SMILES IDX 1 12 2 13 3 15 4 16 5 17 6 18 11 19 7 20 10 21 8 22 9 23
REMARK SMILES IDX 23 24 24 25 25 26 26 27 27 28 28 29 29 30 30 31 91 32 31 33
REMARK SMILES IDX 90 34 32 35 33 36 34 37 84 38 35 39 89 40 83 41 85 42 36 43
REMARK SMILES IDX 88 44 82 45 81 46 37 48 69 49 49 50 68 51 50 52 53 53 67 54
REMARK SMILES IDX 86 55 51 56 52 57 66 59 87 60 54 61 38 62 39 63 47 64 40 65
REMARK SMILES IDX 46 66 48 67 45 68 41 69 42 70 43 71 44 72 70 73 71 74 79 75
REMARK SMILES IDX 72 76 78 77 80 78 77 79 73 80 74 81 75 82 76 83 55 84 56 85
REMARK SMILES IDX 64 86 57 87 63 88 65 89 62 90 58 91 59 92 60 93 61 94
REMARK H PARENT 12 14 85 47 53 58
REMARK Flexibility Score: inf
ROOT
ATOM      1  C   UNL A   1      33.514  29.721  27.262  1.00  0.00     0.202 C 
ENDROOT
BRANCH   1   2
ATOM      2  C   UNL A   1      32.916  28.558  26.467  1.00  0.00     0.261 C 
BRANCH   2   3
ATOM      3  O   UNL A   1      33.995  27.746  25.982  1.00  0.00    -0.460 OA
BRANCH   3   4
ATOM      4  C   UNL A   1      33.842  27.194  24.748  1.00  0.00     0.341 C 
ATOM      5  O   UNL A   1      34.098  27.756  23.689  1.00  0.00    -0.246 OA
BRANCH   4   6
ATOM      6  C   UNL A   1      33.603  25.756  24.832  1.00  0.00     0.094 A 
ATOM      7  C   UNL A   1      32.404  25.083  24.693  1.00  0.00     0.110 A 
ATOM      8  S   UNL A   1      32.509  23.441  25.158  1.00  0.00    -0.126 S 
ATOM      9  C   UNL A   1      34.196  23.544  25.379  1.00  0.00     0.068 A 
ATOM     10  C   UNL A   1      34.654  24.824  25.170  1.00  0.00     0.029 A 
BRANCH   7  11
ATOM     11  N   UNL A   1      31.140  25.383  24.241  1.00  0.00    -0.314 N 
ATOM     12  O   UNL A   1      30.107  25.861  26.277  1.00  0.00    -0.271 OA
ATOM     13  C   UNL A   1      30.098  25.799  25.052  1.00  0.00     0.262 C 
ATOM     14  H   UNL A   1      30.965  25.297  23.276  1.00  0.00     0.170 HD
BRANCH  13  15
ATOM     15  C   UNL A   1      28.909  26.297  24.228  1.00  0.00     0.329 C 
BRANCH  15  16
ATOM     16  O   UNL A   1      29.349  27.042  23.084  1.00  0.00    -0.484 OA
BRANCH  16  17
ATOM     17  C   UNL A   1      28.982  28.359  23.194  1.00  0.00     0.120 A 
ATOM     18  C   UNL A   1      29.938  29.331  23.497  1.00  0.00     0.049 A 
ATOM     19  C   UNL A   1      27.658  28.715  22.946  1.00  0.00     0.049 A 
ATOM     20  C   UNL A   1      29.553  30.665  23.615  1.00  0.00     0.043 A 
ATOM     21  C   UNL A   1      27.276  30.054  23.054  1.00  0.00     0.043 A 
ATOM     22  C   UNL A   1      28.225  31.015  23.395  1.00  0.00     0.123 A 
ATOM     23  F   UNL A   1      27.858  32.298  23.504  1.00  0.00    -0.207 F 
ENDBRANCH  16  17
ENDBRANCH  15  16
ENDBRANCH  13  15
ENDBRANCH   7  11
ENDBRANCH   4   6
ENDBRANCH   3   4
ENDBRANCH   2   3
ENDBRANCH   1   2
BRANCH   1  24
ATOM     24  O   UNL A   1      32.568  30.756  27.561  1.00  0.00    -0.374 OA
BRANCH  24  25
ATOM     25  C   UNL A   1      32.248  31.653  26.496  1.00  0.00     0.202 C 
BRANCH  25  26
ATOM     26  C   UNL A   1      31.887  33.073  26.939  1.00  0.00     0.261 C 
BRANCH  26  27
ATOM     27  O   UNL A   1      32.320  33.339  28.285  1.00  0.00    -0.460 OA
BRANCH  27  28
ATOM     28  C   UNL A   1      33.403  34.148  28.379  1.00  0.00     0.338 C 
ATOM     29  O   UNL A   1      33.414  35.367  28.325  1.00  0.00    -0.246 OA
BRANCH  28  30
ATOM     30  C   UNL A   1      34.610  33.357  28.695  1.00  0.00     0.060 A 
ATOM     31  C   UNL A   1      34.464  32.301  29.602  1.00  0.00     0.016 A 
ATOM     32  C   UNL A   1      35.873  33.681  28.187  1.00  0.00     0.016 A 
ATOM     33  C   UNL A   1      35.582  31.592  30.035  1.00  0.00     0.010 A 
ATOM     34  C   UNL A   1      36.998  32.975  28.631  1.00  0.00     0.010 A 
ATOM     35  C   UNL A   1      36.860  31.946  29.579  1.00  0.00    -0.014 A 
BRANCH  35  36
ATOM     36  C   UNL A   1      38.046  31.303  30.196  1.00  0.00     0.031 A 
ATOM     37  C   UNL A   1      38.407  31.638  31.619  1.00  0.00     0.074 A 
ATOM     38  C   UNL A   1      38.744  30.369  29.525  1.00  0.00     0.049 A 
ATOM     39  N   UNL A   1      39.372  31.161  32.361  1.00  0.00    -0.248 NA
ATOM     40  C   UNL A   1      37.560  32.633  32.296  1.00  0.00     0.031 C 
ATOM     41  C   UNL A   1      38.450  29.913  28.166  1.00  0.00     0.029 A 
ATOM     42  N   UNL A   1      39.830  29.621  29.904  1.00  0.00    -0.354 N 
ATOM     43  C   UNL A   1      39.239  31.779  33.600  1.00  0.00     0.074 A 
ATOM     44  C   UNL A   1      38.119  32.692  33.498  1.00  0.00     0.031 C 
ATOM     45  C   UNL A   1      39.328  28.950  27.832  1.00  0.00     0.029 A 
ATOM     46  C   UNL A   1      40.258  28.740  28.940  1.00  0.00     0.049 A 
ATOM     47  H   UNL A   1      40.261  29.707  30.785  1.00  0.00     0.167 HD
ATOM     48  C   UNL A   1      39.975  31.595  34.722  1.00  0.00     0.034 A 
ATOM     49  C   UNL A   1      41.284  27.864  28.950  1.00  0.00     0.034 A 
ATOM     50  C   UNL A   1      41.098  30.701  34.818  1.00  0.00     0.049 A 
ATOM     51  C   UNL A   1      42.145  27.745  30.182  1.00  0.00     0.074 A 
ATOM     52  C   UNL A   1      41.930  30.474  35.903  1.00  0.00     0.029 A 
ATOM     53  N   UNL A   1      41.548  29.883  33.793  1.00  0.00    -0.354 N 
ATOM     54  N   UNL A   1      42.036  28.379  31.325  1.00  0.00    -0.248 NA
ATOM     55  C   UNL A   1      43.267  26.796  30.123  1.00  0.00     0.031 C 
ATOM     56  C   UNL A   1      42.906  29.548  35.521  1.00  0.00     0.029 A 
ATOM     57  C   UNL A   1      42.652  29.162  34.214  1.00  0.00     0.049 A 
ATOM     58  H   UNL A   1      41.141  29.823  32.899  1.00  0.00     0.167 HD
ATOM     59  C   UNL A   1      43.057  27.882  32.131  1.00  0.00     0.074 A 
ATOM     60  C   UNL A   1      43.778  26.906  31.342  1.00  0.00     0.031 C 
ATOM     61  C   UNL A   1      43.360  28.197  33.414  1.00  0.00     0.034 A 
BRANCH  48  62
ATOM     62  C   UNL A   1      39.604  32.407  35.931  1.00  0.00     0.023 A 
ATOM     63  C   UNL A   1      40.189  33.661  36.175  1.00  0.00     0.031 A 
ATOM     64  C   UNL A   1      38.642  31.931  36.836  1.00  0.00     0.131 A 
ATOM     65  C   UNL A   1      39.825  34.385  37.319  1.00  0.00     0.055 A 
ATOM     66  C   UNL A   1      38.248  32.678  37.946  1.00  0.00     0.041 A 
ATOM     67  F   UNL A   1      38.070  30.729  36.653  1.00  0.00    -0.206 F 
ATOM     68  C   UNL A   1      38.844  33.912  38.195  1.00  0.00     0.022 A 
BRANCH  65  69
ATOM     69  S   UNL A   1      40.684  35.941  37.681  1.00  0.00     0.124 S 
ATOM     70  O   UNL A   1      40.217  36.224  39.036  1.00  0.00    -0.237 OA
ATOM     71  O   UNL A   1      42.088  35.571  37.554  1.00  0.00    -0.237 OA
ATOM     72  O   UNL A   1      40.186  36.852  36.651  1.00  0.00    -0.744 OA
ENDBRANCH  65  69
ENDBRANCH  48  62
BRANCH  49  73
ATOM     73  C   UNL A   1      41.574  27.039  27.746  1.00  0.00     0.023 A 
ATOM     74  C   UNL A   1      41.283  25.666  27.723  1.00  0.00     0.031 A 
ATOM     75  C   UNL A   1      42.176  27.612  26.614  1.00  0.00     0.131 A 
ATOM     76  C   UNL A   1      41.623  24.904  26.595  1.00  0.00     0.055 A 
ATOM     77  C   UNL A   1      42.482  26.856  25.482  1.00  0.00     0.041 A 
ATOM     78  F   UNL A   1      42.466  28.923  26.590  1.00  0.00    -0.206 F 
ATOM     79  C   UNL A   1      42.211  25.491  25.472  1.00  0.00     0.022 A 
BRANCH  76  80
ATOM     80  S   UNL A   1      41.320  23.117  26.629  1.00  0.00     0.124 S 
ATOM     81  O   UNL A   1      41.683  22.780  28.002  1.00  0.00    -0.237 OA
ATOM     82  O   UNL A   1      39.899  23.042  26.304  1.00  0.00    -0.237 OA
ATOM     83  O   UNL A   1      42.220  22.600  25.601  1.00  0.00    -0.744 OA
ENDBRANCH  76  80
ENDBRANCH  49  73
BRANCH  61  84
ATOM     84  C   UNL A   1      44.491  27.450  34.062  1.00  0.00     0.023 A 
ATOM     85  C   UNL A   1      44.277  26.239  34.739  1.00  0.00     0.031 A 
ATOM     86  C   UNL A   1      45.805  27.935  33.953  1.00  0.00     0.131 A 
ATOM     87  C   UNL A   1      45.366  25.559  35.304  1.00  0.00     0.055 A 
ATOM     88  C   UNL A   1      46.888  27.240  34.490  1.00  0.00     0.041 A 
ATOM     89  F   UNL A   1      46.055  29.087  33.308  1.00  0.00    -0.206 F 
ATOM     90  C   UNL A   1      46.672  26.045  35.171  1.00  0.00     0.022 A 
BRANCH  87  91
ATOM     91  S   UNL A   1      45.065  24.019  36.214  1.00  0.00     0.124 S 
ATOM     92  O   UNL A   1      45.586  23.016  35.290  1.00  0.00    -0.237 OA
ATOM     93  O   UNL A   1      45.835  24.215  37.439  1.00  0.00    -0.237 OA
ATOM     94  O   UNL A   1      43.615  24.006  36.395  1.00  0.00    -0.744 OA
ENDBRANCH  87  91
ENDBRANCH  61  84
ENDBRANCH  35  36
ENDBRANCH  28  30
ENDBRANCH  27  28
ENDBRANCH  26  27
ENDBRANCH  25  26
ENDBRANCH  24  25
ENDBRANCH   1  24
TORSDOF 21
ENDMDL
