MODEL 1
REMARK VINA RESULT:     -11.3      0.000      0.000
REMARK SMILES Cc1ccc(C(c2ccccc2)(c2ccccc2)n2cnc(C[C@H]([NH3+])C(=O)OCCOCCOC(=O)c3ccc(-c4c5nc(c(-c6cc(S(=O)(=O)[O-])ccc6F)c6ccc([nH]6)c(-c6cc(S(=O)(=O)[O-])ccc6F)c6nc(c(-c7cc(S(=O)(=O)[O-])ccc7F)c7ccc4[nH]7)C=C6)C=C5)cc3)c2)cc1
REMARK SMILES IDX 30 1 29 2 28 3 26 4 27 5 24 6 23 7 22 8 19 9 20 10 100 11
REMARK SMILES IDX 21 12 6 13 5 14 1 15 2 16 3 17 102 18 4 19 101 20 7 21 8 22
REMARK SMILES IDX 12 23 9 24 11 25 10 26 13 27 14 28 18 29 15 30 17 31 16 32
REMARK SMILES IDX 25 33 31 37 32 38 33 39 34 40 35 41 36 42 37 43 38 44 99 45
REMARK SMILES IDX 39 46 98 47 40 48 41 49 42 50 92 51 43 52 97 53 91 54 93 55
REMARK SMILES IDX 44 56 96 57 90 58 89 59 45 61 77 62 57 63 76 64 58 65 61 66
REMARK SMILES IDX 75 67 94 68 59 69 60 70 74 72 95 73 62 74 46 75 47 76 55 77
REMARK SMILES IDX 48 78 54 79 56 80 53 81 49 82 50 83 51 84 52 85 78 86 79 87
REMARK SMILES IDX 87 88 80 89 86 90 88 91 85 92 81 93 82 94 83 95 84 96 63 97
REMARK SMILES IDX 64 98 72 99 65 100 71 101 73 102 70 103 66 104 67 105 68 106
REMARK SMILES IDX 69 107
REMARK H PARENT 25 34 25 35 25 36 93 60 61 71
REMARK Flexibility Score: inf
ROOT
ATOM      1  C   UNL A   1      33.651  30.702  27.387  1.00  0.00     0.202 C 
ENDROOT
BRANCH   1   2
ATOM      2  C   UNL A   1      33.081  30.296  26.070  1.00  0.00     0.261 C 
BRANCH   2   3
ATOM      3  O   UNL A   1      32.986  28.889  25.940  1.00  0.00    -0.459 OA
BRANCH   3   4
ATOM      4  C   UNL A   1      31.736  28.359  25.767  1.00  0.00     0.365 C 
ATOM      5  O   UNL A   1      30.971  28.526  24.837  1.00  0.00    -0.245 OA
BRANCH   4   6
ATOM      6  C   UNL A   1      31.514  27.400  26.935  1.00  0.00     0.297 C 
BRANCH   6   7
ATOM      7  C   UNL A   1      30.511  26.316  26.505  1.00  0.00     0.135 C 
BRANCH   7   8
ATOM      8  C   UNL A   1      31.192  25.090  26.003  1.00  0.00     0.065 A 
ATOM      9  N   UNL A   1      32.488  23.674  24.931  1.00  0.00    -0.319 N 
ATOM     10  C   UNL A   1      31.425  23.019  25.497  1.00  0.00     0.201 A 
ATOM     11  C   UNL A   1      32.408  24.980  25.379  1.00  0.00     0.112 A 
ATOM     12  N   UNL A   1      30.612  23.857  26.098  1.00  0.00    -0.241 NA
BRANCH   9  13
ATOM     13  C   UNL A   1      33.465  23.102  23.939  1.00  0.00     0.121 C 
BRANCH  13  14
ATOM     14  C   UNL A   1      33.287  21.533  23.901  1.00  0.00    -0.013 A 
ATOM     15  C   UNL A   1      33.131  17.221  23.490  1.00  0.00     0.044 C 
ATOM     16  C   UNL A   1      33.062  18.689  23.792  1.00  0.00    -0.051 A 
ATOM     17  C   UNL A   1      32.153  19.501  23.119  1.00  0.00     0.004 A 
ATOM     18  C   UNL A   1      33.991  19.294  24.633  1.00  0.00     0.004 A 
ATOM     19  C   UNL A   1      32.285  20.897  23.139  1.00  0.00     0.007 A 
ATOM     20  C   UNL A   1      34.048  20.689  24.739  1.00  0.00     0.007 A 
ENDBRANCH  13  14
BRANCH  13  21
ATOM     21  C   UNL A   1      33.180  23.831  22.541  1.00  0.00    -0.013 A 
ATOM     22  C   UNL A   1      33.270  23.136  21.309  1.00  0.00     0.007 A 
ATOM     23  C   UNL A   1      32.930  25.210  22.410  1.00  0.00     0.007 A 
ATOM     24  C   UNL A   1      32.986  23.735  20.071  1.00  0.00     0.000 A 
ATOM     25  C   UNL A   1      32.625  25.812  21.179  1.00  0.00     0.000 A 
ATOM     26  C   UNL A   1      32.632  25.072  20.009  1.00  0.00     0.000 A 
ENDBRANCH  13  21
BRANCH  13  27
ATOM     27  C   UNL A   1      34.914  23.434  24.540  1.00  0.00    -0.013 A 
ATOM     28  C   UNL A   1      36.071  23.298  23.734  1.00  0.00     0.007 A 
ATOM     29  C   UNL A   1      35.135  23.528  25.931  1.00  0.00     0.007 A 
ATOM     30  C   UNL A   1      37.347  23.159  24.287  1.00  0.00     0.000 A 
ATOM     31  C   UNL A   1      36.413  23.380  26.485  1.00  0.00     0.000 A 
ATOM     32  C   UNL A   1      37.513  23.172  25.665  1.00  0.00     0.000 A 
ENDBRANCH  13  27
ENDBRANCH   9  13
ENDBRANCH   7   8
ENDBRANCH   6   7
BRANCH   6  33
ATOM     33  N   UNL A   1      31.036  28.200  28.106  1.00  0.00    -0.346 N 
ATOM     34  H   UNL A   1      31.772  28.841  28.402  1.00  0.00     0.345 HD
ATOM     35  H   UNL A   1      30.803  27.572  28.875  1.00  0.00     0.345 HD
ATOM     36  H   UNL A   1      30.209  28.733  27.839  1.00  0.00     0.345 HD
ENDBRANCH   6  33
ENDBRANCH   4   6
ENDBRANCH   3   4
ENDBRANCH   2   3
ENDBRANCH   1   2
BRANCH   1  37
ATOM     37  O   UNL A   1      33.207  32.037  27.593  1.00  0.00    -0.374 OA
BRANCH  37  38
ATOM     38  C   UNL A   1      34.184  32.909  28.107  1.00  0.00     0.202 C 
BRANCH  38  39
ATOM     39  C   UNL A   1      34.378  32.704  29.612  1.00  0.00     0.261 C 
BRANCH  39  40
ATOM     40  O   UNL A   1      34.088  33.939  30.311  1.00  0.00    -0.460 OA
BRANCH  40  41
ATOM     41  C   UNL A   1      34.264  33.909  31.661  1.00  0.00     0.338 C 
ATOM     42  O   UNL A   1      33.396  34.186  32.483  1.00  0.00    -0.246 OA
BRANCH  41  43
ATOM     43  C   UNL A   1      35.692  33.644  32.006  1.00  0.00     0.060 A 
ATOM     44  C   UNL A   1      36.729  34.258  31.279  1.00  0.00     0.016 A 
ATOM     45  C   UNL A   1      35.981  32.569  32.839  1.00  0.00     0.016 A 
ATOM     46  C   UNL A   1      38.017  33.695  31.269  1.00  0.00     0.010 A 
ATOM     47  C   UNL A   1      37.208  31.951  32.723  1.00  0.00     0.010 A 
ATOM     48  C   UNL A   1      38.233  32.488  31.931  1.00  0.00    -0.014 A 
BRANCH  48  49
ATOM     49  C   UNL A   1      39.444  31.660  31.837  1.00  0.00     0.031 A 
ATOM     50  C   UNL A   1      39.386  30.468  30.947  1.00  0.00     0.074 A 
ATOM     51  C   UNL A   1      40.632  32.044  32.374  1.00  0.00     0.049 A 
ATOM     52  N   UNL A   1      40.147  29.438  31.054  1.00  0.00    -0.248 NA
ATOM     53  C   UNL A   1      38.425  30.319  29.853  1.00  0.00     0.031 C 
ATOM     54  C   UNL A   1      41.954  31.472  32.141  1.00  0.00     0.029 A 
ATOM     55  N   UNL A   1      40.917  33.050  33.307  1.00  0.00    -0.354 N 
ATOM     56  C   UNL A   1      40.020  28.685  29.903  1.00  0.00     0.074 A 
ATOM     57  C   UNL A   1      38.875  29.228  29.230  1.00  0.00     0.031 C 
ATOM     58  C   UNL A   1      42.807  31.876  33.101  1.00  0.00     0.029 A 
ATOM     59  C   UNL A   1      42.035  32.641  34.054  1.00  0.00     0.049 A 
ATOM     60  H   UNL A   1      40.422  33.894  33.420  1.00  0.00     0.167 HD
ATOM     61  C   UNL A   1      40.998  27.784  29.596  1.00  0.00     0.034 A 
ATOM     62  C   UNL A   1      41.948  32.442  35.395  1.00  0.00     0.034 A 
ATOM     63  C   UNL A   1      42.017  27.806  30.644  1.00  0.00     0.049 A 
ATOM     64  C   UNL A   1      42.161  30.965  35.637  1.00  0.00     0.074 A 
ATOM     65  C   UNL A   1      43.225  28.474  30.692  1.00  0.00     0.029 A 
ATOM     66  N   UNL A   1      41.689  27.471  31.960  1.00  0.00    -0.354 N 
ATOM     67  N   UNL A   1      41.832  30.034  34.774  1.00  0.00    -0.248 NA
ATOM     68  C   UNL A   1      42.944  30.449  36.755  1.00  0.00     0.031 C 
ATOM     69  C   UNL A   1      43.523  28.685  32.057  1.00  0.00     0.029 A 
ATOM     70  C   UNL A   1      42.581  28.053  32.840  1.00  0.00     0.049 A 
ATOM     71  H   UNL A   1      40.931  26.900  32.224  1.00  0.00     0.167 HD
ATOM     72  C   UNL A   1      42.485  28.874  35.101  1.00  0.00     0.074 A 
ATOM     73  C   UNL A   1      43.113  29.167  36.384  1.00  0.00     0.031 C 
ATOM     74  C   UNL A   1      42.598  27.790  34.267  1.00  0.00     0.034 A 
BRANCH  61  75
ATOM     75  C   UNL A   1      41.226  27.142  28.237  1.00  0.00     0.023 A 
ATOM     76  C   UNL A   1      41.537  25.762  28.174  1.00  0.00     0.031 A 
ATOM     77  C   UNL A   1      41.191  27.798  26.991  1.00  0.00     0.131 A 
ATOM     78  C   UNL A   1      41.857  25.127  26.955  1.00  0.00     0.055 A 
ATOM     79  C   UNL A   1      41.559  27.183  25.786  1.00  0.00     0.041 A 
ATOM     80  F   UNL A   1      40.736  29.048  26.857  1.00  0.00    -0.206 F 
ATOM     81  C   UNL A   1      41.900  25.841  25.763  1.00  0.00     0.022 A 
BRANCH  78  82
ATOM     82  S   UNL A   1      42.207  23.344  26.940  1.00  0.00     0.124 S 
ATOM     83  O   UNL A   1      41.543  22.900  25.720  1.00  0.00    -0.237 OA
ATOM     84  O   UNL A   1      43.664  23.313  26.929  1.00  0.00    -0.237 OA
ATOM     85  O   UNL A   1      41.590  22.871  28.178  1.00  0.00    -0.744 OA
ENDBRANCH  78  82
ENDBRANCH  61  75
BRANCH  62  86
ATOM     86  C   UNL A   1      40.997  33.414  36.026  1.00  0.00     0.023 A 
ATOM     87  C   UNL A   1      39.703  32.917  36.357  1.00  0.00     0.031 A 
ATOM     88  C   UNL A   1      41.446  34.545  36.720  1.00  0.00     0.131 A 
ATOM     89  C   UNL A   1      38.994  33.429  37.460  1.00  0.00     0.055 A 
ATOM     90  C   UNL A   1      40.715  35.078  37.794  1.00  0.00     0.041 A 
ATOM     91  F   UNL A   1      42.658  35.061  36.471  1.00  0.00    -0.206 F 
ATOM     92  C   UNL A   1      39.513  34.493  38.199  1.00  0.00     0.022 A 
BRANCH  89  93
ATOM     93  S   UNL A   1      37.561  32.498  38.120  1.00  0.00     0.124 S 
ATOM     94  O   UNL A   1      37.854  31.136  37.690  1.00  0.00    -0.237 OA
ATOM     95  O   UNL A   1      37.634  32.734  39.561  1.00  0.00    -0.237 OA
ATOM     96  O   UNL A   1      36.417  33.134  37.469  1.00  0.00    -0.744 OA
ENDBRANCH  89  93
ENDBRANCH  62  86
BRANCH  74  97
ATOM     97  C   UNL A   1      43.021  26.414  34.705  1.00  0.00     0.023 A 
ATOM     98  C   UNL A   1      44.362  26.031  34.717  1.00  0.00     0.031 A 
ATOM     99  C   UNL A   1      42.100  25.472  35.234  1.00  0.00     0.131 A 
ATOM    100  C   UNL A   1      44.737  24.749  35.135  1.00  0.00     0.055 A 
ATOM    101  C   UNL A   1      42.493  24.249  35.772  1.00  0.00     0.041 A 
ATOM    102  F   UNL A   1      40.778  25.692  35.260  1.00  0.00    -0.206 F 
ATOM    103  C   UNL A   1      43.822  23.872  35.710  1.00  0.00     0.022 A 
BRANCH 100 104
ATOM    104  S   UNL A   1      46.434  24.233  34.808  1.00  0.00     0.124 S 
ATOM    105  O   UNL A   1      46.320  22.780  34.916  1.00  0.00    -0.237 OA
ATOM    106  O   UNL A   1      46.671  24.747  33.463  1.00  0.00    -0.237 OA
ATOM    107  O   UNL A   1      47.198  24.881  35.869  1.00  0.00    -0.744 OA
ENDBRANCH 100 104
ENDBRANCH  74  97
ENDBRANCH  48  49
ENDBRANCH  41  43
ENDBRANCH  40  41
ENDBRANCH  39  40
ENDBRANCH  38  39
ENDBRANCH  37  38
ENDBRANCH   1  37
TORSDOF 24
ENDMDL
MODEL 2
REMARK VINA RESULT:     -11.3      1.160      2.730
REMARK SMILES Cc1ccc(C(c2ccccc2)(c2ccccc2)n2cnc(C[C@H]([NH3+])C(=O)OCCOCCOC(=O)c3ccc(-c4c5nc(c(-c6cc(S(=O)(=O)[O-])ccc6F)c6ccc([nH]6)c(-c6cc(S(=O)(=O)[O-])ccc6F)c6nc(c(-c7cc(S(=O)(=O)[O-])ccc7F)c7ccc4[nH]7)C=C6)C=C5)cc3)c2)cc1
REMARK SMILES IDX 30 1 29 2 28 3 26 4 27 5 24 6 23 7 22 8 19 9 20 10 100 11
REMARK SMILES IDX 21 12 6 13 5 14 1 15 2 16 3 17 102 18 4 19 101 20 7 21 8 22
REMARK SMILES IDX 12 23 9 24 11 25 10 26 13 27 14 28 18 29 15 30 17 31 16 32
REMARK SMILES IDX 25 33 31 37 32 38 33 39 34 40 35 41 36 42 37 43 38 44 99 45
REMARK SMILES IDX 39 46 98 47 40 48 41 49 42 50 92 51 43 52 97 53 91 54 93 55
REMARK SMILES IDX 44 56 96 57 90 58 89 59 45 61 77 62 57 63 76 64 58 65 61 66
REMARK SMILES IDX 75 67 94 68 59 69 60 70 74 72 95 73 62 74 46 75 47 76 55 77
REMARK SMILES IDX 48 78 54 79 56 80 53 81 49 82 50 83 51 84 52 85 78 86 79 87
REMARK SMILES IDX 87 88 80 89 86 90 88 91 85 92 81 93 82 94 83 95 84 96 63 97
REMARK SMILES IDX 64 98 72 99 65 100 71 101 73 102 70 103 66 104 67 105 68 106
REMARK SMILES IDX 69 107
REMARK H PARENT 25 34 25 35 25 36 93 60 61 71
REMARK Flexibility Score: inf
ROOT
ATOM      1  C   UNL A   1      33.878  30.878  27.433  1.00  0.00     0.202 C 
ENDROOT
BRANCH   1   2
ATOM      2  C   UNL A   1      32.832  30.423  26.471  1.00  0.00     0.261 C 
BRANCH   2   3
ATOM      3  O   UNL A   1      32.988  29.061  26.117  1.00  0.00    -0.459 OA
BRANCH   3   4
ATOM      4  C   UNL A   1      31.847  28.334  25.909  1.00  0.00     0.365 C 
ATOM      5  O   UNL A   1      31.126  28.331  24.929  1.00  0.00    -0.245 OA
BRANCH   4   6
ATOM      6  C   UNL A   1      31.701  27.414  27.119  1.00  0.00     0.297 C 
BRANCH   6   7
ATOM      7  C   UNL A   1      30.853  26.195  26.717  1.00  0.00     0.135 C 
BRANCH   7   8
ATOM      8  C   UNL A   1      31.694  25.009  26.394  1.00  0.00     0.065 A 
ATOM      9  N   UNL A   1      33.081  23.588  25.450  1.00  0.00    -0.319 N 
ATOM     10  C   UNL A   1      32.284  22.947  26.364  1.00  0.00     0.201 A 
ATOM     11  C   UNL A   1      32.793  24.934  25.578  1.00  0.00     0.112 A 
ATOM     12  N   UNL A   1      31.415  23.772  26.901  1.00  0.00    -0.241 NA
BRANCH   9  13
ATOM     13  C   UNL A   1      33.991  22.934  24.445  1.00  0.00     0.121 C 
BRANCH  13  14
ATOM     14  C   UNL A   1      35.479  23.036  24.967  1.00  0.00    -0.013 A 
ATOM     15  C   UNL A   1      39.460  22.975  26.678  1.00  0.00     0.044 C 
ATOM     16  C   UNL A   1      38.159  23.122  25.946  1.00  0.00    -0.051 A 
ATOM     17  C   UNL A   1      37.214  24.050  26.375  1.00  0.00     0.004 A 
ATOM     18  C   UNL A   1      37.806  22.246  24.924  1.00  0.00     0.004 A 
ATOM     19  C   UNL A   1      35.887  23.985  25.925  1.00  0.00     0.007 A 
ATOM     20  C   UNL A   1      36.509  22.258  24.396  1.00  0.00     0.007 A 
ENDBRANCH  13  14
BRANCH  13  21
ATOM     21  C   UNL A   1      33.461  21.434  24.253  1.00  0.00    -0.013 A 
ATOM     22  C   UNL A   1      33.980  20.360  25.018  1.00  0.00     0.007 A 
ATOM     23  C   UNL A   1      32.541  21.046  23.261  1.00  0.00     0.007 A 
ATOM     24  C   UNL A   1      33.508  19.042  24.903  1.00  0.00     0.000 A 
ATOM     25  C   UNL A   1      32.049  19.736  23.153  1.00  0.00     0.000 A 
ATOM     26  C   UNL A   1      32.516  18.735  23.988  1.00  0.00     0.000 A 
ENDBRANCH  13  21
BRANCH  13  27
ATOM     27  C   UNL A   1      33.857  23.826  23.119  1.00  0.00    -0.013 A 
ATOM     28  C   UNL A   1      33.999  25.234  23.187  1.00  0.00     0.007 A 
ATOM     29  C   UNL A   1      33.267  23.319  21.941  1.00  0.00     0.007 A 
ATOM     30  C   UNL A   1      33.491  26.078  22.196  1.00  0.00     0.000 A 
ATOM     31  C   UNL A   1      32.750  24.166  20.954  1.00  0.00     0.000 A 
ATOM     32  C   UNL A   1      32.841  25.544  21.092  1.00  0.00     0.000 A 
ENDBRANCH  13  27
ENDBRANCH   9  13
ENDBRANCH   7   8
ENDBRANCH   6   7
BRANCH   6  33
ATOM     33  N   UNL A   1      31.087  28.205  28.231  1.00  0.00    -0.346 N 
ATOM     34  H   UNL A   1      30.804  29.121  27.880  1.00  0.00     0.345 HD
ATOM     35  H   UNL A   1      31.769  28.324  28.980  1.00  0.00     0.345 HD
ATOM     36  H   UNL A   1      30.270  27.711  28.589  1.00  0.00     0.345 HD
ENDBRANCH   6  33
ENDBRANCH   4   6
ENDBRANCH   3   4
ENDBRANCH   2   3
ENDBRANCH   1   2
BRANCH   1  37
ATOM     37  O   UNL A   1      33.685  32.281  27.563  1.00  0.00    -0.374 OA
BRANCH  37  38
ATOM     38  C   UNL A   1      34.671  32.941  28.318  1.00  0.00     0.202 C 
BRANCH  38  39
ATOM     39  C   UNL A   1      34.550  32.606  29.807  1.00  0.00     0.261 C 
BRANCH  39  40
ATOM     40  O   UNL A   1      34.028  33.753  30.521  1.00  0.00    -0.460 OA
BRANCH  40  41
ATOM     41  C   UNL A   1      34.209  33.741  31.872  1.00  0.00     0.338 C 
ATOM     42  O   UNL A   1      33.334  33.993  32.694  1.00  0.00    -0.246 OA
BRANCH  41  43
ATOM     43  C   UNL A   1      35.646  33.531  32.213  1.00  0.00     0.060 A 
ATOM     44  C   UNL A   1      36.658  34.192  31.490  1.00  0.00     0.016 A 
ATOM     45  C   UNL A   1      35.980  32.463  33.039  1.00  0.00     0.016 A 
ATOM     46  C   UNL A   1      37.967  33.680  31.475  1.00  0.00     0.010 A 
ATOM     47  C   UNL A   1      37.230  31.896  32.918  1.00  0.00     0.010 A 
ATOM     48  C   UNL A   1      38.232  32.479  32.129  1.00  0.00    -0.014 A 
BRANCH  48  49
ATOM     49  C   UNL A   1      39.475  31.701  32.029  1.00  0.00     0.031 A 
ATOM     50  C   UNL A   1      39.481  30.544  31.092  1.00  0.00     0.074 A 
ATOM     51  C   UNL A   1      40.637  32.107  32.606  1.00  0.00     0.049 A 
ATOM     52  N   UNL A   1      40.278  29.539  31.174  1.00  0.00    -0.248 NA
ATOM     53  C   UNL A   1      38.548  30.403  29.972  1.00  0.00     0.031 C 
ATOM     54  C   UNL A   1      41.984  31.594  32.380  1.00  0.00     0.029 A 
ATOM     55  N   UNL A   1      40.864  33.084  33.584  1.00  0.00    -0.354 N 
ATOM     56  C   UNL A   1      40.202  28.829  29.992  1.00  0.00     0.074 A 
ATOM     57  C   UNL A   1      39.052  29.356  29.317  1.00  0.00     0.031 C 
ATOM     58  C   UNL A   1      42.802  31.991  33.372  1.00  0.00     0.029 A 
ATOM     59  C   UNL A   1      41.982  32.688  34.339  1.00  0.00     0.049 A 
ATOM     60  H   UNL A   1      40.335  33.904  33.719  1.00  0.00     0.167 HD
ATOM     61  C   UNL A   1      41.220  27.978  29.671  1.00  0.00     0.034 A 
ATOM     62  C   UNL A   1      41.875  32.432  35.668  1.00  0.00     0.034 A 
ATOM     63  C   UNL A   1      42.216  27.996  30.741  1.00  0.00     0.049 A 
ATOM     64  C   UNL A   1      42.140  30.956  35.857  1.00  0.00     0.074 A 
ATOM     65  C   UNL A   1      43.397  28.706  30.841  1.00  0.00     0.029 A 
ATOM     66  N   UNL A   1      41.874  27.596  32.036  1.00  0.00    -0.354 N 
ATOM     67  N   UNL A   1      41.864  30.049  34.951  1.00  0.00    -0.248 NA
ATOM     68  C   UNL A   1      42.919  30.425  36.970  1.00  0.00     0.031 C 
ATOM     69  C   UNL A   1      43.659  28.873  32.220  1.00  0.00     0.029 A 
ATOM     70  C   UNL A   1      42.726  28.176  32.957  1.00  0.00     0.049 A 
ATOM     71  H   UNL A   1      41.134  26.988  32.260  1.00  0.00     0.167 HD
ATOM     72  C   UNL A   1      42.553  28.901  35.246  1.00  0.00     0.074 A 
ATOM     73  C   UNL A   1      43.145  29.166  36.552  1.00  0.00     0.031 C 
ATOM     74  C   UNL A   1      42.724  27.856  34.373  1.00  0.00     0.034 A 
BRANCH  61  75
ATOM     75  C   UNL A   1      41.500  27.400  28.294  1.00  0.00     0.023 A 
ATOM     76  C   UNL A   1      42.814  27.473  27.772  1.00  0.00     0.031 A 
ATOM     77  C   UNL A   1      40.556  26.804  27.435  1.00  0.00     0.131 A 
ATOM     78  C   UNL A   1      43.120  27.044  26.464  1.00  0.00     0.055 A 
ATOM     79  C   UNL A   1      40.845  26.426  26.116  1.00  0.00     0.041 A 
ATOM     80  F   UNL A   1      39.320  26.492  27.841  1.00  0.00    -0.206 F 
ATOM     81  C   UNL A   1      42.131  26.549  25.620  1.00  0.00     0.022 A 
BRANCH  78  82
ATOM     82  S   UNL A   1      44.836  27.129  25.872  1.00  0.00     0.124 S 
ATOM     83  O   UNL A   1      44.862  26.117  24.824  1.00  0.00    -0.237 OA
ATOM     84  O   UNL A   1      44.946  28.515  25.433  1.00  0.00    -0.237 OA
ATOM     85  O   UNL A   1      45.618  26.796  27.062  1.00  0.00    -0.744 OA
ENDBRANCH  78  82
ENDBRANCH  61  75
BRANCH  62  86
ATOM     86  C   UNL A   1      40.876  33.343  36.316  1.00  0.00     0.023 A 
ATOM     87  C   UNL A   1      39.615  32.769  36.651  1.00  0.00     0.031 A 
ATOM     88  C   UNL A   1      41.266  34.490  37.018  1.00  0.00     0.131 A 
ATOM     89  C   UNL A   1      38.886  33.229  37.764  1.00  0.00     0.055 A 
ATOM     90  C   UNL A   1      40.514  34.969  38.103  1.00  0.00     0.041 A 
ATOM     91  F   UNL A   1      42.445  35.077  36.767  1.00  0.00    -0.206 F 
ATOM     92  C   UNL A   1      39.350  34.313  38.511  1.00  0.00     0.022 A 
BRANCH  89  93
ATOM     93  S   UNL A   1      37.513  32.211  38.424  1.00  0.00     0.124 S 
ATOM     94  O   UNL A   1      37.582  31.020  37.587  1.00  0.00    -0.237 OA
ATOM     95  O   UNL A   1      37.876  32.017  39.828  1.00  0.00    -0.237 OA
ATOM     96  O   UNL A   1      36.339  33.059  38.223  1.00  0.00    -0.744 OA
ENDBRANCH  89  93
ENDBRANCH  62  86
BRANCH  74  97
ATOM     97  C   UNL A   1      43.190  26.480  34.766  1.00  0.00     0.023 A 
ATOM     98  C   UNL A   1      44.546  26.168  34.861  1.00  0.00     0.031 A 
ATOM     99  C   UNL A   1      42.287  25.462  35.167  1.00  0.00     0.131 A 
ATOM    100  C   UNL A   1      44.961  24.885  35.236  1.00  0.00     0.055 A 
ATOM    101  C   UNL A   1      42.707  24.231  35.665  1.00  0.00     0.041 A 
ATOM    102  F   UNL A   1      40.956  25.610  35.101  1.00  0.00    -0.206 F 
ATOM    103  C   UNL A   1      44.056  23.928  35.687  1.00  0.00     0.022 A 
BRANCH 100 104
ATOM    104  S   UNL A   1      46.704  24.478  35.015  1.00  0.00     0.124 S 
ATOM    105  O   UNL A   1      46.794  24.369  33.561  1.00  0.00    -0.237 OA
ATOM    106  O   UNL A   1      47.379  25.630  35.603  1.00  0.00    -0.237 OA
ATOM    107  O   UNL A   1      46.856  23.224  35.747  1.00  0.00    -0.744 OA
ENDBRANCH 100 104
ENDBRANCH  74  97
ENDBRANCH  48  49
ENDBRANCH  41  43
ENDBRANCH  40  41
ENDBRANCH  39  40
ENDBRANCH  38  39
ENDBRANCH  37  38
ENDBRANCH   1  37
TORSDOF 24
ENDMDL
MODEL 3
REMARK VINA RESULT:     -10.9      5.526     11.689
REMARK SMILES Cc1ccc(C(c2ccccc2)(c2ccccc2)n2cnc(C[C@H]([NH3+])C(=O)OCCOCCOC(=O)c3ccc(-c4c5nc(c(-c6cc(S(=O)(=O)[O-])ccc6F)c6ccc([nH]6)c(-c6cc(S(=O)(=O)[O-])ccc6F)c6nc(c(-c7cc(S(=O)(=O)[O-])ccc7F)c7ccc4[nH]7)C=C6)C=C5)cc3)c2)cc1
REMARK SMILES IDX 30 1 29 2 28 3 26 4 27 5 24 6 23 7 22 8 19 9 20 10 100 11
REMARK SMILES IDX 21 12 6 13 5 14 1 15 2 16 3 17 102 18 4 19 101 20 7 21 8 22
REMARK SMILES IDX 12 23 9 24 11 25 10 26 13 27 14 28 18 29 15 30 17 31 16 32
REMARK SMILES IDX 25 33 31 37 32 38 33 39 34 40 35 41 36 42 37 43 38 44 99 45
REMARK SMILES IDX 39 46 98 47 40 48 41 49 42 50 92 51 43 52 97 53 91 54 93 55
REMARK SMILES IDX 44 56 96 57 90 58 89 59 45 61 77 62 57 63 76 64 58 65 61 66
REMARK SMILES IDX 75 67 94 68 59 69 60 70 74 72 95 73 62 74 46 75 47 76 55 77
REMARK SMILES IDX 48 78 54 79 56 80 53 81 49 82 50 83 51 84 52 85 78 86 79 87
REMARK SMILES IDX 87 88 80 89 86 90 88 91 85 92 81 93 82 94 83 95 84 96 63 97
REMARK SMILES IDX 64 98 72 99 65 100 71 101 73 102 70 103 66 104 67 105 68 106
REMARK SMILES IDX 69 107
REMARK H PARENT 25 34 25 35 25 36 93 60 61 71
REMARK Flexibility Score: inf
ROOT
ATOM      1  C   UNL A   1      41.532  23.286  26.529  1.00  0.00     0.202 C 
ENDROOT
BRANCH   1   2
ATOM      2  C   UNL A   1      42.896  22.689  26.435  1.00  0.00     0.261 C 
BRANCH   2   3
ATOM      3  O   UNL A   1      42.997  21.753  25.377  1.00  0.00    -0.459 OA
BRANCH   3   4
ATOM      4  C   UNL A   1      43.994  21.950  24.460  1.00  0.00     0.365 C 
ATOM      5  O   UNL A   1      43.887  22.251  23.287  1.00  0.00    -0.245 OA
BRANCH   4   6
ATOM      6  C   UNL A   1      45.309  21.833  25.228  1.00  0.00     0.297 C 
BRANCH   6   7
ATOM      7  C   UNL A   1      46.392  22.636  24.486  1.00  0.00     0.135 C 
BRANCH   7   8
ATOM      8  C   UNL A   1      46.683  23.934  25.156  1.00  0.00     0.065 A 
ATOM      9  N   UNL A   1      46.905  25.564  26.615  1.00  0.00    -0.319 N 
ATOM     10  C   UNL A   1      46.950  26.055  25.336  1.00  0.00     0.201 A 
ATOM     11  C   UNL A   1      46.876  24.187  26.489  1.00  0.00     0.112 A 
ATOM     12  N   UNL A   1      46.768  25.101  24.452  1.00  0.00    -0.241 NA
BRANCH   9  13
ATOM     13  C   UNL A   1      46.796  26.373  27.880  1.00  0.00     0.121 C 
BRANCH  13  14
ATOM     14  C   UNL A   1      47.988  25.980  28.838  1.00  0.00    -0.013 A 
ATOM     15  C   UNL A   1      51.157  24.472  31.382  1.00  0.00     0.044 C 
ATOM     16  C   UNL A   1      50.146  25.176  30.526  1.00  0.00    -0.051 A 
ATOM     17  C   UNL A   1      48.935  25.595  31.070  1.00  0.00     0.004 A 
ATOM     18  C   UNL A   1      50.328  25.298  29.151  1.00  0.00     0.004 A 
ATOM     19  C   UNL A   1      47.861  25.953  30.242  1.00  0.00     0.007 A 
ATOM     20  C   UNL A   1      49.290  25.763  28.336  1.00  0.00     0.007 A 
ENDBRANCH  13  14
BRANCH  13  21
ATOM     21  C   UNL A   1      46.785  27.914  27.439  1.00  0.00    -0.013 A 
ATOM     22  C   UNL A   1      47.916  28.747  27.626  1.00  0.00     0.007 A 
ATOM     23  C   UNL A   1      45.650  28.582  26.943  1.00  0.00     0.007 A 
ATOM     24  C   UNL A   1      47.954  30.089  27.214  1.00  0.00     0.000 A 
ATOM     25  C   UNL A   1      45.685  29.917  26.509  1.00  0.00     0.000 A 
ATOM     26  C   UNL A   1      46.842  30.667  26.624  1.00  0.00     0.000 A 
ENDBRANCH  13  21
BRANCH  13  27
ATOM     27  C   UNL A   1      45.422  25.902  28.559  1.00  0.00    -0.013 A 
ATOM     28  C   UNL A   1      44.530  26.857  29.106  1.00  0.00     0.007 A 
ATOM     29  C   UNL A   1      45.209  24.562  28.947  1.00  0.00     0.007 A 
ATOM     30  C   UNL A   1      43.564  26.510  30.055  1.00  0.00     0.000 A 
ATOM     31  C   UNL A   1      44.247  24.217  29.905  1.00  0.00     0.000 A 
ATOM     32  C   UNL A   1      43.442  25.193  30.475  1.00  0.00     0.000 A 
ENDBRANCH  13  27
ENDBRANCH   9  13
ENDBRANCH   7   8
ENDBRANCH   6   7
BRANCH   6  33
ATOM     33  N   UNL A   1      45.646  20.380  25.350  1.00  0.00    -0.346 N 
ATOM     34  H   UNL A   1      46.612  20.281  25.662  1.00  0.00     0.345 HD
ATOM     35  H   UNL A   1      45.533  19.927  24.444  1.00  0.00     0.345 HD
ATOM     36  H   UNL A   1      45.024  19.943  26.030  1.00  0.00     0.345 HD
ENDBRANCH   6  33
ENDBRANCH   4   6
ENDBRANCH   3   4
ENDBRANCH   2   3
ENDBRANCH   1   2
BRANCH   1  37
ATOM     37  O   UNL A   1      41.673  24.621  26.059  1.00  0.00    -0.374 OA
BRANCH  37  38
ATOM     38  C   UNL A   1      42.999  25.087  26.004  1.00  0.00     0.202 C 
BRANCH  38  39
ATOM     39  C   UNL A   1      43.080  26.457  25.327  1.00  0.00     0.261 C 
BRANCH  39  40
ATOM     40  O   UNL A   1      41.773  27.082  25.337  1.00  0.00    -0.460 OA
BRANCH  40  41
ATOM     41  C   UNL A   1      41.738  28.371  25.779  1.00  0.00     0.338 C 
ATOM     42  O   UNL A   1      41.954  29.353  25.077  1.00  0.00    -0.246 OA
BRANCH  41  43
ATOM     43  C   UNL A   1      41.552  28.420  27.259  1.00  0.00     0.060 A 
ATOM     44  C   UNL A   1      40.543  27.660  27.880  1.00  0.00     0.016 A 
ATOM     45  C   UNL A   1      42.178  29.439  27.969  1.00  0.00     0.016 A 
ATOM     46  C   UNL A   1      40.059  28.026  29.148  1.00  0.00     0.010 A 
ATOM     47  C   UNL A   1      41.613  29.868  29.151  1.00  0.00     0.010 A 
ATOM     48  C   UNL A   1      40.543  29.186  29.748  1.00  0.00    -0.014 A 
BRANCH  48  49
ATOM     49  C   UNL A   1      39.994  29.825  30.952  1.00  0.00     0.031 A 
ATOM     50  C   UNL A   1      39.105  31.001  30.753  1.00  0.00     0.074 A 
ATOM     51  C   UNL A   1      40.119  29.276  32.190  1.00  0.00     0.049 A 
ATOM     52  N   UNL A   1      38.883  31.910  31.635  1.00  0.00    -0.248 NA
ATOM     53  C   UNL A   1      38.393  31.278  29.504  1.00  0.00     0.031 C 
ATOM     54  C   UNL A   1      39.418  29.644  33.415  1.00  0.00     0.029 A 
ATOM     55  N   UNL A   1      40.962  28.251  32.640  1.00  0.00    -0.354 N 
ATOM     56  C   UNL A   1      37.799  32.660  31.222  1.00  0.00     0.074 A 
ATOM     57  C   UNL A   1      37.588  32.283  29.854  1.00  0.00     0.031 C 
ATOM     58  C   UNL A   1      40.055  29.131  34.484  1.00  0.00     0.029 A 
ATOM     59  C   UNL A   1      41.259  28.499  33.991  1.00  0.00     0.049 A 
ATOM     60  H   UNL A   1      41.288  27.490  32.105  1.00  0.00     0.167 HD
ATOM     61  C   UNL A   1      37.124  33.402  32.147  1.00  0.00     0.034 A 
ATOM     62  C   UNL A   1      42.536  28.725  34.398  1.00  0.00     0.034 A 
ATOM     63  C   UNL A   1      37.765  33.242  33.451  1.00  0.00     0.049 A 
ATOM     64  C   UNL A   1      42.599  30.157  34.878  1.00  0.00     0.074 A 
ATOM     65  C   UNL A   1      37.442  32.405  34.501  1.00  0.00     0.029 A 
ATOM     66  N   UNL A   1      39.091  33.639  33.644  1.00  0.00    -0.354 N 
ATOM     67  N   UNL A   1      41.843  31.115  34.401  1.00  0.00    -0.248 NA
ATOM     68  C   UNL A   1      43.352  30.565  36.059  1.00  0.00     0.031 C 
ATOM     69  C   UNL A   1      38.636  32.168  35.219  1.00  0.00     0.029 A 
ATOM     70  C   UNL A   1      39.651  32.941  34.698  1.00  0.00     0.049 A 
ATOM     71  H   UNL A   1      39.559  34.318  33.107  1.00  0.00     0.167 HD
ATOM     72  C   UNL A   1      41.857  32.171  35.275  1.00  0.00     0.074 A 
ATOM     73  C   UNL A   1      42.867  31.803  36.262  1.00  0.00     0.031 C 
ATOM     74  C   UNL A   1      40.969  33.216  35.240  1.00  0.00     0.034 A 
BRANCH  61  75
ATOM     75  C   UNL A   1      35.731  33.988  31.979  1.00  0.00     0.023 A 
ATOM     76  C   UNL A   1      35.231  34.204  30.672  1.00  0.00     0.031 A 
ATOM     77  C   UNL A   1      34.864  34.380  33.017  1.00  0.00     0.131 A 
ATOM     78  C   UNL A   1      33.989  34.834  30.446  1.00  0.00     0.055 A 
ATOM     79  C   UNL A   1      33.653  35.053  32.796  1.00  0.00     0.041 A 
ATOM     80  F   UNL A   1      35.102  34.077  34.297  1.00  0.00    -0.206 F 
ATOM     81  C   UNL A   1      33.211  35.289  31.506  1.00  0.00     0.022 A 
BRANCH  78  82
ATOM     82  S   UNL A   1      33.388  35.044  28.744  1.00  0.00     0.124 S 
ATOM     83  O   UNL A   1      32.756  33.760  28.469  1.00  0.00    -0.237 OA
ATOM     84  O   UNL A   1      32.494  36.189  28.868  1.00  0.00    -0.237 OA
ATOM     85  O   UNL A   1      34.612  35.297  27.986  1.00  0.00    -0.744 OA
ENDBRANCH  78  82
ENDBRANCH  61  75
BRANCH  62  86
ATOM     86  C   UNL A   1      43.510  27.911  33.601  1.00  0.00     0.023 A 
ATOM     87  C   UNL A   1      44.548  28.628  32.938  1.00  0.00     0.031 A 
ATOM     88  C   UNL A   1      43.739  26.556  33.871  1.00  0.00     0.131 A 
ATOM     89  C   UNL A   1      45.813  28.045  32.737  1.00  0.00     0.055 A 
ATOM     90  C   UNL A   1      44.991  25.967  33.631  1.00  0.00     0.041 A 
ATOM     91  F   UNL A   1      42.813  25.820  34.504  1.00  0.00    -0.206 F 
ATOM     92  C   UNL A   1      46.046  26.720  33.110  1.00  0.00     0.022 A 
BRANCH  89  93
ATOM     93  S   UNL A   1      47.235  29.111  32.291  1.00  0.00     0.124 S 
ATOM     94  O   UNL A   1      48.369  28.321  32.754  1.00  0.00    -0.237 OA
ATOM     95  O   UNL A   1      47.115  29.253  30.841  1.00  0.00    -0.237 OA
ATOM     96  O   UNL A   1      46.978  30.343  33.035  1.00  0.00    -0.744 OA
ENDBRANCH  89  93
ENDBRANCH  62  86
BRANCH  74  97
ATOM     97  C   UNL A   1      41.152  34.520  35.968  1.00  0.00     0.023 A 
ATOM     98  C   UNL A   1      40.551  34.756  37.205  1.00  0.00     0.031 A 
ATOM     99  C   UNL A   1      42.029  35.532  35.499  1.00  0.00     0.131 A 
ATOM    100  C   UNL A   1      40.740  35.972  37.871  1.00  0.00     0.055 A 
ATOM    101  C   UNL A   1      42.317  36.683  36.229  1.00  0.00     0.041 A 
ATOM    102  F   UNL A   1      42.653  35.454  34.315  1.00  0.00    -0.206 F 
ATOM    103  C   UNL A   1      41.655  36.918  37.420  1.00  0.00     0.022 A 
BRANCH 100 104
ATOM    104  S   UNL A   1      39.674  36.318  39.285  1.00  0.00     0.124 S 
ATOM    105  O   UNL A   1      38.876  35.096  39.351  1.00  0.00    -0.237 OA
ATOM    106  O   UNL A   1      40.632  36.504  40.370  1.00  0.00    -0.237 OA
ATOM    107  O   UNL A   1      38.948  37.518  38.880  1.00  0.00    -0.744 OA
ENDBRANCH 100 104
ENDBRANCH  74  97
ENDBRANCH  48  49
ENDBRANCH  41  43
ENDBRANCH  40  41
ENDBRANCH  39  40
ENDBRANCH  38  39
ENDBRANCH  37  38
ENDBRANCH   1  37
TORSDOF 24
ENDMDL
