MODEL 1
REMARK VINA RESULT:     -12.0      0.000      0.000
REMARK SMILES NC(=O)c1c(-c2ccc(Cl)cc2)csc1NC(=O)[C@H]1[C@@H](C(=O)OCCOCCOC(=O)c2ccc(-c3c4nc(c(-c5cc(S(=O)(=O)[O-])ccc5F)c5ccc([nH]5)c(-c5cc(S(=O)(=O)[O-])ccc5F)c5nc(c(-c6cc(S(=O)(=O)[O-])ccc6F)c6ccc3[nH]6)C=C5)C=C4)cc2)[C@@H]2CC[C@H]1O2
REMARK SMILES IDX 26 1 25 2 24 3 23 4 21 5 22 6 20 7 19 8 98 9 95 10 97 11
REMARK SMILES IDX 99 12 96 13 17 14 16 15 18 17 15 18 4 19 5 20 13 21 14 22
REMARK SMILES IDX 2 23 1 24 3 27 6 28 7 29 12 30 8 31 11 32 9 33 10 34 27 35
REMARK SMILES IDX 28 36 29 37 30 38 31 39 32 40 33 41 94 42 34 43 93 44 35 45
REMARK SMILES IDX 36 46 37 47 87 48 38 49 92 50 86 51 88 52 39 53 91 54 85 55
REMARK SMILES IDX 84 56 40 58 72 59 52 60 71 61 53 62 56 63 70 64 89 65 54 66
REMARK SMILES IDX 55 67 69 69 90 70 57 71 41 72 42 73 50 74 43 75 49 76 51 77
REMARK SMILES IDX 48 78 44 79 45 80 46 81 47 82 73 83 74 84 82 85 75 86 81 87
REMARK SMILES IDX 83 88 80 89 76 90 77 91 78 92 79 93 58 94 59 95 67 96 60 97
REMARK SMILES IDX 66 98 68 99 65 100 61 101 62 102 63 103 64 104
REMARK H PARENT 16 16 1 25 1 26 88 57 56 68
REMARK Flexibility Score: inf
ROOT
ATOM      1  O   UNL A   1      37.352  21.937  25.557  1.00  0.00    -0.374 OA
ENDROOT
BRANCH   1   2
ATOM      2  C   UNL A   1      36.110  22.544  25.846  1.00  0.00     0.202 C 
BRANCH   2   3
ATOM      3  C   UNL A   1      35.705  23.977  25.426  1.00  0.00     0.261 C 
BRANCH   3   4
ATOM      4  O   UNL A   1      34.557  24.639  25.958  1.00  0.00    -0.463 OA
BRANCH   4   5
ATOM      5  C   UNL A   1      34.185  25.721  25.234  1.00  0.00     0.312 C 
ATOM      6  O   UNL A   1      34.366  25.803  24.028  1.00  0.00    -0.252 OA
BRANCH   5   7
ATOM      7  C   UNL A   1      33.328  26.672  26.011  1.00  0.00     0.143 C 
ATOM      8  C   UNL A   1      31.893  26.777  25.489  1.00  0.00     0.124 C 
ATOM      9  C   UNL A   1      31.585  28.249  25.708  1.00  0.00     0.132 C 
ATOM     10  C   UNL A   1      33.727  28.156  26.130  1.00  0.00     0.133 C 
ATOM     11  C   UNL A   1      31.660  28.623  27.202  1.00  0.00     0.035 C 
ATOM     12  O   UNL A   1      32.809  28.843  25.246  1.00  0.00    -0.373 OA
ATOM     13  C   UNL A   1      33.178  28.746  27.432  1.00  0.00     0.036 C 
BRANCH   8  14
ATOM     14  C   UNL A   1      31.419  26.256  24.114  1.00  0.00     0.231 C 
ATOM     15  N   UNL A   1      31.260  24.980  23.655  1.00  0.00    -0.317 N 
ATOM     16  H   UNL A   1      30.897  24.941  22.741  1.00  0.00     0.170 HD
ATOM     17  O   UNL A   1      31.091  27.145  23.303  1.00  0.00    -0.274 OA
BRANCH  15  18
ATOM     18  C   UNL A   1      31.500  23.729  24.198  1.00  0.00     0.108 A 
ATOM     19  C   UNL A   1      32.349  22.735  23.702  1.00  0.00     0.082 A 
ATOM     20  C   UNL A   1      32.206  21.516  24.495  1.00  0.00     0.007 A 
ATOM     21  C   UNL A   1      31.434  21.740  25.619  1.00  0.00     0.076 A 
ATOM     22  S   UNL A   1      30.928  23.359  25.741  1.00  0.00    -0.125 S 
BRANCH  19  23
ATOM     23  C   UNL A   1      33.127  22.966  22.480  1.00  0.00     0.252 C 
ATOM     24  N   UNL A   1      34.464  23.199  22.607  1.00  0.00    -0.365 N 
ATOM     25  H   UNL A   1      35.014  23.359  21.806  1.00  0.00     0.159 HD
ATOM     26  H   UNL A   1      34.880  23.209  23.499  1.00  0.00     0.159 HD
ATOM     27  O   UNL A   1      32.618  22.952  21.361  1.00  0.00    -0.269 OA
ENDBRANCH  19  23
BRANCH  20  28
ATOM     28  C   UNL A   1      32.694  20.163  24.228  1.00  0.00    -0.017 A 
ATOM     29  C   UNL A   1      32.117  19.410  23.193  1.00  0.00     0.010 A 
ATOM     30  C   UNL A   1      33.778  19.627  24.932  1.00  0.00     0.010 A 
ATOM     31  C   UNL A   1      32.672  18.189  22.811  1.00  0.00     0.021 A 
ATOM     32  C   UNL A   1      34.301  18.376  24.574  1.00  0.00     0.021 A 
ATOM     33  C   UNL A   1      33.756  17.670  23.505  1.00  0.00     0.041 A 
ATOM     34  Cl  UNL A   1      34.429  16.166  23.020  1.00  0.00    -0.084 Cl
ENDBRANCH  20  28
ENDBRANCH  15  18
ENDBRANCH   8  14
ENDBRANCH   5   7
ENDBRANCH   4   5
ENDBRANCH   3   4
ENDBRANCH   2   3
ENDBRANCH   1   2
BRANCH   1  35
ATOM     35  C   UNL A   1      37.427  20.670  24.938  1.00  0.00     0.202 C 
BRANCH  35  36
ATOM     36  C   UNL A   1      38.665  19.800  25.162  1.00  0.00     0.261 C 
BRANCH  36  37
ATOM     37  O   UNL A   1      39.328  20.030  26.412  1.00  0.00    -0.460 OA
BRANCH  37  38
ATOM     38  C   UNL A   1      40.626  20.426  26.289  1.00  0.00     0.338 C 
ATOM     39  O   UNL A   1      41.492  19.886  25.637  1.00  0.00    -0.246 OA
BRANCH  38  40
ATOM     40  C   UNL A   1      40.791  21.759  26.915  1.00  0.00     0.060 A 
ATOM     41  C   UNL A   1      40.090  22.833  26.351  1.00  0.00     0.016 A 
ATOM     42  C   UNL A   1      41.623  21.963  28.019  1.00  0.00     0.016 A 
ATOM     43  C   UNL A   1      40.242  24.117  26.870  1.00  0.00     0.010 A 
ATOM     44  C   UNL A   1      41.813  23.262  28.510  1.00  0.00     0.010 A 
ATOM     45  C   UNL A   1      41.151  24.349  27.915  1.00  0.00    -0.014 A 
BRANCH  45  46
ATOM     46  C   UNL A   1      41.590  25.747  28.171  1.00  0.00     0.031 A 
ATOM     47  C   UNL A   1      42.918  26.170  27.599  1.00  0.00     0.074 A 
ATOM     48  C   UNL A   1      40.829  26.633  28.839  1.00  0.00     0.049 A 
ATOM     49  N   UNL A   1      43.509  27.334  27.643  1.00  0.00    -0.248 NA
ATOM     50  C   UNL A   1      43.687  25.128  26.897  1.00  0.00     0.031 C 
ATOM     51  C   UNL A   1      39.541  26.340  29.455  1.00  0.00     0.029 A 
ATOM     52  N   UNL A   1      41.017  27.972  29.084  1.00  0.00    -0.354 N 
ATOM     53  C   UNL A   1      44.720  27.167  26.981  1.00  0.00     0.074 A 
ATOM     54  C   UNL A   1      44.780  25.788  26.547  1.00  0.00     0.031 C 
ATOM     55  C   UNL A   1      39.008  27.483  29.923  1.00  0.00     0.029 A 
ATOM     56  C   UNL A   1      39.960  28.575  29.731  1.00  0.00     0.049 A 
ATOM     57  H   UNL A   1      41.832  28.457  28.821  1.00  0.00     0.167 HD
ATOM     58  C   UNL A   1      45.707  28.071  26.773  1.00  0.00     0.034 A 
ATOM     59  C   UNL A   1      39.799  29.852  30.143  1.00  0.00     0.034 A 
ATOM     60  C   UNL A   1      45.671  29.423  27.266  1.00  0.00     0.049 A 
ATOM     61  C   UNL A   1      40.940  30.828  29.936  1.00  0.00     0.074 A 
ATOM     62  C   UNL A   1      46.648  30.399  27.174  1.00  0.00     0.029 A 
ATOM     63  N   UNL A   1      44.609  29.987  27.958  1.00  0.00    -0.354 N 
ATOM     64  N   UNL A   1      42.089  30.646  29.323  1.00  0.00    -0.248 NA
ATOM     65  C   UNL A   1      40.772  32.175  30.501  1.00  0.00     0.031 C 
ATOM     66  C   UNL A   1      46.202  31.530  27.866  1.00  0.00     0.029 A 
ATOM     67  C   UNL A   1      44.915  31.289  28.320  1.00  0.00     0.049 A 
ATOM     68  H   UNL A   1      43.762  29.529  28.163  1.00  0.00     0.167 HD
ATOM     69  C   UNL A   1      42.772  31.857  29.429  1.00  0.00     0.074 A 
ATOM     70  C   UNL A   1      41.888  32.775  30.116  1.00  0.00     0.031 C 
ATOM     71  C   UNL A   1      44.025  32.184  29.018  1.00  0.00     0.034 A 
BRANCH  58  72
ATOM     72  C   UNL A   1      46.936  27.582  26.055  1.00  0.00     0.023 A 
ATOM     73  C   UNL A   1      47.179  27.903  24.709  1.00  0.00     0.031 A 
ATOM     74  C   UNL A   1      47.851  26.741  26.713  1.00  0.00     0.131 A 
ATOM     75  C   UNL A   1      48.277  27.337  24.045  1.00  0.00     0.055 A 
ATOM     76  C   UNL A   1      48.983  26.242  26.068  1.00  0.00     0.041 A 
ATOM     77  F   UNL A   1      47.647  26.374  27.987  1.00  0.00    -0.206 F 
ATOM     78  C   UNL A   1      49.195  26.530  24.723  1.00  0.00     0.022 A 
BRANCH  75  79
ATOM     79  S   UNL A   1      48.418  27.565  22.252  1.00  0.00     0.124 S 
ATOM     80  O   UNL A   1      49.561  28.470  22.161  1.00  0.00    -0.237 OA
ATOM     81  O   UNL A   1      48.639  26.204  21.776  1.00  0.00    -0.237 OA
ATOM     82  O   UNL A   1      47.134  28.155  21.880  1.00  0.00    -0.744 OA
ENDBRANCH  75  79
ENDBRANCH  58  72
BRANCH  59  83
ATOM     83  C   UNL A   1      38.562  30.297  30.865  1.00  0.00     0.023 A 
ATOM     84  C   UNL A   1      37.505  30.919  30.176  1.00  0.00     0.031 A 
ATOM     85  C   UNL A   1      38.470  30.223  32.267  1.00  0.00     0.131 A 
ATOM     86  C   UNL A   1      36.446  31.505  30.892  1.00  0.00     0.055 A 
ATOM     87  C   UNL A   1      37.376  30.735  32.967  1.00  0.00     0.041 A 
ATOM     88  F   UNL A   1      39.454  29.660  32.986  1.00  0.00    -0.206 F 
ATOM     89  C   UNL A   1      36.366  31.400  32.282  1.00  0.00     0.022 A 
BRANCH  86  90
ATOM     90  S   UNL A   1      35.256  32.544  29.996  1.00  0.00     0.124 S 
ATOM     91  O   UNL A   1      36.106  33.635  29.534  1.00  0.00    -0.237 OA
ATOM     92  O   UNL A   1      34.768  31.629  28.969  1.00  0.00    -0.237 OA
ATOM     93  O   UNL A   1      34.280  32.904  31.022  1.00  0.00    -0.744 OA
ENDBRANCH  86  90
ENDBRANCH  59  83
BRANCH  71  94
ATOM     94  C   UNL A   1      44.493  33.595  29.286  1.00  0.00     0.023 A 
ATOM     95  C   UNL A   1      44.161  34.658  28.427  1.00  0.00     0.031 A 
ATOM     96  C   UNL A   1      45.292  33.878  30.408  1.00  0.00     0.131 A 
ATOM     97  C   UNL A   1      44.680  35.940  28.666  1.00  0.00     0.055 A 
ATOM     98  C   UNL A   1      45.753  35.167  30.676  1.00  0.00     0.041 A 
ATOM     99  F   UNL A   1      45.638  32.903  31.263  1.00  0.00    -0.206 F 
ATOM    100  C   UNL A   1      45.461  36.204  29.794  1.00  0.00     0.022 A 
BRANCH  97 101
ATOM    101  S   UNL A   1      44.407  37.236  27.426  1.00  0.00     0.124 S 
ATOM    102  O   UNL A   1      43.248  36.725  26.702  1.00  0.00    -0.237 OA
ATOM    103  O   UNL A   1      44.173  38.415  28.255  1.00  0.00    -0.237 OA
ATOM    104  O   UNL A   1      45.656  37.251  26.666  1.00  0.00    -0.744 OA
ENDBRANCH  97 101
ENDBRANCH  71  94
ENDBRANCH  45  46
ENDBRANCH  38  40
ENDBRANCH  37  38
ENDBRANCH  36  37
ENDBRANCH  35  36
ENDBRANCH   1  35
TORSDOF 21
ENDMDL
MODEL 2
REMARK VINA RESULT:     -11.7      4.959     10.272
REMARK SMILES NC(=O)c1c(-c2ccc(Cl)cc2)csc1NC(=O)[C@H]1[C@@H](C(=O)OCCOCCOC(=O)c2ccc(-c3c4nc(c(-c5cc(S(=O)(=O)[O-])ccc5F)c5ccc([nH]5)c(-c5cc(S(=O)(=O)[O-])ccc5F)c5nc(c(-c6cc(S(=O)(=O)[O-])ccc6F)c6ccc3[nH]6)C=C5)C=C4)cc2)[C@@H]2CC[C@H]1O2
REMARK SMILES IDX 26 1 25 2 24 3 23 4 21 5 22 6 20 7 19 8 98 9 95 10 97 11
REMARK SMILES IDX 99 12 96 13 17 14 16 15 18 17 15 18 4 19 5 20 13 21 14 22
REMARK SMILES IDX 2 23 1 24 3 27 6 28 7 29 12 30 8 31 11 32 9 33 10 34 27 35
REMARK SMILES IDX 28 36 29 37 30 38 31 39 32 40 33 41 94 42 34 43 93 44 35 45
REMARK SMILES IDX 36 46 37 47 87 48 38 49 92 50 86 51 88 52 39 53 91 54 85 55
REMARK SMILES IDX 84 56 40 58 72 59 52 60 71 61 53 62 56 63 70 64 89 65 54 66
REMARK SMILES IDX 55 67 69 69 90 70 57 71 41 72 42 73 50 74 43 75 49 76 51 77
REMARK SMILES IDX 48 78 44 79 45 80 46 81 47 82 73 83 74 84 82 85 75 86 81 87
REMARK SMILES IDX 83 88 80 89 76 90 77 91 78 92 79 93 58 94 59 95 67 96 60 97
REMARK SMILES IDX 66 98 68 99 65 100 61 101 62 102 63 103 64 104
REMARK H PARENT 16 16 1 25 1 26 88 57 56 68
REMARK Flexibility Score: inf
ROOT
ATOM      1  O   UNL A   1      31.935  29.749  27.369  1.00  0.00    -0.374 OA
ENDROOT
BRANCH   1   2
ATOM      2  C   UNL A   1      31.754  28.372  27.108  1.00  0.00     0.202 C 
BRANCH   2   3
ATOM      3  C   UNL A   1      32.710  27.497  26.263  1.00  0.00     0.261 C 
BRANCH   3   4
ATOM      4  O   UNL A   1      32.578  26.078  26.175  1.00  0.00    -0.463 OA
BRANCH   4   5
ATOM      5  C   UNL A   1      33.723  25.461  25.800  1.00  0.00     0.312 C 
ATOM      6  O   UNL A   1      34.647  26.051  25.261  1.00  0.00    -0.252 OA
BRANCH   5   7
ATOM      7  C   UNL A   1      33.828  24.063  26.329  1.00  0.00     0.143 C 
ATOM      8  C   UNL A   1      34.395  23.062  25.319  1.00  0.00     0.124 C 
ATOM      9  C   UNL A   1      33.597  21.809  25.635  1.00  0.00     0.132 C 
ATOM     10  C   UNL A   1      32.570  23.325  26.827  1.00  0.00     0.133 C 
ATOM     11  C   UNL A   1      33.841  21.335  27.081  1.00  0.00     0.035 C 
ATOM     12  O   UNL A   1      32.281  22.369  25.779  1.00  0.00    -0.373 OA
ATOM     13  C   UNL A   1      32.951  22.295  27.893  1.00  0.00     0.036 C 
BRANCH   8  14
ATOM     14  C   UNL A   1      34.536  23.329  23.804  1.00  0.00     0.231 C 
ATOM     15  N   UNL A   1      33.703  23.970  22.934  1.00  0.00    -0.317 N 
ATOM     16  H   UNL A   1      34.069  24.031  22.022  1.00  0.00     0.170 HD
ATOM     17  O   UNL A   1      35.603  22.924  23.300  1.00  0.00    -0.274 OA
BRANCH  15  18
ATOM     18  C   UNL A   1      32.452  24.552  23.057  1.00  0.00     0.108 A 
ATOM     19  C   UNL A   1      32.089  25.864  22.737  1.00  0.00     0.082 A 
ATOM     20  C   UNL A   1      30.711  26.114  23.149  1.00  0.00     0.007 A 
ATOM     21  C   UNL A   1      30.091  24.947  23.552  1.00  0.00     0.076 A 
ATOM     22  S   UNL A   1      31.110  23.594  23.408  1.00  0.00    -0.125 S 
BRANCH  19  23
ATOM     23  C   UNL A   1      33.081  26.794  22.185  1.00  0.00     0.252 C 
ATOM     24  N   UNL A   1      33.515  27.813  22.981  1.00  0.00    -0.365 N 
ATOM     25  H   UNL A   1      34.180  28.454  22.639  1.00  0.00     0.159 HD
ATOM     26  H   UNL A   1      33.163  27.908  23.895  1.00  0.00     0.159 HD
ATOM     27  O   UNL A   1      33.530  26.680  21.047  1.00  0.00    -0.269 OA
ENDBRANCH  19  23
BRANCH  20  28
ATOM     28  C   UNL A   1      29.976  27.376  23.242  1.00  0.00    -0.017 A 
ATOM     29  C   UNL A   1      30.672  28.591  23.146  1.00  0.00     0.010 A 
ATOM     30  C   UNL A   1      28.581  27.402  23.349  1.00  0.00     0.010 A 
ATOM     31  C   UNL A   1      29.980  29.799  23.063  1.00  0.00     0.021 A 
ATOM     32  C   UNL A   1      27.894  28.624  23.314  1.00  0.00     0.021 A 
ATOM     33  C   UNL A   1      28.595  29.816  23.156  1.00  0.00     0.041 A 
ATOM     34  Cl  UNL A   1      27.759  31.312  23.050  1.00  0.00    -0.084 Cl
ENDBRANCH  20  28
ENDBRANCH  15  18
ENDBRANCH   8  14
ENDBRANCH   5   7
ENDBRANCH   4   5
ENDBRANCH   3   4
ENDBRANCH   2   3
ENDBRANCH   1   2
BRANCH   1  35
ATOM     35  C   UNL A   1      31.724  30.722  26.370  1.00  0.00     0.202 C 
BRANCH  35  36
ATOM     36  C   UNL A   1      31.748  32.204  26.751  1.00  0.00     0.261 C 
BRANCH  36  37
ATOM     37  O   UNL A   1      32.408  32.482  27.992  1.00  0.00    -0.460 OA
BRANCH  37  38
ATOM     38  C   UNL A   1      33.401  33.411  27.899  1.00  0.00     0.338 C 
ATOM     39  O   UNL A   1      33.267  34.609  27.781  1.00  0.00    -0.246 OA
BRANCH  38  40
ATOM     40  C   UNL A   1      34.705  32.761  28.173  1.00  0.00     0.060 A 
ATOM     41  C   UNL A   1      34.705  31.382  28.420  1.00  0.00     0.016 A 
ATOM     42  C   UNL A   1      35.901  33.482  28.202  1.00  0.00     0.016 A 
ATOM     43  C   UNL A   1      35.895  30.726  28.727  1.00  0.00     0.010 A 
ATOM     44  C   UNL A   1      37.091  32.831  28.558  1.00  0.00     0.010 A 
ATOM     45  C   UNL A   1      37.086  31.458  28.857  1.00  0.00    -0.014 A 
BRANCH  45  46
ATOM     46  C   UNL A   1      38.230  30.825  29.567  1.00  0.00     0.031 A 
ATOM     47  C   UNL A   1      38.424  31.178  31.018  1.00  0.00     0.074 A 
ATOM     48  C   UNL A   1      39.043  29.931  28.975  1.00  0.00     0.049 A 
ATOM     49  N   UNL A   1      39.313  30.740  31.869  1.00  0.00    -0.248 NA
ATOM     50  C   UNL A   1      37.497  32.178  31.575  1.00  0.00     0.031 C 
ATOM     51  C   UNL A   1      38.969  29.524  27.577  1.00  0.00     0.029 A 
ATOM     52  N   UNL A   1      40.072  29.178  29.486  1.00  0.00    -0.354 N 
ATOM     53  C   UNL A   1      39.057  31.409  33.060  1.00  0.00     0.074 A 
ATOM     54  C   UNL A   1      37.932  32.286  32.821  1.00  0.00     0.031 C 
ATOM     55  C   UNL A   1      39.847  28.527  27.363  1.00  0.00     0.029 A 
ATOM     56  C   UNL A   1      40.617  28.290  28.583  1.00  0.00     0.049 A 
ATOM     57  H   UNL A   1      40.390  29.263  30.413  1.00  0.00     0.167 HD
ATOM     58  C   UNL A   1      39.714  31.322  34.242  1.00  0.00     0.034 A 
ATOM     59  C   UNL A   1      41.637  27.415  28.722  1.00  0.00     0.034 A 
ATOM     60  C   UNL A   1      40.874  30.498  34.454  1.00  0.00     0.049 A 
ATOM     61  C   UNL A   1      42.380  27.375  30.042  1.00  0.00     0.074 A 
ATOM     62  C   UNL A   1      41.658  30.392  35.590  1.00  0.00     0.029 A 
ATOM     63  N   UNL A   1      41.429  29.651  33.506  1.00  0.00    -0.354 N 
ATOM     64  N   UNL A   1      42.136  28.032  31.155  1.00  0.00    -0.248 NA
ATOM     65  C   UNL A   1      43.555  26.494  30.116  1.00  0.00     0.031 C 
ATOM     66  C   UNL A   1      42.723  29.528  35.306  1.00  0.00     0.029 A 
ATOM     67  C   UNL A   1      42.559  29.035  34.022  1.00  0.00     0.049 A 
ATOM     68  H   UNL A   1      41.074  29.507  32.599  1.00  0.00     0.167 HD
ATOM     69  C   UNL A   1      43.125  27.636  32.054  1.00  0.00     0.074 A 
ATOM     70  C   UNL A   1      43.935  26.648  31.375  1.00  0.00     0.031 C 
ATOM     71  C   UNL A   1      43.363  28.062  33.323  1.00  0.00     0.034 A 
BRANCH  58  72
ATOM     72  C   UNL A   1      39.231  32.214  35.354  1.00  0.00     0.023 A 
ATOM     73  C   UNL A   1      39.705  33.529  35.502  1.00  0.00     0.031 A 
ATOM     74  C   UNL A   1      38.322  31.725  36.309  1.00  0.00     0.131 A 
ATOM     75  C   UNL A   1      39.316  34.289  36.614  1.00  0.00     0.055 A 
ATOM     76  C   UNL A   1      37.880  32.513  37.371  1.00  0.00     0.041 A 
ATOM     77  F   UNL A   1      37.866  30.465  36.234  1.00  0.00    -0.206 F 
ATOM     78  C   UNL A   1      38.386  33.799  37.536  1.00  0.00     0.022 A 
BRANCH  75  79
ATOM     79  S   UNL A   1      40.139  35.876  36.911  1.00  0.00     0.124 S 
ATOM     80  O   UNL A   1      41.543  35.472  36.963  1.00  0.00    -0.237 OA
ATOM     81  O   UNL A   1      39.743  36.662  35.749  1.00  0.00    -0.237 OA
ATOM     82  O   UNL A   1      39.579  36.320  38.186  1.00  0.00    -0.744 OA
ENDBRANCH  75  79
ENDBRANCH  58  72
BRANCH  59  83
ATOM     83  C   UNL A   1      42.094  26.551  27.585  1.00  0.00     0.023 A 
ATOM     84  C   UNL A   1      41.613  25.237  27.433  1.00  0.00     0.031 A 
ATOM     85  C   UNL A   1      43.109  26.976  26.709  1.00  0.00     0.131 A 
ATOM     86  C   UNL A   1      42.196  24.379  26.485  1.00  0.00     0.055 A 
ATOM     87  C   UNL A   1      43.629  26.145  25.715  1.00  0.00     0.041 A 
ATOM     88  F   UNL A   1      43.626  28.210  26.813  1.00  0.00    -0.206 F 
ATOM     89  C   UNL A   1      43.188  24.830  25.613  1.00  0.00     0.022 A 
BRANCH  86  90
ATOM     90  S   UNL A   1      41.754  22.617  26.513  1.00  0.00     0.124 S 
ATOM     91  O   UNL A   1      42.425  22.126  25.316  1.00  0.00    -0.237 OA
ATOM     92  O   UNL A   1      42.313  22.185  27.789  1.00  0.00    -0.237 OA
ATOM     93  O   UNL A   1      40.294  22.633  26.448  1.00  0.00    -0.744 OA
ENDBRANCH  86  90
ENDBRANCH  59  83
BRANCH  71  94
ATOM     94  C   UNL A   1      44.531  27.441  34.051  1.00  0.00     0.023 A 
ATOM     95  C   UNL A   1      44.390  26.259  34.799  1.00  0.00     0.031 A 
ATOM     96  C   UNL A   1      45.798  28.048  34.008  1.00  0.00     0.131 A 
ATOM     97  C   UNL A   1      45.480  25.756  35.527  1.00  0.00     0.055 A 
ATOM     98  C   UNL A   1      46.895  27.508  34.682  1.00  0.00     0.041 A 
ATOM     99  F   UNL A   1      45.993  29.177  33.309  1.00  0.00    -0.206 F 
ATOM    100  C   UNL A   1      46.735  26.365  35.459  1.00  0.00     0.022 A 
BRANCH  97 101
ATOM    101  S   UNL A   1      45.208  24.354  36.645  1.00  0.00     0.124 S 
ATOM    102  O   UNL A   1      44.210  23.575  35.921  1.00  0.00    -0.237 OA
ATOM    103  O   UNL A   1      46.540  23.762  36.731  1.00  0.00    -0.237 OA
ATOM    104  O   UNL A   1      44.731  24.984  37.875  1.00  0.00    -0.744 OA
ENDBRANCH  97 101
ENDBRANCH  71  94
ENDBRANCH  45  46
ENDBRANCH  38  40
ENDBRANCH  37  38
ENDBRANCH  36  37
ENDBRANCH  35  36
ENDBRANCH   1  35
TORSDOF 21
ENDMDL
MODEL 3
REMARK VINA RESULT:     -11.6      2.581      8.282
REMARK SMILES NC(=O)c1c(-c2ccc(Cl)cc2)csc1NC(=O)[C@H]1[C@@H](C(=O)OCCOCCOC(=O)c2ccc(-c3c4nc(c(-c5cc(S(=O)(=O)[O-])ccc5F)c5ccc([nH]5)c(-c5cc(S(=O)(=O)[O-])ccc5F)c5nc(c(-c6cc(S(=O)(=O)[O-])ccc6F)c6ccc3[nH]6)C=C5)C=C4)cc2)[C@@H]2CC[C@H]1O2
REMARK SMILES IDX 26 1 25 2 24 3 23 4 21 5 22 6 20 7 19 8 98 9 95 10 97 11
REMARK SMILES IDX 99 12 96 13 17 14 16 15 18 17 15 18 4 19 5 20 13 21 14 22
REMARK SMILES IDX 2 23 1 24 3 27 6 28 7 29 12 30 8 31 11 32 9 33 10 34 27 35
REMARK SMILES IDX 28 36 29 37 30 38 31 39 32 40 33 41 94 42 34 43 93 44 35 45
REMARK SMILES IDX 36 46 37 47 87 48 38 49 92 50 86 51 88 52 39 53 91 54 85 55
REMARK SMILES IDX 84 56 40 58 72 59 52 60 71 61 53 62 56 63 70 64 89 65 54 66
REMARK SMILES IDX 55 67 69 69 90 70 57 71 41 72 42 73 50 74 43 75 49 76 51 77
REMARK SMILES IDX 48 78 44 79 45 80 46 81 47 82 73 83 74 84 82 85 75 86 81 87
REMARK SMILES IDX 83 88 80 89 76 90 77 91 78 92 79 93 58 94 59 95 67 96 60 97
REMARK SMILES IDX 66 98 68 99 65 100 61 101 62 102 63 103 64 104
REMARK H PARENT 16 16 1 25 1 26 88 57 56 68
REMARK Flexibility Score: inf
ROOT
ATOM      1  O   UNL A   1      35.592  19.270  24.594  1.00  0.00    -0.374 OA
ENDROOT
BRANCH   1   2
ATOM      2  C   UNL A   1      34.488  18.394  24.686  1.00  0.00     0.202 C 
BRANCH   2   3
ATOM      3  C   UNL A   1      33.065  18.805  25.132  1.00  0.00     0.261 C 
BRANCH   3   4
ATOM      4  O   UNL A   1      32.762  20.107  25.636  1.00  0.00    -0.463 OA
BRANCH   4   5
ATOM      5  C   UNL A   1      32.784  21.064  24.678  1.00  0.00     0.312 C 
ATOM      6  O   UNL A   1      31.867  21.230  23.888  1.00  0.00    -0.252 OA
BRANCH   5   7
ATOM      7  C   UNL A   1      33.916  22.029  24.850  1.00  0.00     0.143 C 
ATOM      8  C   UNL A   1      33.735  22.989  26.028  1.00  0.00     0.124 C 
ATOM      9  C   UNL A   1      34.344  24.272  25.487  1.00  0.00     0.132 C 
ATOM     10  C   UNL A   1      34.288  22.999  23.711  1.00  0.00     0.133 C 
ATOM     11  C   UNL A   1      35.836  24.087  25.147  1.00  0.00     0.035 C 
ATOM     12  O   UNL A   1      33.790  24.282  24.161  1.00  0.00    -0.373 OA
ATOM     13  C   UNL A   1      35.774  23.359  23.791  1.00  0.00     0.036 C 
BRANCH   8  14
ATOM     14  C   UNL A   1      32.404  23.217  26.778  1.00  0.00     0.231 C 
ATOM     15  N   UNL A   1      31.271  23.875  26.396  1.00  0.00    -0.317 N 
ATOM     16  H   UNL A   1      30.551  23.826  27.066  1.00  0.00     0.170 HD
ATOM     17  O   UNL A   1      32.340  22.680  27.902  1.00  0.00    -0.274 OA
BRANCH  15  18
ATOM     18  C   UNL A   1      30.916  24.599  25.269  1.00  0.00     0.108 A 
ATOM     19  C   UNL A   1      30.941  25.987  25.107  1.00  0.00     0.082 A 
ATOM     20  C   UNL A   1      30.355  26.348  23.819  1.00  0.00     0.007 A 
ATOM     21  C   UNL A   1      30.125  25.228  23.043  1.00  0.00     0.076 A 
ATOM     22  S   UNL A   1      30.625  23.797  23.814  1.00  0.00    -0.125 S 
BRANCH  19  23
ATOM     23  C   UNL A   1      31.399  26.853  26.198  1.00  0.00     0.252 C 
ATOM     24  N   UNL A   1      32.624  27.440  26.078  1.00  0.00    -0.365 N 
ATOM     25  H   UNL A   1      32.961  28.027  26.794  1.00  0.00     0.159 HD
ATOM     26  H   UNL A   1      33.172  27.277  25.277  1.00  0.00     0.159 HD
ATOM     27  O   UNL A   1      30.720  27.066  27.201  1.00  0.00    -0.269 OA
ENDBRANCH  19  23
BRANCH  20  28
ATOM     28  C   UNL A   1      29.950  27.658  23.308  1.00  0.00    -0.017 A 
ATOM     29  C   UNL A   1      30.882  28.449  22.617  1.00  0.00     0.010 A 
ATOM     30  C   UNL A   1      28.633  28.113  23.427  1.00  0.00     0.010 A 
ATOM     31  C   UNL A   1      30.480  29.623  21.979  1.00  0.00     0.021 A 
ATOM     32  C   UNL A   1      28.246  29.318  22.824  1.00  0.00     0.021 A 
ATOM     33  C   UNL A   1      29.167  30.060  22.089  1.00  0.00     0.041 A 
ATOM     34  Cl  UNL A   1      28.688  31.506  21.295  1.00  0.00    -0.084 Cl
ENDBRANCH  20  28
ENDBRANCH  15  18
ENDBRANCH   8  14
ENDBRANCH   5   7
ENDBRANCH   4   5
ENDBRANCH   3   4
ENDBRANCH   2   3
ENDBRANCH   1   2
BRANCH   1  35
ATOM     35  C   UNL A   1      36.882  18.876  25.008  1.00  0.00     0.202 C 
BRANCH  35  36
ATOM     36  C   UNL A   1      38.085  19.748  24.642  1.00  0.00     0.261 C 
BRANCH  36  37
ATOM     37  O   UNL A   1      38.388  20.766  25.605  1.00  0.00    -0.460 OA
BRANCH  37  38
ATOM     38  C   UNL A   1      39.603  20.623  26.204  1.00  0.00     0.338 C 
ATOM     39  O   UNL A   1      40.317  19.645  26.175  1.00  0.00    -0.246 OA
BRANCH  38  40
ATOM     40  C   UNL A   1      40.040  21.933  26.742  1.00  0.00     0.060 A 
ATOM     41  C   UNL A   1      39.452  23.085  26.206  1.00  0.00     0.016 A 
ATOM     42  C   UNL A   1      41.014  22.038  27.739  1.00  0.00     0.016 A 
ATOM     43  C   UNL A   1      39.856  24.345  26.642  1.00  0.00     0.010 A 
ATOM     44  C   UNL A   1      41.454  23.306  28.143  1.00  0.00     0.010 A 
ATOM     45  C   UNL A   1      40.902  24.464  27.570  1.00  0.00    -0.014 A 
BRANCH  45  46
ATOM     46  C   UNL A   1      41.577  25.783  27.709  1.00  0.00     0.031 A 
ATOM     47  C   UNL A   1      40.881  26.831  28.536  1.00  0.00     0.074 A 
ATOM     48  C   UNL A   1      42.784  26.037  27.171  1.00  0.00     0.049 A 
ATOM     49  N   UNL A   1      41.269  28.040  28.845  1.00  0.00    -0.248 NA
ATOM     50  C   UNL A   1      39.557  26.468  29.071  1.00  0.00     0.031 C 
ATOM     51  C   UNL A   1      43.545  25.115  26.338  1.00  0.00     0.029 A 
ATOM     52  N   UNL A   1      43.597  27.140  27.274  1.00  0.00    -0.354 N 
ATOM     53  C   UNL A   1      40.241  28.584  29.606  1.00  0.00     0.074 A 
ATOM     54  C   UNL A   1      39.210  27.574  29.709  1.00  0.00     0.031 C 
ATOM     55  C   UNL A   1      44.753  25.649  26.083  1.00  0.00     0.029 A 
ATOM     56  C   UNL A   1      44.818  26.994  26.652  1.00  0.00     0.049 A 
ATOM     57  H   UNL A   1      43.332  27.960  27.750  1.00  0.00     0.167 HD
ATOM     58  C   UNL A   1      40.149  29.821  30.150  1.00  0.00     0.034 A 
ATOM     59  C   UNL A   1      45.850  27.859  26.532  1.00  0.00     0.034 A 
ATOM     60  C   UNL A   1      41.148  30.843  29.986  1.00  0.00     0.049 A 
ATOM     61  C   UNL A   1      45.697  29.251  27.112  1.00  0.00     0.074 A 
ATOM     62  C   UNL A   1      41.121  32.153  30.434  1.00  0.00     0.029 A 
ATOM     63  N   UNL A   1      42.348  30.679  29.310  1.00  0.00    -0.354 N 
ATOM     64  N   UNL A   1      44.705  29.755  27.813  1.00  0.00    -0.248 NA
ATOM     65  C   UNL A   1      46.792  30.199  26.862  1.00  0.00     0.031 C 
ATOM     66  C   UNL A   1      42.275  32.796  29.973  1.00  0.00     0.029 A 
ATOM     67  C   UNL A   1      43.060  31.869  29.308  1.00  0.00     0.049 A 
ATOM     68  H   UNL A   1      42.651  29.840  28.892  1.00  0.00     0.167 HD
ATOM     69  C   UNL A   1      45.066  31.074  28.086  1.00  0.00     0.074 A 
ATOM     70  C   UNL A   1      46.383  31.271  27.522  1.00  0.00     0.031 C 
ATOM     71  C   UNL A   1      44.367  32.049  28.726  1.00  0.00     0.034 A 
BRANCH  58  72
ATOM     72  C   UNL A   1      38.879  30.144  30.890  1.00  0.00     0.023 A 
ATOM     73  C   UNL A   1      37.839  30.871  30.287  1.00  0.00     0.031 A 
ATOM     74  C   UNL A   1      38.729  29.763  32.236  1.00  0.00     0.131 A 
ATOM     75  C   UNL A   1      36.721  31.248  31.045  1.00  0.00     0.055 A 
ATOM     76  C   UNL A   1      37.580  30.075  32.962  1.00  0.00     0.041 A 
ATOM     77  F   UNL A   1      39.706  29.098  32.870  1.00  0.00    -0.206 F 
ATOM     78  C   UNL A   1      36.573  30.832  32.371  1.00  0.00     0.022 A 
BRANCH  75  79
ATOM     79  S   UNL A   1      35.525  32.397  30.314  1.00  0.00     0.124 S 
ATOM     80  O   UNL A   1      34.439  32.350  31.290  1.00  0.00    -0.237 OA
ATOM     81  O   UNL A   1      36.279  33.644  30.256  1.00  0.00    -0.237 OA
ATOM     82  O   UNL A   1      35.217  31.794  29.019  1.00  0.00    -0.744 OA
ENDBRANCH  75  79
ENDBRANCH  58  72
BRANCH  59  83
ATOM     83  C   UNL A   1      47.094  27.501  25.776  1.00  0.00     0.023 A 
ATOM     84  C   UNL A   1      47.266  27.892  24.435  1.00  0.00     0.031 A 
ATOM     85  C   UNL A   1      48.070  26.658  26.337  1.00  0.00     0.131 A 
ATOM     86  C   UNL A   1      48.339  27.383  23.685  1.00  0.00     0.055 A 
ATOM     87  C   UNL A   1      49.180  26.220  25.610  1.00  0.00     0.041 A 
ATOM     88  F   UNL A   1      47.956  26.231  27.604  1.00  0.00    -0.206 F 
ATOM     89  C   UNL A   1      49.308  26.565  24.269  1.00  0.00     0.022 A 
BRANCH  86  90
ATOM     90  S   UNL A   1      48.369  27.676  21.893  1.00  0.00     0.124 S 
ATOM     91  O   UNL A   1      47.043  28.239  21.664  1.00  0.00    -0.237 OA
ATOM     92  O   UNL A   1      49.491  28.597  21.755  1.00  0.00    -0.237 OA
ATOM     93  O   UNL A   1      48.586  26.343  21.335  1.00  0.00    -0.744 OA
ENDBRANCH  86  90
ENDBRANCH  59  83
BRANCH  71  94
ATOM     94  C   UNL A   1      45.032  33.399  28.861  1.00  0.00     0.023 A 
ATOM     95  C   UNL A   1      45.838  33.716  29.968  1.00  0.00     0.031 A 
ATOM     96  C   UNL A   1      44.845  34.384  27.876  1.00  0.00     0.131 A 
ATOM     97  C   UNL A   1      46.374  35.007  30.097  1.00  0.00     0.055 A 
ATOM     98  C   UNL A   1      45.433  35.646  27.977  1.00  0.00     0.041 A 
ATOM     99  F   UNL A   1      44.087  34.136  26.795  1.00  0.00    -0.206 F 
ATOM    100  C   UNL A   1      46.189  35.968  29.100  1.00  0.00     0.022 A 
BRANCH  97 101
ATOM    101  S   UNL A   1      47.229  35.446  31.635  1.00  0.00     0.124 S 
ATOM    102  O   UNL A   1      47.530  36.858  31.425  1.00  0.00    -0.237 OA
ATOM    103  O   UNL A   1      46.219  35.154  32.648  1.00  0.00    -0.237 OA
ATOM    104  O   UNL A   1      48.391  34.559  31.647  1.00  0.00    -0.744 OA
ENDBRANCH  97 101
ENDBRANCH  71  94
ENDBRANCH  45  46
ENDBRANCH  38  40
ENDBRANCH  37  38
ENDBRANCH  36  37
ENDBRANCH  35  36
ENDBRANCH   1  35
TORSDOF 21
ENDMDL
