MODEL 1
REMARK VINA RESULT:      -9.5      0.000      0.000
REMARK SMILES CS(=O)(=O)CCSCc1cc(F)cc(/C=C/C(=O)OCCOCCOC(=O)c2ccc(-c3c4nc(c(-c5cc(S(=O)(=O)[O-])ccc5F)c5ccc([nH]5)c(-c5cc(S(=O)(=O)[O-])ccc5F)c5nc(c(-c6cc(S(=O)(=O)[O-])ccc6F)c6ccc3[nH]6)C=C5)C=C4)cc2)c1
REMARK SMILES IDX 20 1 19 2 17 3 18 4 16 5 15 6 14 7 9 8 10 9 91 10 11 11
REMARK SMILES IDX 12 12 13 13 8 14 7 15 6 16 5 17 2 18 1 19 3 20 4 21 21 22
REMARK SMILES IDX 22 23 23 24 24 25 25 26 26 27 27 28 28 29 29 30 90 31 30 32
REMARK SMILES IDX 89 33 31 34 32 35 33 36 83 37 34 38 88 39 82 40 84 41 35 42
REMARK SMILES IDX 87 43 81 44 80 45 36 47 68 48 48 49 67 50 49 51 52 52 66 53
REMARK SMILES IDX 85 54 50 55 51 56 65 58 86 59 53 60 37 61 38 62 46 63 39 64
REMARK SMILES IDX 45 65 47 66 44 67 40 68 41 69 42 70 43 71 69 72 70 73 78 74
REMARK SMILES IDX 71 75 77 76 79 77 76 78 72 79 73 80 74 81 75 82 54 83 55 84
REMARK SMILES IDX 63 85 56 86 62 87 64 88 61 89 57 90 58 91 59 92 60 93
REMARK H PARENT 84 46 52 57
REMARK Flexibility Score: inf
ROOT
ATOM      1  C   UNL A   1      35.707  30.799  27.633  1.00  0.00     0.261 C 
ENDROOT
BRANCH   1   2
ATOM      2  O   UNL A   1      34.725  29.807  27.965  1.00  0.00    -0.460 OA
BRANCH   2   3
ATOM      3  C   UNL A   1      33.771  29.602  27.030  1.00  0.00     0.330 C 
ATOM      4  O   UNL A   1      33.332  30.418  26.234  1.00  0.00    -0.247 OA
BRANCH   3   5
ATOM      5  C   UNL A   1      33.318  28.199  27.008  1.00  0.00     0.094 C 
ATOM      6  C   UNL A   1      33.469  27.330  25.994  1.00  0.00     0.016 C 
BRANCH   6   7
ATOM      7  C   UNL A   1      32.964  25.953  26.089  1.00  0.00    -0.022 A 
ATOM      8  C   UNL A   1      33.434  23.571  26.349  1.00  0.00    -0.035 A 
ATOM      9  C   UNL A   1      32.065  23.345  26.538  1.00  0.00     0.043 A 
ATOM     10  C   UNL A   1      33.873  24.885  26.106  1.00  0.00     0.013 A 
ATOM     11  C   UNL A   1      31.161  24.390  26.435  1.00  0.00     0.124 A 
ATOM     12  F   UNL A   1      29.853  24.154  26.604  1.00  0.00    -0.207 F 
ATOM     13  C   UNL A   1      31.595  25.686  26.200  1.00  0.00     0.047 A 
BRANCH   8  14
ATOM     14  C   UNL A   1      34.416  22.440  26.480  1.00  0.00     0.105 C 
BRANCH  14  15
ATOM     15  S   UNL A   1      34.923  21.652  24.927  1.00  0.00    -0.156 SA
BRANCH  15  16
ATOM     16  C   UNL A   1      33.353  20.973  24.278  1.00  0.00     0.086 C 
BRANCH  16  17
ATOM     17  C   UNL A   1      32.816  19.778  25.052  1.00  0.00     0.147 C 
BRANCH  17  18
ATOM     18  S   UNL A   1      33.195  18.182  24.353  1.00  0.00     0.148 S 
ATOM     19  C   UNL A   1      32.695  16.996  25.583  1.00  0.00     0.158 C 
ATOM     20  O   UNL A   1      34.642  18.096  24.254  1.00  0.00    -0.229 OA
ATOM     21  O   UNL A   1      32.380  17.982  23.172  1.00  0.00    -0.229 OA
ENDBRANCH  17  18
ENDBRANCH  16  17
ENDBRANCH  15  16
ENDBRANCH  14  15
ENDBRANCH   8  14
ENDBRANCH   6   7
ENDBRANCH   3   5
ENDBRANCH   2   3
ENDBRANCH   1   2
BRANCH   1  22
ATOM     22  C   UNL A   1      35.525  32.044  28.504  1.00  0.00     0.202 C 
BRANCH  22  23
ATOM     23  O   UNL A   1      34.916  33.166  27.863  1.00  0.00    -0.374 OA
BRANCH  23  24
ATOM     24  C   UNL A   1      33.616  33.545  28.320  1.00  0.00     0.202 C 
BRANCH  24  25
ATOM     25  C   UNL A   1      33.520  34.870  29.087  1.00  0.00     0.261 C 
BRANCH  25  26
ATOM     26  O   UNL A   1      32.634  34.778  30.218  1.00  0.00    -0.460 OA
BRANCH  26  27
ATOM     27  C   UNL A   1      33.017  35.507  31.298  1.00  0.00     0.338 C 
ATOM     28  O   UNL A   1      32.466  36.495  31.747  1.00  0.00    -0.246 OA
BRANCH  27  29
ATOM     29  C   UNL A   1      34.118  34.817  31.999  1.00  0.00     0.060 A 
ATOM     30  C   UNL A   1      35.341  35.493  32.105  1.00  0.00     0.016 A 
ATOM     31  C   UNL A   1      33.984  33.514  32.479  1.00  0.00     0.016 A 
ATOM     32  C   UNL A   1      36.447  34.851  32.655  1.00  0.00     0.010 A 
ATOM     33  C   UNL A   1      35.101  32.867  33.021  1.00  0.00     0.010 A 
ATOM     34  C   UNL A   1      36.344  33.522  33.082  1.00  0.00    -0.014 A 
BRANCH  34  35
ATOM     35  C   UNL A   1      37.570  32.778  33.461  1.00  0.00     0.031 A 
ATOM     36  C   UNL A   1      38.231  33.080  34.777  1.00  0.00     0.074 A 
ATOM     37  C   UNL A   1      38.063  31.816  32.661  1.00  0.00     0.049 A 
ATOM     38  N   UNL A   1      39.330  32.585  35.286  1.00  0.00    -0.248 NA
ATOM     39  C   UNL A   1      37.563  34.073  35.634  1.00  0.00     0.031 C 
ATOM     40  C   UNL A   1      37.474  31.391  31.391  1.00  0.00     0.029 A 
ATOM     41  N   UNL A   1      39.171  31.017  32.801  1.00  0.00    -0.354 N 
ATOM     42  C   UNL A   1      39.488  33.206  36.520  1.00  0.00     0.074 A 
ATOM     43  C   UNL A   1      38.388  34.136  36.669  1.00  0.00     0.031 C 
ATOM     44  C   UNL A   1      38.225  30.406  30.870  1.00  0.00     0.029 A 
ATOM     45  C   UNL A   1      39.369  30.159  31.747  1.00  0.00     0.049 A 
ATOM     46  H   UNL A   1      39.766  31.056  33.584  1.00  0.00     0.167 HD
ATOM     47  C   UNL A   1      40.457  33.011  37.446  1.00  0.00     0.034 A 
ATOM     48  C   UNL A   1      40.371  29.289  31.504  1.00  0.00     0.034 A 
ATOM     49  C   UNL A   1      41.546  32.081  37.287  1.00  0.00     0.049 A 
ATOM     50  C   UNL A   1      41.490  29.156  32.503  1.00  0.00     0.074 A 
ATOM     51  C   UNL A   1      42.573  31.801  38.171  1.00  0.00     0.029 A 
ATOM     52  N   UNL A   1      41.755  31.285  36.169  1.00  0.00    -0.354 N 
ATOM     53  N   UNL A   1      41.647  29.776  33.649  1.00  0.00    -0.248 NA
ATOM     54  C   UNL A   1      42.568  28.212  32.175  1.00  0.00     0.031 C 
ATOM     55  C   UNL A   1      43.439  30.887  37.561  1.00  0.00     0.029 A 
ATOM     56  C   UNL A   1      42.914  30.541  36.326  1.00  0.00     0.049 A 
ATOM     57  H   UNL A   1      41.168  31.255  35.379  1.00  0.00     0.167 HD
ATOM     58  C   UNL A   1      42.832  29.282  34.189  1.00  0.00     0.074 A 
ATOM     59  C   UNL A   1      43.349  28.313  33.243  1.00  0.00     0.031 C 
ATOM     60  C   UNL A   1      43.430  29.595  35.366  1.00  0.00     0.034 A 
BRANCH  47  61
ATOM     61  C   UNL A   1      40.407  33.852  38.695  1.00  0.00     0.023 A 
ATOM     62  C   UNL A   1      39.602  33.502  39.792  1.00  0.00     0.031 A 
ATOM     63  C   UNL A   1      41.185  35.019  38.789  1.00  0.00     0.131 A 
ATOM     64  C   UNL A   1      39.559  34.336  40.920  1.00  0.00     0.055 A 
ATOM     65  C   UNL A   1      41.188  35.811  39.939  1.00  0.00     0.041 A 
ATOM     66  F   UNL A   1      41.956  35.411  37.762  1.00  0.00    -0.206 F 
ATOM     67  C   UNL A   1      40.365  35.474  41.010  1.00  0.00     0.022 A 
BRANCH  64  68
ATOM     68  S   UNL A   1      38.370  33.960  42.236  1.00  0.00     0.124 S 
ATOM     69  O   UNL A   1      37.864  32.658  41.811  1.00  0.00    -0.237 OA
ATOM     70  O   UNL A   1      39.207  33.962  43.430  1.00  0.00    -0.237 OA
ATOM     71  O   UNL A   1      37.406  35.056  42.149  1.00  0.00    -0.744 OA
ENDBRANCH  64  68
ENDBRANCH  47  61
BRANCH  48  72
ATOM     72  C   UNL A   1      40.373  28.504  30.240  1.00  0.00     0.023 A 
ATOM     73  C   UNL A   1      41.253  28.816  29.193  1.00  0.00     0.031 A 
ATOM     74  C   UNL A   1      39.500  27.413  30.073  1.00  0.00     0.131 A 
ATOM     75  C   UNL A   1      41.233  28.050  28.016  1.00  0.00     0.055 A 
ATOM     76  C   UNL A   1      39.508  26.635  28.916  1.00  0.00     0.041 A 
ATOM     77  F   UNL A   1      38.646  27.073  31.051  1.00  0.00    -0.206 F 
ATOM     78  C   UNL A   1      40.377  26.953  27.877  1.00  0.00     0.022 A 
BRANCH  75  79
ATOM     79  S   UNL A   1      42.343  28.507  26.658  1.00  0.00     0.124 S 
ATOM     80  O   UNL A   1      43.079  29.624  27.239  1.00  0.00    -0.237 OA
ATOM     81  O   UNL A   1      43.099  27.276  26.452  1.00  0.00    -0.237 OA
ATOM     82  O   UNL A   1      41.427  28.858  25.574  1.00  0.00    -0.744 OA
ENDBRANCH  75  79
ENDBRANCH  48  72
BRANCH  60  83
ATOM     83  C   UNL A   1      44.701  28.868  35.718  1.00  0.00     0.023 A 
ATOM     84  C   UNL A   1      44.682  27.627  36.378  1.00  0.00     0.031 A 
ATOM     85  C   UNL A   1      45.946  29.399  35.335  1.00  0.00     0.131 A 
ATOM     86  C   UNL A   1      45.889  26.969  36.655  1.00  0.00     0.055 A 
ATOM     87  C   UNL A   1      47.140  28.718  35.573  1.00  0.00     0.041 A 
ATOM     88  F   UNL A   1      46.017  30.580  34.699  1.00  0.00    -0.206 F 
ATOM     89  C   UNL A   1      47.115  27.497  36.241  1.00  0.00     0.022 A 
BRANCH  86  90
ATOM     90  S   UNL A   1      45.842  25.416  37.592  1.00  0.00     0.124 S 
ATOM     91  O   UNL A   1      45.813  24.421  36.525  1.00  0.00    -0.237 OA
ATOM     92  O   UNL A   1      47.073  25.479  38.373  1.00  0.00    -0.237 OA
ATOM     93  O   UNL A   1      44.609  25.524  38.372  1.00  0.00    -0.744 OA
ENDBRANCH  86  90
ENDBRANCH  60  83
ENDBRANCH  34  35
ENDBRANCH  27  29
ENDBRANCH  26  27
ENDBRANCH  25  26
ENDBRANCH  24  25
ENDBRANCH  23  24
ENDBRANCH  22  23
ENDBRANCH   1  22
TORSDOF 23
ENDMDL
MODEL 2
REMARK VINA RESULT:      -9.3      3.835      5.769
REMARK SMILES CS(=O)(=O)CCSCc1cc(F)cc(/C=C/C(=O)OCCOCCOC(=O)c2ccc(-c3c4nc(c(-c5cc(S(=O)(=O)[O-])ccc5F)c5ccc([nH]5)c(-c5cc(S(=O)(=O)[O-])ccc5F)c5nc(c(-c6cc(S(=O)(=O)[O-])ccc6F)c6ccc3[nH]6)C=C5)C=C4)cc2)c1
REMARK SMILES IDX 20 1 19 2 17 3 18 4 16 5 15 6 14 7 9 8 10 9 91 10 11 11
REMARK SMILES IDX 12 12 13 13 8 14 7 15 6 16 5 17 2 18 1 19 3 20 4 21 21 22
REMARK SMILES IDX 22 23 23 24 24 25 25 26 26 27 27 28 28 29 29 30 90 31 30 32
REMARK SMILES IDX 89 33 31 34 32 35 33 36 83 37 34 38 88 39 82 40 84 41 35 42
REMARK SMILES IDX 87 43 81 44 80 45 36 47 68 48 48 49 67 50 49 51 52 52 66 53
REMARK SMILES IDX 85 54 50 55 51 56 65 58 86 59 53 60 37 61 38 62 46 63 39 64
REMARK SMILES IDX 45 65 47 66 44 67 40 68 41 69 42 70 43 71 69 72 70 73 78 74
REMARK SMILES IDX 71 75 77 76 79 77 76 78 72 79 73 80 74 81 75 82 54 83 55 84
REMARK SMILES IDX 63 85 56 86 62 87 64 88 61 89 57 90 58 91 59 92 60 93
REMARK H PARENT 84 46 52 57
REMARK Flexibility Score: inf
ROOT
ATOM      1  C   UNL A   1      32.710  24.937  26.228  1.00  0.00     0.261 C 
ENDROOT
BRANCH   1   2
ATOM      2  O   UNL A   1      32.966  23.620  25.718  1.00  0.00    -0.460 OA
BRANCH   2   3
ATOM      3  C   UNL A   1      33.955  23.537  24.801  1.00  0.00     0.330 C 
ATOM      4  O   UNL A   1      33.849  23.658  23.590  1.00  0.00    -0.247 OA
BRANCH   3   5
ATOM      5  C   UNL A   1      35.273  23.339  25.432  1.00  0.00     0.094 C 
ATOM      6  C   UNL A   1      36.396  22.929  24.818  1.00  0.00     0.016 C 
BRANCH   6   7
ATOM      7  C   UNL A   1      37.652  22.761  25.561  1.00  0.00    -0.022 A 
ATOM      8  C   UNL A   1      39.561  21.352  26.141  1.00  0.00    -0.035 A 
ATOM      9  C   UNL A   1      40.173  22.465  26.732  1.00  0.00     0.043 A 
ATOM     10  C   UNL A   1      38.286  21.509  25.570  1.00  0.00     0.013 A 
ATOM     11  C   UNL A   1      39.508  23.679  26.797  1.00  0.00     0.124 A 
ATOM     12  F   UNL A   1      40.102  24.729  27.379  1.00  0.00    -0.207 F 
ATOM     13  C   UNL A   1      38.252  23.833  26.231  1.00  0.00     0.047 A 
BRANCH   8  14
ATOM     14  C   UNL A   1      40.290  20.041  26.053  1.00  0.00     0.105 C 
BRANCH  14  15
ATOM     15  S   UNL A   1      41.632  19.803  27.251  1.00  0.00    -0.156 SA
BRANCH  15  16
ATOM     16  C   UNL A   1      43.134  20.111  26.254  1.00  0.00     0.086 C 
BRANCH  16  17
ATOM     17  C   UNL A   1      43.484  18.996  25.280  1.00  0.00     0.147 C 
BRANCH  17  18
ATOM     18  S   UNL A   1      44.989  19.232  24.355  1.00  0.00     0.148 S 
ATOM     19  C   UNL A   1      45.433  20.939  24.600  1.00  0.00     0.158 C 
ATOM     20  O   UNL A   1      44.652  19.085  22.950  1.00  0.00    -0.229 OA
ATOM     21  O   UNL A   1      46.030  18.406  24.935  1.00  0.00    -0.229 OA
ENDBRANCH  17  18
ENDBRANCH  16  17
ENDBRANCH  15  16
ENDBRANCH  14  15
ENDBRANCH   8  14
ENDBRANCH   6   7
ENDBRANCH   3   5
ENDBRANCH   2   3
ENDBRANCH   1   2
BRANCH   1  22
ATOM     22  C   UNL A   1      32.968  25.989  25.147  1.00  0.00     0.202 C 
BRANCH  22  23
ATOM     23  O   UNL A   1      33.751  27.113  25.551  1.00  0.00    -0.374 OA
BRANCH  23  24
ATOM     24  C   UNL A   1      33.207  27.944  26.579  1.00  0.00     0.202 C 
BRANCH  24  25
ATOM     25  C   UNL A   1      32.859  29.385  26.183  1.00  0.00     0.261 C 
BRANCH  25  26
ATOM     26  O   UNL A   1      34.008  30.251  26.232  1.00  0.00    -0.460 OA
BRANCH  26  27
ATOM     27  C   UNL A   1      34.168  30.911  27.408  1.00  0.00     0.338 C 
ATOM     28  O   UNL A   1      33.316  31.520  28.029  1.00  0.00    -0.246 OA
BRANCH  27  29
ATOM     29  C   UNL A   1      35.510  30.630  27.958  1.00  0.00     0.060 A 
ATOM     30  C   UNL A   1      35.810  29.300  28.279  1.00  0.00     0.016 A 
ATOM     31  C   UNL A   1      36.426  31.649  28.221  1.00  0.00     0.016 A 
ATOM     32  C   UNL A   1      37.015  28.990  28.905  1.00  0.00     0.010 A 
ATOM     33  C   UNL A   1      37.631  31.335  28.860  1.00  0.00     0.010 A 
ATOM     34  C   UNL A   1      37.917  30.010  29.232  1.00  0.00    -0.014 A 
BRANCH  34  35
ATOM     35  C   UNL A   1      39.089  29.702  30.088  1.00  0.00     0.031 A 
ATOM     36  C   UNL A   1      39.203  30.359  31.436  1.00  0.00     0.074 A 
ATOM     37  C   UNL A   1      40.017  28.815  29.687  1.00  0.00     0.049 A 
ATOM     38  N   UNL A   1      40.160  30.269  32.323  1.00  0.00    -0.248 NA
ATOM     39  C   UNL A   1      38.089  31.234  31.835  1.00  0.00     0.031 C 
ATOM     40  C   UNL A   1      39.981  28.067  28.430  1.00  0.00     0.029 A 
ATOM     41  N   UNL A   1      41.169  28.388  30.298  1.00  0.00    -0.354 N 
ATOM     42  C   UNL A   1      39.767  31.077  33.385  1.00  0.00     0.074 A 
ATOM     43  C   UNL A   1      38.499  31.671  33.017  1.00  0.00     0.031 C 
ATOM     44  C   UNL A   1      41.061  27.271  28.365  1.00  0.00     0.029 A 
ATOM     45  C   UNL A   1      41.885  27.481  29.555  1.00  0.00     0.049 A 
ATOM     46  H   UNL A   1      41.454  28.702  31.187  1.00  0.00     0.167 HD
ATOM     47  C   UNL A   1      40.402  31.294  34.561  1.00  0.00     0.034 A 
ATOM     48  C   UNL A   1      43.079  26.903  29.795  1.00  0.00     0.034 A 
ATOM     49  C   UNL A   1      41.664  30.695  34.917  1.00  0.00     0.049 A 
ATOM     50  C   UNL A   1      43.815  27.231  31.067  1.00  0.00     0.074 A 
ATOM     51  C   UNL A   1      42.385  30.842  36.088  1.00  0.00     0.029 A 
ATOM     52  N   UNL A   1      42.396  29.842  34.103  1.00  0.00    -0.354 N 
ATOM     53  N   UNL A   1      43.450  28.025  32.047  1.00  0.00    -0.248 NA
ATOM     54  C   UNL A   1      45.124  26.592  31.264  1.00  0.00     0.031 C 
ATOM     55  C   UNL A   1      43.584  30.133  35.957  1.00  0.00     0.029 A 
ATOM     56  C   UNL A   1      43.577  29.483  34.732  1.00  0.00     0.049 A 
ATOM     57  H   UNL A   1      42.118  29.537  33.209  1.00  0.00     0.167 HD
ATOM     58  C   UNL A   1      44.476  27.965  32.987  1.00  0.00     0.074 A 
ATOM     59  C   UNL A   1      45.474  27.058  32.457  1.00  0.00     0.031 C 
ATOM     60  C   UNL A   1      44.575  28.595  34.184  1.00  0.00     0.034 A 
BRANCH  47  61
ATOM     61  C   UNL A   1      39.763  32.253  35.531  1.00  0.00     0.023 A 
ATOM     62  C   UNL A   1      40.153  33.601  35.606  1.00  0.00     0.031 A 
ATOM     63  C   UNL A   1      38.741  31.811  36.390  1.00  0.00     0.131 A 
ATOM     64  C   UNL A   1      39.556  34.449  36.551  1.00  0.00     0.055 A 
ATOM     65  C   UNL A   1      38.105  32.675  37.283  1.00  0.00     0.041 A 
ATOM     66  F   UNL A   1      38.344  30.528  36.375  1.00  0.00    -0.206 F 
ATOM     67  C   UNL A   1      38.518  34.001  37.372  1.00  0.00     0.022 A 
BRANCH  64  68
ATOM     68  S   UNL A   1      40.213  36.127  36.753  1.00  0.00     0.124 S 
ATOM     69  O   UNL A   1      39.507  36.576  37.950  1.00  0.00    -0.237 OA
ATOM     70  O   UNL A   1      41.644  35.892  36.905  1.00  0.00    -0.237 OA
ATOM     71  O   UNL A   1      39.820  36.800  35.515  1.00  0.00    -0.744 OA
ENDBRANCH  64  68
ENDBRANCH  47  61
BRANCH  48  72
ATOM     72  C   UNL A   1      43.666  25.981  28.785  1.00  0.00     0.023 A 
ATOM     73  C   UNL A   1      44.703  26.397  27.937  1.00  0.00     0.031 A 
ATOM     74  C   UNL A   1      43.205  24.656  28.671  1.00  0.00     0.131 A 
ATOM     75  C   UNL A   1      45.238  25.499  27.000  1.00  0.00     0.055 A 
ATOM     76  C   UNL A   1      43.763  23.758  27.762  1.00  0.00     0.041 A 
ATOM     77  F   UNL A   1      42.220  24.211  29.467  1.00  0.00    -0.206 F 
ATOM     78  C   UNL A   1      44.786  24.179  26.917  1.00  0.00     0.022 A 
BRANCH  75  79
ATOM     79  S   UNL A   1      46.540  26.079  25.879  1.00  0.00     0.124 S 
ATOM     80  O   UNL A   1      45.767  26.486  24.712  1.00  0.00    -0.237 OA
ATOM     81  O   UNL A   1      47.153  27.155  26.653  1.00  0.00    -0.237 OA
ATOM     82  O   UNL A   1      47.380  24.897  25.693  1.00  0.00    -0.744 OA
ENDBRANCH  75  79
ENDBRANCH  48  72
BRANCH  60  83
ATOM     83  C   UNL A   1      45.793  28.312  35.023  1.00  0.00     0.023 A 
ATOM     84  C   UNL A   1      45.919  27.122  35.760  1.00  0.00     0.031 A 
ATOM     85  C   UNL A   1      46.865  29.223  35.039  1.00  0.00     0.131 A 
ATOM     86  C   UNL A   1      47.087  26.884  36.501  1.00  0.00     0.055 A 
ATOM     87  C   UNL A   1      48.042  28.959  35.741  1.00  0.00     0.041 A 
ATOM     88  F   UNL A   1      46.793  30.372  34.349  1.00  0.00    -0.206 F 
ATOM     89  C   UNL A   1      48.155  27.786  36.481  1.00  0.00     0.022 A 
BRANCH  86  90
ATOM     90  S   UNL A   1      47.186  25.385  37.518  1.00  0.00     0.124 S 
ATOM     91  O   UNL A   1      48.496  24.856  37.149  1.00  0.00    -0.237 OA
ATOM     92  O   UNL A   1      47.070  25.913  38.873  1.00  0.00    -0.237 OA
ATOM     93  O   UNL A   1      46.047  24.588  37.065  1.00  0.00    -0.744 OA
ENDBRANCH  86  90
ENDBRANCH  60  83
ENDBRANCH  34  35
ENDBRANCH  27  29
ENDBRANCH  26  27
ENDBRANCH  25  26
ENDBRANCH  24  25
ENDBRANCH  23  24
ENDBRANCH  22  23
ENDBRANCH   1  22
TORSDOF 23
ENDMDL
MODEL 3
REMARK VINA RESULT:      -9.2      5.339      7.498
REMARK SMILES CS(=O)(=O)CCSCc1cc(F)cc(/C=C/C(=O)OCCOCCOC(=O)c2ccc(-c3c4nc(c(-c5cc(S(=O)(=O)[O-])ccc5F)c5ccc([nH]5)c(-c5cc(S(=O)(=O)[O-])ccc5F)c5nc(c(-c6cc(S(=O)(=O)[O-])ccc6F)c6ccc3[nH]6)C=C5)C=C4)cc2)c1
REMARK SMILES IDX 20 1 19 2 17 3 18 4 16 5 15 6 14 7 9 8 10 9 91 10 11 11
REMARK SMILES IDX 12 12 13 13 8 14 7 15 6 16 5 17 2 18 1 19 3 20 4 21 21 22
REMARK SMILES IDX 22 23 23 24 24 25 25 26 26 27 27 28 28 29 29 30 90 31 30 32
REMARK SMILES IDX 89 33 31 34 32 35 33 36 83 37 34 38 88 39 82 40 84 41 35 42
REMARK SMILES IDX 87 43 81 44 80 45 36 47 68 48 48 49 67 50 49 51 52 52 66 53
REMARK SMILES IDX 85 54 50 55 51 56 65 58 86 59 53 60 37 61 38 62 46 63 39 64
REMARK SMILES IDX 45 65 47 66 44 67 40 68 41 69 42 70 43 71 69 72 70 73 78 74
REMARK SMILES IDX 71 75 77 76 79 77 76 78 72 79 73 80 74 81 75 82 54 83 55 84
REMARK SMILES IDX 63 85 56 86 62 87 64 88 61 89 57 90 58 91 59 92 60 93
REMARK H PARENT 84 46 52 57
REMARK Flexibility Score: inf
ROOT
ATOM      1  C   UNL A   1      35.536  32.488  28.115  1.00  0.00     0.261 C 
ENDROOT
BRANCH   1   2
ATOM      2  O   UNL A   1      36.468  31.441  28.419  1.00  0.00    -0.460 OA
BRANCH   2   3
ATOM      3  C   UNL A   1      36.141  30.219  27.945  1.00  0.00     0.330 C 
ATOM      4  O   UNL A   1      35.017  29.773  27.770  1.00  0.00    -0.247 OA
BRANCH   3   5
ATOM      5  C   UNL A   1      37.335  29.438  27.569  1.00  0.00     0.094 C 
ATOM      6  C   UNL A   1      38.588  29.640  28.010  1.00  0.00     0.016 C 
BRANCH   6   7
ATOM      7  C   UNL A   1      39.701  28.796  27.553  1.00  0.00    -0.022 A 
ATOM      8  C   UNL A   1      40.528  26.578  26.950  1.00  0.00    -0.035 A 
ATOM      9  C   UNL A   1      41.688  27.174  26.440  1.00  0.00     0.043 A 
ATOM     10  C   UNL A   1      39.543  27.402  27.523  1.00  0.00     0.013 A 
ATOM     11  C   UNL A   1      41.879  28.543  26.549  1.00  0.00     0.124 A 
ATOM     12  F   UNL A   1      43.001  29.095  26.069  1.00  0.00    -0.207 F 
ATOM     13  C   UNL A   1      40.905  29.355  27.110  1.00  0.00     0.047 A 
BRANCH   8  14
ATOM     14  C   UNL A   1      40.313  25.096  26.815  1.00  0.00     0.105 C 
BRANCH  14  15
ATOM     15  S   UNL A   1      41.771  24.058  27.104  1.00  0.00    -0.156 SA
BRANCH  15  16
ATOM     16  C   UNL A   1      41.047  22.484  27.691  1.00  0.00     0.086 C 
BRANCH  16  17
ATOM     17  C   UNL A   1      40.535  21.574  26.584  1.00  0.00     0.147 C 
BRANCH  17  18
ATOM     18  S   UNL A   1      41.230  19.933  26.561  1.00  0.00     0.148 S 
ATOM     19  C   UNL A   1      42.787  20.089  25.711  1.00  0.00     0.158 C 
ATOM     20  O   UNL A   1      40.372  19.121  25.716  1.00  0.00    -0.229 OA
ATOM     21  O   UNL A   1      41.497  19.518  27.924  1.00  0.00    -0.229 OA
ENDBRANCH  17  18
ENDBRANCH  16  17
ENDBRANCH  15  16
ENDBRANCH  14  15
ENDBRANCH   8  14
ENDBRANCH   6   7
ENDBRANCH   3   5
ENDBRANCH   2   3
ENDBRANCH   1   2
BRANCH   1  22
ATOM     22  C   UNL A   1      34.717  32.853  29.355  1.00  0.00     0.202 C 
BRANCH  22  23
ATOM     23  O   UNL A   1      35.466  33.329  30.474  1.00  0.00    -0.374 OA
BRANCH  23  24
ATOM     24  C   UNL A   1      35.388  32.563  31.678  1.00  0.00     0.202 C 
BRANCH  24  25
ATOM     25  C   UNL A   1      36.722  32.178  32.332  1.00  0.00     0.261 C 
BRANCH  25  26
ATOM     26  O   UNL A   1      36.666  30.879  32.948  1.00  0.00    -0.460 OA
BRANCH  26  27
ATOM     27  C   UNL A   1      36.982  29.847  32.124  1.00  0.00     0.338 C 
ATOM     28  O   UNL A   1      36.367  29.481  31.139  1.00  0.00    -0.246 OA
BRANCH  27  29
ATOM     29  C   UNL A   1      38.318  29.322  32.472  1.00  0.00     0.060 A 
ATOM     30  C   UNL A   1      39.390  30.223  32.459  1.00  0.00     0.016 A 
ATOM     31  C   UNL A   1      38.531  27.967  32.735  1.00  0.00     0.016 A 
ATOM     32  C   UNL A   1      40.688  29.765  32.669  1.00  0.00     0.010 A 
ATOM     33  C   UNL A   1      39.838  27.508  32.933  1.00  0.00     0.010 A 
ATOM     34  C   UNL A   1      40.924  28.400  32.870  1.00  0.00    -0.014 A 
BRANCH  34  35
ATOM     35  C   UNL A   1      42.318  27.892  32.874  1.00  0.00     0.031 A 
ATOM     36  C   UNL A   1      43.023  27.701  34.188  1.00  0.00     0.074 A 
ATOM     37  C   UNL A   1      42.932  27.564  31.722  1.00  0.00     0.049 A 
ATOM     38  N   UNL A   1      44.251  27.313  34.421  1.00  0.00    -0.248 NA
ATOM     39  C   UNL A   1      42.239  27.985  35.401  1.00  0.00     0.031 C 
ATOM     40  C   UNL A   1      42.328  27.646  30.392  1.00  0.00     0.029 A 
ATOM     41  N   UNL A   1      44.198  27.090  31.488  1.00  0.00    -0.354 N 
ATOM     42  C   UNL A   1      44.389  27.309  35.805  1.00  0.00     0.074 A 
ATOM     43  C   UNL A   1      43.129  27.762  36.356  1.00  0.00     0.031 C 
ATOM     44  C   UNL A   1      43.224  27.234  29.481  1.00  0.00     0.029 A 
ATOM     45  C   UNL A   1      44.477  26.897  30.157  1.00  0.00     0.049 A 
ATOM     46  H   UNL A   1      44.845  26.907  32.206  1.00  0.00     0.167 HD
ATOM     47  C   UNL A   1      45.465  26.951  36.546  1.00  0.00     0.034 A 
ATOM     48  C   UNL A   1      45.618  26.514  29.549  1.00  0.00     0.034 A 
ATOM     49  C   UNL A   1      46.714  26.500  35.985  1.00  0.00     0.049 A 
ATOM     50  C   UNL A   1      46.834  26.212  30.386  1.00  0.00     0.074 A 
ATOM     51  C   UNL A   1      47.861  26.104  36.649  1.00  0.00     0.029 A 
ATOM     52  N   UNL A   1      46.982  26.392  34.627  1.00  0.00    -0.354 N 
ATOM     53  N   UNL A   1      46.963  26.248  31.692  1.00  0.00    -0.248 NA
ATOM     54  C   UNL A   1      48.057  25.825  29.669  1.00  0.00     0.031 C 
ATOM     55  C   UNL A   1      48.844  25.822  35.695  1.00  0.00     0.029 A 
ATOM     56  C   UNL A   1      48.288  25.970  34.434  1.00  0.00     0.049 A 
ATOM     57  H   UNL A   1      46.340  26.588  33.907  1.00  0.00     0.167 HD
ATOM     58  C   UNL A   1      48.276  25.869  31.954  1.00  0.00     0.074 A 
ATOM     59  C   UNL A   1      48.899  25.608  30.672  1.00  0.00     0.031 C 
ATOM     60  C   UNL A   1      48.904  25.736  33.150  1.00  0.00     0.034 A 
BRANCH  47  61
ATOM     61  C   UNL A   1      45.353  27.076  38.043  1.00  0.00     0.023 A 
ATOM     62  C   UNL A   1      45.731  28.248  38.718  1.00  0.00     0.031 A 
ATOM     63  C   UNL A   1      44.851  26.005  38.804  1.00  0.00     0.131 A 
ATOM     64  C   UNL A   1      45.644  28.306  40.118  1.00  0.00     0.055 A 
ATOM     65  C   UNL A   1      44.706  26.092  40.189  1.00  0.00     0.041 A 
ATOM     66  F   UNL A   1      44.495  24.855  38.211  1.00  0.00    -0.206 F 
ATOM     67  C   UNL A   1      45.112  27.245  40.854  1.00  0.00     0.022 A 
BRANCH  64  68
ATOM     68  S   UNL A   1      46.318  29.756  40.973  1.00  0.00     0.124 S 
ATOM     69  O   UNL A   1      47.563  29.223  41.519  1.00  0.00    -0.237 OA
ATOM     70  O   UNL A   1      46.457  30.726  39.892  1.00  0.00    -0.237 OA
ATOM     71  O   UNL A   1      45.294  30.074  41.967  1.00  0.00    -0.744 OA
ENDBRANCH  64  68
ENDBRANCH  47  61
BRANCH  48  72
ATOM     72  C   UNL A   1      45.670  26.432  28.064  1.00  0.00     0.023 A 
ATOM     73  C   UNL A   1      45.538  25.204  27.399  1.00  0.00     0.031 A 
ATOM     74  C   UNL A   1      45.835  27.595  27.288  1.00  0.00     0.131 A 
ATOM     75  C   UNL A   1      45.585  25.164  25.997  1.00  0.00     0.055 A 
ATOM     76  C   UNL A   1      45.847  27.553  25.894  1.00  0.00     0.041 A 
ATOM     77  F   UNL A   1      45.958  28.793  27.880  1.00  0.00    -0.206 F 
ATOM     78  C   UNL A   1      45.724  26.331  25.240  1.00  0.00     0.022 A 
BRANCH  75  79
ATOM     79  S   UNL A   1      45.466  23.557  25.165  1.00  0.00     0.124 S 
ATOM     80  O   UNL A   1      46.796  23.426  24.581  1.00  0.00    -0.237 OA
ATOM     81  O   UNL A   1      45.157  22.661  26.274  1.00  0.00    -0.237 OA
ATOM     82  O   UNL A   1      44.379  23.751  24.207  1.00  0.00    -0.744 OA
ENDBRANCH  75  79
ENDBRANCH  48  72
BRANCH  60  83
ATOM     83  C   UNL A   1      50.334  25.265  33.139  1.00  0.00     0.023 A 
ATOM     84  C   UNL A   1      50.662  23.900  33.209  1.00  0.00     0.031 A 
ATOM     85  C   UNL A   1      51.381  26.195  32.997  1.00  0.00     0.131 A 
ATOM     86  C   UNL A   1      52.007  23.505  33.160  1.00  0.00     0.055 A 
ATOM     87  C   UNL A   1      52.713  25.792  32.904  1.00  0.00     0.041 A 
ATOM     88  F   UNL A   1      51.119  27.510  32.923  1.00  0.00    -0.206 F 
ATOM     89  C   UNL A   1      53.033  24.440  32.990  1.00  0.00     0.022 A 
BRANCH  86  90
ATOM     90  S   UNL A   1      52.408  21.746  33.349  1.00  0.00     0.124 S 
ATOM     91  O   UNL A   1      52.131  21.229  32.012  1.00  0.00    -0.237 OA
ATOM     92  O   UNL A   1      53.812  21.780  33.742  1.00  0.00    -0.237 OA
ATOM     93  O   UNL A   1      51.486  21.294  34.390  1.00  0.00    -0.744 OA
ENDBRANCH  86  90
ENDBRANCH  60  83
ENDBRANCH  34  35
ENDBRANCH  27  29
ENDBRANCH  26  27
ENDBRANCH  25  26
ENDBRANCH  24  25
ENDBRANCH  23  24
ENDBRANCH  22  23
ENDBRANCH   1  22
TORSDOF 23
ENDMDL
