MODEL 1
REMARK VINA RESULT:     -11.3      0.000      0.000
REMARK SMILES CC(C)[C@H](NC(=O)[C@H](Cc1ccccc1)n1c(=O)[nH]c2ccccc2c1=O)C(=O)OCCOCCOC(=O)c1ccc(-c2c3nc(c(-c4cc(S(=O)(=O)[O-])ccc4F)c4ccc([nH]4)c(-c4cc(S(=O)(=O)[O-])ccc4F)c4nc(c(-c5cc(S(=O)(=O)[O-])ccc5F)c5ccc2[nH]5)C=C4)C=C3)cc1
REMARK SMILES IDX 32 1 31 2 30 3 28 4 29 5 4 6 2 7 1 8 3 9 5 10 6 11 7 13 8 14
REMARK SMILES IDX 16 15 17 16 26 17 18 18 19 19 25 20 27 21 20 22 24 24 21 25
REMARK SMILES IDX 23 26 22 27 9 28 10 29 11 30 15 31 12 32 14 33 13 34 33 35
REMARK SMILES IDX 34 36 35 37 36 38 37 39 38 40 39 41 40 42 101 43 41 44
REMARK SMILES IDX 100 45 42 46 43 47 44 48 94 49 45 50 99 51 93 52 95 53 46 54
REMARK SMILES IDX 98 55 92 56 91 57 47 59 79 60 59 61 78 62 60 63 63 64 77 65
REMARK SMILES IDX 96 66 61 67 62 68 76 70 97 71 64 72 48 73 49 74 57 75 50 76
REMARK SMILES IDX 56 77 58 78 55 79 51 80 52 81 53 82 54 83 80 84 81 85 89 86
REMARK SMILES IDX 82 87 88 88 90 89 87 90 83 91 84 92 85 93 86 94 65 95 66 96
REMARK SMILES IDX 74 97 67 98 73 99 75 100 72 101 68 102 69 103 70 104 71 105
REMARK H PARENT 5 12 19 23 95 58 63 69
REMARK Flexibility Score: inf
ROOT
ATOM      1  C   UNL A   1      31.975  28.274  23.603  1.00  0.00     0.202 C 
ENDROOT
BRANCH   1   2
ATOM      2  C   UNL A   1      30.697  27.883  22.854  1.00  0.00     0.261 C 
BRANCH   2   3
ATOM      3  O   UNL A   1      30.541  26.459  22.749  1.00  0.00    -0.462 OA
BRANCH   3   4
ATOM      4  C   UNL A   1      29.971  25.881  23.841  1.00  0.00     0.328 C 
ATOM      5  O   UNL A   1      28.987  26.338  24.412  1.00  0.00    -0.250 OA
BRANCH   4   6
ATOM      6  C   UNL A   1      30.592  24.501  24.190  1.00  0.00     0.194 C 
BRANCH   6   7
ATOM      7  C   UNL A   1      31.213  24.404  25.577  1.00  0.00     0.017 C 
ATOM      8  C   UNL A   1      31.793  25.677  26.204  1.00  0.00     0.010 C 
ATOM      9  C   UNL A   1      30.217  23.781  26.561  1.00  0.00     0.010 C 
ENDBRANCH   6   7
BRANCH   6  10
ATOM     10  N   UNL A   1      31.440  23.938  23.106  1.00  0.00    -0.341 N 
ATOM     11  C   UNL A   1      32.613  23.308  22.901  1.00  0.00     0.244 C 
ATOM     12  H   UNL A   1      30.989  24.070  22.241  1.00  0.00     0.164 HD
ATOM     13  O   UNL A   1      33.010  23.538  21.742  1.00  0.00    -0.273 OA
BRANCH  11  14
ATOM     14  C   UNL A   1      33.560  22.554  23.893  1.00  0.00     0.189 C 
BRANCH  14  15
ATOM     15  N   UNL A   1      33.318  21.181  24.458  1.00  0.00    -0.247 N 
ATOM     16  C   UNL A   1      33.450  20.934  25.810  1.00  0.00     0.329 A 
ATOM     17  C   UNL A   1      32.864  20.174  23.592  1.00  0.00     0.264 A 
ATOM     18  O   UNL A   1      33.987  21.664  26.632  1.00  0.00    -0.248 OA
ATOM     19  N   UNL A   1      33.024  19.732  26.292  1.00  0.00    -0.307 N 
ATOM     20  C   UNL A   1      32.849  18.788  24.118  1.00  0.00     0.064 A 
ATOM     21  O   UNL A   1      32.551  20.350  22.417  1.00  0.00    -0.268 OA
ATOM     22  C   UNL A   1      32.839  18.620  25.490  1.00  0.00     0.055 A 
ATOM     23  H   UNL A   1      32.841  19.651  27.256  1.00  0.00     0.171 HD
ATOM     24  C   UNL A   1      32.930  17.667  23.288  1.00  0.00     0.016 A 
ATOM     25  C   UNL A   1      32.803  17.349  26.064  1.00  0.00     0.027 A 
ATOM     26  C   UNL A   1      32.986  16.389  23.854  1.00  0.00     0.001 A 
ATOM     27  C   UNL A   1      32.893  16.229  25.238  1.00  0.00     0.002 A 
ENDBRANCH  14  15
BRANCH  14  28
ATOM     28  C   UNL A   1      35.058  22.770  23.446  1.00  0.00     0.071 C 
BRANCH  28  29
ATOM     29  C   UNL A   1      36.235  22.771  24.418  1.00  0.00    -0.045 A 
ATOM     30  C   UNL A   1      37.016  21.607  24.518  1.00  0.00     0.004 A 
ATOM     31  C   UNL A   1      36.585  23.844  25.250  1.00  0.00     0.004 A 
ATOM     32  C   UNL A   1      38.153  21.563  25.334  1.00  0.00     0.000 A 
ATOM     33  C   UNL A   1      37.742  23.820  26.035  1.00  0.00     0.000 A 
ATOM     34  C   UNL A   1      38.535  22.682  26.068  1.00  0.00     0.000 A 
ENDBRANCH  28  29
ENDBRANCH  14  28
ENDBRANCH  11  14
ENDBRANCH   6  10
ENDBRANCH   4   6
ENDBRANCH   3   4
ENDBRANCH   2   3
ENDBRANCH   1   2
BRANCH   1  35
ATOM     35  O   UNL A   1      31.919  29.367  24.518  1.00  0.00    -0.374 OA
BRANCH  35  36
ATOM     36  C   UNL A   1      32.735  29.312  25.687  1.00  0.00     0.202 C 
BRANCH  36  37
ATOM     37  C   UNL A   1      32.838  30.547  26.591  1.00  0.00     0.261 C 
BRANCH  37  38
ATOM     38  O   UNL A   1      33.575  30.297  27.798  1.00  0.00    -0.460 OA
BRANCH  38  39
ATOM     39  C   UNL A   1      34.601  31.153  28.016  1.00  0.00     0.338 C 
ATOM     40  O   UNL A   1      34.521  32.368  28.159  1.00  0.00    -0.246 OA
BRANCH  39  41
ATOM     41  C   UNL A   1      35.837  30.404  28.304  1.00  0.00     0.060 A 
ATOM     42  C   UNL A   1      35.915  29.737  29.535  1.00  0.00     0.016 A 
ATOM     43  C   UNL A   1      36.919  30.399  27.423  1.00  0.00     0.016 A 
ATOM     44  C   UNL A   1      37.091  29.096  29.909  1.00  0.00     0.010 A 
ATOM     45  C   UNL A   1      38.106  29.770  27.810  1.00  0.00     0.010 A 
ATOM     46  C   UNL A   1      38.207  29.140  29.065  1.00  0.00    -0.014 A 
BRANCH  46  47
ATOM     47  C   UNL A   1      39.510  28.634  29.556  1.00  0.00     0.031 A 
ATOM     48  C   UNL A   1      40.127  29.264  30.773  1.00  0.00     0.074 A 
ATOM     49  C   UNL A   1      40.113  27.599  28.943  1.00  0.00     0.049 A 
ATOM     50  N   UNL A   1      41.279  29.017  31.343  1.00  0.00    -0.248 NA
ATOM     51  C   UNL A   1      39.338  30.313  31.437  1.00  0.00     0.031 C 
ATOM     52  C   UNL A   1      39.573  26.873  27.794  1.00  0.00     0.029 A 
ATOM     53  N   UNL A   1      41.311  26.983  29.198  1.00  0.00    -0.354 N 
ATOM     54  C   UNL A   1      41.358  29.885  32.427  1.00  0.00     0.074 A 
ATOM     55  C   UNL A   1      40.151  30.684  32.414  1.00  0.00     0.031 C 
ATOM     56  C   UNL A   1      40.446  25.915  27.437  1.00  0.00     0.029 A 
ATOM     57  C   UNL A   1      41.625  25.995  28.296  1.00  0.00     0.049 A 
ATOM     58  H   UNL A   1      41.892  27.226  29.956  1.00  0.00     0.167 HD
ATOM     59  C   UNL A   1      42.347  29.996  33.349  1.00  0.00     0.034 A 
ATOM     60  C   UNL A   1      42.750  25.266  28.157  1.00  0.00     0.034 A 
ATOM     61  C   UNL A   1      43.548  29.196  33.333  1.00  0.00     0.049 A 
ATOM     62  C   UNL A   1      43.888  25.490  29.125  1.00  0.00     0.074 A 
ATOM     63  C   UNL A   1      44.604  29.209  34.228  1.00  0.00     0.029 A 
ATOM     64  N   UNL A   1      43.866  28.255  32.361  1.00  0.00    -0.354 N 
ATOM     65  N   UNL A   1      43.948  26.303  30.156  1.00  0.00    -0.248 NA
ATOM     66  C   UNL A   1      45.106  24.699  28.911  1.00  0.00     0.031 C 
ATOM     67  C   UNL A   1      45.595  28.344  33.751  1.00  0.00     0.029 A 
ATOM     68  C   UNL A   1      45.123  27.720  32.606  1.00  0.00     0.049 A 
ATOM     69  H   UNL A   1      43.284  28.004  31.608  1.00  0.00     0.167 HD
ATOM     70  C   UNL A   1      45.205  26.104  30.722  1.00  0.00     0.074 A 
ATOM     71  C   UNL A   1      45.857  25.078  29.935  1.00  0.00     0.031 C 
ATOM     72  C   UNL A   1      45.770  26.714  31.796  1.00  0.00     0.034 A 
BRANCH  59  73
ATOM     73  C   UNL A   1      42.196  31.061  34.409  1.00  0.00     0.023 A 
ATOM     74  C   UNL A   1      42.393  32.424  34.129  1.00  0.00     0.031 A 
ATOM     75  C   UNL A   1      41.864  30.702  35.729  1.00  0.00     0.131 A 
ATOM     76  C   UNL A   1      42.323  33.370  35.164  1.00  0.00     0.055 A 
ATOM     77  C   UNL A   1      41.717  31.656  36.737  1.00  0.00     0.041 A 
ATOM     78  F   UNL A   1      41.687  29.415  36.063  1.00  0.00    -0.206 F 
ATOM     79  C   UNL A   1      41.961  32.997  36.461  1.00  0.00     0.022 A 
BRANCH  76  80
ATOM     80  S   UNL A   1      42.852  35.071  34.824  1.00  0.00     0.124 S 
ATOM     81  O   UNL A   1      41.574  35.775  34.782  1.00  0.00    -0.237 OA
ATOM     82  O   UNL A   1      43.709  35.368  35.965  1.00  0.00    -0.237 OA
ATOM     83  O   UNL A   1      43.539  34.966  33.538  1.00  0.00    -0.744 OA
ENDBRANCH  76  80
ENDBRANCH  59  73
BRANCH  60  84
ATOM     84  C   UNL A   1      42.890  24.301  27.029  1.00  0.00     0.023 A 
ATOM     85  C   UNL A   1      42.477  22.966  27.157  1.00  0.00     0.031 A 
ATOM     86  C   UNL A   1      43.494  24.689  25.818  1.00  0.00     0.131 A 
ATOM     87  C   UNL A   1      42.711  22.058  26.113  1.00  0.00     0.055 A 
ATOM     88  C   UNL A   1      43.668  23.797  24.759  1.00  0.00     0.041 A 
ATOM     89  F   UNL A   1      43.916  25.951  25.642  1.00  0.00    -0.206 F 
ATOM     90  C   UNL A   1      43.289  22.467  24.909  1.00  0.00     0.022 A 
BRANCH  87  91
ATOM     91  S   UNL A   1      42.338  20.304  26.389  1.00  0.00     0.124 S 
ATOM     92  O   UNL A   1      42.163  20.262  27.836  1.00  0.00    -0.237 OA
ATOM     93  O   UNL A   1      41.131  20.122  25.590  1.00  0.00    -0.237 OA
ATOM     94  O   UNL A   1      43.527  19.620  25.884  1.00  0.00    -0.744 OA
ENDBRANCH  87  91
ENDBRANCH  60  84
BRANCH  72  95
ATOM     95  C   UNL A   1      47.157  26.264  32.191  1.00  0.00     0.023 A 
ATOM     96  C   UNL A   1      48.308  26.829  31.612  1.00  0.00     0.031 A 
ATOM     97  C   UNL A   1      47.332  25.252  33.154  1.00  0.00     0.131 A 
ATOM     98  C   UNL A   1      49.578  26.341  31.958  1.00  0.00     0.055 A 
ATOM     99  C   UNL A   1      48.600  24.819  33.544  1.00  0.00     0.041 A 
ATOM    100  F   UNL A   1      46.270  24.673  33.737  1.00  0.00    -0.206 F 
ATOM    101  C   UNL A   1      49.732  25.354  32.935  1.00  0.00     0.022 A 
BRANCH  98 102
ATOM    102  S   UNL A   1      51.022  26.944  31.042  1.00  0.00     0.124 S 
ATOM    103  O   UNL A   1      50.419  27.910  30.130  1.00  0.00    -0.237 OA
ATOM    104  O   UNL A   1      51.854  27.502  32.103  1.00  0.00    -0.237 OA
ATOM    105  O   UNL A   1      51.553  25.740  30.407  1.00  0.00    -0.744 OA
ENDBRANCH  98 102
ENDBRANCH  72  95
ENDBRANCH  46  47
ENDBRANCH  39  41
ENDBRANCH  38  39
ENDBRANCH  37  38
ENDBRANCH  36  37
ENDBRANCH  35  36
ENDBRANCH   1  35
TORSDOF 23
ENDMDL
MODEL 2
REMARK VINA RESULT:     -10.5      2.088      2.613
REMARK SMILES CC(C)[C@H](NC(=O)[C@H](Cc1ccccc1)n1c(=O)[nH]c2ccccc2c1=O)C(=O)OCCOCCOC(=O)c1ccc(-c2c3nc(c(-c4cc(S(=O)(=O)[O-])ccc4F)c4ccc([nH]4)c(-c4cc(S(=O)(=O)[O-])ccc4F)c4nc(c(-c5cc(S(=O)(=O)[O-])ccc5F)c5ccc2[nH]5)C=C4)C=C3)cc1
REMARK SMILES IDX 32 1 31 2 30 3 28 4 29 5 4 6 2 7 1 8 3 9 5 10 6 11 7 13 8 14
REMARK SMILES IDX 16 15 17 16 26 17 18 18 19 19 25 20 27 21 20 22 24 24 21 25
REMARK SMILES IDX 23 26 22 27 9 28 10 29 11 30 15 31 12 32 14 33 13 34 33 35
REMARK SMILES IDX 34 36 35 37 36 38 37 39 38 40 39 41 40 42 101 43 41 44
REMARK SMILES IDX 100 45 42 46 43 47 44 48 94 49 45 50 99 51 93 52 95 53 46 54
REMARK SMILES IDX 98 55 92 56 91 57 47 59 79 60 59 61 78 62 60 63 63 64 77 65
REMARK SMILES IDX 96 66 61 67 62 68 76 70 97 71 64 72 48 73 49 74 57 75 50 76
REMARK SMILES IDX 56 77 58 78 55 79 51 80 52 81 53 82 54 83 80 84 81 85 89 86
REMARK SMILES IDX 82 87 88 88 90 89 87 90 83 91 84 92 85 93 86 94 65 95 66 96
REMARK SMILES IDX 74 97 67 98 73 99 75 100 72 101 68 102 69 103 70 104 71 105
REMARK H PARENT 5 12 19 23 95 58 63 69
REMARK Flexibility Score: inf
ROOT
ATOM      1  C   UNL A   1      31.861  28.249  23.422  1.00  0.00     0.202 C 
ENDROOT
BRANCH   1   2
ATOM      2  C   UNL A   1      30.604  27.783  22.679  1.00  0.00     0.261 C 
BRANCH   2   3
ATOM      3  O   UNL A   1      30.478  26.353  22.665  1.00  0.00    -0.462 OA
BRANCH   3   4
ATOM      4  C   UNL A   1      29.972  25.830  23.815  1.00  0.00     0.328 C 
ATOM      5  O   UNL A   1      29.017  26.312  24.415  1.00  0.00    -0.250 OA
BRANCH   4   6
ATOM      6  C   UNL A   1      30.619  24.471  24.198  1.00  0.00     0.194 C 
BRANCH   6   7
ATOM      7  C   UNL A   1      31.281  24.435  25.569  1.00  0.00     0.017 C 
ATOM      8  C   UNL A   1      31.931  25.719  26.097  1.00  0.00     0.010 C 
ATOM      9  C   UNL A   1      30.294  23.916  26.621  1.00  0.00     0.010 C 
ENDBRANCH   6   7
BRANCH   6  10
ATOM     10  N   UNL A   1      31.441  23.875  23.113  1.00  0.00    -0.341 N 
ATOM     11  C   UNL A   1      32.600  23.222  22.902  1.00  0.00     0.244 C 
ATOM     12  H   UNL A   1      30.980  24.000  22.253  1.00  0.00     0.164 HD
ATOM     13  O   UNL A   1      32.984  23.425  21.734  1.00  0.00    -0.273 OA
BRANCH  11  14
ATOM     14  C   UNL A   1      33.548  22.469  23.894  1.00  0.00     0.189 C 
BRANCH  14  15
ATOM     15  N   UNL A   1      33.314  21.091  24.449  1.00  0.00    -0.247 N 
ATOM     16  C   UNL A   1      33.450  20.835  25.800  1.00  0.00     0.329 A 
ATOM     17  C   UNL A   1      32.864  20.088  23.578  1.00  0.00     0.264 A 
ATOM     18  O   UNL A   1      33.985  21.563  26.625  1.00  0.00    -0.248 OA
ATOM     19  N   UNL A   1      33.031  19.627  26.274  1.00  0.00    -0.307 N 
ATOM     20  C   UNL A   1      32.857  18.698  24.094  1.00  0.00     0.064 A 
ATOM     21  O   UNL A   1      32.549  20.270  22.405  1.00  0.00    -0.268 OA
ATOM     22  C   UNL A   1      32.851  18.520  25.465  1.00  0.00     0.055 A 
ATOM     23  H   UNL A   1      32.850  19.539  27.238  1.00  0.00     0.171 HD
ATOM     24  C   UNL A   1      32.943  17.583  23.256  1.00  0.00     0.016 A 
ATOM     25  C   UNL A   1      32.822  17.245  26.030  1.00  0.00     0.027 A 
ATOM     26  C   UNL A   1      33.006  16.301  23.813  1.00  0.00     0.001 A 
ATOM     27  C   UNL A   1      32.917  16.131  25.197  1.00  0.00     0.002 A 
ENDBRANCH  14  15
BRANCH  14  28
ATOM     28  C   UNL A   1      35.047  22.699  23.454  1.00  0.00     0.071 C 
BRANCH  28  29
ATOM     29  C   UNL A   1      36.217  22.725  24.434  1.00  0.00    -0.045 A 
ATOM     30  C   UNL A   1      37.032  21.584  24.528  1.00  0.00     0.004 A 
ATOM     31  C   UNL A   1      36.529  23.800  25.278  1.00  0.00     0.004 A 
ATOM     32  C   UNL A   1      38.165  21.567  25.350  1.00  0.00     0.000 A 
ATOM     33  C   UNL A   1      37.681  23.803  26.071  1.00  0.00     0.000 A 
ATOM     34  C   UNL A   1      38.508  22.689  26.098  1.00  0.00     0.000 A 
ENDBRANCH  28  29
ENDBRANCH  14  28
ENDBRANCH  11  14
ENDBRANCH   6  10
ENDBRANCH   4   6
ENDBRANCH   3   4
ENDBRANCH   2   3
ENDBRANCH   1   2
BRANCH   1  35
ATOM     35  O   UNL A   1      31.765  29.391  24.271  1.00  0.00    -0.374 OA
BRANCH  35  36
ATOM     36  C   UNL A   1      32.595  29.444  25.430  1.00  0.00     0.202 C 
BRANCH  36  37
ATOM     37  C   UNL A   1      32.523  30.668  26.352  1.00  0.00     0.261 C 
BRANCH  37  38
ATOM     38  O   UNL A   1      33.322  30.524  27.536  1.00  0.00    -0.460 OA
BRANCH  38  39
ATOM     39  C   UNL A   1      34.036  31.626  27.868  1.00  0.00     0.338 C 
ATOM     40  O   UNL A   1      33.601  32.764  28.006  1.00  0.00    -0.246 OA
BRANCH  39  41
ATOM     41  C   UNL A   1      35.396  31.245  28.287  1.00  0.00     0.060 A 
ATOM     42  C   UNL A   1      35.525  30.117  29.110  1.00  0.00     0.016 A 
ATOM     43  C   UNL A   1      36.515  32.001  27.936  1.00  0.00     0.016 A 
ATOM     44  C   UNL A   1      36.769  29.763  29.621  1.00  0.00     0.010 A 
ATOM     45  C   UNL A   1      37.762  31.654  28.467  1.00  0.00     0.010 A 
ATOM     46  C   UNL A   1      37.890  30.551  29.333  1.00  0.00    -0.014 A 
BRANCH  46  47
ATOM     47  C   UNL A   1      39.165  30.288  30.041  1.00  0.00     0.031 A 
ATOM     48  C   UNL A   1      39.360  30.840  31.425  1.00  0.00     0.074 A 
ATOM     49  C   UNL A   1      40.118  29.532  29.467  1.00  0.00     0.049 A 
ATOM     50  N   UNL A   1      40.409  30.779  32.203  1.00  0.00    -0.248 NA
ATOM     51  C   UNL A   1      38.216  31.559  32.008  1.00  0.00     0.031 C 
ATOM     52  C   UNL A   1      40.008  28.894  28.156  1.00  0.00     0.029 A 
ATOM     53  N   UNL A   1      41.366  29.177  29.911  1.00  0.00    -0.354 N 
ATOM     54  C   UNL A   1      40.058  31.456  33.367  1.00  0.00     0.074 A 
ATOM     55  C   UNL A   1      38.709  31.947  33.175  1.00  0.00     0.031 C 
ATOM     56  C   UNL A   1      41.150  28.234  27.897  1.00  0.00     0.029 A 
ATOM     57  C   UNL A   1      42.087  28.444  28.999  1.00  0.00     0.049 A 
ATOM     58  H   UNL A   1      41.713  29.423  30.800  1.00  0.00     0.167 HD
ATOM     59  C   UNL A   1      40.794  31.644  34.490  1.00  0.00     0.034 A 
ATOM     60  C   UNL A   1      43.368  28.027  29.032  1.00  0.00     0.034 A 
ATOM     61  C   UNL A   1      42.143  31.156  34.652  1.00  0.00     0.049 A 
ATOM     62  C   UNL A   1      44.208  28.350  30.245  1.00  0.00     0.074 A 
ATOM     63  C   UNL A   1      42.974  31.270  35.753  1.00  0.00     0.029 A 
ATOM     64  N   UNL A   1      42.869  30.482  33.677  1.00  0.00    -0.354 N 
ATOM     65  N   UNL A   1      43.863  28.980  31.346  1.00  0.00    -0.248 NA
ATOM     66  C   UNL A   1      45.608  27.907  30.220  1.00  0.00     0.031 C 
ATOM     67  C   UNL A   1      44.226  30.745  35.414  1.00  0.00     0.029 A 
ATOM     68  C   UNL A   1      44.153  30.220  34.133  1.00  0.00     0.049 A 
ATOM     69  H   UNL A   1      42.523  30.226  32.791  1.00  0.00     0.167 HD
ATOM     70  C   UNL A   1      45.000  28.989  32.150  1.00  0.00     0.074 A 
ATOM     71  C   UNL A   1      46.030  28.280  31.418  1.00  0.00     0.031 C 
ATOM     72  C   UNL A   1      45.178  29.533  33.382  1.00  0.00     0.034 A 
BRANCH  59  73
ATOM     73  C   UNL A   1      40.178  32.461  35.600  1.00  0.00     0.023 A 
ATOM     74  C   UNL A   1      40.363  33.852  35.691  1.00  0.00     0.031 A 
ATOM     75  C   UNL A   1      39.405  31.834  36.594  1.00  0.00     0.131 A 
ATOM     76  C   UNL A   1      39.841  34.558  36.787  1.00  0.00     0.055 A 
ATOM     77  C   UNL A   1      38.820  32.555  37.637  1.00  0.00     0.041 A 
ATOM     78  F   UNL A   1      39.213  30.507  36.574  1.00  0.00    -0.206 F 
ATOM     79  C   UNL A   1      39.048  33.922  37.746  1.00  0.00     0.022 A 
BRANCH  76  80
ATOM     80  S   UNL A   1      40.329  36.290  37.017  1.00  0.00     0.124 S 
ATOM     81  O   UNL A   1      39.882  36.892  35.764  1.00  0.00    -0.237 OA
ATOM     82  O   UNL A   1      39.585  36.670  38.211  1.00  0.00    -0.237 OA
ATOM     83  O   UNL A   1      41.780  36.218  37.182  1.00  0.00    -0.744 OA
ENDBRANCH  76  80
ENDBRANCH  59  73
BRANCH  60  84
ATOM     84  C   UNL A   1      43.961  27.314  27.864  1.00  0.00     0.023 A 
ATOM     85  C   UNL A   1      44.032  25.913  27.827  1.00  0.00     0.031 A 
ATOM     86  C   UNL A   1      44.517  28.030  26.787  1.00  0.00     0.131 A 
ATOM     87  C   UNL A   1      44.683  25.274  26.760  1.00  0.00     0.055 A 
ATOM     88  C   UNL A   1      45.109  27.387  25.699  1.00  0.00     0.041 A 
ATOM     89  F   UNL A   1      44.486  29.372  26.774  1.00  0.00    -0.206 F 
ATOM     90  C   UNL A   1      45.207  26.000  25.689  1.00  0.00     0.022 A 
BRANCH  87  91
ATOM     91  S   UNL A   1      44.923  23.477  26.842  1.00  0.00     0.124 S 
ATOM     92  O   UNL A   1      44.551  23.191  28.223  1.00  0.00    -0.237 OA
ATOM     93  O   UNL A   1      44.001  23.002  25.816  1.00  0.00    -0.237 OA
ATOM     94  O   UNL A   1      46.341  23.310  26.529  1.00  0.00    -0.744 OA
ENDBRANCH  87  91
ENDBRANCH  60  84
BRANCH  72  95
ATOM     95  C   UNL A   1      46.536  29.358  34.021  1.00  0.00     0.023 A 
ATOM     96  C   UNL A   1      47.581  30.271  33.791  1.00  0.00     0.031 A 
ATOM     97  C   UNL A   1      46.792  28.261  34.864  1.00  0.00     0.131 A 
ATOM     98  C   UNL A   1      48.847  30.041  34.352  1.00  0.00     0.055 A 
ATOM     99  C   UNL A   1      48.033  28.076  35.474  1.00  0.00     0.041 A 
ATOM    100  F   UNL A   1      45.833  27.355  35.116  1.00  0.00    -0.206 F 
ATOM    101  C   UNL A   1      49.073  28.961  35.208  1.00  0.00     0.022 A 
BRANCH  98 102
ATOM    102  S   UNL A   1      50.223  31.120  33.869  1.00  0.00     0.124 S 
ATOM    103  O   UNL A   1      49.563  32.070  32.979  1.00  0.00    -0.237 OA
ATOM    104  O   UNL A   1      50.668  31.652  35.152  1.00  0.00    -0.237 OA
ATOM    105  O   UNL A   1      51.161  30.209  33.217  1.00  0.00    -0.744 OA
ENDBRANCH  98 102
ENDBRANCH  72  95
ENDBRANCH  46  47
ENDBRANCH  39  41
ENDBRANCH  38  39
ENDBRANCH  37  38
ENDBRANCH  36  37
ENDBRANCH  35  36
ENDBRANCH   1  35
TORSDOF 23
ENDMDL
MODEL 3
REMARK VINA RESULT:     -10.4      6.576     10.185
REMARK SMILES CC(C)[C@H](NC(=O)[C@H](Cc1ccccc1)n1c(=O)[nH]c2ccccc2c1=O)C(=O)OCCOCCOC(=O)c1ccc(-c2c3nc(c(-c4cc(S(=O)(=O)[O-])ccc4F)c4ccc([nH]4)c(-c4cc(S(=O)(=O)[O-])ccc4F)c4nc(c(-c5cc(S(=O)(=O)[O-])ccc5F)c5ccc2[nH]5)C=C4)C=C3)cc1
REMARK SMILES IDX 32 1 31 2 30 3 28 4 29 5 4 6 2 7 1 8 3 9 5 10 6 11 7 13 8 14
REMARK SMILES IDX 16 15 17 16 26 17 18 18 19 19 25 20 27 21 20 22 24 24 21 25
REMARK SMILES IDX 23 26 22 27 9 28 10 29 11 30 15 31 12 32 14 33 13 34 33 35
REMARK SMILES IDX 34 36 35 37 36 38 37 39 38 40 39 41 40 42 101 43 41 44
REMARK SMILES IDX 100 45 42 46 43 47 44 48 94 49 45 50 99 51 93 52 95 53 46 54
REMARK SMILES IDX 98 55 92 56 91 57 47 59 79 60 59 61 78 62 60 63 63 64 77 65
REMARK SMILES IDX 96 66 61 67 62 68 76 70 97 71 64 72 48 73 49 74 57 75 50 76
REMARK SMILES IDX 56 77 58 78 55 79 51 80 52 81 53 82 54 83 80 84 81 85 89 86
REMARK SMILES IDX 82 87 88 88 90 89 87 90 83 91 84 92 85 93 86 94 65 95 66 96
REMARK SMILES IDX 74 97 67 98 73 99 75 100 72 101 68 102 69 103 70 104 71 105
REMARK H PARENT 5 12 19 23 95 58 63 69
REMARK Flexibility Score: inf
ROOT
ATOM      1  C   UNL A   1      33.771  30.819  27.157  1.00  0.00     0.202 C 
ENDROOT
BRANCH   1   2
ATOM      2  C   UNL A   1      33.731  29.287  27.139  1.00  0.00     0.261 C 
BRANCH   2   3
ATOM      3  O   UNL A   1      32.743  28.777  26.230  1.00  0.00    -0.462 OA
BRANCH   3   4
ATOM      4  C   UNL A   1      31.821  27.963  26.813  1.00  0.00     0.328 C 
ATOM      5  O   UNL A   1      31.288  28.207  27.890  1.00  0.00    -0.250 OA
BRANCH   4   6
ATOM      6  C   UNL A   1      31.393  26.782  25.901  1.00  0.00     0.194 C 
BRANCH   6   7
ATOM      7  C   UNL A   1      30.465  27.155  24.753  1.00  0.00     0.017 C 
ATOM      8  C   UNL A   1      30.714  28.477  24.017  1.00  0.00     0.010 C 
ATOM      9  C   UNL A   1      30.414  26.022  23.722  1.00  0.00     0.010 C 
ENDBRANCH   6   7
BRANCH   6  10
ATOM     10  N   UNL A   1      30.970  25.571  26.652  1.00  0.00    -0.341 N 
ATOM     11  C   UNL A   1      31.303  24.281  26.854  1.00  0.00     0.244 C 
ATOM     12  H   UNL A   1      30.171  25.785  27.186  1.00  0.00     0.164 HD
ATOM     13  O   UNL A   1      30.291  23.640  27.196  1.00  0.00    -0.273 OA
BRANCH  11  14
ATOM     14  C   UNL A   1      32.629  23.506  26.555  1.00  0.00     0.189 C 
BRANCH  14  15
ATOM     15  N   UNL A   1      32.721  22.070  26.116  1.00  0.00    -0.247 N 
ATOM     16  C   UNL A   1      33.382  21.132  26.885  1.00  0.00     0.329 A 
ATOM     17  C   UNL A   1      32.041  21.683  24.952  1.00  0.00     0.264 A 
ATOM     18  O   UNL A   1      34.142  21.363  27.816  1.00  0.00    -0.248 OA
ATOM     19  N   UNL A   1      33.261  19.817  26.545  1.00  0.00    -0.307 N 
ATOM     20  C   UNL A   1      32.328  20.329  24.421  1.00  0.00     0.064 A 
ATOM     21  O   UNL A   1      31.288  22.409  24.308  1.00  0.00    -0.268 OA
ATOM     22  C   UNL A   1      32.860  19.396  25.291  1.00  0.00     0.055 A 
ATOM     23  H   UNL A   1      33.470  19.136  27.225  1.00  0.00     0.171 HD
ATOM     24  C   UNL A   1      32.161  19.998  23.074  1.00  0.00     0.016 A 
ATOM     25  C   UNL A   1      33.138  18.094  24.874  1.00  0.00     0.027 A 
ATOM     26  C   UNL A   1      32.521  18.722  22.624  1.00  0.00     0.001 A 
ATOM     27  C   UNL A   1      32.981  17.763  23.529  1.00  0.00     0.002 A 
ENDBRANCH  14  15
BRANCH  14  28
ATOM     28  C   UNL A   1      33.611  24.449  25.754  1.00  0.00     0.071 C 
BRANCH  28  29
ATOM     29  C   UNL A   1      34.803  23.934  24.951  1.00  0.00    -0.045 A 
ATOM     30  C   UNL A   1      36.038  23.799  25.606  1.00  0.00     0.004 A 
ATOM     31  C   UNL A   1      34.768  23.609  23.587  1.00  0.00     0.004 A 
ATOM     32  C   UNL A   1      37.153  23.262  24.950  1.00  0.00     0.000 A 
ATOM     33  C   UNL A   1      35.865  23.036  22.938  1.00  0.00     0.000 A 
ATOM     34  C   UNL A   1      37.057  22.850  23.624  1.00  0.00     0.000 A 
ENDBRANCH  28  29
ENDBRANCH  14  28
ENDBRANCH  11  14
ENDBRANCH   6  10
ENDBRANCH   4   6
ENDBRANCH   3   4
ENDBRANCH   2   3
ENDBRANCH   1   2
BRANCH   1  35
ATOM     35  O   UNL A   1      34.062  31.476  28.388  1.00  0.00    -0.374 OA
BRANCH  35  36
ATOM     36  C   UNL A   1      35.259  32.248  28.476  1.00  0.00     0.202 C 
BRANCH  36  37
ATOM     37  C   UNL A   1      36.313  31.884  29.529  1.00  0.00     0.261 C 
BRANCH  37  38
ATOM     38  O   UNL A   1      35.741  31.323  30.721  1.00  0.00    -0.460 OA
BRANCH  38  39
ATOM     39  C   UNL A   1      35.198  32.233  31.565  1.00  0.00     0.338 C 
ATOM     40  O   UNL A   1      34.025  32.589  31.598  1.00  0.00    -0.246 OA
BRANCH  39  41
ATOM     41  C   UNL A   1      36.160  32.584  32.624  1.00  0.00     0.060 A 
ATOM     42  C   UNL A   1      36.142  33.901  33.101  1.00  0.00     0.016 A 
ATOM     43  C   UNL A   1      37.100  31.668  33.099  1.00  0.00     0.016 A 
ATOM     44  C   UNL A   1      37.090  34.322  34.028  1.00  0.00     0.010 A 
ATOM     45  C   UNL A   1      38.064  32.100  34.016  1.00  0.00     0.010 A 
ATOM     46  C   UNL A   1      38.080  33.434  34.463  1.00  0.00    -0.014 A 
BRANCH  46  47
ATOM     47  C   UNL A   1      39.201  33.944  35.288  1.00  0.00     0.031 A 
ATOM     48  C   UNL A   1      39.122  33.821  36.784  1.00  0.00     0.074 A 
ATOM     49  C   UNL A   1      40.291  34.473  34.704  1.00  0.00     0.049 A 
ATOM     50  N   UNL A   1      39.957  34.244  37.697  1.00  0.00    -0.248 NA
ATOM     51  C   UNL A   1      37.941  33.127  37.321  1.00  0.00     0.031 C 
ATOM     52  C   UNL A   1      40.500  34.583  33.260  1.00  0.00     0.029 A 
ATOM     53  N   UNL A   1      41.422  35.021  35.251  1.00  0.00    -0.354 N 
ATOM     54  C   UNL A   1      39.401  33.876  38.919  1.00  0.00     0.074 A 
ATOM     55  C   UNL A   1      38.142  33.224  38.626  1.00  0.00     0.031 C 
ATOM     56  C   UNL A   1      41.686  35.174  33.037  1.00  0.00     0.029 A 
ATOM     57  C   UNL A   1      42.294  35.530  34.318  1.00  0.00     0.049 A 
ATOM     58  H   UNL A   1      41.595  35.047  36.220  1.00  0.00     0.167 HD
ATOM     59  C   UNL A   1      39.902  34.063  40.165  1.00  0.00     0.034 A 
ATOM     60  C   UNL A   1      43.430  36.236  34.479  1.00  0.00     0.034 A 
ATOM     61  C   UNL A   1      41.155  34.729  40.431  1.00  0.00     0.049 A 
ATOM     62  C   UNL A   1      43.909  36.535  35.881  1.00  0.00     0.074 A 
ATOM     63  C   UNL A   1      41.769  34.954  41.652  1.00  0.00     0.029 A 
ATOM     64  N   UNL A   1      41.976  35.298  39.465  1.00  0.00    -0.354 N 
ATOM     65  N   UNL A   1      43.383  36.172  37.029  1.00  0.00    -0.248 NA
ATOM     66  C   UNL A   1      45.131  37.339  36.007  1.00  0.00     0.031 C 
ATOM     67  C   UNL A   1      42.910  35.732  41.432  1.00  0.00     0.029 A 
ATOM     68  C   UNL A   1      43.063  35.917  40.066  1.00  0.00     0.049 A 
ATOM     69  H   UNL A   1      41.811  35.266  38.495  1.00  0.00     0.167 HD
ATOM     70  C   UNL A   1      44.226  36.687  38.012  1.00  0.00     0.074 A 
ATOM     71  C   UNL A   1      45.304  37.363  37.320  1.00  0.00     0.031 C 
ATOM     72  C   UNL A   1      44.118  36.610  39.363  1.00  0.00     0.034 A 
BRANCH  59  73
ATOM     73  C   UNL A   1      39.064  33.596  41.331  1.00  0.00     0.023 A 
ATOM     74  C   UNL A   1      39.184  32.300  41.863  1.00  0.00     0.031 A 
ATOM     75  C   UNL A   1      38.116  34.459  41.910  1.00  0.00     0.131 A 
ATOM     76  C   UNL A   1      38.326  31.883  42.893  1.00  0.00     0.055 A 
ATOM     77  C   UNL A   1      37.322  34.065  42.989  1.00  0.00     0.041 A 
ATOM     78  F   UNL A   1      37.938  35.700  41.431  1.00  0.00    -0.206 F 
ATOM     79  C   UNL A   1      37.414  32.765  43.476  1.00  0.00     0.022 A 
BRANCH  76  80
ATOM     80  S   UNL A   1      38.320  30.131  43.362  1.00  0.00     0.124 S 
ATOM     81  O   UNL A   1      37.093  30.040  44.149  1.00  0.00    -0.237 OA
ATOM     82  O   UNL A   1      38.303  29.459  42.069  1.00  0.00    -0.237 OA
ATOM     83  O   UNL A   1      39.556  29.977  44.129  1.00  0.00    -0.744 OA
ENDBRANCH  76  80
ENDBRANCH  59  73
BRANCH  60  84
ATOM     84  C   UNL A   1      44.166  36.765  33.295  1.00  0.00     0.023 A 
ATOM     85  C   UNL A   1      43.814  37.989  32.706  1.00  0.00     0.031 A 
ATOM     86  C   UNL A   1      45.203  36.022  32.699  1.00  0.00     0.131 A 
ATOM     87  C   UNL A   1      44.460  38.413  31.534  1.00  0.00     0.055 A 
ATOM     88  C   UNL A   1      45.884  36.479  31.570  1.00  0.00     0.041 A 
ATOM     89  F   UNL A   1      45.577  34.841  33.214  1.00  0.00    -0.206 F 
ATOM     90  C   UNL A   1      45.503  37.675  30.972  1.00  0.00     0.022 A 
BRANCH  87  91
ATOM     91  S   UNL A   1      43.848  39.902  30.697  1.00  0.00     0.124 S 
ATOM     92  O   UNL A   1      43.083  40.546  31.759  1.00  0.00    -0.237 OA
ATOM     93  O   UNL A   1      45.090  40.562  30.308  1.00  0.00    -0.237 OA
ATOM     94  O   UNL A   1      43.055  39.367  29.592  1.00  0.00    -0.744 OA
ENDBRANCH  87  91
ENDBRANCH  60  84
BRANCH  72  95
ATOM     95  C   UNL A   1      45.214  37.256  40.178  1.00  0.00     0.023 A 
ATOM     96  C   UNL A   1      45.116  38.589  40.618  1.00  0.00     0.031 A 
ATOM     97  C   UNL A   1      46.375  36.534  40.513  1.00  0.00     0.131 A 
ATOM     98  C   UNL A   1      46.182  39.174  41.319  1.00  0.00     0.055 A 
ATOM     99  C   UNL A   1      47.401  37.102  41.269  1.00  0.00     0.041 A 
ATOM    100  F   UNL A   1      46.526  35.260  40.116  1.00  0.00    -0.206 F 
ATOM    101  C   UNL A   1      47.315  38.433  41.665  1.00  0.00     0.022 A 
BRANCH  98 102
ATOM    102  S   UNL A   1      46.111  40.948  41.689  1.00  0.00     0.124 S 
ATOM    103  O   UNL A   1      47.374  41.423  41.134  1.00  0.00    -0.237 OA
ATOM    104  O   UNL A   1      44.906  41.367  40.980  1.00  0.00    -0.237 OA
ATOM    105  O   UNL A   1      46.018  40.992  43.146  1.00  0.00    -0.744 OA
ENDBRANCH  98 102
ENDBRANCH  72  95
ENDBRANCH  46  47
ENDBRANCH  39  41
ENDBRANCH  38  39
ENDBRANCH  37  38
ENDBRANCH  36  37
ENDBRANCH  35  36
ENDBRANCH   1  35
TORSDOF 23
ENDMDL
