MODEL 1
REMARK VINA RESULT:     -10.3      0.000      0.000
REMARK SMILES C[C@@H](C(=O)OCCOCCOC(=O)c1ccc(-c2c3nc(c(-c4cc(S(=O)(=O)[O-])ccc4F)c4ccc([nH]4)c(-c4cc(S(=O)(=O)[O-])ccc4F)c4nc(c(-c5cc(S(=O)(=O)[O-])ccc5F)c5ccc2[nH]5)C=C4)C=C3)cc1)c1ccc(-c2ccccc2)c(F)c1
REMARK SMILES IDX 9 1 8 2 7 3 6 4 5 5 3 6 4 7 2 8 1 9 77 10 78 11 89 12 79 13
REMARK SMILES IDX 87 14 80 15 88 16 81 17 82 18 86 19 83 20 85 21 84 22 10 23
REMARK SMILES IDX 11 24 12 25 13 26 14 27 15 28 76 29 16 30 75 31 17 32 18 33
REMARK SMILES IDX 19 34 69 35 20 36 74 37 68 38 70 39 21 40 73 41 67 42 66 43
REMARK SMILES IDX 22 45 54 46 34 47 53 48 35 49 38 50 52 51 71 52 36 53 37 54
REMARK SMILES IDX 51 56 72 57 39 58 23 59 24 60 32 61 25 62 31 63 33 64 30 65
REMARK SMILES IDX 26 66 27 67 28 68 29 69 55 70 56 71 64 72 57 73 63 74 65 75
REMARK SMILES IDX 62 76 58 77 59 78 60 79 61 80 40 81 41 82 49 83 42 84 48 85
REMARK SMILES IDX 50 86 47 87 43 88 44 89 45 90 46 91
REMARK H PARENT 70 44 38 55
REMARK Flexibility Score: inf
ROOT
ATOM      1  C   UNL A   1      33.802  34.939  28.789  1.00  0.00     0.202 C 
ENDROOT
BRANCH   1   2
ATOM      2  O   UNL A   1      32.692  35.717  29.225  1.00  0.00    -0.374 OA
BRANCH   2   3
ATOM      3  C   UNL A   1      32.913  36.602  30.326  1.00  0.00     0.202 C 
BRANCH   3   4
ATOM      4  C   UNL A   1      32.459  36.097  31.701  1.00  0.00     0.261 C 
BRANCH   4   5
ATOM      5  O   UNL A   1      33.274  34.983  32.118  1.00  0.00    -0.463 OA
BRANCH   5   6
ATOM      6  C   UNL A   1      34.430  35.295  32.760  1.00  0.00     0.313 C 
ATOM      7  O   UNL A   1      34.768  36.436  33.059  1.00  0.00    -0.252 OA
BRANCH   6   8
ATOM      8  C   UNL A   1      35.269  34.056  33.107  1.00  0.00     0.126 C 
ATOM      9  C   UNL A   1      35.541  33.826  34.598  1.00  0.00     0.025 C 
BRANCH   8  10
ATOM     10  C   UNL A   1      36.583  34.043  32.329  1.00  0.00    -0.031 A 
ATOM     11  C   UNL A   1      37.797  34.382  32.943  1.00  0.00     0.005 A 
ATOM     12  C   UNL A   1      36.604  33.718  30.969  1.00  0.00     0.044 A 
ATOM     13  C   UNL A   1      38.989  34.432  32.220  1.00  0.00     0.012 A 
ATOM     14  C   UNL A   1      37.798  33.785  30.246  1.00  0.00     0.131 A 
ATOM     15  C   UNL A   1      39.010  34.154  30.848  1.00  0.00     0.017 A 
ATOM     16  F   UNL A   1      37.756  33.501  28.934  1.00  0.00    -0.206 F 
BRANCH  15  17
ATOM     17  C   UNL A   1      40.258  34.324  30.090  1.00  0.00    -0.015 A 
ATOM     18  C   UNL A   1      41.394  33.546  30.373  1.00  0.00     0.009 A 
ATOM     19  C   UNL A   1      40.372  35.329  29.117  1.00  0.00     0.009 A 
ATOM     20  C   UNL A   1      42.604  33.774  29.715  1.00  0.00     0.001 A 
ATOM     21  C   UNL A   1      41.583  35.561  28.460  1.00  0.00     0.001 A 
ATOM     22  C   UNL A   1      42.700  34.786  28.761  1.00  0.00     0.000 A 
ENDBRANCH  15  17
ENDBRANCH   8  10
ENDBRANCH   6   8
ENDBRANCH   5   6
ENDBRANCH   4   5
ENDBRANCH   3   4
ENDBRANCH   2   3
ENDBRANCH   1   2
BRANCH   1  23
ATOM     23  C   UNL A   1      33.515  33.655  28.005  1.00  0.00     0.261 C 
BRANCH  23  24
ATOM     24  O   UNL A   1      34.664  32.804  27.916  1.00  0.00    -0.460 OA
BRANCH  24  25
ATOM     25  C   UNL A   1      34.361  31.486  27.850  1.00  0.00     0.338 C 
ATOM     26  O   UNL A   1      33.306  30.993  27.476  1.00  0.00    -0.246 OA
BRANCH  25  27
ATOM     27  C   UNL A   1      35.570  30.684  28.104  1.00  0.00     0.060 A 
ATOM     28  C   UNL A   1      35.546  29.838  29.220  1.00  0.00     0.016 A 
ATOM     29  C   UNL A   1      36.711  30.782  27.304  1.00  0.00     0.016 A 
ATOM     30  C   UNL A   1      36.688  29.130  29.579  1.00  0.00     0.010 A 
ATOM     31  C   UNL A   1      37.860  30.075  27.672  1.00  0.00     0.010 A 
ATOM     32  C   UNL A   1      37.863  29.280  28.833  1.00  0.00    -0.014 A 
BRANCH  32  33
ATOM     33  C   UNL A   1      39.132  28.746  29.380  1.00  0.00     0.031 A 
ATOM     34  C   UNL A   1      39.690  29.364  30.633  1.00  0.00     0.074 A 
ATOM     35  C   UNL A   1      39.739  27.695  28.802  1.00  0.00     0.049 A 
ATOM     36  N   UNL A   1      40.787  29.077  31.283  1.00  0.00    -0.248 NA
ATOM     37  C   UNL A   1      38.903  30.455  31.229  1.00  0.00     0.031 C 
ATOM     38  C   UNL A   1      39.251  26.984  27.621  1.00  0.00     0.029 A 
ATOM     39  N   UNL A   1      40.898  27.041  29.135  1.00  0.00    -0.354 N 
ATOM     40  C   UNL A   1      40.827  29.956  32.362  1.00  0.00     0.074 A 
ATOM     41  C   UNL A   1      39.662  30.808  32.254  1.00  0.00     0.031 C 
ATOM     42  C   UNL A   1      40.107  25.991  27.326  1.00  0.00     0.029 A 
ATOM     43  C   UNL A   1      41.224  26.023  28.269  1.00  0.00     0.049 A 
ATOM     44  H   UNL A   1      41.445  27.277  29.918  1.00  0.00     0.167 HD
ATOM     45  C   UNL A   1      41.747  30.035  33.353  1.00  0.00     0.034 A 
ATOM     46  C   UNL A   1      42.311  25.227  28.233  1.00  0.00     0.034 A 
ATOM     47  C   UNL A   1      42.905  29.178  33.436  1.00  0.00     0.049 A 
ATOM     48  C   UNL A   1      43.371  25.397  29.296  1.00  0.00     0.074 A 
ATOM     49  C   UNL A   1      43.894  29.156  34.403  1.00  0.00     0.029 A 
ATOM     50  N   UNL A   1      43.235  28.197  32.509  1.00  0.00    -0.354 N 
ATOM     51  N   UNL A   1      43.396  26.227  30.315  1.00  0.00    -0.248 NA
ATOM     52  C   UNL A   1      44.545  24.519  29.208  1.00  0.00     0.031 C 
ATOM     53  C   UNL A   1      44.862  28.222  34.018  1.00  0.00     0.029 A 
ATOM     54  C   UNL A   1      44.434  27.594  32.859  1.00  0.00     0.049 A 
ATOM     55  H   UNL A   1      42.697  27.964  31.717  1.00  0.00     0.167 HD
ATOM     56  C   UNL A   1      44.572  25.943  31.007  1.00  0.00     0.074 A 
ATOM     57  C   UNL A   1      45.218  24.859  30.296  1.00  0.00     0.031 C 
ATOM     58  C   UNL A   1      45.070  26.520  32.132  1.00  0.00     0.034 A 
BRANCH  45  59
ATOM     59  C   UNL A   1      41.569  31.124  34.383  1.00  0.00     0.023 A 
ATOM     60  C   UNL A   1      40.561  31.069  35.361  1.00  0.00     0.031 A 
ATOM     61  C   UNL A   1      42.409  32.253  34.369  1.00  0.00     0.131 A 
ATOM     62  C   UNL A   1      40.374  32.150  36.237  1.00  0.00     0.055 A 
ATOM     63  C   UNL A   1      42.269  33.287  35.295  1.00  0.00     0.041 A 
ATOM     64  F   UNL A   1      43.373  32.375  33.442  1.00  0.00    -0.206 F 
ATOM     65  C   UNL A   1      41.238  33.246  36.228  1.00  0.00     0.022 A 
BRANCH  62  66
ATOM     66  S   UNL A   1      38.899  32.167  37.295  1.00  0.00     0.124 S 
ATOM     67  O   UNL A   1      38.312  30.861  37.003  1.00  0.00    -0.237 OA
ATOM     68  O   UNL A   1      39.468  32.330  38.627  1.00  0.00    -0.237 OA
ATOM     69  O   UNL A   1      38.135  33.310  36.798  1.00  0.00    -0.744 OA
ENDBRANCH  62  66
ENDBRANCH  45  59
BRANCH  46  70
ATOM     70  C   UNL A   1      42.482  24.225  27.141  1.00  0.00     0.023 A 
ATOM     71  C   UNL A   1      41.871  22.964  27.209  1.00  0.00     0.031 A 
ATOM     72  C   UNL A   1      43.314  24.495  26.039  1.00  0.00     0.131 A 
ATOM     73  C   UNL A   1      42.137  22.002  26.221  1.00  0.00     0.055 A 
ATOM     74  C   UNL A   1      43.530  23.556  25.030  1.00  0.00     0.041 A 
ATOM     75  F   UNL A   1      43.927  25.684  25.924  1.00  0.00    -0.206 F 
ATOM     76  C   UNL A   1      42.952  22.295  25.125  1.00  0.00     0.022 A 
BRANCH  73  77
ATOM     77  S   UNL A   1      41.481  20.325  26.442  1.00  0.00     0.124 S 
ATOM     78  O   UNL A   1      40.049  20.542  26.265  1.00  0.00    -0.237 OA
ATOM     79  O   UNL A   1      42.157  19.594  25.376  1.00  0.00    -0.237 OA
ATOM     80  O   UNL A   1      41.897  19.974  27.798  1.00  0.00    -0.744 OA
ENDBRANCH  73  77
ENDBRANCH  46  70
BRANCH  58  81
ATOM     81  C   UNL A   1      46.354  25.949  32.686  1.00  0.00     0.023 A 
ATOM     82  C   UNL A   1      46.363  24.836  33.543  1.00  0.00     0.031 A 
ATOM     83  C   UNL A   1      47.588  26.536  32.353  1.00  0.00     0.131 A 
ATOM     84  C   UNL A   1      47.575  24.381  34.085  1.00  0.00     0.055 A 
ATOM     85  C   UNL A   1      48.796  26.039  32.843  1.00  0.00     0.041 A 
ATOM     86  F   UNL A   1      47.641  27.604  31.540  1.00  0.00    -0.206 F 
ATOM     87  C   UNL A   1      48.793  24.964  33.726  1.00  0.00     0.022 A 
BRANCH  84  88
ATOM     88  S   UNL A   1      47.530  23.079  35.348  1.00  0.00     0.124 S 
ATOM     89  O   UNL A   1      46.749  23.711  36.407  1.00  0.00    -0.237 OA
ATOM     90  O   UNL A   1      46.875  21.982  34.642  1.00  0.00    -0.237 OA
ATOM     91  O   UNL A   1      48.940  22.859  35.664  1.00  0.00    -0.744 OA
ENDBRANCH  84  88
ENDBRANCH  58  81
ENDBRANCH  32  33
ENDBRANCH  25  27
ENDBRANCH  24  25
ENDBRANCH  23  24
ENDBRANCH   1  23
TORSDOF 19
ENDMDL
MODEL 2
REMARK VINA RESULT:     -10.3      4.318     10.415
REMARK SMILES C[C@@H](C(=O)OCCOCCOC(=O)c1ccc(-c2c3nc(c(-c4cc(S(=O)(=O)[O-])ccc4F)c4ccc([nH]4)c(-c4cc(S(=O)(=O)[O-])ccc4F)c4nc(c(-c5cc(S(=O)(=O)[O-])ccc5F)c5ccc2[nH]5)C=C4)C=C3)cc1)c1ccc(-c2ccccc2)c(F)c1
REMARK SMILES IDX 9 1 8 2 7 3 6 4 5 5 3 6 4 7 2 8 1 9 77 10 78 11 89 12 79 13
REMARK SMILES IDX 87 14 80 15 88 16 81 17 82 18 86 19 83 20 85 21 84 22 10 23
REMARK SMILES IDX 11 24 12 25 13 26 14 27 15 28 76 29 16 30 75 31 17 32 18 33
REMARK SMILES IDX 19 34 69 35 20 36 74 37 68 38 70 39 21 40 73 41 67 42 66 43
REMARK SMILES IDX 22 45 54 46 34 47 53 48 35 49 38 50 52 51 71 52 36 53 37 54
REMARK SMILES IDX 51 56 72 57 39 58 23 59 24 60 32 61 25 62 31 63 33 64 30 65
REMARK SMILES IDX 26 66 27 67 28 68 29 69 55 70 56 71 64 72 57 73 63 74 65 75
REMARK SMILES IDX 62 76 58 77 59 78 60 79 61 80 40 81 41 82 49 83 42 84 48 85
REMARK SMILES IDX 50 86 47 87 43 88 44 89 45 90 46 91
REMARK H PARENT 70 44 38 55
REMARK Flexibility Score: inf
ROOT
ATOM      1  C   UNL A   1      31.616  29.045  25.747  1.00  0.00     0.202 C 
ENDROOT
BRANCH   1   2
ATOM      2  O   UNL A   1      32.173  28.146  26.700  1.00  0.00    -0.374 OA
BRANCH   2   3
ATOM      3  C   UNL A   1      33.175  27.241  26.230  1.00  0.00     0.202 C 
BRANCH   3   4
ATOM      4  C   UNL A   1      32.759  25.769  26.119  1.00  0.00     0.261 C 
BRANCH   4   5
ATOM      5  O   UNL A   1      31.335  25.666  25.928  1.00  0.00    -0.463 OA
BRANCH   5   6
ATOM      6  C   UNL A   1      30.879  24.475  25.460  1.00  0.00     0.313 C 
ATOM      7  O   UNL A   1      30.706  23.480  26.156  1.00  0.00    -0.252 OA
BRANCH   6   8
ATOM      8  C   UNL A   1      30.565  24.509  23.956  1.00  0.00     0.126 C 
ATOM      9  C   UNL A   1      31.684  24.025  23.026  1.00  0.00     0.025 C 
BRANCH   8  10
ATOM     10  C   UNL A   1      30.090  25.894  23.522  1.00  0.00    -0.031 A 
ATOM     11  C   UNL A   1      30.941  26.777  22.841  1.00  0.00     0.005 A 
ATOM     12  C   UNL A   1      28.795  26.330  23.820  1.00  0.00     0.044 A 
ATOM     13  C   UNL A   1      30.528  28.065  22.499  1.00  0.00     0.012 A 
ATOM     14  C   UNL A   1      28.393  27.627  23.488  1.00  0.00     0.131 A 
ATOM     15  C   UNL A   1      29.250  28.525  22.835  1.00  0.00     0.017 A 
ATOM     16  F   UNL A   1      27.153  28.008  23.832  1.00  0.00    -0.206 F 
BRANCH  15  17
ATOM     17  C   UNL A   1      28.883  29.922  22.563  1.00  0.00    -0.015 A 
ATOM     18  C   UNL A   1      28.431  30.322  21.293  1.00  0.00     0.009 A 
ATOM     19  C   UNL A   1      29.057  30.911  23.543  1.00  0.00     0.009 A 
ATOM     20  C   UNL A   1      28.174  31.666  21.012  1.00  0.00     0.001 A 
ATOM     21  C   UNL A   1      28.803  32.256  23.263  1.00  0.00     0.001 A 
ATOM     22  C   UNL A   1      28.364  32.633  21.997  1.00  0.00     0.000 A 
ENDBRANCH  15  17
ENDBRANCH   8  10
ENDBRANCH   6   8
ENDBRANCH   5   6
ENDBRANCH   4   5
ENDBRANCH   3   4
ENDBRANCH   2   3
ENDBRANCH   1   2
BRANCH   1  23
ATOM     23  C   UNL A   1      31.964  30.531  25.874  1.00  0.00     0.261 C 
BRANCH  23  24
ATOM     24  O   UNL A   1      32.246  30.909  27.227  1.00  0.00    -0.460 OA
BRANCH  24  25
ATOM     25  C   UNL A   1      33.039  32.002  27.333  1.00  0.00     0.338 C 
ATOM     26  O   UNL A   1      32.699  33.170  27.212  1.00  0.00    -0.246 OA
BRANCH  25  27
ATOM     27  C   UNL A   1      34.369  31.605  27.826  1.00  0.00     0.060 A 
ATOM     28  C   UNL A   1      34.553  30.251  28.134  1.00  0.00     0.016 A 
ATOM     29  C   UNL A   1      35.397  32.530  28.023  1.00  0.00     0.016 A 
ATOM     30  C   UNL A   1      35.749  29.824  28.700  1.00  0.00     0.010 A 
ATOM     31  C   UNL A   1      36.596  32.100  28.600  1.00  0.00     0.010 A 
ATOM     32  C   UNL A   1      36.759  30.754  28.977  1.00  0.00    -0.014 A 
BRANCH  32  33
ATOM     33  C   UNL A   1      37.901  30.339  29.824  1.00  0.00     0.031 A 
ATOM     34  C   UNL A   1      38.898  29.365  29.258  1.00  0.00     0.074 A 
ATOM     35  C   UNL A   1      38.074  30.867  31.049  1.00  0.00     0.049 A 
ATOM     36  N   UNL A   1      39.962  28.848  29.815  1.00  0.00    -0.248 NA
ATOM     37  C   UNL A   1      38.659  28.913  27.879  1.00  0.00     0.031 C 
ATOM     38  C   UNL A   1      37.201  31.863  31.668  1.00  0.00     0.029 A 
ATOM     39  N   UNL A   1      39.046  30.639  31.989  1.00  0.00    -0.354 N 
ATOM     40  C   UNL A   1      40.516  28.003  28.857  1.00  0.00     0.074 A 
ATOM     41  C   UNL A   1      39.648  28.052  27.700  1.00  0.00     0.031 C 
ATOM     42  C   UNL A   1      37.677  32.160  32.889  1.00  0.00     0.029 A 
ATOM     43  C   UNL A   1      38.861  31.345  33.154  1.00  0.00     0.049 A 
ATOM     44  H   UNL A   1      39.804  30.028  31.844  1.00  0.00     0.167 HD
ATOM     45  C   UNL A   1      41.649  27.265  28.936  1.00  0.00     0.034 A 
ATOM     46  C   UNL A   1      39.558  31.316  34.308  1.00  0.00     0.034 A 
ATOM     47  C   UNL A   1      42.496  27.227  30.104  1.00  0.00     0.049 A 
ATOM     48  C   UNL A   1      40.764  30.413  34.405  1.00  0.00     0.074 A 
ATOM     49  C   UNL A   1      43.675  26.529  30.291  1.00  0.00     0.029 A 
ATOM     50  N   UNL A   1      42.246  27.909  31.288  1.00  0.00    -0.354 N 
ATOM     51  N   UNL A   1      41.284  29.623  33.492  1.00  0.00    -0.248 NA
ATOM     52  C   UNL A   1      41.483  30.402  35.686  1.00  0.00     0.031 C 
ATOM     53  C   UNL A   1      44.094  26.723  31.612  1.00  0.00     0.029 A 
ATOM     54  C   UNL A   1      43.226  27.614  32.224  1.00  0.00     0.049 A 
ATOM     55  H   UNL A   1      41.484  28.513  31.442  1.00  0.00     0.167 HD
ATOM     56  C   UNL A   1      42.410  29.051  34.079  1.00  0.00     0.074 A 
ATOM     57  C   UNL A   1      42.500  29.596  35.418  1.00  0.00     0.031 C 
ATOM     58  C   UNL A   1      43.294  28.161  33.559  1.00  0.00     0.034 A 
BRANCH  45  59
ATOM     59  C   UNL A   1      41.996  26.393  27.753  1.00  0.00     0.023 A 
ATOM     60  C   UNL A   1      41.532  25.071  27.638  1.00  0.00     0.031 A 
ATOM     61  C   UNL A   1      42.832  26.887  26.735  1.00  0.00     0.131 A 
ATOM     62  C   UNL A   1      41.960  24.269  26.569  1.00  0.00     0.055 A 
ATOM     63  C   UNL A   1      43.188  26.109  25.632  1.00  0.00     0.041 A 
ATOM     64  F   UNL A   1      43.329  28.132  26.803  1.00  0.00    -0.206 F 
ATOM     65  C   UNL A   1      42.763  24.787  25.551  1.00  0.00     0.022 A 
BRANCH  62  66
ATOM     66  S   UNL A   1      41.567  22.497  26.600  1.00  0.00     0.124 S 
ATOM     67  O   UNL A   1      42.199  22.077  27.848  1.00  0.00    -0.237 OA
ATOM     68  O   UNL A   1      40.109  22.496  26.588  1.00  0.00    -0.237 OA
ATOM     69  O   UNL A   1      42.201  21.985  25.386  1.00  0.00    -0.744 OA
ENDBRANCH  62  66
ENDBRANCH  45  59
BRANCH  46  70
ATOM     70  C   UNL A   1      39.121  32.131  35.480  1.00  0.00     0.023 A 
ATOM     71  C   UNL A   1      39.583  33.443  35.665  1.00  0.00     0.031 A 
ATOM     72  C   UNL A   1      38.280  31.583  36.465  1.00  0.00     0.131 A 
ATOM     73  C   UNL A   1      39.242  34.147  36.831  1.00  0.00     0.055 A 
ATOM     74  C   UNL A   1      37.897  32.308  37.595  1.00  0.00     0.041 A 
ATOM     75  F   UNL A   1      37.811  30.332  36.340  1.00  0.00    -0.206 F 
ATOM     76  C   UNL A   1      38.391  33.593  37.790  1.00  0.00     0.022 A 
BRANCH  73  77
ATOM     77  S   UNL A   1      40.009  35.765  37.124  1.00  0.00     0.124 S 
ATOM     78  O   UNL A   1      39.700  36.468  35.884  1.00  0.00    -0.237 OA
ATOM     79  O   UNL A   1      39.302  36.222  38.316  1.00  0.00    -0.237 OA
ATOM     80  O   UNL A   1      41.419  35.440  37.324  1.00  0.00    -0.744 OA
ENDBRANCH  73  77
ENDBRANCH  46  70
BRANCH  58  81
ATOM     81  C   UNL A   1      44.464  27.765  34.430  1.00  0.00     0.023 A 
ATOM     82  C   UNL A   1      44.480  26.558  35.149  1.00  0.00     0.031 A 
ATOM     83  C   UNL A   1      45.578  28.617  34.545  1.00  0.00     0.131 A 
ATOM     84  C   UNL A   1      45.559  26.263  35.997  1.00  0.00     0.055 A 
ATOM     85  C   UNL A   1      46.677  28.288  35.338  1.00  0.00     0.041 A 
ATOM     86  F   UNL A   1      45.617  29.785  33.883  1.00  0.00    -0.206 F 
ATOM     87  C   UNL A   1      46.666  27.112  36.081  1.00  0.00     0.022 A 
BRANCH  84  88
ATOM     88  S   UNL A   1      45.452  24.802  37.067  1.00  0.00     0.124 S 
ATOM     89  O   UNL A   1      46.637  24.954  37.906  1.00  0.00    -0.237 OA
ATOM     90  O   UNL A   1      44.169  24.997  37.735  1.00  0.00    -0.237 OA
ATOM     91  O   UNL A   1      45.498  23.684  36.126  1.00  0.00    -0.744 OA
ENDBRANCH  84  88
ENDBRANCH  58  81
ENDBRANCH  32  33
ENDBRANCH  25  27
ENDBRANCH  24  25
ENDBRANCH  23  24
ENDBRANCH   1  23
TORSDOF 19
ENDMDL
MODEL 3
REMARK VINA RESULT:     -10.3      3.930      7.018
REMARK SMILES C[C@@H](C(=O)OCCOCCOC(=O)c1ccc(-c2c3nc(c(-c4cc(S(=O)(=O)[O-])ccc4F)c4ccc([nH]4)c(-c4cc(S(=O)(=O)[O-])ccc4F)c4nc(c(-c5cc(S(=O)(=O)[O-])ccc5F)c5ccc2[nH]5)C=C4)C=C3)cc1)c1ccc(-c2ccccc2)c(F)c1
REMARK SMILES IDX 9 1 8 2 7 3 6 4 5 5 3 6 4 7 2 8 1 9 77 10 78 11 89 12 79 13
REMARK SMILES IDX 87 14 80 15 88 16 81 17 82 18 86 19 83 20 85 21 84 22 10 23
REMARK SMILES IDX 11 24 12 25 13 26 14 27 15 28 76 29 16 30 75 31 17 32 18 33
REMARK SMILES IDX 19 34 69 35 20 36 74 37 68 38 70 39 21 40 73 41 67 42 66 43
REMARK SMILES IDX 22 45 54 46 34 47 53 48 35 49 38 50 52 51 71 52 36 53 37 54
REMARK SMILES IDX 51 56 72 57 39 58 23 59 24 60 32 61 25 62 31 63 33 64 30 65
REMARK SMILES IDX 26 66 27 67 28 68 29 69 55 70 56 71 64 72 57 73 63 74 65 75
REMARK SMILES IDX 62 76 58 77 59 78 60 79 61 80 40 81 41 82 49 83 42 84 48 85
REMARK SMILES IDX 50 86 47 87 43 88 44 89 45 90 46 91
REMARK H PARENT 70 44 38 55
REMARK Flexibility Score: inf
ROOT
ATOM      1  C   UNL A   1      31.797  29.700  25.191  1.00  0.00     0.202 C 
ENDROOT
BRANCH   1   2
ATOM      2  O   UNL A   1      32.920  28.966  24.713  1.00  0.00    -0.374 OA
BRANCH   2   3
ATOM      3  C   UNL A   1      33.298  29.175  23.349  1.00  0.00     0.202 C 
BRANCH   3   4
ATOM      4  C   UNL A   1      33.695  27.924  22.557  1.00  0.00     0.261 C 
BRANCH   4   5
ATOM      5  O   UNL A   1      32.587  27.005  22.487  1.00  0.00    -0.463 OA
BRANCH   5   6
ATOM      6  C   UNL A   1      32.838  25.808  21.896  1.00  0.00     0.313 C 
ATOM      7  O   UNL A   1      33.274  25.679  20.756  1.00  0.00    -0.252 OA
BRANCH   6   8
ATOM      8  C   UNL A   1      32.548  24.616  22.822  1.00  0.00     0.126 C 
ATOM      9  C   UNL A   1      31.377  24.791  23.795  1.00  0.00     0.025 C 
BRANCH   8  10
ATOM     10  C   UNL A   1      33.802  24.193  23.584  1.00  0.00    -0.031 A 
ATOM     11  C   UNL A   1      34.022  24.600  24.909  1.00  0.00     0.005 A 
ATOM     12  C   UNL A   1      34.781  23.407  22.968  1.00  0.00     0.044 A 
ATOM     13  C   UNL A   1      35.195  24.266  25.586  1.00  0.00     0.012 A 
ATOM     14  C   UNL A   1      35.961  23.089  23.647  1.00  0.00     0.131 A 
ATOM     15  C   UNL A   1      36.200  23.519  24.960  1.00  0.00     0.017 A 
ATOM     16  F   UNL A   1      36.885  22.366  22.996  1.00  0.00    -0.206 F 
BRANCH  15  17
ATOM     17  C   UNL A   1      37.471  23.279  25.659  1.00  0.00    -0.015 A 
ATOM     18  C   UNL A   1      38.138  24.317  26.334  1.00  0.00     0.009 A 
ATOM     19  C   UNL A   1      38.094  22.023  25.598  1.00  0.00     0.009 A 
ATOM     20  C   UNL A   1      39.390  24.107  26.916  1.00  0.00     0.001 A 
ATOM     21  C   UNL A   1      39.348  21.813  26.177  1.00  0.00     0.001 A 
ATOM     22  C   UNL A   1      39.997  22.855  26.833  1.00  0.00     0.000 A 
ENDBRANCH  15  17
ENDBRANCH   8  10
ENDBRANCH   6   8
ENDBRANCH   5   6
ENDBRANCH   4   5
ENDBRANCH   3   4
ENDBRANCH   2   3
ENDBRANCH   1   2
BRANCH   1  23
ATOM     23  C   UNL A   1      32.002  30.612  26.405  1.00  0.00     0.261 C 
BRANCH  23  24
ATOM     24  O   UNL A   1      33.229  30.335  27.090  1.00  0.00    -0.460 OA
BRANCH  24  25
ATOM     25  C   UNL A   1      33.870  31.446  27.527  1.00  0.00     0.338 C 
ATOM     26  O   UNL A   1      33.391  32.562  27.668  1.00  0.00    -0.246 OA
BRANCH  25  27
ATOM     27  C   UNL A   1      35.211  31.086  28.018  1.00  0.00     0.060 A 
ATOM     28  C   UNL A   1      35.437  29.735  28.310  1.00  0.00     0.016 A 
ATOM     29  C   UNL A   1      36.208  32.040  28.229  1.00  0.00     0.016 A 
ATOM     30  C   UNL A   1      36.645  29.339  28.873  1.00  0.00     0.010 A 
ATOM     31  C   UNL A   1      37.419  31.641  28.804  1.00  0.00     0.010 A 
ATOM     32  C   UNL A   1      37.624  30.297  29.165  1.00  0.00    -0.014 A 
BRANCH  32  33
ATOM     33  C   UNL A   1      38.777  29.908  30.009  1.00  0.00     0.031 A 
ATOM     34  C   UNL A   1      38.876  30.480  31.396  1.00  0.00     0.074 A 
ATOM     35  C   UNL A   1      39.683  29.018  29.566  1.00  0.00     0.049 A 
ATOM     36  N   UNL A   1      39.798  30.300  32.306  1.00  0.00    -0.248 NA
ATOM     37  C   UNL A   1      37.789  31.381  31.811  1.00  0.00     0.031 C 
ATOM     38  C   UNL A   1      39.647  28.358  28.262  1.00  0.00     0.029 A 
ATOM     39  N   UNL A   1      40.808  28.515  30.168  1.00  0.00    -0.354 N 
ATOM     40  C   UNL A   1      39.406  31.068  33.398  1.00  0.00     0.074 A 
ATOM     41  C   UNL A   1      38.183  31.744  33.020  1.00  0.00     0.031 C 
ATOM     42  C   UNL A   1      40.706  27.535  28.161  1.00  0.00     0.029 A 
ATOM     43  C   UNL A   1      41.515  27.644  29.374  1.00  0.00     0.049 A 
ATOM     44  H   UNL A   1      41.083  28.755  31.082  1.00  0.00     0.167 HD
ATOM     45  C   UNL A   1      40.009  31.189  34.606  1.00  0.00     0.034 A 
ATOM     46  C   UNL A   1      42.692  27.026  29.595  1.00  0.00     0.034 A 
ATOM     47  C   UNL A   1      41.232  30.510  34.957  1.00  0.00     0.049 A 
ATOM     48  C   UNL A   1      43.394  27.250  30.914  1.00  0.00     0.074 A 
ATOM     49  C   UNL A   1      41.924  30.544  36.155  1.00  0.00     0.029 A 
ATOM     50  N   UNL A   1      41.954  29.681  34.107  1.00  0.00    -0.354 N 
ATOM     51  N   UNL A   1      43.012  27.974  31.943  1.00  0.00    -0.248 NA
ATOM     52  C   UNL A   1      44.680  26.569  31.105  1.00  0.00     0.031 C 
ATOM     53  C   UNL A   1      43.102  29.805  36.002  1.00  0.00     0.029 A 
ATOM     54  C   UNL A   1      43.104  29.234  34.739  1.00  0.00     0.049 A 
ATOM     55  H   UNL A   1      41.688  29.447  33.188  1.00  0.00     0.167 HD
ATOM     56  C   UNL A   1      43.996  27.804  32.913  1.00  0.00     0.074 A 
ATOM     57  C   UNL A   1      44.979  26.901  32.351  1.00  0.00     0.031 C 
ATOM     58  C   UNL A   1      44.079  28.340  34.159  1.00  0.00     0.034 A 
BRANCH  45  59
ATOM     59  C   UNL A   1      39.387  32.137  35.603  1.00  0.00     0.023 A 
ATOM     60  C   UNL A   1      39.783  33.482  35.701  1.00  0.00     0.031 A 
ATOM     61  C   UNL A   1      38.398  31.677  36.491  1.00  0.00     0.131 A 
ATOM     62  C   UNL A   1      39.244  34.300  36.707  1.00  0.00     0.055 A 
ATOM     63  C   UNL A   1      37.808  32.517  37.437  1.00  0.00     0.041 A 
ATOM     64  F   UNL A   1      37.998  30.395  36.464  1.00  0.00    -0.206 F 
ATOM     65  C   UNL A   1      38.240  33.833  37.558  1.00  0.00     0.022 A 
BRANCH  62  66
ATOM     66  S   UNL A   1      39.975  35.938  36.981  1.00  0.00     0.124 S 
ATOM     67  O   UNL A   1      39.712  36.595  35.703  1.00  0.00    -0.237 OA
ATOM     68  O   UNL A   1      39.220  36.434  38.125  1.00  0.00    -0.237 OA
ATOM     69  O   UNL A   1      41.384  35.645  37.243  1.00  0.00    -0.744 OA
ENDBRANCH  62  66
ENDBRANCH  45  59
BRANCH  46  70
ATOM     70  C   UNL A   1      43.310  26.168  28.541  1.00  0.00     0.023 A 
ATOM     71  C   UNL A   1      44.291  26.673  27.675  1.00  0.00     0.031 A 
ATOM     72  C   UNL A   1      42.879  24.843  28.347  1.00  0.00     0.131 A 
ATOM     73  C   UNL A   1      44.775  25.877  26.625  1.00  0.00     0.055 A 
ATOM     74  C   UNL A   1      43.405  24.036  27.337  1.00  0.00     0.041 A 
ATOM     75  F   UNL A   1      41.940  24.309  29.144  1.00  0.00    -0.206 F 
ATOM     76  C   UNL A   1      44.349  24.558  26.459  1.00  0.00     0.022 A 
BRANCH  73  77
ATOM     77  S   UNL A   1      45.901  26.626  25.415  1.00  0.00     0.124 S 
ATOM     78  O   UNL A   1      46.216  25.487  24.560  1.00  0.00    -0.237 OA
ATOM     79  O   UNL A   1      45.060  27.662  24.823  1.00  0.00    -0.237 OA
ATOM     80  O   UNL A   1      47.005  27.116  26.236  1.00  0.00    -0.744 OA
ENDBRANCH  73  77
ENDBRANCH  46  70
BRANCH  58  81
ATOM     81  C   UNL A   1      45.251  27.916  35.013  1.00  0.00     0.023 A 
ATOM     82  C   UNL A   1      45.190  26.792  35.853  1.00  0.00     0.031 A 
ATOM     83  C   UNL A   1      46.447  28.657  34.986  1.00  0.00     0.131 A 
ATOM     84  C   UNL A   1      46.281  26.475  36.677  1.00  0.00     0.055 A 
ATOM     85  C   UNL A   1      47.552  28.299  35.759  1.00  0.00     0.041 A 
ATOM     86  F   UNL A   1      46.562  29.743  34.203  1.00  0.00    -0.206 F 
ATOM     87  C   UNL A   1      47.468  27.211  36.621  1.00  0.00     0.022 A 
BRANCH  84  88
ATOM     88  S   UNL A   1      46.094  25.148  37.899  1.00  0.00     0.124 S 
ATOM     89  O   UNL A   1      45.675  25.886  39.087  1.00  0.00    -0.237 OA
ATOM     90  O   UNL A   1      45.077  24.299  37.285  1.00  0.00    -0.237 OA
ATOM     91  O   UNL A   1      47.430  24.559  37.974  1.00  0.00    -0.744 OA
ENDBRANCH  84  88
ENDBRANCH  58  81
ENDBRANCH  32  33
ENDBRANCH  25  27
ENDBRANCH  24  25
ENDBRANCH  23  24
ENDBRANCH   1  23
TORSDOF 19
ENDMDL
