MODEL 1
REMARK VINA RESULT:     -10.6      0.000      0.000
REMARK SMILES COc1ccc(CSc2ncccc2C(=O)OCCOCCOC(=O)c2ccc(-c3c4nc(c(-c5cc(S(=O)(=O)[O-])ccc5F)c5ccc([nH]5)c(-c5cc(S(=O)(=O)[O-])ccc5F)c5nc(c(-c6cc(S(=O)(=O)[O-])ccc6F)c6ccc3[nH]6)C=C5)C=C4)cc2)cc1
REMARK SMILES IDX 19 1 18 2 17 3 15 4 16 5 14 6 9 7 10 8 11 9 13 10 12 11 8 12
REMARK SMILES IDX 7 13 6 14 3 15 4 16 90 17 5 18 89 19 2 20 1 21 20 22 21 23
REMARK SMILES IDX 22 24 23 25 24 26 25 27 26 28 27 29 88 30 28 31 87 32 29 33
REMARK SMILES IDX 30 34 31 35 81 36 32 37 86 38 80 39 82 40 33 41 85 42 79 43
REMARK SMILES IDX 78 44 34 46 66 47 46 48 65 49 47 50 50 51 64 52 83 53 48 54
REMARK SMILES IDX 49 55 63 57 84 58 51 59 35 60 36 61 44 62 37 63 43 64 45 65
REMARK SMILES IDX 42 66 38 67 39 68 40 69 41 70 67 71 68 72 76 73 69 74 75 75
REMARK SMILES IDX 77 76 74 77 70 78 71 79 72 80 73 81 52 82 53 83 61 84 54 85
REMARK SMILES IDX 60 86 62 87 59 88 55 89 56 90 57 91 58 92
REMARK H PARENT 82 45 50 56
REMARK Flexibility Score: inf
ROOT
ATOM      1  C   UNL A   1      36.877  21.692  24.487  1.00  0.00     0.202 C 
ENDROOT
BRANCH   1   2
ATOM      2  C   UNL A   1      36.745  23.177  24.112  1.00  0.00     0.261 C 
BRANCH   2   3
ATOM      3  O   UNL A   1      36.184  23.920  25.197  1.00  0.00    -0.460 OA
BRANCH   3   4
ATOM      4  C   UNL A   1      34.975  23.605  25.697  1.00  0.00     0.340 C 
ATOM      5  O   UNL A   1      34.649  22.640  26.353  1.00  0.00    -0.246 OA
BRANCH   4   6
ATOM      6  C   UNL A   1      34.082  24.552  25.026  1.00  0.00     0.092 A 
ATOM      7  C   UNL A   1      33.188  24.248  24.005  1.00  0.00     0.111 A 
ATOM      8  N   UNL A   1      32.326  25.206  23.549  1.00  0.00    -0.249 NA
ATOM      9  C   UNL A   1      32.369  26.449  24.081  1.00  0.00     0.112 A 
ATOM     10  C   UNL A   1      34.109  25.856  25.560  1.00  0.00     0.020 A 
ATOM     11  C   UNL A   1      33.244  26.823  25.076  1.00  0.00     0.021 A 
BRANCH   7  12
ATOM     12  S   UNL A   1      33.040  22.785  23.007  1.00  0.00    -0.101 SA
BRANCH  12  13
ATOM     13  C   UNL A   1      32.220  21.520  24.036  1.00  0.00     0.112 C 
BRANCH  13  14
ATOM     14  C   UNL A   1      32.788  20.130  23.867  1.00  0.00    -0.037 A 
ATOM     15  C   UNL A   1      33.485  17.415  23.722  1.00  0.00     0.118 A 
ATOM     16  C   UNL A   1      34.159  18.261  24.596  1.00  0.00     0.047 A 
ATOM     17  C   UNL A   1      32.585  17.949  22.805  1.00  0.00     0.047 A 
ATOM     18  C   UNL A   1      33.816  19.613  24.667  1.00  0.00     0.008 A 
ATOM     19  C   UNL A   1      32.269  19.307  22.862  1.00  0.00     0.008 A 
BRANCH  15  20
ATOM     20  O   UNL A   1      33.782  16.083  23.799  1.00  0.00    -0.497 OA
ATOM     21  C   UNL A   1      34.041  15.652  25.138  1.00  0.00     0.278 C 
ENDBRANCH  15  20
ENDBRANCH  13  14
ENDBRANCH  12  13
ENDBRANCH   7  12
ENDBRANCH   4   6
ENDBRANCH   3   4
ENDBRANCH   2   3
ENDBRANCH   1   2
BRANCH   1  22
ATOM     22  O   UNL A   1      38.083  21.253  25.113  1.00  0.00    -0.374 OA
BRANCH  22  23
ATOM     23  C   UNL A   1      38.497  19.894  24.954  1.00  0.00     0.202 C 
BRANCH  23  24
ATOM     24  C   UNL A   1      39.412  19.305  26.026  1.00  0.00     0.261 C 
BRANCH  24  25
ATOM     25  O   UNL A   1      40.778  19.259  25.592  1.00  0.00    -0.460 OA
BRANCH  25  26
ATOM     26  C   UNL A   1      41.693  19.489  26.568  1.00  0.00     0.338 C 
ATOM     27  O   UNL A   1      42.472  18.689  27.053  1.00  0.00    -0.246 OA
BRANCH  26  28
ATOM     28  C   UNL A   1      41.764  20.943  26.806  1.00  0.00     0.060 A 
ATOM     29  C   UNL A   1      41.580  21.796  25.708  1.00  0.00     0.016 A 
ATOM     30  C   UNL A   1      42.007  21.456  28.080  1.00  0.00     0.016 A 
ATOM     31  C   UNL A   1      41.650  23.176  25.881  1.00  0.00     0.010 A 
ATOM     32  C   UNL A   1      42.109  22.837  28.246  1.00  0.00     0.010 A 
ATOM     33  C   UNL A   1      41.951  23.697  27.145  1.00  0.00    -0.014 A 
BRANCH  33  34
ATOM     34  C   UNL A   1      42.286  25.129  27.298  1.00  0.00     0.031 A 
ATOM     35  C   UNL A   1      43.664  25.577  26.908  1.00  0.00     0.074 A 
ATOM     36  C   UNL A   1      41.392  25.992  27.807  1.00  0.00     0.049 A 
ATOM     37  N   UNL A   1      44.240  26.736  27.080  1.00  0.00    -0.248 NA
ATOM     38  C   UNL A   1      44.507  24.572  26.240  1.00  0.00     0.031 C 
ATOM     39  C   UNL A   1      40.011  25.668  28.160  1.00  0.00     0.029 A 
ATOM     40  N   UNL A   1      41.526  27.315  28.140  1.00  0.00    -0.354 N 
ATOM     41  C   UNL A   1      45.515  26.604  26.541  1.00  0.00     0.074 A 
ATOM     42  C   UNL A   1      45.634  25.243  26.064  1.00  0.00     0.031 C 
ATOM     43  C   UNL A   1      39.432  26.760  28.693  1.00  0.00     0.029 A 
ATOM     44  C   UNL A   1      40.416  27.839  28.759  1.00  0.00     0.049 A 
ATOM     45  H   UNL A   1      42.338  27.840  27.954  1.00  0.00     0.167 HD
ATOM     46  C   UNL A   1      46.494  27.536  26.454  1.00  0.00     0.034 A 
ATOM     47  C   UNL A   1      40.239  29.036  29.351  1.00  0.00     0.034 A 
ATOM     48  C   UNL A   1      46.364  28.872  26.977  1.00  0.00     0.049 A 
ATOM     49  C   UNL A   1      41.390  30.014  29.370  1.00  0.00     0.074 A 
ATOM     50  C   UNL A   1      47.280  29.908  26.945  1.00  0.00     0.029 A 
ATOM     51  N   UNL A   1      45.248  29.348  27.656  1.00  0.00    -0.354 N 
ATOM     52  N   UNL A   1      42.591  29.886  28.853  1.00  0.00    -0.248 NA
ATOM     53  C   UNL A   1      41.165  31.289  30.063  1.00  0.00     0.031 C 
ATOM     54  C   UNL A   1      46.748  30.984  27.666  1.00  0.00     0.029 A 
ATOM     55  C   UNL A   1      45.470  30.645  28.088  1.00  0.00     0.049 A 
ATOM     56  H   UNL A   1      44.420  28.838  27.806  1.00  0.00     0.167 HD
ATOM     57  C   UNL A   1      43.259  31.072  29.144  1.00  0.00     0.074 A 
ATOM     58  C   UNL A   1      42.323  31.906  29.871  1.00  0.00     0.031 C 
ATOM     59  C   UNL A   1      44.528  31.445  28.834  1.00  0.00     0.034 A 
BRANCH  46  60
ATOM     60  C   UNL A   1      47.797  27.103  25.832  1.00  0.00     0.023 A 
ATOM     61  C   UNL A   1      48.768  26.404  26.571  1.00  0.00     0.031 A 
ATOM     62  C   UNL A   1      48.102  27.453  24.506  1.00  0.00     0.131 A 
ATOM     63  C   UNL A   1      50.026  26.146  26.005  1.00  0.00     0.055 A 
ATOM     64  C   UNL A   1      49.328  27.125  23.923  1.00  0.00     0.041 A 
ATOM     65  F   UNL A   1      47.225  28.145  23.763  1.00  0.00    -0.206 F 
ATOM     66  C   UNL A   1      50.304  26.483  24.678  1.00  0.00     0.022 A 
BRANCH  63  67
ATOM     67  S   UNL A   1      51.342  25.507  27.076  1.00  0.00     0.124 S 
ATOM     68  O   UNL A   1      51.921  26.741  27.602  1.00  0.00    -0.237 OA
ATOM     69  O   UNL A   1      50.602  24.690  28.031  1.00  0.00    -0.237 OA
ATOM     70  O   UNL A   1      52.204  24.766  26.156  1.00  0.00    -0.744 OA
ENDBRANCH  63  67
ENDBRANCH  46  60
BRANCH  47  71
ATOM     71  C   UNL A   1      38.955  29.359  30.036  1.00  0.00     0.023 A 
ATOM     72  C   UNL A   1      37.995  30.179  29.428  1.00  0.00     0.031 A 
ATOM     73  C   UNL A   1      38.692  28.884  31.334  1.00  0.00     0.131 A 
ATOM     74  C   UNL A   1      36.829  30.529  30.128  1.00  0.00     0.055 A 
ATOM     75  C   UNL A   1      37.512  29.198  32.010  1.00  0.00     0.041 A 
ATOM     76  F   UNL A   1      39.580  28.097  31.963  1.00  0.00    -0.206 F 
ATOM     77  C   UNL A   1      36.575  30.034  31.410  1.00  0.00     0.022 A 
BRANCH  74  78
ATOM     78  S   UNL A   1      35.674  31.700  29.363  1.00  0.00     0.124 S 
ATOM     79  O   UNL A   1      34.958  32.213  30.526  1.00  0.00    -0.237 OA
ATOM     80  O   UNL A   1      36.582  32.632  28.704  1.00  0.00    -0.237 OA
ATOM     81  O   UNL A   1      34.885  30.861  28.464  1.00  0.00    -0.744 OA
ENDBRANCH  74  78
ENDBRANCH  47  71
BRANCH  59  82
ATOM     82  C   UNL A   1      44.959  32.823  29.267  1.00  0.00     0.023 A 
ATOM     83  C   UNL A   1      44.680  33.958  28.486  1.00  0.00     0.031 A 
ATOM     84  C   UNL A   1      45.644  33.001  30.480  1.00  0.00     0.131 A 
ATOM     85  C   UNL A   1      45.122  35.219  28.911  1.00  0.00     0.055 A 
ATOM     86  C   UNL A   1      46.035  34.265  30.922  1.00  0.00     0.041 A 
ATOM     87  F   UNL A   1      45.934  31.948  31.262  1.00  0.00    -0.206 F 
ATOM     88  C   UNL A   1      45.782  35.382  30.132  1.00  0.00     0.022 A 
BRANCH  85  89
ATOM     89  S   UNL A   1      44.869  36.645  27.818  1.00  0.00     0.124 S 
ATOM     90  O   UNL A   1      46.091  37.413  28.036  1.00  0.00    -0.237 OA
ATOM     91  O   UNL A   1      44.737  36.018  26.507  1.00  0.00    -0.237 OA
ATOM     92  O   UNL A   1      43.648  37.261  28.334  1.00  0.00    -0.744 OA
ENDBRANCH  85  89
ENDBRANCH  59  82
ENDBRANCH  33  34
ENDBRANCH  26  28
ENDBRANCH  25  26
ENDBRANCH  24  25
ENDBRANCH  23  24
ENDBRANCH  22  23
ENDBRANCH   1  22
TORSDOF 21
ENDMDL
MODEL 2
REMARK VINA RESULT:     -10.5      2.192      7.847
REMARK SMILES COc1ccc(CSc2ncccc2C(=O)OCCOCCOC(=O)c2ccc(-c3c4nc(c(-c5cc(S(=O)(=O)[O-])ccc5F)c5ccc([nH]5)c(-c5cc(S(=O)(=O)[O-])ccc5F)c5nc(c(-c6cc(S(=O)(=O)[O-])ccc6F)c6ccc3[nH]6)C=C5)C=C4)cc2)cc1
REMARK SMILES IDX 19 1 18 2 17 3 15 4 16 5 14 6 9 7 10 8 11 9 13 10 12 11 8 12
REMARK SMILES IDX 7 13 6 14 3 15 4 16 90 17 5 18 89 19 2 20 1 21 20 22 21 23
REMARK SMILES IDX 22 24 23 25 24 26 25 27 26 28 27 29 88 30 28 31 87 32 29 33
REMARK SMILES IDX 30 34 31 35 81 36 32 37 86 38 80 39 82 40 33 41 85 42 79 43
REMARK SMILES IDX 78 44 34 46 66 47 46 48 65 49 47 50 50 51 64 52 83 53 48 54
REMARK SMILES IDX 49 55 63 57 84 58 51 59 35 60 36 61 44 62 37 63 43 64 45 65
REMARK SMILES IDX 42 66 38 67 39 68 40 69 41 70 67 71 68 72 76 73 69 74 75 75
REMARK SMILES IDX 77 76 74 77 70 78 71 79 72 80 73 81 52 82 53 83 61 84 54 85
REMARK SMILES IDX 60 86 62 87 59 88 55 89 56 90 57 91 58 92
REMARK H PARENT 82 45 50 56
REMARK Flexibility Score: inf
ROOT
ATOM      1  C   UNL A   1      35.871  23.563  25.600  1.00  0.00     0.202 C 
ENDROOT
BRANCH   1   2
ATOM      2  C   UNL A   1      34.791  24.651  25.506  1.00  0.00     0.261 C 
BRANCH   2   3
ATOM      3  O   UNL A   1      34.661  25.114  24.159  1.00  0.00    -0.460 OA
BRANCH   3   4
ATOM      4  C   UNL A   1      34.098  24.339  23.215  1.00  0.00     0.340 C 
ATOM      5  O   UNL A   1      34.633  23.664  22.363  1.00  0.00    -0.246 OA
BRANCH   4   6
ATOM      6  C   UNL A   1      32.685  24.720  23.271  1.00  0.00     0.092 A 
ATOM      7  C   UNL A   1      31.682  24.042  23.956  1.00  0.00     0.111 A 
ATOM      8  N   UNL A   1      30.425  24.574  24.023  1.00  0.00    -0.249 NA
ATOM      9  C   UNL A   1      30.164  25.746  23.400  1.00  0.00     0.112 A 
ATOM     10  C   UNL A   1      32.385  25.937  22.627  1.00  0.00     0.020 A 
ATOM     11  C   UNL A   1      31.103  26.457  22.687  1.00  0.00     0.021 A 
BRANCH   7  12
ATOM     12  S   UNL A   1      31.688  22.424  24.693  1.00  0.00    -0.101 SA
BRANCH  12  13
ATOM     13  C   UNL A   1      32.308  21.266  23.426  1.00  0.00     0.112 C 
BRANCH  13  14
ATOM     14  C   UNL A   1      32.498  19.853  23.929  1.00  0.00    -0.037 A 
ATOM     15  C   UNL A   1      33.249  17.339  24.924  1.00  0.00     0.118 A 
ATOM     16  C   UNL A   1      32.898  17.481  23.586  1.00  0.00     0.047 A 
ATOM     17  C   UNL A   1      33.067  18.404  25.800  1.00  0.00     0.047 A 
ATOM     18  C   UNL A   1      32.520  18.731  23.091  1.00  0.00     0.008 A 
ATOM     19  C   UNL A   1      32.661  19.643  25.303  1.00  0.00     0.008 A 
BRANCH  15  20
ATOM     20  O   UNL A   1      33.734  16.119  25.309  1.00  0.00    -0.497 OA
ATOM     21  C   UNL A   1      32.763  15.076  25.187  1.00  0.00     0.278 C 
ENDBRANCH  15  20
ENDBRANCH  13  14
ENDBRANCH  12  13
ENDBRANCH   7  12
ENDBRANCH   4   6
ENDBRANCH   3   4
ENDBRANCH   2   3
ENDBRANCH   1   2
BRANCH   1  22
ATOM     22  O   UNL A   1      35.456  22.199  25.694  1.00  0.00    -0.374 OA
BRANCH  22  23
ATOM     23  C   UNL A   1      35.945  21.254  24.740  1.00  0.00     0.202 C 
BRANCH  23  24
ATOM     24  C   UNL A   1      37.413  20.841  24.844  1.00  0.00     0.261 C 
BRANCH  24  25
ATOM     25  O   UNL A   1      37.960  21.146  26.134  1.00  0.00    -0.460 OA
BRANCH  25  26
ATOM     26  C   UNL A   1      39.307  21.005  26.227  1.00  0.00     0.338 C 
ATOM     27  O   UNL A   1      39.987  20.101  25.776  1.00  0.00    -0.246 OA
BRANCH  26  28
ATOM     28  C   UNL A   1      39.869  22.252  26.775  1.00  0.00     0.060 A 
ATOM     29  C   UNL A   1      39.364  23.468  26.291  1.00  0.00     0.016 A 
ATOM     30  C   UNL A   1      40.873  22.229  27.744  1.00  0.00     0.016 A 
ATOM     31  C   UNL A   1      39.873  24.672  26.769  1.00  0.00     0.010 A 
ATOM     32  C   UNL A   1      41.403  23.436  28.199  1.00  0.00     0.010 A 
ATOM     33  C   UNL A   1      40.919  24.657  27.699  1.00  0.00    -0.014 A 
BRANCH  33  34
ATOM     34  C   UNL A   1      41.644  25.904  28.021  1.00  0.00     0.031 A 
ATOM     35  C   UNL A   1      40.902  26.983  28.756  1.00  0.00     0.074 A 
ATOM     36  C   UNL A   1      42.917  26.078  27.632  1.00  0.00     0.049 A 
ATOM     37  N   UNL A   1      41.268  28.207  29.024  1.00  0.00    -0.248 NA
ATOM     38  C   UNL A   1      39.561  26.628  29.245  1.00  0.00     0.031 C 
ATOM     39  C   UNL A   1      43.742  25.070  26.967  1.00  0.00     0.029 A 
ATOM     40  N   UNL A   1      43.730  27.179  27.720  1.00  0.00    -0.354 N 
ATOM     41  C   UNL A   1      40.202  28.772  29.716  1.00  0.00     0.074 A 
ATOM     42  C   UNL A   1      39.168  27.764  29.798  1.00  0.00     0.031 C 
ATOM     43  C   UNL A   1      44.939  25.613  26.676  1.00  0.00     0.029 A 
ATOM     44  C   UNL A   1      44.943  27.014  27.093  1.00  0.00     0.049 A 
ATOM     45  H   UNL A   1      43.471  28.006  28.185  1.00  0.00     0.167 HD
ATOM     46  C   UNL A   1      40.101  30.020  30.234  1.00  0.00     0.034 A 
ATOM     47  C   UNL A   1      45.919  27.910  26.846  1.00  0.00     0.034 A 
ATOM     48  C   UNL A   1      41.130  31.019  30.099  1.00  0.00     0.049 A 
ATOM     49  C   UNL A   1      45.727  29.336  27.306  1.00  0.00     0.074 A 
ATOM     50  C   UNL A   1      41.148  32.315  30.584  1.00  0.00     0.029 A 
ATOM     51  N   UNL A   1      42.319  30.839  29.402  1.00  0.00    -0.354 N 
ATOM     52  N   UNL A   1      44.721  29.863  27.965  1.00  0.00    -0.248 NA
ATOM     53  C   UNL A   1      46.797  30.288  26.979  1.00  0.00     0.031 C 
ATOM     54  C   UNL A   1      42.313  32.938  30.119  1.00  0.00     0.029 A 
ATOM     55  C   UNL A   1      43.056  32.011  29.403  1.00  0.00     0.049 A 
ATOM     56  H   UNL A   1      42.597  29.999  28.971  1.00  0.00     0.167 HD
ATOM     57  C   UNL A   1      45.045  31.205  28.146  1.00  0.00     0.074 A 
ATOM     58  C   UNL A   1      46.345  31.402  27.536  1.00  0.00     0.031 C 
ATOM     59  C   UNL A   1      44.338  32.187  28.764  1.00  0.00     0.034 A 
BRANCH  46  60
ATOM     60  C   UNL A   1      38.807  30.372  30.922  1.00  0.00     0.023 A 
ATOM     61  C   UNL A   1      37.731  30.942  30.220  1.00  0.00     0.031 A 
ATOM     62  C   UNL A   1      38.671  30.199  32.310  1.00  0.00     0.131 A 
ATOM     63  C   UNL A   1      36.599  31.391  30.917  1.00  0.00     0.055 A 
ATOM     64  C   UNL A   1      37.510  30.576  32.988  1.00  0.00     0.041 A 
ATOM     65  F   UNL A   1      39.676  29.685  33.036  1.00  0.00    -0.206 F 
ATOM     66  C   UNL A   1      36.473  31.192  32.294  1.00  0.00     0.022 A 
BRANCH  63  67
ATOM     67  S   UNL A   1      35.367  32.378  30.024  1.00  0.00     0.124 S 
ATOM     68  O   UNL A   1      36.139  33.567  29.672  1.00  0.00    -0.237 OA
ATOM     69  O   UNL A   1      35.004  31.501  28.917  1.00  0.00    -0.237 OA
ATOM     70  O   UNL A   1      34.318  32.598  31.018  1.00  0.00    -0.744 OA
ENDBRANCH  63  67
ENDBRANCH  46  60
BRANCH  47  71
ATOM     71  C   UNL A   1      47.128  27.517  26.069  1.00  0.00     0.023 A 
ATOM     72  C   UNL A   1      47.232  27.796  24.699  1.00  0.00     0.031 A 
ATOM     73  C   UNL A   1      48.182  26.814  26.682  1.00  0.00     0.131 A 
ATOM     74  C   UNL A   1      48.348  27.346  23.977  1.00  0.00     0.055 A 
ATOM     75  C   UNL A   1      49.310  26.407  25.969  1.00  0.00     0.041 A 
ATOM     76  F   UNL A   1      48.131  26.519  27.991  1.00  0.00    -0.206 F 
ATOM     77  C   UNL A   1      49.394  26.664  24.605  1.00  0.00     0.022 A 
BRANCH  74  78
ATOM     78  S   UNL A   1      48.384  27.607  22.181  1.00  0.00     0.124 S 
ATOM     79  O   UNL A   1      48.630  26.255  21.691  1.00  0.00    -0.237 OA
ATOM     80  O   UNL A   1      47.054  28.151  21.929  1.00  0.00    -0.237 OA
ATOM     81  O   UNL A   1      49.486  28.549  21.996  1.00  0.00    -0.744 OA
ENDBRANCH  74  78
ENDBRANCH  47  71
BRANCH  59  82
ATOM     82  C   UNL A   1      44.976  33.551  28.825  1.00  0.00     0.023 A 
ATOM     83  C   UNL A   1      45.843  33.911  29.871  1.00  0.00     0.031 A 
ATOM     84  C   UNL A   1      44.722  34.496  27.816  1.00  0.00     0.131 A 
ATOM     85  C   UNL A   1      46.395  35.200  29.905  1.00  0.00     0.055 A 
ATOM     86  C   UNL A   1      45.315  35.758  27.827  1.00  0.00     0.041 A 
ATOM     87  F   UNL A   1      43.902  34.200  26.794  1.00  0.00    -0.206 F 
ATOM     88  C   UNL A   1      46.151  36.119  28.881  1.00  0.00     0.022 A 
BRANCH  85  89
ATOM     89  S   UNL A   1      47.398  35.681  31.337  1.00  0.00     0.124 S 
ATOM     90  O   UNL A   1      47.452  34.438  32.100  1.00  0.00    -0.237 OA
ATOM     91  O   UNL A   1      48.650  36.103  30.717  1.00  0.00    -0.237 OA
ATOM     92  O   UNL A   1      46.621  36.755  31.955  1.00  0.00    -0.744 OA
ENDBRANCH  85  89
ENDBRANCH  59  82
ENDBRANCH  33  34
ENDBRANCH  26  28
ENDBRANCH  25  26
ENDBRANCH  24  25
ENDBRANCH  23  24
ENDBRANCH  22  23
ENDBRANCH   1  22
TORSDOF 21
ENDMDL
MODEL 3
REMARK VINA RESULT:     -10.5      1.643      1.956
REMARK SMILES COc1ccc(CSc2ncccc2C(=O)OCCOCCOC(=O)c2ccc(-c3c4nc(c(-c5cc(S(=O)(=O)[O-])ccc5F)c5ccc([nH]5)c(-c5cc(S(=O)(=O)[O-])ccc5F)c5nc(c(-c6cc(S(=O)(=O)[O-])ccc6F)c6ccc3[nH]6)C=C5)C=C4)cc2)cc1
REMARK SMILES IDX 19 1 18 2 17 3 15 4 16 5 14 6 9 7 10 8 11 9 13 10 12 11 8 12
REMARK SMILES IDX 7 13 6 14 3 15 4 16 90 17 5 18 89 19 2 20 1 21 20 22 21 23
REMARK SMILES IDX 22 24 23 25 24 26 25 27 26 28 27 29 88 30 28 31 87 32 29 33
REMARK SMILES IDX 30 34 31 35 81 36 32 37 86 38 80 39 82 40 33 41 85 42 79 43
REMARK SMILES IDX 78 44 34 46 66 47 46 48 65 49 47 50 50 51 64 52 83 53 48 54
REMARK SMILES IDX 49 55 63 57 84 58 51 59 35 60 36 61 44 62 37 63 43 64 45 65
REMARK SMILES IDX 42 66 38 67 39 68 40 69 41 70 67 71 68 72 76 73 69 74 75 75
REMARK SMILES IDX 77 76 74 77 70 78 71 79 72 80 73 81 52 82 53 83 61 84 54 85
REMARK SMILES IDX 60 86 62 87 59 88 55 89 56 90 57 91 58 92
REMARK H PARENT 82 45 50 56
REMARK Flexibility Score: inf
ROOT
ATOM      1  C   UNL A   1      37.620  22.334  25.452  1.00  0.00     0.202 C 
ENDROOT
BRANCH   1   2
ATOM      2  C   UNL A   1      36.241  21.658  25.492  1.00  0.00     0.261 C 
BRANCH   2   3
ATOM      3  O   UNL A   1      35.209  22.602  25.194  1.00  0.00    -0.460 OA
BRANCH   3   4
ATOM      4  C   UNL A   1      34.444  23.120  26.172  1.00  0.00     0.340 C 
ATOM      5  O   UNL A   1      34.247  22.698  27.290  1.00  0.00    -0.246 OA
BRANCH   4   6
ATOM      6  C   UNL A   1      33.680  24.160  25.480  1.00  0.00     0.092 A 
ATOM      7  C   UNL A   1      32.411  24.012  24.930  1.00  0.00     0.111 A 
ATOM      8  N   UNL A   1      31.762  25.099  24.416  1.00  0.00    -0.249 NA
ATOM      9  C   UNL A   1      32.372  26.306  24.426  1.00  0.00     0.112 A 
ATOM     10  C   UNL A   1      34.295  25.428  25.474  1.00  0.00     0.020 A 
ATOM     11  C   UNL A   1      33.635  26.518  24.933  1.00  0.00     0.021 A 
BRANCH   7  12
ATOM     12  S   UNL A   1      31.461  22.543  24.614  1.00  0.00    -0.101 SA
BRANCH  12  13
ATOM     13  C   UNL A   1      32.441  21.513  23.469  1.00  0.00     0.112 C 
BRANCH  13  14
ATOM     14  C   UNL A   1      32.534  20.061  23.880  1.00  0.00    -0.037 A 
ATOM     15  C   UNL A   1      33.106  17.452  24.741  1.00  0.00     0.118 A 
ATOM     16  C   UNL A   1      32.870  17.704  23.394  1.00  0.00     0.047 A 
ATOM     17  C   UNL A   1      32.893  18.459  25.677  1.00  0.00     0.047 A 
ATOM     18  C   UNL A   1      32.582  19.001  22.964  1.00  0.00     0.008 A 
ATOM     19  C   UNL A   1      32.577  19.747  25.242  1.00  0.00     0.008 A 
BRANCH  15  20
ATOM     20  O   UNL A   1      33.509  16.188  25.071  1.00  0.00    -0.497 OA
ATOM     21  C   UNL A   1      34.930  16.076  25.192  1.00  0.00     0.278 C 
ENDBRANCH  15  20
ENDBRANCH  13  14
ENDBRANCH  12  13
ENDBRANCH   7  12
ENDBRANCH   4   6
ENDBRANCH   3   4
ENDBRANCH   2   3
ENDBRANCH   1   2
BRANCH   1  22
ATOM     22  O   UNL A   1      38.784  21.508  25.493  1.00  0.00    -0.374 OA
BRANCH  22  23
ATOM     23  C   UNL A   1      38.658  20.111  25.216  1.00  0.00     0.202 C 
BRANCH  23  24
ATOM     24  C   UNL A   1      39.635  19.164  25.911  1.00  0.00     0.261 C 
BRANCH  24  25
ATOM     25  O   UNL A   1      40.998  19.519  25.645  1.00  0.00    -0.460 OA
BRANCH  25  26
ATOM     26  C   UNL A   1      41.742  19.787  26.750  1.00  0.00     0.338 C 
ATOM     27  O   UNL A   1      42.432  19.007  27.381  1.00  0.00    -0.246 OA
BRANCH  26  28
ATOM     28  C   UNL A   1      41.770  21.247  26.949  1.00  0.00     0.060 A 
ATOM     29  C   UNL A   1      41.717  22.065  25.812  1.00  0.00     0.016 A 
ATOM     30  C   UNL A   1      41.850  21.801  28.227  1.00  0.00     0.016 A 
ATOM     31  C   UNL A   1      41.754  23.450  25.949  1.00  0.00     0.010 A 
ATOM     32  C   UNL A   1      41.919  23.187  28.362  1.00  0.00     0.010 A 
ATOM     33  C   UNL A   1      41.891  24.012  27.224  1.00  0.00    -0.014 A 
BRANCH  33  34
ATOM     34  C   UNL A   1      42.193  25.452  27.372  1.00  0.00     0.031 A 
ATOM     35  C   UNL A   1      43.515  25.952  26.867  1.00  0.00     0.074 A 
ATOM     36  C   UNL A   1      41.323  26.277  27.977  1.00  0.00     0.049 A 
ATOM     37  N   UNL A   1      44.067  27.127  27.008  1.00  0.00    -0.248 NA
ATOM     38  C   UNL A   1      44.324  24.987  26.106  1.00  0.00     0.031 C 
ATOM     39  C   UNL A   1      39.991  25.901  28.449  1.00  0.00     0.029 A 
ATOM     40  N   UNL A   1      41.445  27.598  28.321  1.00  0.00    -0.354 N 
ATOM     41  C   UNL A   1      45.290  27.046  26.352  1.00  0.00     0.074 A 
ATOM     42  C   UNL A   1      45.408  25.697  25.841  1.00  0.00     0.031 C 
ATOM     43  C   UNL A   1      39.429  26.964  29.052  1.00  0.00     0.029 A 
ATOM     44  C   UNL A   1      40.380  28.074  29.049  1.00  0.00     0.049 A 
ATOM     45  H   UNL A   1      42.219  28.152  28.072  1.00  0.00     0.167 HD
ATOM     46  C   UNL A   1      46.227  28.012  26.193  1.00  0.00     0.034 A 
ATOM     47  C   UNL A   1      40.219  29.256  29.677  1.00  0.00     0.034 A 
ATOM     48  C   UNL A   1      46.103  29.334  26.752  1.00  0.00     0.049 A 
ATOM     49  C   UNL A   1      41.336  30.270  29.609  1.00  0.00     0.074 A 
ATOM     50  C   UNL A   1      46.978  30.400  26.656  1.00  0.00     0.029 A 
ATOM     51  N   UNL A   1      45.039  29.762  27.538  1.00  0.00    -0.354 N 
ATOM     52  N   UNL A   1      42.488  30.191  28.983  1.00  0.00    -0.248 NA
ATOM     53  C   UNL A   1      41.135  31.527  30.344  1.00  0.00     0.031 C 
ATOM     54  C   UNL A   1      46.480  31.447  27.442  1.00  0.00     0.029 A 
ATOM     55  C   UNL A   1      45.258  31.059  27.973  1.00  0.00     0.049 A 
ATOM     56  H   UNL A   1      44.245  29.222  27.754  1.00  0.00     0.167 HD
ATOM     57  C   UNL A   1      43.141  31.394  29.234  1.00  0.00     0.074 A 
ATOM     58  C   UNL A   1      42.250  32.185  30.059  1.00  0.00     0.031 C 
ATOM     59  C   UNL A   1      44.364  31.814  28.817  1.00  0.00     0.034 A 
BRANCH  46  60
ATOM     60  C   UNL A   1      47.480  27.633  25.448  1.00  0.00     0.023 A 
ATOM     61  C   UNL A   1      47.612  27.859  24.066  1.00  0.00     0.031 A 
ATOM     62  C   UNL A   1      48.530  26.975  26.111  1.00  0.00     0.131 A 
ATOM     63  C   UNL A   1      48.730  27.362  23.379  1.00  0.00     0.055 A 
ATOM     64  C   UNL A   1      49.676  26.552  25.435  1.00  0.00     0.041 A 
ATOM     65  F   UNL A   1      48.448  26.707  27.423  1.00  0.00    -0.206 F 
ATOM     66  C   UNL A   1      49.773  26.729  24.058  1.00  0.00     0.022 A 
BRANCH  63  67
ATOM     67  S   UNL A   1      48.725  27.416  21.566  1.00  0.00     0.124 S 
ATOM     68  O   UNL A   1      47.435  28.044  21.291  1.00  0.00    -0.237 OA
ATOM     69  O   UNL A   1      49.904  28.223  21.272  1.00  0.00    -0.237 OA
ATOM     70  O   UNL A   1      48.819  26.009  21.181  1.00  0.00    -0.744 OA
ENDBRANCH  63  67
ENDBRANCH  46  60
BRANCH  47  71
ATOM     71  C   UNL A   1      38.994  29.524  30.483  1.00  0.00     0.023 A 
ATOM     72  C   UNL A   1      38.011  30.415  30.031  1.00  0.00     0.031 A 
ATOM     73  C   UNL A   1      38.813  28.922  31.741  1.00  0.00     0.131 A 
ATOM     74  C   UNL A   1      36.905  30.707  30.846  1.00  0.00     0.055 A 
ATOM     75  C   UNL A   1      37.690  29.182  32.529  1.00  0.00     0.041 A 
ATOM     76  F   UNL A   1      39.727  28.063  32.221  1.00  0.00    -0.206 F 
ATOM     77  C   UNL A   1      36.732  30.087  32.086  1.00  0.00     0.022 A 
BRANCH  74  78
ATOM     78  S   UNL A   1      35.724  31.967  30.288  1.00  0.00     0.124 S 
ATOM     79  O   UNL A   1      36.608  33.084  29.976  1.00  0.00    -0.237 OA
ATOM     80  O   UNL A   1      35.095  31.306  29.150  1.00  0.00    -0.237 OA
ATOM     81  O   UNL A   1      34.859  32.160  31.450  1.00  0.00    -0.744 OA
ENDBRANCH  74  78
ENDBRANCH  47  71
BRANCH  59  82
ATOM     82  C   UNL A   1      44.788  33.199  29.234  1.00  0.00     0.023 A 
ATOM     83  C   UNL A   1      44.473  34.328  28.460  1.00  0.00     0.031 A 
ATOM     84  C   UNL A   1      45.505  33.389  30.427  1.00  0.00     0.131 A 
ATOM     85  C   UNL A   1      44.909  35.597  28.869  1.00  0.00     0.055 A 
ATOM     86  C   UNL A   1      45.891  34.659  30.856  1.00  0.00     0.041 A 
ATOM     87  F   UNL A   1      45.830  32.342  31.203  1.00  0.00    -0.206 F 
ATOM     88  C   UNL A   1      45.601  35.771  30.070  1.00  0.00     0.022 A 
BRANCH  85  89
ATOM     89  S   UNL A   1      44.607  37.016  27.781  1.00  0.00     0.124 S 
ATOM     90  O   UNL A   1      43.465  36.558  26.996  1.00  0.00    -0.237 OA
ATOM     91  O   UNL A   1      44.337  38.090  28.731  1.00  0.00    -0.237 OA
ATOM     92  O   UNL A   1      45.858  37.150  27.035  1.00  0.00    -0.744 OA
ENDBRANCH  85  89
ENDBRANCH  59  82
ENDBRANCH  33  34
ENDBRANCH  26  28
ENDBRANCH  25  26
ENDBRANCH  24  25
ENDBRANCH  23  24
ENDBRANCH  22  23
ENDBRANCH   1  22
TORSDOF 21
ENDMDL
