MODEL 1
REMARK VINA RESULT:     -11.3      0.000      0.000
REMARK SMILES CS(=O)(=O)CCC(=O)N1[C@@H](C(=O)OCCOCCOC(=O)c2ccc(-c3c4nc(c(-c5cc(S(=O)(=O)[O-])ccc5F)c5ccc([nH]5)c(-c5cc(S(=O)(=O)[O-])ccc5F)c5nc(c(-c6cc(S(=O)(=O)[O-])ccc6F)c6ccc3[nH]6)C=C5)C=C4)cc2)C[C@@H]2CCCC[C@@H]21
REMARK SMILES IDX 15 1 14 2 13 3 11 4 12 5 10 6 9 7 91 8 85 9 86 10 90 11
REMARK SMILES IDX 87 12 89 13 88 14 7 15 8 16 6 17 5 18 2 19 1 20 3 21 4 22
REMARK SMILES IDX 16 23 17 24 18 25 19 26 20 27 21 28 22 29 23 30 84 31 24 32
REMARK SMILES IDX 83 33 25 34 26 35 27 36 77 37 28 38 82 39 76 40 78 41 29 42
REMARK SMILES IDX 81 43 75 44 74 45 30 47 62 48 42 49 61 50 43 51 46 52 60 53
REMARK SMILES IDX 79 54 44 55 45 56 59 58 80 59 47 60 31 61 32 62 40 63 33 64
REMARK SMILES IDX 39 65 41 66 38 67 34 68 35 69 36 70 37 71 63 72 64 73 72 74
REMARK SMILES IDX 65 75 71 76 73 77 70 78 66 79 67 80 68 81 69 82 48 83 49 84
REMARK SMILES IDX 57 85 50 86 56 87 58 88 55 89 51 90 52 91 53 92 54 93
REMARK H PARENT 78 46 46 57
REMARK Flexibility Score: inf
ROOT
ATOM      1  C   UNL A   1      34.620  23.672  23.324  1.00  0.00     0.202 C 
ENDROOT
BRANCH   1   2
ATOM      2  C   UNL A   1      33.087  23.715  23.246  1.00  0.00     0.261 C 
BRANCH   2   3
ATOM      3  O   UNL A   1      32.574  24.717  22.345  1.00  0.00    -0.462 OA
BRANCH   3   4
ATOM      4  C   UNL A   1      32.980  25.998  22.579  1.00  0.00     0.328 C 
ATOM      5  O   UNL A   1      33.581  26.695  21.768  1.00  0.00    -0.250 OA
BRANCH   4   6
ATOM      6  C   UNL A   1      32.458  26.544  23.917  1.00  0.00     0.195 C 
ATOM      7  N   UNL A   1      31.819  27.852  23.763  1.00  0.00    -0.326 N 
ATOM      8  C   UNL A   1      32.271  28.759  24.799  1.00  0.00     0.089 C 
ATOM      9  C   UNL A   1      33.599  26.812  24.941  1.00  0.00     0.043 C 
ATOM     10  C   UNL A   1      33.725  28.348  24.959  1.00  0.00     0.014 C 
ATOM     11  C   UNL A   1      31.494  28.544  26.119  1.00  0.00     0.025 C 
ATOM     12  C   UNL A   1      34.399  28.987  26.170  1.00  0.00     0.006 C 
ATOM     13  C   UNL A   1      32.124  29.348  27.247  1.00  0.00     0.002 C 
ATOM     14  C   UNL A   1      33.580  28.944  27.458  1.00  0.00     0.000 C 
BRANCH   7  15
ATOM     15  C   UNL A   1      30.680  28.027  23.020  1.00  0.00     0.224 C 
ATOM     16  O   UNL A   1      29.877  27.124  22.807  1.00  0.00    -0.275 OA
BRANCH  15  17
ATOM     17  C   UNL A   1      30.603  29.357  22.292  1.00  0.00     0.116 C 
BRANCH  17  18
ATOM     18  C   UNL A   1      29.199  29.876  22.050  1.00  0.00     0.146 C 
BRANCH  18  19
ATOM     19  S   UNL A   1      28.670  31.117  23.221  1.00  0.00     0.147 S 
ATOM     20  C   UNL A   1      28.781  32.632  22.306  1.00  0.00     0.158 C 
ATOM     21  O   UNL A   1      29.663  31.194  24.272  1.00  0.00    -0.229 OA
ATOM     22  O   UNL A   1      27.274  30.885  23.542  1.00  0.00    -0.229 OA
ENDBRANCH  18  19
ENDBRANCH  17  18
ENDBRANCH  15  17
ENDBRANCH   7  15
ENDBRANCH   4   6
ENDBRANCH   3   4
ENDBRANCH   2   3
ENDBRANCH   1   2
BRANCH   1  23
ATOM     23  O   UNL A   1      35.233  22.544  23.944  1.00  0.00    -0.374 OA
BRANCH  23  24
ATOM     24  C   UNL A   1      36.636  22.386  23.773  1.00  0.00     0.202 C 
BRANCH  24  25
ATOM     25  C   UNL A   1      37.338  21.260  24.543  1.00  0.00     0.261 C 
BRANCH  25  26
ATOM     26  O   UNL A   1      37.700  21.637  25.883  1.00  0.00    -0.460 OA
BRANCH  26  27
ATOM     27  C   UNL A   1      39.035  21.566  26.126  1.00  0.00     0.338 C 
ATOM     28  O   UNL A   1      39.808  20.723  25.703  1.00  0.00    -0.246 OA
BRANCH  27  29
ATOM     29  C   UNL A   1      39.508  22.773  26.831  1.00  0.00     0.060 A 
ATOM     30  C   UNL A   1      38.868  23.978  26.514  1.00  0.00     0.016 A 
ATOM     31  C   UNL A   1      40.614  22.759  27.682  1.00  0.00     0.016 A 
ATOM     32  C   UNL A   1      39.372  25.184  26.992  1.00  0.00     0.010 A 
ATOM     33  C   UNL A   1      41.122  23.976  28.158  1.00  0.00     0.010 A 
ATOM     34  C   UNL A   1      40.531  25.196  27.778  1.00  0.00    -0.014 A 
BRANCH  34  35
ATOM     35  C   UNL A   1      41.196  26.494  28.061  1.00  0.00     0.031 A 
ATOM     36  C   UNL A   1      40.415  27.582  28.751  1.00  0.00     0.074 A 
ATOM     37  C   UNL A   1      42.497  26.677  27.773  1.00  0.00     0.049 A 
ATOM     38  N   UNL A   1      40.783  28.795  29.070  1.00  0.00    -0.248 NA
ATOM     39  C   UNL A   1      39.032  27.254  29.129  1.00  0.00     0.031 C 
ATOM     40  C   UNL A   1      43.373  25.675  27.167  1.00  0.00     0.029 A 
ATOM     41  N   UNL A   1      43.309  27.769  27.952  1.00  0.00    -0.354 N 
ATOM     42  C   UNL A   1      39.677  29.381  29.680  1.00  0.00     0.074 A 
ATOM     43  C   UNL A   1      38.614  28.398  29.649  1.00  0.00     0.031 C 
ATOM     44  C   UNL A   1      44.601  26.201  27.022  1.00  0.00     0.029 A 
ATOM     45  C   UNL A   1      44.587  27.590  27.476  1.00  0.00     0.049 A 
ATOM     46  H   UNL A   1      43.005  28.602  28.381  1.00  0.00     0.167 HD
ATOM     47  C   UNL A   1      39.563  30.619  30.222  1.00  0.00     0.034 A 
ATOM     48  C   UNL A   1      45.616  28.457  27.388  1.00  0.00     0.034 A 
ATOM     49  C   UNL A   1      40.634  31.588  30.237  1.00  0.00     0.049 A 
ATOM     50  C   UNL A   1      45.433  29.867  27.899  1.00  0.00     0.074 A 
ATOM     51  C   UNL A   1      40.630  32.866  30.770  1.00  0.00     0.029 A 
ATOM     52  N   UNL A   1      41.893  31.396  29.684  1.00  0.00    -0.354 N 
ATOM     53  N   UNL A   1      44.382  30.410  28.470  1.00  0.00    -0.248 NA
ATOM     54  C   UNL A   1      46.576  30.777  27.758  1.00  0.00     0.031 C 
ATOM     55  C   UNL A   1      41.851  33.474  30.464  1.00  0.00     0.029 A 
ATOM     56  C   UNL A   1      42.657  32.545  29.825  1.00  0.00     0.049 A 
ATOM     57  H   UNL A   1      42.199  30.564  29.254  1.00  0.00     0.167 HD
ATOM     58  C   UNL A   1      44.752  31.715  28.785  1.00  0.00     0.074 A 
ATOM     59  C   UNL A   1      46.126  31.871  28.355  1.00  0.00     0.031 C 
ATOM     60  C   UNL A   1      44.024  32.695  29.381  1.00  0.00     0.034 A 
BRANCH  47  61
ATOM     61  C   UNL A   1      38.218  31.015  30.784  1.00  0.00     0.023 A 
ATOM     62  C   UNL A   1      37.240  31.653  30.000  1.00  0.00     0.031 A 
ATOM     63  C   UNL A   1      37.914  30.763  32.134  1.00  0.00     0.131 A 
ATOM     64  C   UNL A   1      36.039  32.079  30.588  1.00  0.00     0.055 A 
ATOM     65  C   UNL A   1      36.683  31.114  32.692  1.00  0.00     0.041 A 
ATOM     66  F   UNL A   1      38.815  30.178  32.940  1.00  0.00    -0.206 F 
ATOM     67  C   UNL A   1      35.742  31.790  31.921  1.00  0.00     0.022 A 
BRANCH  64  68
ATOM     68  S   UNL A   1      34.932  33.147  29.626  1.00  0.00     0.124 S 
ATOM     69  O   UNL A   1      35.872  34.107  29.053  1.00  0.00    -0.237 OA
ATOM     70  O   UNL A   1      34.325  32.209  28.689  1.00  0.00    -0.237 OA
ATOM     71  O   UNL A   1      34.028  33.699  30.633  1.00  0.00    -0.744 OA
ENDBRANCH  64  68
ENDBRANCH  47  61
BRANCH  48  72
ATOM     72  C   UNL A   1      46.899  28.044  26.745  1.00  0.00     0.023 A 
ATOM     73  C   UNL A   1      47.059  28.077  25.351  1.00  0.00     0.031 A 
ATOM     74  C   UNL A   1      47.965  27.552  27.520  1.00  0.00     0.131 A 
ATOM     75  C   UNL A   1      48.238  27.582  24.772  1.00  0.00     0.055 A 
ATOM     76  C   UNL A   1      49.160  27.120  26.942  1.00  0.00     0.041 A 
ATOM     77  F   UNL A   1      47.862  27.490  28.856  1.00  0.00    -0.206 F 
ATOM     78  C   UNL A   1      49.296  27.119  25.558  1.00  0.00     0.022 A 
BRANCH  75  79
ATOM     79  S   UNL A   1      48.331  27.460  22.964  1.00  0.00     0.124 S 
ATOM     80  O   UNL A   1      49.611  28.102  22.690  1.00  0.00    -0.237 OA
ATOM     81  O   UNL A   1      48.278  26.017  22.755  1.00  0.00    -0.237 OA
ATOM     82  O   UNL A   1      47.152  28.196  22.512  1.00  0.00    -0.744 OA
ENDBRANCH  75  79
ENDBRANCH  48  72
BRANCH  60  83
ATOM     83  C   UNL A   1      44.722  34.009  29.649  1.00  0.00     0.023 A 
ATOM     84  C   UNL A   1      44.628  35.096  28.761  1.00  0.00     0.031 A 
ATOM     85  C   UNL A   1      45.498  34.172  30.810  1.00  0.00     0.131 A 
ATOM     86  C   UNL A   1      45.346  36.274  29.021  1.00  0.00     0.055 A 
ATOM     87  C   UNL A   1      46.155  35.370  31.098  1.00  0.00     0.041 A 
ATOM     88  F   UNL A   1      45.629  33.168  31.692  1.00  0.00    -0.206 F 
ATOM     89  C   UNL A   1      46.091  36.426  30.192  1.00  0.00     0.022 A 
BRANCH  86  90
ATOM     90  S   UNL A   1      45.374  37.575  27.756  1.00  0.00     0.124 S 
ATOM     91  O   UNL A   1      45.192  38.781  28.558  1.00  0.00    -0.237 OA
ATOM     92  O   UNL A   1      46.693  37.401  27.156  1.00  0.00    -0.237 OA
ATOM     93  O   UNL A   1      44.249  37.233  26.887  1.00  0.00    -0.744 OA
ENDBRANCH  86  90
ENDBRANCH  60  83
ENDBRANCH  34  35
ENDBRANCH  27  29
ENDBRANCH  26  27
ENDBRANCH  25  26
ENDBRANCH  24  25
ENDBRANCH  23  24
ENDBRANCH   1  23
TORSDOF 21
ENDMDL
MODEL 2
REMARK VINA RESULT:     -11.1      4.915      7.966
REMARK SMILES CS(=O)(=O)CCC(=O)N1[C@@H](C(=O)OCCOCCOC(=O)c2ccc(-c3c4nc(c(-c5cc(S(=O)(=O)[O-])ccc5F)c5ccc([nH]5)c(-c5cc(S(=O)(=O)[O-])ccc5F)c5nc(c(-c6cc(S(=O)(=O)[O-])ccc6F)c6ccc3[nH]6)C=C5)C=C4)cc2)C[C@@H]2CCCC[C@@H]21
REMARK SMILES IDX 15 1 14 2 13 3 11 4 12 5 10 6 9 7 91 8 85 9 86 10 90 11
REMARK SMILES IDX 87 12 89 13 88 14 7 15 8 16 6 17 5 18 2 19 1 20 3 21 4 22
REMARK SMILES IDX 16 23 17 24 18 25 19 26 20 27 21 28 22 29 23 30 84 31 24 32
REMARK SMILES IDX 83 33 25 34 26 35 27 36 77 37 28 38 82 39 76 40 78 41 29 42
REMARK SMILES IDX 81 43 75 44 74 45 30 47 62 48 42 49 61 50 43 51 46 52 60 53
REMARK SMILES IDX 79 54 44 55 45 56 59 58 80 59 47 60 31 61 32 62 40 63 33 64
REMARK SMILES IDX 39 65 41 66 38 67 34 68 35 69 36 70 37 71 63 72 64 73 72 74
REMARK SMILES IDX 65 75 71 76 73 77 70 78 66 79 67 80 68 81 69 82 48 83 49 84
REMARK SMILES IDX 57 85 50 86 56 87 58 88 55 89 51 90 52 91 53 92 54 93
REMARK H PARENT 78 46 46 57
REMARK Flexibility Score: inf
ROOT
ATOM      1  C   UNL A   1      32.379  29.494  27.108  1.00  0.00     0.202 C 
ENDROOT
BRANCH   1   2
ATOM      2  C   UNL A   1      33.510  28.463  26.978  1.00  0.00     0.261 C 
BRANCH   2   3
ATOM      3  O   UNL A   1      33.150  27.292  26.217  1.00  0.00    -0.462 OA
BRANCH   3   4
ATOM      4  C   UNL A   1      33.681  27.204  24.963  1.00  0.00     0.328 C 
ATOM      5  O   UNL A   1      33.881  28.162  24.225  1.00  0.00    -0.250 OA
BRANCH   4   6
ATOM      6  C   UNL A   1      34.161  25.783  24.629  1.00  0.00     0.195 C 
ATOM      7  N   UNL A   1      33.210  25.071  23.774  1.00  0.00    -0.326 N 
ATOM      8  C   UNL A   1      32.996  23.725  24.267  1.00  0.00     0.089 C 
ATOM      9  C   UNL A   1      34.270  24.876  25.889  1.00  0.00     0.043 C 
ATOM     10  C   UNL A   1      33.056  23.933  25.771  1.00  0.00     0.014 C 
ATOM     11  C   UNL A   1      34.118  22.767  23.803  1.00  0.00     0.025 C 
ATOM     12  C   UNL A   1      33.098  22.625  26.556  1.00  0.00     0.006 C 
ATOM     13  C   UNL A   1      33.994  21.422  24.503  1.00  0.00     0.002 C 
ATOM     14  C   UNL A   1      34.078  21.585  26.017  1.00  0.00     0.000 C 
BRANCH   7  15
ATOM     15  C   UNL A   1      32.918  25.487  22.499  1.00  0.00     0.224 C 
ATOM     16  O   UNL A   1      33.782  25.779  21.679  1.00  0.00    -0.275 OA
BRANCH  15  17
ATOM     17  C   UNL A   1      31.448  25.777  22.254  1.00  0.00     0.116 C 
BRANCH  17  18
ATOM     18  C   UNL A   1      31.085  27.248  22.203  1.00  0.00     0.146 C 
BRANCH  18  19
ATOM     19  S   UNL A   1      29.979  27.770  23.505  1.00  0.00     0.147 S 
ATOM     20  C   UNL A   1      29.888  26.356  24.571  1.00  0.00     0.158 C 
ATOM     21  O   UNL A   1      28.661  27.942  22.931  1.00  0.00    -0.229 OA
ATOM     22  O   UNL A   1      30.608  28.851  24.241  1.00  0.00    -0.229 OA
ENDBRANCH  18  19
ENDBRANCH  17  18
ENDBRANCH  15  17
ENDBRANCH   7  15
ENDBRANCH   4   6
ENDBRANCH   3   4
ENDBRANCH   2   3
ENDBRANCH   1   2
BRANCH   1  23
ATOM     23  O   UNL A   1      32.401  30.632  26.248  1.00  0.00    -0.374 OA
BRANCH  23  24
ATOM     24  C   UNL A   1      31.394  31.617  26.443  1.00  0.00     0.202 C 
BRANCH  24  25
ATOM     25  C   UNL A   1      31.837  33.060  26.719  1.00  0.00     0.261 C 
BRANCH  25  26
ATOM     26  O   UNL A   1      32.319  33.253  28.061  1.00  0.00    -0.460 OA
BRANCH  26  27
ATOM     27  C   UNL A   1      33.406  34.064  28.137  1.00  0.00     0.338 C 
ATOM     28  O   UNL A   1      33.404  35.282  28.175  1.00  0.00    -0.246 OA
BRANCH  27  29
ATOM     29  C   UNL A   1      34.633  33.279  28.367  1.00  0.00     0.060 A 
ATOM     30  C   UNL A   1      34.467  31.983  28.871  1.00  0.00     0.016 A 
ATOM     31  C   UNL A   1      35.911  33.822  28.213  1.00  0.00     0.016 A 
ATOM     32  C   UNL A   1      35.572  31.247  29.289  1.00  0.00     0.010 A 
ATOM     33  C   UNL A   1      37.022  33.080  28.640  1.00  0.00     0.010 A 
ATOM     34  C   UNL A   1      36.853  31.809  29.220  1.00  0.00    -0.014 A 
BRANCH  34  35
ATOM     35  C   UNL A   1      37.979  31.120  29.902  1.00  0.00     0.031 A 
ATOM     36  C   UNL A   1      38.279  31.453  31.340  1.00  0.00     0.074 A 
ATOM     37  C   UNL A   1      38.680  30.159  29.273  1.00  0.00     0.049 A 
ATOM     38  N   UNL A   1      39.224  30.998  32.121  1.00  0.00    -0.248 NA
ATOM     39  C   UNL A   1      37.390  32.435  31.982  1.00  0.00     0.031 C 
ATOM     40  C   UNL A   1      38.439  29.702  27.904  1.00  0.00     0.029 A 
ATOM     41  N   UNL A   1      39.736  29.394  29.702  1.00  0.00    -0.354 N 
ATOM     42  C   UNL A   1      39.051  31.640  33.343  1.00  0.00     0.074 A 
ATOM     43  C   UNL A   1      37.933  32.546  33.185  1.00  0.00     0.031 C 
ATOM     44  C   UNL A   1      39.326  28.738  27.606  1.00  0.00     0.029 A 
ATOM     45  C   UNL A   1      40.227  28.543  28.740  1.00  0.00     0.049 A 
ATOM     46  H   UNL A   1      40.107  29.449  30.613  1.00  0.00     0.167 HD
ATOM     47  C   UNL A   1      39.756  31.483  34.492  1.00  0.00     0.034 A 
ATOM     48  C   UNL A   1      41.300  27.726  28.761  1.00  0.00     0.034 A 
ATOM     49  C   UNL A   1      40.873  30.579  34.628  1.00  0.00     0.049 A 
ATOM     50  C   UNL A   1      42.136  27.647  30.016  1.00  0.00     0.074 A 
ATOM     51  C   UNL A   1      41.649  30.333  35.749  1.00  0.00     0.029 A 
ATOM     52  N   UNL A   1      41.386  29.784  33.611  1.00  0.00    -0.354 N 
ATOM     53  N   UNL A   1      41.966  28.262  31.164  1.00  0.00    -0.248 NA
ATOM     54  C   UNL A   1      43.306  26.760  29.979  1.00  0.00     0.031 C 
ATOM     55  C   UNL A   1      42.679  29.458  35.387  1.00  0.00     0.029 A 
ATOM     56  C   UNL A   1      42.492  29.080  34.067  1.00  0.00     0.049 A 
ATOM     57  H   UNL A   1      41.018  29.727  32.700  1.00  0.00     0.167 HD
ATOM     58  C   UNL A   1      42.989  27.808  31.994  1.00  0.00     0.074 A 
ATOM     59  C   UNL A   1      43.759  26.858  31.219  1.00  0.00     0.031 C 
ATOM     60  C   UNL A   1      43.263  28.143  33.282  1.00  0.00     0.034 A 
BRANCH  47  61
ATOM     61  C   UNL A   1      39.377  32.352  35.668  1.00  0.00     0.023 A 
ATOM     62  C   UNL A   1      39.945  33.622  35.872  1.00  0.00     0.031 A 
ATOM     63  C   UNL A   1      38.442  31.892  36.614  1.00  0.00     0.131 A 
ATOM     64  C   UNL A   1      39.626  34.356  37.025  1.00  0.00     0.055 A 
ATOM     65  C   UNL A   1      38.066  32.664  37.716  1.00  0.00     0.041 A 
ATOM     66  F   UNL A   1      37.883  30.678  36.489  1.00  0.00    -0.206 F 
ATOM     67  C   UNL A   1      38.671  33.898  37.934  1.00  0.00     0.022 A 
BRANCH  64  68
ATOM     68  S   UNL A   1      40.587  35.849  37.398  1.00  0.00     0.124 S 
ATOM     69  O   UNL A   1      39.550  36.752  37.890  1.00  0.00    -0.237 OA
ATOM     70  O   UNL A   1      41.541  35.369  38.392  1.00  0.00    -0.237 OA
ATOM     71  O   UNL A   1      41.163  36.218  36.107  1.00  0.00    -0.744 OA
ENDBRANCH  64  68
ENDBRANCH  47  61
BRANCH  48  72
ATOM     72  C   UNL A   1      41.684  26.952  27.543  1.00  0.00     0.023 A 
ATOM     73  C   UNL A   1      41.478  25.566  27.464  1.00  0.00     0.031 A 
ATOM     74  C   UNL A   1      42.320  27.587  26.459  1.00  0.00     0.131 A 
ATOM     75  C   UNL A   1      41.946  24.852  26.350  1.00  0.00     0.055 A 
ATOM     76  C   UNL A   1      42.728  26.882  25.327  1.00  0.00     0.041 A 
ATOM     77  F   UNL A   1      42.550  28.908  26.486  1.00  0.00    -0.206 F 
ATOM     78  C   UNL A   1      42.554  25.503  25.274  1.00  0.00     0.022 A 
BRANCH  75  79
ATOM     79  S   UNL A   1      41.837  23.042  26.371  1.00  0.00     0.124 S 
ATOM     80  O   UNL A   1      42.549  22.717  27.602  1.00  0.00    -0.237 OA
ATOM     81  O   UNL A   1      40.394  22.826  26.388  1.00  0.00    -0.237 OA
ATOM     82  O   UNL A   1      42.509  22.646  25.135  1.00  0.00    -0.744 OA
ENDBRANCH  75  79
ENDBRANCH  48  72
BRANCH  60  83
ATOM     83  C   UNL A   1      44.419  27.434  33.949  1.00  0.00     0.023 A 
ATOM     84  C   UNL A   1      44.237  26.260  34.702  1.00  0.00     0.031 A 
ATOM     85  C   UNL A   1      45.723  27.946  33.832  1.00  0.00     0.131 A 
ATOM     86  C   UNL A   1      45.332  25.673  35.357  1.00  0.00     0.055 A 
ATOM     87  C   UNL A   1      46.819  27.319  34.429  1.00  0.00     0.041 A 
ATOM     88  F   UNL A   1      45.958  29.067  33.130  1.00  0.00    -0.206 F 
ATOM     89  C   UNL A   1      46.624  26.183  35.208  1.00  0.00     0.022 A 
BRANCH  86  90
ATOM     90  S   UNL A   1      45.030  24.288  36.489  1.00  0.00     0.124 S 
ATOM     91  O   UNL A   1      46.312  23.590  36.461  1.00  0.00    -0.237 OA
ATOM     92  O   UNL A   1      44.702  24.969  37.738  1.00  0.00    -0.237 OA
ATOM     93  O   UNL A   1      43.919  23.570  35.866  1.00  0.00    -0.744 OA
ENDBRANCH  86  90
ENDBRANCH  60  83
ENDBRANCH  34  35
ENDBRANCH  27  29
ENDBRANCH  26  27
ENDBRANCH  25  26
ENDBRANCH  24  25
ENDBRANCH  23  24
ENDBRANCH   1  23
TORSDOF 21
ENDMDL
MODEL 3
REMARK VINA RESULT:     -10.7      2.375      8.383
REMARK SMILES CS(=O)(=O)CCC(=O)N1[C@@H](C(=O)OCCOCCOC(=O)c2ccc(-c3c4nc(c(-c5cc(S(=O)(=O)[O-])ccc5F)c5ccc([nH]5)c(-c5cc(S(=O)(=O)[O-])ccc5F)c5nc(c(-c6cc(S(=O)(=O)[O-])ccc6F)c6ccc3[nH]6)C=C5)C=C4)cc2)C[C@@H]2CCCC[C@@H]21
REMARK SMILES IDX 15 1 14 2 13 3 11 4 12 5 10 6 9 7 91 8 85 9 86 10 90 11
REMARK SMILES IDX 87 12 89 13 88 14 7 15 8 16 6 17 5 18 2 19 1 20 3 21 4 22
REMARK SMILES IDX 16 23 17 24 18 25 19 26 20 27 21 28 22 29 23 30 84 31 24 32
REMARK SMILES IDX 83 33 25 34 26 35 27 36 77 37 28 38 82 39 76 40 78 41 29 42
REMARK SMILES IDX 81 43 75 44 74 45 30 47 62 48 42 49 61 50 43 51 46 52 60 53
REMARK SMILES IDX 79 54 44 55 45 56 59 58 80 59 47 60 31 61 32 62 40 63 33 64
REMARK SMILES IDX 39 65 41 66 38 67 34 68 35 69 36 70 37 71 63 72 64 73 72 74
REMARK SMILES IDX 65 75 71 76 73 77 70 78 66 79 67 80 68 81 69 82 48 83 49 84
REMARK SMILES IDX 57 85 50 86 56 87 58 88 55 89 51 90 52 91 53 92 54 93
REMARK H PARENT 78 46 46 57
REMARK Flexibility Score: inf
ROOT
ATOM      1  C   UNL A   1      38.095  22.031  25.735  1.00  0.00     0.202 C 
ENDROOT
BRANCH   1   2
ATOM      2  C   UNL A   1      37.001  23.066  26.030  1.00  0.00     0.261 C 
BRANCH   2   3
ATOM      3  O   UNL A   1      35.672  22.511  26.096  1.00  0.00    -0.462 OA
BRANCH   3   4
ATOM      4  C   UNL A   1      34.800  22.924  25.131  1.00  0.00     0.328 C 
ATOM      5  O   UNL A   1      34.513  24.095  24.910  1.00  0.00    -0.250 OA
BRANCH   4   6
ATOM      6  C   UNL A   1      34.333  21.770  24.230  1.00  0.00     0.195 C 
ATOM      7  N   UNL A   1      32.893  21.824  23.974  1.00  0.00    -0.326 N 
ATOM      8  C   UNL A   1      32.301  20.512  24.136  1.00  0.00     0.089 C 
ATOM      9  C   UNL A   1      34.534  20.376  24.891  1.00  0.00     0.043 C 
ATOM     10  C   UNL A   1      33.109  19.948  25.294  1.00  0.00     0.014 C 
ATOM     11  C   UNL A   1      32.486  19.645  22.868  1.00  0.00     0.025 C 
ATOM     12  C   UNL A   1      32.857  18.462  25.534  1.00  0.00     0.006 C 
ATOM     13  C   UNL A   1      32.054  18.211  23.134  1.00  0.00     0.002 C 
ATOM     14  C   UNL A   1      32.863  17.599  24.273  1.00  0.00     0.000 C 
BRANCH   7  15
ATOM     15  C   UNL A   1      32.310  22.859  23.287  1.00  0.00     0.224 C 
ATOM     16  O   UNL A   1      32.833  23.390  22.313  1.00  0.00    -0.275 OA
BRANCH  15  17
ATOM     17  C   UNL A   1      31.083  23.448  23.960  1.00  0.00     0.116 C 
BRANCH  17  18
ATOM     18  C   UNL A   1      31.191  24.917  24.318  1.00  0.00     0.146 C 
BRANCH  18  19
ATOM     19  S   UNL A   1      31.194  25.240  26.075  1.00  0.00     0.147 S 
ATOM     20  C   UNL A   1      32.365  26.560  26.257  1.00  0.00     0.158 C 
ATOM     21  O   UNL A   1      31.763  24.088  26.741  1.00  0.00    -0.229 OA
ATOM     22  O   UNL A   1      29.887  25.741  26.456  1.00  0.00    -0.229 OA
ENDBRANCH  18  19
ENDBRANCH  17  18
ENDBRANCH  15  17
ENDBRANCH   7  15
ENDBRANCH   4   6
ENDBRANCH   3   4
ENDBRANCH   2   3
ENDBRANCH   1   2
BRANCH   1  23
ATOM     23  O   UNL A   1      37.836  21.039  24.743  1.00  0.00    -0.374 OA
BRANCH  23  24
ATOM     24  C   UNL A   1      38.327  19.727  24.988  1.00  0.00     0.202 C 
BRANCH  24  25
ATOM     25  C   UNL A   1      39.422  19.549  26.047  1.00  0.00     0.261 C 
BRANCH  25  26
ATOM     26  O   UNL A   1      40.721  19.309  25.478  1.00  0.00    -0.460 OA
BRANCH  26  27
ATOM     27  C   UNL A   1      41.746  19.609  26.317  1.00  0.00     0.338 C 
ATOM     28  O   UNL A   1      42.700  18.899  26.584  1.00  0.00    -0.246 OA
BRANCH  27  29
ATOM     29  C   UNL A   1      41.681  21.019  26.746  1.00  0.00     0.060 A 
ATOM     30  C   UNL A   1      41.566  21.980  25.734  1.00  0.00     0.016 A 
ATOM     31  C   UNL A   1      41.846  21.407  28.077  1.00  0.00     0.016 A 
ATOM     32  C   UNL A   1      41.685  23.334  26.037  1.00  0.00     0.010 A 
ATOM     33  C   UNL A   1      41.969  22.770  28.379  1.00  0.00     0.010 A 
ATOM     34  C   UNL A   1      41.935  23.736  27.355  1.00  0.00    -0.014 A 
BRANCH  34  35
ATOM     35  C   UNL A   1      42.312  25.149  27.618  1.00  0.00     0.031 A 
ATOM     36  C   UNL A   1      43.664  25.641  27.171  1.00  0.00     0.074 A 
ATOM     37  C   UNL A   1      41.437  26.001  28.182  1.00  0.00     0.049 A 
ATOM     38  N   UNL A   1      44.210  26.820  27.318  1.00  0.00    -0.248 NA
ATOM     39  C   UNL A   1      44.511  24.669  26.462  1.00  0.00     0.031 C 
ATOM     40  C   UNL A   1      40.076  25.658  28.595  1.00  0.00     0.029 A 
ATOM     41  N   UNL A   1      41.561  27.330  28.504  1.00  0.00    -0.354 N 
ATOM     42  C   UNL A   1      45.468  26.732  26.729  1.00  0.00     0.074 A 
ATOM     43  C   UNL A   1      45.615  25.371  26.257  1.00  0.00     0.031 C 
ATOM     44  C   UNL A   1      39.493  26.749  29.120  1.00  0.00     0.029 A 
ATOM     45  C   UNL A   1      40.452  27.852  29.126  1.00  0.00     0.049 A 
ATOM     46  H   UNL A   1      42.369  27.858  28.308  1.00  0.00     0.167 HD
ATOM     47  C   UNL A   1      46.409  27.700  26.589  1.00  0.00     0.034 A 
ATOM     48  C   UNL A   1      40.245  29.070  29.668  1.00  0.00     0.034 A 
ATOM     49  C   UNL A   1      46.247  29.050  27.072  1.00  0.00     0.049 A 
ATOM     50  C   UNL A   1      41.348  30.100  29.596  1.00  0.00     0.074 A 
ATOM     51  C   UNL A   1      47.130  30.112  26.973  1.00  0.00     0.029 A 
ATOM     52  N   UNL A   1      45.136  29.525  27.759  1.00  0.00    -0.354 N 
ATOM     53  N   UNL A   1      42.535  30.005  29.040  1.00  0.00    -0.248 NA
ATOM     54  C   UNL A   1      41.081  31.401  30.221  1.00  0.00     0.031 C 
ATOM     55  C   UNL A   1      46.593  31.198  27.671  1.00  0.00     0.029 A 
ATOM     56  C   UNL A   1      45.331  30.849  28.126  1.00  0.00     0.049 A 
ATOM     57  H   UNL A   1      44.329  28.998  27.957  1.00  0.00     0.167 HD
ATOM     58  C   UNL A   1      43.140  31.246  29.221  1.00  0.00     0.074 A 
ATOM     59  C   UNL A   1      42.182  32.075  29.922  1.00  0.00     0.031 C 
ATOM     60  C   UNL A   1      44.374  31.665  28.837  1.00  0.00     0.034 A 
BRANCH  47  61
ATOM     61  C   UNL A   1      47.718  27.313  25.941  1.00  0.00     0.023 A 
ATOM     62  C   UNL A   1      47.984  27.569  24.584  1.00  0.00     0.031 A 
ATOM     63  C   UNL A   1      48.712  26.658  26.692  1.00  0.00     0.131 A 
ATOM     64  C   UNL A   1      49.179  27.114  24.006  1.00  0.00     0.055 A 
ATOM     65  C   UNL A   1      49.934  26.283  26.130  1.00  0.00     0.041 A 
ATOM     66  F   UNL A   1      48.509  26.364  27.986  1.00  0.00    -0.206 F 
ATOM     67  C   UNL A   1      50.167  26.498  24.775  1.00  0.00     0.022 A 
BRANCH  64  68
ATOM     68  S   UNL A   1      49.362  27.205  22.203  1.00  0.00     0.124 S 
ATOM     69  O   UNL A   1      50.815  27.187  22.053  1.00  0.00    -0.237 OA
ATOM     70  O   UNL A   1      48.658  26.009  21.755  1.00  0.00    -0.237 OA
ATOM     71  O   UNL A   1      48.723  28.473  21.857  1.00  0.00    -0.744 OA
ENDBRANCH  64  68
ENDBRANCH  47  61
BRANCH  48  72
ATOM     72  C   UNL A   1      38.966  29.376  30.373  1.00  0.00     0.023 A 
ATOM     73  C   UNL A   1      38.003  30.223  29.803  1.00  0.00     0.031 A 
ATOM     74  C   UNL A   1      38.716  28.867  31.662  1.00  0.00     0.131 A 
ATOM     75  C   UNL A   1      36.860  30.575  30.537  1.00  0.00     0.055 A 
ATOM     76  C   UNL A   1      37.548  29.171  32.361  1.00  0.00     0.041 A 
ATOM     77  F   UNL A   1      39.607  28.060  32.257  1.00  0.00    -0.206 F 
ATOM     78  C   UNL A   1      36.617  30.042  31.805  1.00  0.00     0.022 A 
BRANCH  75  79
ATOM     79  S   UNL A   1      35.737  31.822  29.848  1.00  0.00     0.124 S 
ATOM     80  O   UNL A   1      36.668  32.874  29.455  1.00  0.00    -0.237 OA
ATOM     81  O   UNL A   1      35.100  31.088  28.760  1.00  0.00    -0.237 OA
ATOM     82  O   UNL A   1      34.861  32.150  30.972  1.00  0.00    -0.744 OA
ENDBRANCH  75  79
ENDBRANCH  48  72
BRANCH  60  83
ATOM     83  C   UNL A   1      44.736  33.104  29.124  1.00  0.00     0.023 A 
ATOM     84  C   UNL A   1      44.451  34.139  28.215  1.00  0.00     0.031 A 
ATOM     85  C   UNL A   1      45.381  33.443  30.327  1.00  0.00     0.131 A 
ATOM     86  C   UNL A   1      44.865  35.450  28.497  1.00  0.00     0.055 A 
ATOM     87  C   UNL A   1      45.729  34.760  30.633  1.00  0.00     0.041 A 
ATOM     88  F   UNL A   1      45.684  32.497  31.232  1.00  0.00    -0.206 F 
ATOM     89  C   UNL A   1      45.482  35.771  29.708  1.00  0.00     0.022 A 
BRANCH  86  90
ATOM     90  S   UNL A   1      44.673  36.719  27.215  1.00  0.00     0.124 S 
ATOM     91  O   UNL A   1      45.847  36.486  26.380  1.00  0.00    -0.237 OA
ATOM     92  O   UNL A   1      43.387  36.371  26.619  1.00  0.00    -0.237 OA
ATOM     93  O   UNL A   1      44.686  37.973  27.968  1.00  0.00    -0.744 OA
ENDBRANCH  86  90
ENDBRANCH  60  83
ENDBRANCH  34  35
ENDBRANCH  27  29
ENDBRANCH  26  27
ENDBRANCH  25  26
ENDBRANCH  24  25
ENDBRANCH  23  24
ENDBRANCH   1  23
TORSDOF 21
ENDMDL
