MODEL 1
REMARK VINA RESULT:     -10.3      0.000      0.000
REMARK SMILES C=CCN(CC(=O)OCCOCCOC(=O)c1ccc(-c2c3nc(c(-c4cc(S(=O)(=O)[O-])ccc4F)c4ccc([nH]4)c(-c4cc(S(=O)(=O)[O-])ccc4F)c4nc(c(-c5cc(S(=O)(=O)[O-])ccc5F)c5ccc2[nH]5)C=C4)C=C3)cc1)C(=O)[C@@H]1Oc2ccccc2O[C@H]1C
REMARK SMILES IDX 11 1 10 2 9 3 8 4 6 5 7 6 5 7 4 8 3 9 2 10 1 11 80 12 81 13
REMARK SMILES IDX 82 14 83 15 91 16 84 17 90 18 92 19 85 20 89 21 86 22 88 23
REMARK SMILES IDX 87 24 12 25 13 26 14 27 15 28 16 29 17 30 18 31 79 32 19 33
REMARK SMILES IDX 78 34 20 35 21 36 22 37 72 38 23 39 77 40 71 41 73 42 24 43
REMARK SMILES IDX 76 44 70 45 69 46 25 48 57 49 37 50 56 51 38 52 41 53 55 54
REMARK SMILES IDX 74 55 39 56 40 57 54 59 75 60 42 61 26 62 27 63 35 64 28 65
REMARK SMILES IDX 34 66 36 67 33 68 29 69 30 70 31 71 32 72 58 73 59 74 67 75
REMARK SMILES IDX 60 76 66 77 68 78 65 79 61 80 62 81 63 82 64 83 43 84 44 85
REMARK SMILES IDX 52 86 45 87 51 88 53 89 50 90 46 91 47 92 48 93 49 94
REMARK H PARENT 73 47 41 58
REMARK Flexibility Score: inf
ROOT
ATOM      1  O   UNL A   1      36.730  22.834  24.083  1.00  0.00    -0.374 OA
ENDROOT
BRANCH   1   2
ATOM      2  C   UNL A   1      35.749  22.972  23.063  1.00  0.00     0.202 C 
BRANCH   2   3
ATOM      3  C   UNL A   1      34.549  23.866  23.403  1.00  0.00     0.261 C 
BRANCH   3   4
ATOM      4  O   UNL A   1      34.851  25.010  24.243  1.00  0.00    -0.462 OA
BRANCH   4   5
ATOM      5  C   UNL A   1      34.083  25.102  25.369  1.00  0.00     0.325 C 
ATOM      6  O   UNL A   1      33.827  24.152  26.105  1.00  0.00    -0.250 OA
BRANCH   5   7
ATOM      7  C   UNL A   1      33.700  26.528  25.788  1.00  0.00     0.242 C 
BRANCH   7   8
ATOM      8  N   UNL A   1      32.450  27.188  25.393  1.00  0.00    -0.325 N 
BRANCH   8   9
ATOM      9  C   UNL A   1      31.352  27.127  26.363  1.00  0.00     0.147 C 
BRANCH   9  10
ATOM     10  C   UNL A   1      30.324  26.112  25.946  1.00  0.00    -0.014 C 
ATOM     11  C   UNL A   1      30.452  24.786  26.095  1.00  0.00     0.006 C 
ENDBRANCH   9  10
ENDBRANCH   8   9
BRANCH   8  12
ATOM     12  C   UNL A   1      32.608  28.334  24.604  1.00  0.00     0.268 C 
ATOM     13  O   UNL A   1      33.193  29.324  25.063  1.00  0.00    -0.270 OA
BRANCH  12  14
ATOM     14  C   UNL A   1      32.308  28.263  23.083  1.00  0.00     0.302 C 
ATOM     15  O   UNL A   1      31.611  29.296  22.407  1.00  0.00    -0.473 OA
ATOM     16  C   UNL A   1      31.781  26.843  22.815  1.00  0.00     0.221 C 
ATOM     17  C   UNL A   1      30.261  29.143  22.501  1.00  0.00     0.162 A 
ATOM     18  O   UNL A   1      30.362  26.744  22.680  1.00  0.00    -0.482 OA
ATOM     19  C   UNL A   1      32.491  26.157  21.650  1.00  0.00     0.057 C 
ATOM     20  C   UNL A   1      29.470  30.289  22.431  1.00  0.00     0.050 A 
ATOM     21  C   UNL A   1      29.680  27.914  22.767  1.00  0.00     0.161 A 
ATOM     22  C   UNL A   1      28.118  30.223  22.777  1.00  0.00     0.004 A 
ATOM     23  C   UNL A   1      28.347  27.857  23.160  1.00  0.00     0.050 A 
ATOM     24  C   UNL A   1      27.564  29.010  23.178  1.00  0.00     0.004 A 
ENDBRANCH  12  14
ENDBRANCH   8  12
ENDBRANCH   7   8
ENDBRANCH   5   7
ENDBRANCH   4   5
ENDBRANCH   3   4
ENDBRANCH   2   3
ENDBRANCH   1   2
BRANCH   1  25
ATOM     25  C   UNL A   1      36.883  21.552  24.683  1.00  0.00     0.202 C 
BRANCH  25  26
ATOM     26  C   UNL A   1      37.888  21.403  25.820  1.00  0.00     0.261 C 
BRANCH  26  27
ATOM     27  O   UNL A   1      39.249  21.641  25.456  1.00  0.00    -0.460 OA
BRANCH  27  28
ATOM     28  C   UNL A   1      40.056  21.526  26.555  1.00  0.00     0.338 C 
ATOM     29  O   UNL A   1      40.266  20.511  27.176  1.00  0.00    -0.246 OA
BRANCH  28  30
ATOM     30  C   UNL A   1      40.374  22.889  27.055  1.00  0.00     0.060 A 
ATOM     31  C   UNL A   1      39.735  24.031  26.577  1.00  0.00     0.016 A 
ATOM     32  C   UNL A   1      41.298  22.993  28.098  1.00  0.00     0.016 A 
ATOM     33  C   UNL A   1      40.078  25.283  27.101  1.00  0.00     0.010 A 
ATOM     34  C   UNL A   1      41.543  24.230  28.702  1.00  0.00     0.010 A 
ATOM     35  C   UNL A   1      40.998  25.402  28.159  1.00  0.00    -0.014 A 
BRANCH  35  36
ATOM     36  C   UNL A   1      41.500  26.747  28.573  1.00  0.00     0.031 A 
ATOM     37  C   UNL A   1      42.902  27.170  28.187  1.00  0.00     0.074 A 
ATOM     38  C   UNL A   1      40.706  27.616  29.234  1.00  0.00     0.049 A 
ATOM     39  N   UNL A   1      43.493  28.330  28.341  1.00  0.00    -0.248 NA
ATOM     40  C   UNL A   1      43.762  26.145  27.578  1.00  0.00     0.031 C 
ATOM     41  C   UNL A   1      39.358  27.329  29.725  1.00  0.00     0.029 A 
ATOM     42  N   UNL A   1      40.911  28.930  29.583  1.00  0.00    -0.354 N 
ATOM     43  C   UNL A   1      44.788  28.161  27.855  1.00  0.00     0.074 A 
ATOM     44  C   UNL A   1      44.924  26.768  27.503  1.00  0.00     0.031 C 
ATOM     45  C   UNL A   1      38.836  28.447  30.258  1.00  0.00     0.029 A 
ATOM     46  C   UNL A   1      39.816  29.526  30.169  1.00  0.00     0.049 A 
ATOM     47  H   UNL A   1      41.761  29.401  29.429  1.00  0.00     0.167 HD
ATOM     48  C   UNL A   1      45.763  29.085  27.664  1.00  0.00     0.034 A 
ATOM     49  C   UNL A   1      39.617  30.800  30.568  1.00  0.00     0.034 A 
ATOM     50  C   UNL A   1      45.618  30.480  27.993  1.00  0.00     0.049 A 
ATOM     51  C   UNL A   1      40.706  31.822  30.340  1.00  0.00     0.074 A 
ATOM     52  C   UNL A   1      46.522  31.510  27.809  1.00  0.00     0.029 A 
ATOM     53  N   UNL A   1      44.490  31.040  28.578  1.00  0.00    -0.354 N 
ATOM     54  N   UNL A   1      41.897  31.659  29.810  1.00  0.00    -0.248 NA
ATOM     55  C   UNL A   1      40.412  33.204  30.740  1.00  0.00     0.031 C 
ATOM     56  C   UNL A   1      45.967  32.680  28.337  1.00  0.00     0.029 A 
ATOM     57  C   UNL A   1      44.684  32.397  28.781  1.00  0.00     0.049 A 
ATOM     58  H   UNL A   1      43.673  30.546  28.814  1.00  0.00     0.167 HD
ATOM     59  C   UNL A   1      42.478  32.926  29.782  1.00  0.00     0.074 A 
ATOM     60  C   UNL A   1      41.501  33.841  30.335  1.00  0.00     0.031 C 
ATOM     61  C   UNL A   1      43.702  33.301  29.333  1.00  0.00     0.034 A 
BRANCH  48  62
ATOM     62  C   UNL A   1      47.072  28.591  27.088  1.00  0.00     0.023 A 
ATOM     63  C   UNL A   1      47.264  28.469  25.698  1.00  0.00     0.031 A 
ATOM     64  C   UNL A   1      48.108  28.159  27.933  1.00  0.00     0.131 A 
ATOM     65  C   UNL A   1      48.408  27.828  25.203  1.00  0.00     0.055 A 
ATOM     66  C   UNL A   1      49.291  27.614  27.427  1.00  0.00     0.041 A 
ATOM     67  F   UNL A   1      47.979  28.232  29.266  1.00  0.00    -0.206 F 
ATOM     68  C   UNL A   1      49.436  27.422  26.055  1.00  0.00     0.022 A 
BRANCH  65  69
ATOM     69  S   UNL A   1      48.442  27.358  23.450  1.00  0.00     0.124 S 
ATOM     70  O   UNL A   1      47.302  28.106  22.924  1.00  0.00    -0.237 OA
ATOM     71  O   UNL A   1      49.758  27.817  23.024  1.00  0.00    -0.237 OA
ATOM     72  O   UNL A   1      48.264  25.907  23.480  1.00  0.00    -0.744 OA
ENDBRANCH  65  69
ENDBRANCH  48  62
BRANCH  49  73
ATOM     73  C   UNL A   1      38.328  31.200  31.207  1.00  0.00     0.023 A 
ATOM     74  C   UNL A   1      37.293  31.790  30.462  1.00  0.00     0.031 A 
ATOM     75  C   UNL A   1      38.134  31.042  32.590  1.00  0.00     0.131 A 
ATOM     76  C   UNL A   1      36.131  32.241  31.110  1.00  0.00     0.055 A 
ATOM     77  C   UNL A   1      36.957  31.449  33.223  1.00  0.00     0.041 A 
ATOM     78  F   UNL A   1      39.088  30.479  33.349  1.00  0.00    -0.206 F 
ATOM     79  C   UNL A   1      35.953  32.064  32.483  1.00  0.00     0.022 A 
BRANCH  76  80
ATOM     80  S   UNL A   1      34.882  33.133  30.141  1.00  0.00     0.124 S 
ATOM     81  O   UNL A   1      34.047  33.707  31.190  1.00  0.00    -0.237 OA
ATOM     82  O   UNL A   1      35.701  34.073  29.383  1.00  0.00    -0.237 OA
ATOM     83  O   UNL A   1      34.253  32.079  29.347  1.00  0.00    -0.744 OA
ENDBRANCH  76  80
ENDBRANCH  49  73
BRANCH  61  84
ATOM     84  C   UNL A   1      44.035  34.773  29.367  1.00  0.00     0.023 A 
ATOM     85  C   UNL A   1      44.652  35.372  30.479  1.00  0.00     0.031 A 
ATOM     86  C   UNL A   1      43.725  35.590  28.264  1.00  0.00     0.131 A 
ATOM     87  C   UNL A   1      44.889  36.755  30.485  1.00  0.00     0.055 A 
ATOM     88  C   UNL A   1      44.019  36.954  28.252  1.00  0.00     0.041 A 
ATOM     89  F   UNL A   1      43.135  35.071  27.175  1.00  0.00    -0.206 F 
ATOM     90  C   UNL A   1      44.592  37.546  29.372  1.00  0.00     0.022 A 
BRANCH  87  91
ATOM     91  S   UNL A   1      45.506  37.526  32.007  1.00  0.00     0.124 S 
ATOM     92  O   UNL A   1      44.447  37.206  32.960  1.00  0.00    -0.237 OA
ATOM     93  O   UNL A   1      46.777  36.840  32.212  1.00  0.00    -0.237 OA
ATOM     94  O   UNL A   1      45.614  38.941  31.656  1.00  0.00    -0.744 OA
ENDBRANCH  87  91
ENDBRANCH  61  84
ENDBRANCH  35  36
ENDBRANCH  28  30
ENDBRANCH  27  28
ENDBRANCH  26  27
ENDBRANCH  25  26
ENDBRANCH   1  25
TORSDOF 22
ENDMDL
MODEL 2
REMARK VINA RESULT:      -9.9      1.959      2.779
REMARK SMILES C=CCN(CC(=O)OCCOCCOC(=O)c1ccc(-c2c3nc(c(-c4cc(S(=O)(=O)[O-])ccc4F)c4ccc([nH]4)c(-c4cc(S(=O)(=O)[O-])ccc4F)c4nc(c(-c5cc(S(=O)(=O)[O-])ccc5F)c5ccc2[nH]5)C=C4)C=C3)cc1)C(=O)[C@@H]1Oc2ccccc2O[C@H]1C
REMARK SMILES IDX 11 1 10 2 9 3 8 4 6 5 7 6 5 7 4 8 3 9 2 10 1 11 80 12 81 13
REMARK SMILES IDX 82 14 83 15 91 16 84 17 90 18 92 19 85 20 89 21 86 22 88 23
REMARK SMILES IDX 87 24 12 25 13 26 14 27 15 28 16 29 17 30 18 31 79 32 19 33
REMARK SMILES IDX 78 34 20 35 21 36 22 37 72 38 23 39 77 40 71 41 73 42 24 43
REMARK SMILES IDX 76 44 70 45 69 46 25 48 57 49 37 50 56 51 38 52 41 53 55 54
REMARK SMILES IDX 74 55 39 56 40 57 54 59 75 60 42 61 26 62 27 63 35 64 28 65
REMARK SMILES IDX 34 66 36 67 33 68 29 69 30 70 31 71 32 72 58 73 59 74 67 75
REMARK SMILES IDX 60 76 66 77 68 78 65 79 61 80 62 81 63 82 64 83 43 84 44 85
REMARK SMILES IDX 52 86 45 87 51 88 53 89 50 90 46 91 47 92 48 93 49 94
REMARK H PARENT 73 47 41 58
REMARK Flexibility Score: inf
ROOT
ATOM      1  O   UNL A   1      37.168  21.152  25.933  1.00  0.00    -0.374 OA
ENDROOT
BRANCH   1   2
ATOM      2  C   UNL A   1      36.415  20.657  24.833  1.00  0.00     0.202 C 
BRANCH   2   3
ATOM      3  C   UNL A   1      34.964  21.148  24.737  1.00  0.00     0.261 C 
BRANCH   3   4
ATOM      4  O   UNL A   1      34.674  22.363  25.477  1.00  0.00    -0.462 OA
BRANCH   4   5
ATOM      5  C   UNL A   1      33.731  23.164  24.899  1.00  0.00     0.325 C 
ATOM      6  O   UNL A   1      33.620  23.329  23.686  1.00  0.00    -0.250 OA
BRANCH   5   7
ATOM      7  C   UNL A   1      32.664  23.718  25.854  1.00  0.00     0.242 C 
BRANCH   7   8
ATOM      8  N   UNL A   1      32.489  25.146  26.144  1.00  0.00    -0.325 N 
BRANCH   8   9
ATOM      9  C   UNL A   1      33.647  26.006  25.876  1.00  0.00     0.147 C 
BRANCH   9  10
ATOM     10  C   UNL A   1      33.348  27.435  26.236  1.00  0.00    -0.014 C 
ATOM     11  C   UNL A   1      34.218  28.280  26.807  1.00  0.00     0.006 C 
ENDBRANCH   9  10
ENDBRANCH   8   9
BRANCH   8  12
ATOM     12  C   UNL A   1      31.199  25.642  25.924  1.00  0.00     0.268 C 
ATOM     13  O   UNL A   1      30.614  26.262  26.820  1.00  0.00    -0.270 OA
BRANCH  12  14
ATOM     14  C   UNL A   1      30.624  25.663  24.482  1.00  0.00     0.302 C 
ATOM     15  O   UNL A   1      31.453  25.514  23.342  1.00  0.00    -0.473 OA
ATOM     16  C   UNL A   1      29.653  26.855  24.425  1.00  0.00     0.221 C 
ATOM     17  C   UNL A   1      32.000  26.699  22.952  1.00  0.00     0.162 A 
ATOM     18  O   UNL A   1      30.174  28.025  23.792  1.00  0.00    -0.482 OA
ATOM     19  C   UNL A   1      28.290  26.481  23.846  1.00  0.00     0.057 C 
ATOM     20  C   UNL A   1      33.222  26.662  22.283  1.00  0.00     0.050 A 
ATOM     21  C   UNL A   1      31.432  27.914  23.296  1.00  0.00     0.161 A 
ATOM     22  C   UNL A   1      33.946  27.842  22.092  1.00  0.00     0.004 A 
ATOM     23  C   UNL A   1      32.175  29.083  23.152  1.00  0.00     0.050 A 
ATOM     24  C   UNL A   1      33.437  29.051  22.562  1.00  0.00     0.004 A 
ENDBRANCH  12  14
ENDBRANCH   8  12
ENDBRANCH   7   8
ENDBRANCH   5   7
ENDBRANCH   4   5
ENDBRANCH   3   4
ENDBRANCH   2   3
ENDBRANCH   1   2
BRANCH   1  25
ATOM     25  C   UNL A   1      38.438  21.731  25.657  1.00  0.00     0.202 C 
BRANCH  25  26
ATOM     26  C   UNL A   1      39.686  20.905  25.948  1.00  0.00     0.261 C 
BRANCH  26  27
ATOM     27  O   UNL A   1      40.609  21.507  26.857  1.00  0.00    -0.460 OA
BRANCH  27  28
ATOM     28  C   UNL A   1      41.545  22.228  26.167  1.00  0.00     0.338 C 
ATOM     29  O   UNL A   1      42.366  21.775  25.406  1.00  0.00    -0.246 OA
BRANCH  28  30
ATOM     30  C   UNL A   1      41.608  23.598  26.740  1.00  0.00     0.060 A 
ATOM     31  C   UNL A   1      41.324  24.737  25.991  1.00  0.00     0.016 A 
ATOM     32  C   UNL A   1      41.892  23.714  28.103  1.00  0.00     0.016 A 
ATOM     33  C   UNL A   1      41.393  25.997  26.598  1.00  0.00     0.010 A 
ATOM     34  C   UNL A   1      41.837  24.962  28.731  1.00  0.00     0.010 A 
ATOM     35  C   UNL A   1      41.667  26.128  27.972  1.00  0.00    -0.014 A 
BRANCH  35  36
ATOM     36  C   UNL A   1      41.931  27.476  28.561  1.00  0.00     0.031 A 
ATOM     37  C   UNL A   1      43.346  28.014  28.583  1.00  0.00     0.074 A 
ATOM     38  C   UNL A   1      40.924  28.247  29.022  1.00  0.00     0.049 A 
ATOM     39  N   UNL A   1      43.782  29.198  28.938  1.00  0.00    -0.248 NA
ATOM     40  C   UNL A   1      44.416  27.088  28.183  1.00  0.00     0.031 C 
ATOM     41  C   UNL A   1      39.522  27.841  29.122  1.00  0.00     0.029 A 
ATOM     42  N   UNL A   1      40.923  29.548  29.469  1.00  0.00    -0.354 N 
ATOM     43  C   UNL A   1      45.168  29.146  28.809  1.00  0.00     0.074 A 
ATOM     44  C   UNL A   1      45.503  27.790  28.448  1.00  0.00     0.031 C 
ATOM     45  C   UNL A   1      38.790  28.887  29.543  1.00  0.00     0.029 A 
ATOM     46  C   UNL A   1      39.669  30.032  29.766  1.00  0.00     0.049 A 
ATOM     47  H   UNL A   1      41.744  30.083  29.567  1.00  0.00     0.167 HD
ATOM     48  C   UNL A   1      46.081  30.143  28.925  1.00  0.00     0.034 A 
ATOM     49  C   UNL A   1      39.269  31.262  30.151  1.00  0.00     0.034 A 
ATOM     50  C   UNL A   1      45.743  31.502  29.262  1.00  0.00     0.049 A 
ATOM     51  C   UNL A   1      40.294  32.366  30.265  1.00  0.00     0.074 A 
ATOM     52  C   UNL A   1      46.577  32.599  29.370  1.00  0.00     0.029 A 
ATOM     53  N   UNL A   1      44.459  31.949  29.548  1.00  0.00    -0.354 N 
ATOM     54  N   UNL A   1      41.591  32.316  30.067  1.00  0.00    -0.248 NA
ATOM     55  C   UNL A   1      39.795  33.699  30.631  1.00  0.00     0.031 C 
ATOM     56  C   UNL A   1      45.810  33.695  29.780  1.00  0.00     0.029 A 
ATOM     57  C   UNL A   1      44.483  33.300  29.852  1.00  0.00     0.049 A 
ATOM     58  H   UNL A   1      43.651  31.388  29.535  1.00  0.00     0.167 HD
ATOM     59  C   UNL A   1      42.055  33.618  30.248  1.00  0.00     0.074 A 
ATOM     60  C   UNL A   1      40.897  34.430  30.559  1.00  0.00     0.031 C 
ATOM     61  C   UNL A   1      43.321  34.100  30.159  1.00  0.00     0.034 A 
BRANCH  48  62
ATOM     62  C   UNL A   1      47.530  29.773  28.699  1.00  0.00     0.023 A 
ATOM     63  C   UNL A   1      48.019  29.463  27.416  1.00  0.00     0.031 A 
ATOM     64  C   UNL A   1      48.415  29.650  29.784  1.00  0.00     0.131 A 
ATOM     65  C   UNL A   1      49.310  28.937  27.265  1.00  0.00     0.055 A 
ATOM     66  C   UNL A   1      49.734  29.222  29.613  1.00  0.00     0.041 A 
ATOM     67  F   UNL A   1      48.005  29.913  31.034  1.00  0.00    -0.206 F 
ATOM     68  C   UNL A   1      50.182  28.838  28.351  1.00  0.00     0.022 A 
BRANCH  65  69
ATOM     69  S   UNL A   1      49.761  28.204  25.667  1.00  0.00     0.124 S 
ATOM     70  O   UNL A   1      50.170  26.860  26.066  1.00  0.00    -0.237 OA
ATOM     71  O   UNL A   1      48.517  28.298  24.914  1.00  0.00    -0.237 OA
ATOM     72  O   UNL A   1      50.846  29.061  25.191  1.00  0.00    -0.744 OA
ENDBRANCH  65  69
ENDBRANCH  48  62
BRANCH  49  73
ATOM     73  C   UNL A   1      37.830  31.536  30.438  1.00  0.00     0.023 A 
ATOM     74  C   UNL A   1      36.942  31.928  29.422  1.00  0.00     0.031 A 
ATOM     75  C   UNL A   1      37.333  31.455  31.750  1.00  0.00     0.131 A 
ATOM     76  C   UNL A   1      35.617  32.270  29.742  1.00  0.00     0.055 A 
ATOM     77  C   UNL A   1      36.002  31.749  32.056  1.00  0.00     0.041 A 
ATOM     78  F   UNL A   1      38.137  31.079  32.758  1.00  0.00    -0.206 F 
ATOM     79  C   UNL A   1      35.140  32.172  31.050  1.00  0.00     0.022 A 
BRANCH  76  80
ATOM     80  S   UNL A   1      34.541  32.916  28.431  1.00  0.00     0.124 S 
ATOM     81  O   UNL A   1      35.513  33.469  27.495  1.00  0.00    -0.237 OA
ATOM     82  O   UNL A   1      33.840  31.712  27.995  1.00  0.00    -0.237 OA
ATOM     83  O   UNL A   1      33.712  33.898  29.126  1.00  0.00    -0.744 OA
ENDBRANCH  76  80
ENDBRANCH  49  73
BRANCH  61  84
ATOM     84  C   UNL A   1      43.513  35.587  30.344  1.00  0.00     0.023 A 
ATOM     85  C   UNL A   1      43.311  36.500  29.295  1.00  0.00     0.031 A 
ATOM     86  C   UNL A   1      43.908  36.095  31.595  1.00  0.00     0.131 A 
ATOM     87  C   UNL A   1      43.557  37.866  29.500  1.00  0.00     0.055 A 
ATOM     88  C   UNL A   1      44.092  37.461  31.810  1.00  0.00     0.041 A 
ATOM     89  F   UNL A   1      44.115  35.268  32.633  1.00  0.00    -0.206 F 
ATOM     90  C   UNL A   1      43.930  38.354  30.756  1.00  0.00     0.022 A 
BRANCH  87  91
ATOM     91  S   UNL A   1      43.477  38.990  28.078  1.00  0.00     0.124 S 
ATOM     92  O   UNL A   1      44.470  39.999  28.432  1.00  0.00    -0.237 OA
ATOM     93  O   UNL A   1      43.828  38.112  26.967  1.00  0.00    -0.237 OA
ATOM     94  O   UNL A   1      42.091  39.456  28.086  1.00  0.00    -0.744 OA
ENDBRANCH  87  91
ENDBRANCH  61  84
ENDBRANCH  35  36
ENDBRANCH  28  30
ENDBRANCH  27  28
ENDBRANCH  26  27
ENDBRANCH  25  26
ENDBRANCH   1  25
TORSDOF 22
ENDMDL
MODEL 3
REMARK VINA RESULT:      -9.5      2.501      8.056
REMARK SMILES C=CCN(CC(=O)OCCOCCOC(=O)c1ccc(-c2c3nc(c(-c4cc(S(=O)(=O)[O-])ccc4F)c4ccc([nH]4)c(-c4cc(S(=O)(=O)[O-])ccc4F)c4nc(c(-c5cc(S(=O)(=O)[O-])ccc5F)c5ccc2[nH]5)C=C4)C=C3)cc1)C(=O)[C@@H]1Oc2ccccc2O[C@H]1C
REMARK SMILES IDX 11 1 10 2 9 3 8 4 6 5 7 6 5 7 4 8 3 9 2 10 1 11 80 12 81 13
REMARK SMILES IDX 82 14 83 15 91 16 84 17 90 18 92 19 85 20 89 21 86 22 88 23
REMARK SMILES IDX 87 24 12 25 13 26 14 27 15 28 16 29 17 30 18 31 79 32 19 33
REMARK SMILES IDX 78 34 20 35 21 36 22 37 72 38 23 39 77 40 71 41 73 42 24 43
REMARK SMILES IDX 76 44 70 45 69 46 25 48 57 49 37 50 56 51 38 52 41 53 55 54
REMARK SMILES IDX 74 55 39 56 40 57 54 59 75 60 42 61 26 62 27 63 35 64 28 65
REMARK SMILES IDX 34 66 36 67 33 68 29 69 30 70 31 71 32 72 58 73 59 74 67 75
REMARK SMILES IDX 60 76 66 77 68 78 65 79 61 80 62 81 63 82 64 83 43 84 44 85
REMARK SMILES IDX 52 86 45 87 51 88 53 89 50 90 46 91 47 92 48 93 49 94
REMARK H PARENT 73 47 41 58
REMARK Flexibility Score: inf
ROOT
ATOM      1  O   UNL A   1      37.777  21.625  25.291  1.00  0.00    -0.374 OA
ENDROOT
BRANCH   1   2
ATOM      2  C   UNL A   1      36.946  22.519  24.561  1.00  0.00     0.202 C 
BRANCH   2   3
ATOM      3  C   UNL A   1      36.589  23.834  25.268  1.00  0.00     0.261 C 
BRANCH   3   4
ATOM      4  O   UNL A   1      35.486  24.570  24.680  1.00  0.00    -0.462 OA
BRANCH   4   5
ATOM      5  C   UNL A   1      34.455  24.824  25.539  1.00  0.00     0.325 C 
ATOM      6  O   UNL A   1      34.052  24.026  26.383  1.00  0.00    -0.250 OA
BRANCH   5   7
ATOM      7  C   UNL A   1      33.931  26.267  25.529  1.00  0.00     0.242 C 
BRANCH   7   8
ATOM      8  N   UNL A   1      32.758  26.705  24.764  1.00  0.00    -0.325 N 
BRANCH   8   9
ATOM      9  C   UNL A   1      31.903  27.707  25.409  1.00  0.00     0.147 C 
BRANCH   9  10
ATOM     10  C   UNL A   1      32.120  27.719  26.897  1.00  0.00    -0.014 C 
ATOM     11  C   UNL A   1      31.369  28.398  27.775  1.00  0.00     0.006 C 
ENDBRANCH   9  10
ENDBRANCH   8   9
BRANCH   8  12
ATOM     12  C   UNL A   1      32.935  26.744  23.375  1.00  0.00     0.268 C 
ATOM     13  O   UNL A   1      33.948  27.268  22.896  1.00  0.00    -0.270 OA
BRANCH  12  14
ATOM     14  C   UNL A   1      32.016  25.887  22.463  1.00  0.00     0.302 C 
ATOM     15  O   UNL A   1      31.095  24.950  22.995  1.00  0.00    -0.473 OA
ATOM     16  C   UNL A   1      32.914  25.346  21.337  1.00  0.00     0.221 C 
ATOM     17  C   UNL A   1      31.680  23.745  23.239  1.00  0.00     0.162 A 
ATOM     18  O   UNL A   1      33.326  23.988  21.497  1.00  0.00    -0.482 OA
ATOM     19  C   UNL A   1      32.325  25.578  19.947  1.00  0.00     0.057 C 
ATOM     20  C   UNL A   1      31.136  22.949  24.246  1.00  0.00     0.050 A 
ATOM     21  C   UNL A   1      32.841  23.352  22.595  1.00  0.00     0.161 A 
ATOM     22  C   UNL A   1      31.841  21.836  24.709  1.00  0.00     0.004 A 
ATOM     23  C   UNL A   1      33.568  22.273  23.089  1.00  0.00     0.050 A 
ATOM     24  C   UNL A   1      33.078  21.518  24.153  1.00  0.00     0.004 A 
ENDBRANCH  12  14
ENDBRANCH   8  12
ENDBRANCH   7   8
ENDBRANCH   5   7
ENDBRANCH   4   5
ENDBRANCH   3   4
ENDBRANCH   2   3
ENDBRANCH   1   2
BRANCH   1  25
ATOM     25  C   UNL A   1      37.690  20.239  24.979  1.00  0.00     0.202 C 
BRANCH  25  26
ATOM     26  C   UNL A   1      38.914  19.366  25.233  1.00  0.00     0.261 C 
BRANCH  26  27
ATOM     27  O   UNL A   1      39.608  19.639  26.451  1.00  0.00    -0.460 OA
BRANCH  27  28
ATOM     28  C   UNL A   1      40.941  19.821  26.202  1.00  0.00     0.338 C 
ATOM     29  O   UNL A   1      41.738  18.950  25.944  1.00  0.00    -0.246 OA
BRANCH  28  30
ATOM     30  C   UNL A   1      41.318  21.198  26.613  1.00  0.00     0.060 A 
ATOM     31  C   UNL A   1      41.126  22.305  25.790  1.00  0.00     0.016 A 
ATOM     32  C   UNL A   1      41.812  21.372  27.909  1.00  0.00     0.016 A 
ATOM     33  C   UNL A   1      41.496  23.576  26.246  1.00  0.00     0.010 A 
ATOM     34  C   UNL A   1      42.061  22.656  28.402  1.00  0.00     0.010 A 
ATOM     35  C   UNL A   1      41.984  23.767  27.552  1.00  0.00    -0.014 A 
BRANCH  35  36
ATOM     36  C   UNL A   1      42.556  25.087  27.956  1.00  0.00     0.031 A 
ATOM     37  C   UNL A   1      41.662  26.116  28.615  1.00  0.00     0.074 A 
ATOM     38  C   UNL A   1      43.869  25.358  27.798  1.00  0.00     0.049 A 
ATOM     39  N   UNL A   1      41.974  27.273  29.146  1.00  0.00    -0.248 NA
ATOM     40  C   UNL A   1      40.222  25.819  28.652  1.00  0.00     0.031 C 
ATOM     41  C   UNL A   1      44.839  24.491  27.126  1.00  0.00     0.029 A 
ATOM     42  N   UNL A   1      44.620  26.431  28.216  1.00  0.00    -0.354 N 
ATOM     43  C   UNL A   1      40.770  27.833  29.568  1.00  0.00     0.074 A 
ATOM     44  C   UNL A   1      39.721  26.941  29.136  1.00  0.00     0.031 C 
ATOM     45  C   UNL A   1      46.062  25.039  27.229  1.00  0.00     0.029 A 
ATOM     46  C   UNL A   1      45.966  26.304  27.953  1.00  0.00     0.049 A 
ATOM     47  H   UNL A   1      44.231  27.218  28.662  1.00  0.00     0.167 HD
ATOM     48  C   UNL A   1      40.553  28.958  30.295  1.00  0.00     0.034 A 
ATOM     49  C   UNL A   1      47.005  27.102  28.276  1.00  0.00     0.034 A 
ATOM     50  C   UNL A   1      41.602  29.834  30.746  1.00  0.00     0.049 A 
ATOM     51  C   UNL A   1      46.750  28.345  29.095  1.00  0.00     0.074 A 
ATOM     52  C   UNL A   1      41.502  30.977  31.518  1.00  0.00     0.029 A 
ATOM     53  N   UNL A   1      42.951  29.663  30.462  1.00  0.00    -0.354 N 
ATOM     54  N   UNL A   1      45.612  28.820  29.549  1.00  0.00    -0.248 NA
ATOM     55  C   UNL A   1      47.924  29.146  29.468  1.00  0.00     0.031 C 
ATOM     56  C   UNL A   1      42.780  31.530  31.650  1.00  0.00     0.029 A 
ATOM     57  C   UNL A   1      43.689  30.690  31.025  1.00  0.00     0.049 A 
ATOM     58  H   UNL A   1      43.327  28.920  29.937  1.00  0.00     0.167 HD
ATOM     59  C   UNL A   1      45.941  29.955  30.290  1.00  0.00     0.074 A 
ATOM     60  C   UNL A   1      47.383  30.082  30.232  1.00  0.00     0.031 C 
ATOM     61  C   UNL A   1      45.128  30.808  30.963  1.00  0.00     0.034 A 
BRANCH  48  62
ATOM     62  C   UNL A   1      39.114  29.294  30.620  1.00  0.00     0.023 A 
ATOM     63  C   UNL A   1      38.322  30.064  29.746  1.00  0.00     0.031 A 
ATOM     64  C   UNL A   1      38.550  28.914  31.850  1.00  0.00     0.131 A 
ATOM     65  C   UNL A   1      37.063  30.522  30.160  1.00  0.00     0.055 A 
ATOM     66  C   UNL A   1      37.255  29.290  32.214  1.00  0.00     0.041 A 
ATOM     67  F   UNL A   1      39.259  28.196  32.734  1.00  0.00    -0.206 F 
ATOM     68  C   UNL A   1      36.512  30.120  31.377  1.00  0.00     0.022 A 
BRANCH  65  69
ATOM     69  S   UNL A   1      36.246  31.806  29.171  1.00  0.00     0.124 S 
ATOM     70  O   UNL A   1      35.280  32.342  30.128  1.00  0.00    -0.237 OA
ATOM     71  O   UNL A   1      37.353  32.687  28.818  1.00  0.00    -0.237 OA
ATOM     72  O   UNL A   1      35.660  31.061  28.058  1.00  0.00    -0.744 OA
ENDBRANCH  65  69
ENDBRANCH  48  62
BRANCH  49  73
ATOM     73  C   UNL A   1      48.391  26.750  27.850  1.00  0.00     0.023 A 
ATOM     74  C   UNL A   1      48.910  27.181  26.617  1.00  0.00     0.031 A 
ATOM     75  C   UNL A   1      49.203  25.931  28.654  1.00  0.00     0.131 A 
ATOM     76  C   UNL A   1      50.183  26.754  26.204  1.00  0.00     0.055 A 
ATOM     77  C   UNL A   1      50.486  25.547  28.260  1.00  0.00     0.041 A 
ATOM     78  F   UNL A   1      48.758  25.495  29.844  1.00  0.00    -0.206 F 
ATOM     79  C   UNL A   1      50.978  25.949  27.023  1.00  0.00     0.022 A 
BRANCH  76  80
ATOM     80  S   UNL A   1      50.760  27.206  24.544  1.00  0.00     0.124 S 
ATOM     81  O   UNL A   1      52.003  26.452  24.445  1.00  0.00    -0.237 OA
ATOM     82  O   UNL A   1      49.658  26.744  23.705  1.00  0.00    -0.237 OA
ATOM     83  O   UNL A   1      50.913  28.657  24.621  1.00  0.00    -0.744 OA
ENDBRANCH  76  80
ENDBRANCH  49  73
BRANCH  61  84
ATOM     84  C   UNL A   1      45.782  31.924  31.741  1.00  0.00     0.023 A 
ATOM     85  C   UNL A   1      46.028  33.184  31.171  1.00  0.00     0.031 A 
ATOM     86  C   UNL A   1      46.166  31.717  33.079  1.00  0.00     0.131 A 
ATOM     87  C   UNL A   1      46.691  34.171  31.917  1.00  0.00     0.055 A 
ATOM     88  C   UNL A   1      46.769  32.723  33.835  1.00  0.00     0.041 A 
ATOM     89  F   UNL A   1      45.954  30.532  33.675  1.00  0.00    -0.206 F 
ATOM     90  C   UNL A   1      47.047  33.954  33.251  1.00  0.00     0.022 A 
BRANCH  87  91
ATOM     91  S   UNL A   1      47.168  35.715  31.091  1.00  0.00     0.124 S 
ATOM     92  O   UNL A   1      46.016  35.967  30.231  1.00  0.00    -0.237 OA
ATOM     93  O   UNL A   1      47.338  36.630  32.215  1.00  0.00    -0.237 OA
ATOM     94  O   UNL A   1      48.400  35.361  30.388  1.00  0.00    -0.744 OA
ENDBRANCH  87  91
ENDBRANCH  61  84
ENDBRANCH  35  36
ENDBRANCH  28  30
ENDBRANCH  27  28
ENDBRANCH  26  27
ENDBRANCH  25  26
ENDBRANCH   1  25
TORSDOF 22
ENDMDL
