MODEL 1
REMARK VINA RESULT:      -6.4      0.000      0.000
REMARK SMILES CCCCCCNC(=O)Oc1cccc(-c2ccc([C@@H](C)C(=O)OCCOCCOC(=O)c3ccc(-c4c5nc(c(-c6cc(S(=O)(=O)[O-])ccc6F)c6ccc([nH]6)c(-c6cc(S(=O)(=O)[O-])ccc6F)c6nc(c(-c7cc(S(=O)(=O)[O-])ccc7F)c7ccc4[nH]7)C=C6)C=C5)cc3)cc2C(F)(F)F)c1
REMARK SMILES IDX 24 1 22 2 23 3 20 4 21 5 19 6 16 7 17 8 97 9 18 10 96 11
REMARK SMILES IDX 15 12 11 13 12 14 102 15 13 16 14 17 10 18 8 19 7 20 9 22
REMARK SMILES IDX 6 23 5 24 4 25 3 26 2 27 1 28 98 29 99 30 100 31 101 32
REMARK SMILES IDX 25 33 26 34 27 35 28 36 29 37 30 38 31 39 32 40 33 41 34 42
REMARK SMILES IDX 95 43 35 44 94 45 36 46 37 47 38 48 88 49 39 50 93 51 87 52
REMARK SMILES IDX 89 53 40 54 92 55 86 56 85 57 41 59 73 60 53 61 72 62 54 63
REMARK SMILES IDX 57 64 71 65 90 66 55 67 56 68 70 70 91 71 58 72 42 73 43 74
REMARK SMILES IDX 51 75 44 76 50 77 52 78 49 79 45 80 46 81 47 82 48 83 74 84
REMARK SMILES IDX 75 85 83 86 76 87 82 88 84 89 81 90 77 91 78 92 79 93 80 94
REMARK SMILES IDX 59 95 60 96 68 97 61 98 67 99 69 100 66 101 62 102 63 103
REMARK SMILES IDX 64 104 65 105
REMARK H PARENT 7 21 89 58 57 69
REMARK Flexibility Score: inf
ROOT
ATOM      1  O   UNL A   1      53.334  27.635  27.289  1.00  0.00    -0.463 OA
ENDROOT
BRANCH   1   2
ATOM      2  C   UNL A   1      52.401  28.126  26.436  1.00  0.00     0.313 C 
ATOM      3  O   UNL A   1      52.122  29.315  26.317  1.00  0.00    -0.252 OA
BRANCH   2   4
ATOM      4  C   UNL A   1      51.675  27.058  25.633  1.00  0.00     0.126 C 
ATOM      5  C   UNL A   1      51.548  27.515  24.184  1.00  0.00     0.025 C 
BRANCH   4   6
ATOM      6  C   UNL A   1      50.358  26.510  26.175  1.00  0.00    -0.033 A 
ATOM      7  C   UNL A   1      47.890  25.669  27.362  1.00  0.00    -0.006 A 
ATOM      8  C   UNL A   1      49.022  24.829  27.318  1.00  0.00     0.009 A 
ATOM      9  C   UNL A   1      48.000  26.951  26.783  1.00  0.00     0.064 A 
ATOM     10  C   UNL A   1      50.234  25.241  26.746  1.00  0.00     0.005 A 
ATOM     11  C   UNL A   1      49.222  27.338  26.181  1.00  0.00     0.018 A 
BRANCH   7  12
ATOM     12  C   UNL A   1      46.677  25.206  28.066  1.00  0.00    -0.014 A 
ATOM     13  C   UNL A   1      44.468  24.196  28.076  1.00  0.00     0.133 A 
ATOM     14  C   UNL A   1      44.297  24.516  29.421  1.00  0.00     0.047 A 
ATOM     15  C   UNL A   1      45.647  24.521  27.398  1.00  0.00     0.056 A 
ATOM     16  C   UNL A   1      45.324  25.159  30.105  1.00  0.00     0.004 A 
ATOM     17  C   UNL A   1      46.499  25.504  29.430  1.00  0.00     0.009 A 
BRANCH  13  18
ATOM     18  O   UNL A   1      43.338  23.676  27.415  1.00  0.00    -0.410 OA
BRANCH  18  19
ATOM     19  C   UNL A   1      43.309  23.606  26.032  1.00  0.00     0.412 C 
ATOM     20  N   UNL A   1      42.291  24.328  25.476  1.00  0.00    -0.321 N 
ATOM     21  H   UNL A   1      42.209  24.287  24.496  1.00  0.00     0.167 HD
ATOM     22  O   UNL A   1      44.092  22.972  25.328  1.00  0.00    -0.224 OA
BRANCH  20  23
ATOM     23  C   UNL A   1      41.319  25.150  26.171  1.00  0.00     0.119 C 
BRANCH  23  24
ATOM     24  C   UNL A   1      41.509  26.639  25.876  1.00  0.00     0.021 C 
BRANCH  24  25
ATOM     25  C   UNL A   1      42.722  27.284  26.560  1.00  0.00     0.002 C 
BRANCH  25  26
ATOM     26  C   UNL A   1      42.670  28.809  26.697  1.00  0.00    -0.000 C 
BRANCH  26  27
ATOM     27  C   UNL A   1      42.437  29.335  28.115  1.00  0.00    -0.003 C 
ATOM     28  C   UNL A   1      40.976  29.298  28.538  1.00  0.00     0.004 C 
ENDBRANCH  26  27
ENDBRANCH  25  26
ENDBRANCH  24  25
ENDBRANCH  23  24
ENDBRANCH  20  23
ENDBRANCH  18  19
ENDBRANCH  13  18
ENDBRANCH   7  12
BRANCH   9  29
ATOM     29  C   UNL A   1      46.871  27.960  26.763  1.00  0.00     0.417 C 
ATOM     30  F   UNL A   1      45.746  27.465  26.160  1.00  0.00    -0.166 F 
ATOM     31  F   UNL A   1      46.473  28.309  28.020  1.00  0.00    -0.166 F 
ATOM     32  F   UNL A   1      47.126  29.123  26.107  1.00  0.00    -0.166 F 
ENDBRANCH   9  29
ENDBRANCH   4   6
ENDBRANCH   2   4
ENDBRANCH   1   2
BRANCH   1  33
ATOM     33  C   UNL A   1      54.607  28.304  27.284  1.00  0.00     0.261 C 
BRANCH  33  34
ATOM     34  C   UNL A   1      55.718  27.401  27.826  1.00  0.00     0.202 C 
BRANCH  34  35
ATOM     35  O   UNL A   1      56.712  28.032  28.634  1.00  0.00    -0.374 OA
BRANCH  35  36
ATOM     36  C   UNL A   1      56.612  27.873  30.049  1.00  0.00     0.202 C 
BRANCH  36  37
ATOM     37  C   UNL A   1      55.389  28.479  30.747  1.00  0.00     0.261 C 
BRANCH  37  38
ATOM     38  O   UNL A   1      54.678  27.528  31.557  1.00  0.00    -0.460 OA
BRANCH  38  39
ATOM     39  C   UNL A   1      53.874  26.687  30.858  1.00  0.00     0.338 C 
ATOM     40  O   UNL A   1      54.158  25.571  30.455  1.00  0.00    -0.246 OA
BRANCH  39  41
ATOM     41  C   UNL A   1      52.495  27.215  30.815  1.00  0.00     0.060 A 
ATOM     42  C   UNL A   1      52.128  28.118  31.820  1.00  0.00     0.016 A 
ATOM     43  C   UNL A   1      51.559  26.784  29.872  1.00  0.00     0.016 A 
ATOM     44  C   UNL A   1      50.808  28.548  31.926  1.00  0.00     0.010 A 
ATOM     45  C   UNL A   1      50.230  27.215  29.983  1.00  0.00     0.010 A 
ATOM     46  C   UNL A   1      49.840  28.067  31.035  1.00  0.00    -0.014 A 
BRANCH  46  47
ATOM     47  C   UNL A   1      48.405  28.332  31.316  1.00  0.00     0.031 A 
ATOM     48  C   UNL A   1      47.649  27.382  32.206  1.00  0.00     0.074 A 
ATOM     49  C   UNL A   1      47.801  29.438  30.842  1.00  0.00     0.049 A 
ATOM     50  N   UNL A   1      46.398  27.415  32.588  1.00  0.00    -0.248 NA
ATOM     51  C   UNL A   1      48.409  26.239  32.735  1.00  0.00     0.031 C 
ATOM     52  C   UNL A   1      48.443  30.459  30.015  1.00  0.00     0.029 A 
ATOM     53  N   UNL A   1      46.513  29.888  30.991  1.00  0.00    -0.354 N 
ATOM     54  C   UNL A   1      46.217  26.298  33.398  1.00  0.00     0.074 A 
ATOM     55  C   UNL A   1      47.479  25.589  33.418  1.00  0.00     0.031 C 
ATOM     56  C   UNL A   1      47.544  31.415  29.726  1.00  0.00     0.029 A 
ATOM     57  C   UNL A   1      46.253  31.057  30.314  1.00  0.00     0.049 A 
ATOM     58  H   UNL A   1      45.838  29.418  31.532  1.00  0.00     0.167 HD
ATOM     59  C   UNL A   1      45.106  25.907  34.071  1.00  0.00     0.034 A 
ATOM     60  C   UNL A   1      45.104  31.747  30.169  1.00  0.00     0.034 A 
ATOM     61  C   UNL A   1      43.853  26.622  34.036  1.00  0.00     0.049 A 
ATOM     62  C   UNL A   1      43.857  31.246  30.858  1.00  0.00     0.074 A 
ATOM     63  C   UNL A   1      42.671  26.322  34.690  1.00  0.00     0.029 A 
ATOM     64  N   UNL A   1      43.613  27.773  33.295  1.00  0.00    -0.354 N 
ATOM     65  N   UNL A   1      43.701  30.192  31.627  1.00  0.00    -0.248 NA
ATOM     66  C   UNL A   1      42.632  32.035  30.667  1.00  0.00     0.031 C 
ATOM     67  C   UNL A   1      41.698  27.244  34.286  1.00  0.00     0.029 A 
ATOM     68  C   UNL A   1      42.292  28.172  33.447  1.00  0.00     0.049 A 
ATOM     69  H   UNL A   1      44.282  28.237  32.742  1.00  0.00     0.167 HD
ATOM     70  C   UNL A   1      42.370  30.213  32.036  1.00  0.00     0.074 A 
ATOM     71  C   UNL A   1      41.772  31.389  31.442  1.00  0.00     0.031 C 
ATOM     72  C   UNL A   1      41.702  29.341  32.837  1.00  0.00     0.034 A 
BRANCH  59  73
ATOM     73  C   UNL A   1      45.188  24.619  34.855  1.00  0.00     0.023 A 
ATOM     74  C   UNL A   1      45.590  24.590  36.203  1.00  0.00     0.031 A 
ATOM     75  C   UNL A   1      44.882  23.395  34.235  1.00  0.00     0.131 A 
ATOM     76  C   UNL A   1      45.742  23.361  36.863  1.00  0.00     0.055 A 
ATOM     77  C   UNL A   1      44.960  22.181  34.920  1.00  0.00     0.041 A 
ATOM     78  F   UNL A   1      44.515  23.355  32.944  1.00  0.00    -0.206 F 
ATOM     79  C   UNL A   1      45.406  22.157  36.238  1.00  0.00     0.022 A 
BRANCH  76  80
ATOM     80  S   UNL A   1      46.519  23.344  38.503  1.00  0.00     0.124 S 
ATOM     81  O   UNL A   1      45.365  23.127  39.373  1.00  0.00    -0.237 OA
ATOM     82  O   UNL A   1      47.456  22.232  38.395  1.00  0.00    -0.237 OA
ATOM     83  O   UNL A   1      47.129  24.668  38.608  1.00  0.00    -0.744 OA
ENDBRANCH  76  80
ENDBRANCH  59  73
BRANCH  60  84
ATOM     84  C   UNL A   1      45.056  32.961  29.303  1.00  0.00     0.023 A 
ATOM     85  C   UNL A   1      44.717  32.875  27.943  1.00  0.00     0.031 A 
ATOM     86  C   UNL A   1      45.409  34.222  29.815  1.00  0.00     0.131 A 
ATOM     87  C   UNL A   1      44.784  34.020  27.132  1.00  0.00     0.055 A 
ATOM     88  C   UNL A   1      45.420  35.368  29.018  1.00  0.00     0.041 A 
ATOM     89  F   UNL A   1      45.745  34.361  31.108  1.00  0.00    -0.206 F 
ATOM     90  C   UNL A   1      45.119  35.268  27.663  1.00  0.00     0.022 A 
BRANCH  87  91
ATOM     91  S   UNL A   1      44.511  33.840  25.348  1.00  0.00     0.124 S 
ATOM     92  O   UNL A   1      43.243  34.537  25.169  1.00  0.00    -0.237 OA
ATOM     93  O   UNL A   1      45.690  34.499  24.795  1.00  0.00    -0.237 OA
ATOM     94  O   UNL A   1      44.462  32.392  25.156  1.00  0.00    -0.744 OA
ENDBRANCH  87  91
ENDBRANCH  60  84
BRANCH  72  95
ATOM     95  C   UNL A   1      40.259  29.661  33.151  1.00  0.00     0.023 A 
ATOM     96  C   UNL A   1      39.899  30.498  34.222  1.00  0.00     0.031 A 
ATOM     97  C   UNL A   1      39.228  29.105  32.372  1.00  0.00     0.131 A 
ATOM     98  C   UNL A   1      38.543  30.707  34.520  1.00  0.00     0.055 A 
ATOM     99  C   UNL A   1      37.883  29.369  32.634  1.00  0.00     0.041 A 
ATOM    100  F   UNL A   1      39.512  28.296  31.339  1.00  0.00    -0.206 F 
ATOM    101  C   UNL A   1      37.533  30.162  33.723  1.00  0.00     0.022 A 
BRANCH  98 102
ATOM    102  S   UNL A   1      38.113  31.620  36.028  1.00  0.00     0.124 S 
ATOM    103  O   UNL A   1      37.017  32.467  35.568  1.00  0.00    -0.237 OA
ATOM    104  O   UNL A   1      37.747  30.548  36.949  1.00  0.00    -0.237 OA
ATOM    105  O   UNL A   1      39.346  32.330  36.363  1.00  0.00    -0.744 OA
ENDBRANCH  98 102
ENDBRANCH  72  95
ENDBRANCH  46  47
ENDBRANCH  39  41
ENDBRANCH  38  39
ENDBRANCH  37  38
ENDBRANCH  36  37
ENDBRANCH  35  36
ENDBRANCH  34  35
ENDBRANCH  33  34
ENDBRANCH   1  33
TORSDOF 27
ENDMDL
MODEL 2
REMARK VINA RESULT:      -6.2      5.028     11.569
REMARK SMILES CCCCCCNC(=O)Oc1cccc(-c2ccc([C@@H](C)C(=O)OCCOCCOC(=O)c3ccc(-c4c5nc(c(-c6cc(S(=O)(=O)[O-])ccc6F)c6ccc([nH]6)c(-c6cc(S(=O)(=O)[O-])ccc6F)c6nc(c(-c7cc(S(=O)(=O)[O-])ccc7F)c7ccc4[nH]7)C=C6)C=C5)cc3)cc2C(F)(F)F)c1
REMARK SMILES IDX 24 1 22 2 23 3 20 4 21 5 19 6 16 7 17 8 97 9 18 10 96 11
REMARK SMILES IDX 15 12 11 13 12 14 102 15 13 16 14 17 10 18 8 19 7 20 9 22
REMARK SMILES IDX 6 23 5 24 4 25 3 26 2 27 1 28 98 29 99 30 100 31 101 32
REMARK SMILES IDX 25 33 26 34 27 35 28 36 29 37 30 38 31 39 32 40 33 41 34 42
REMARK SMILES IDX 95 43 35 44 94 45 36 46 37 47 38 48 88 49 39 50 93 51 87 52
REMARK SMILES IDX 89 53 40 54 92 55 86 56 85 57 41 59 73 60 53 61 72 62 54 63
REMARK SMILES IDX 57 64 71 65 90 66 55 67 56 68 70 70 91 71 58 72 42 73 43 74
REMARK SMILES IDX 51 75 44 76 50 77 52 78 49 79 45 80 46 81 47 82 48 83 74 84
REMARK SMILES IDX 75 85 83 86 76 87 82 88 84 89 81 90 77 91 78 92 79 93 80 94
REMARK SMILES IDX 59 95 60 96 68 97 61 98 67 99 69 100 66 101 62 102 63 103
REMARK SMILES IDX 64 104 65 105
REMARK H PARENT 7 21 89 58 57 69
REMARK Flexibility Score: inf
ROOT
ATOM      1  O   UNL A   1      38.807  29.633  28.240  1.00  0.00    -0.463 OA
ENDROOT
BRANCH   1   2
ATOM      2  C   UNL A   1      39.121  28.538  28.977  1.00  0.00     0.313 C 
ATOM      3  O   UNL A   1      38.333  27.936  29.701  1.00  0.00    -0.252 OA
BRANCH   2   4
ATOM      4  C   UNL A   1      40.577  28.115  28.866  1.00  0.00     0.126 C 
ATOM      5  C   UNL A   1      41.340  29.143  28.037  1.00  0.00     0.025 C 
BRANCH   4   6
ATOM      6  C   UNL A   1      40.887  26.686  28.427  1.00  0.00    -0.033 A 
ATOM      7  C   UNL A   1      41.700  24.084  27.549  1.00  0.00    -0.006 A 
ATOM      8  C   UNL A   1      40.632  24.776  26.943  1.00  0.00     0.009 A 
ATOM      9  C   UNL A   1      42.361  24.708  28.628  1.00  0.00     0.064 A 
ATOM     10  C   UNL A   1      40.237  26.054  27.365  1.00  0.00     0.005 A 
ATOM     11  C   UNL A   1      41.927  25.985  29.061  1.00  0.00     0.018 A 
BRANCH   7  12
ATOM     12  C   UNL A   1      42.124  22.784  26.991  1.00  0.00    -0.014 A 
ATOM     13  C   UNL A   1      43.607  21.424  25.630  1.00  0.00     0.133 A 
ATOM     14  C   UNL A   1      42.780  20.314  25.787  1.00  0.00     0.047 A 
ATOM     15  C   UNL A   1      43.298  22.648  26.231  1.00  0.00     0.056 A 
ATOM     16  C   UNL A   1      41.634  20.422  26.569  1.00  0.00     0.004 A 
ATOM     17  C   UNL A   1      41.309  21.648  27.160  1.00  0.00     0.009 A 
BRANCH  13  18
ATOM     18  O   UNL A   1      44.668  21.281  24.715  1.00  0.00    -0.410 OA
BRANCH  18  19
ATOM     19  C   UNL A   1      44.817  22.181  23.672  1.00  0.00     0.412 C 
ATOM     20  N   UNL A   1      45.769  23.132  23.911  1.00  0.00    -0.321 N 
ATOM     21  H   UNL A   1      45.893  23.813  23.213  1.00  0.00     0.167 HD
ATOM     22  O   UNL A   1      44.183  22.173  22.620  1.00  0.00    -0.224 OA
BRANCH  20  23
ATOM     23  C   UNL A   1      46.618  23.245  25.082  1.00  0.00     0.119 C 
BRANCH  23  24
ATOM     24  C   UNL A   1      46.933  24.703  25.424  1.00  0.00     0.021 C 
BRANCH  24  25
ATOM     25  C   UNL A   1      45.868  25.715  24.983  1.00  0.00     0.002 C 
BRANCH  25  26
ATOM     26  C   UNL A   1      44.584  25.732  25.819  1.00  0.00    -0.000 C 
BRANCH  26  27
ATOM     27  C   UNL A   1      44.240  27.074  26.468  1.00  0.00    -0.003 C 
ATOM     28  C   UNL A   1      45.141  28.213  26.014  1.00  0.00     0.004 C 
ENDBRANCH  26  27
ENDBRANCH  25  26
ENDBRANCH  24  25
ENDBRANCH  23  24
ENDBRANCH  20  23
ENDBRANCH  18  19
ENDBRANCH  13  18
ENDBRANCH   7  12
BRANCH   9  29
ATOM     29  C   UNL A   1      43.527  24.087  29.369  1.00  0.00     0.417 C 
ATOM     30  F   UNL A   1      44.698  24.189  28.666  1.00  0.00    -0.166 F 
ATOM     31  F   UNL A   1      43.771  24.711  30.556  1.00  0.00    -0.166 F 
ATOM     32  F   UNL A   1      43.412  22.762  29.649  1.00  0.00    -0.166 F 
ENDBRANCH   9  29
ENDBRANCH   4   6
ENDBRANCH   2   4
ENDBRANCH   1   2
BRANCH   1  33
ATOM     33  C   UNL A   1      37.478  30.155  28.420  1.00  0.00     0.261 C 
BRANCH  33  34
ATOM     34  C   UNL A   1      37.503  31.649  28.753  1.00  0.00     0.202 C 
BRANCH  34  35
ATOM     35  O   UNL A   1      36.711  32.498  27.923  1.00  0.00    -0.374 OA
BRANCH  35  36
ATOM     36  C   UNL A   1      35.292  32.390  28.030  1.00  0.00     0.202 C 
BRANCH  36  37
ATOM     37  C   UNL A   1      34.548  33.515  28.760  1.00  0.00     0.261 C 
BRANCH  37  38
ATOM     38  O   UNL A   1      34.002  33.098  30.023  1.00  0.00    -0.460 OA
BRANCH  38  39
ATOM     39  C   UNL A   1      34.237  33.958  31.046  1.00  0.00     0.338 C 
ATOM     40  O   UNL A   1      33.453  34.764  31.518  1.00  0.00    -0.246 OA
BRANCH  39  41
ATOM     41  C   UNL A   1      35.534  33.653  31.683  1.00  0.00     0.060 A 
ATOM     42  C   UNL A   1      35.671  32.390  32.274  1.00  0.00     0.016 A 
ATOM     43  C   UNL A   1      36.562  34.594  31.777  1.00  0.00     0.016 A 
ATOM     44  C   UNL A   1      36.811  32.084  33.013  1.00  0.00     0.010 A 
ATOM     45  C   UNL A   1      37.706  34.284  32.525  1.00  0.00     0.010 A 
ATOM     46  C   UNL A   1      37.817  33.043  33.180  1.00  0.00    -0.014 A 
BRANCH  46  47
ATOM     47  C   UNL A   1      38.895  32.793  34.173  1.00  0.00     0.031 A 
ATOM     48  C   UNL A   1      40.238  32.319  33.687  1.00  0.00     0.074 A 
ATOM     49  C   UNL A   1      38.701  33.046  35.481  1.00  0.00     0.049 A 
ATOM     50  N   UNL A   1      41.320  32.040  34.368  1.00  0.00    -0.248 NA
ATOM     51  C   UNL A   1      40.379  32.136  32.233  1.00  0.00     0.031 C 
ATOM     52  C   UNL A   1      37.462  33.557  36.065  1.00  0.00     0.029 A 
ATOM     53  N   UNL A   1      39.547  32.911  36.553  1.00  0.00    -0.354 N 
ATOM     54  C   UNL A   1      42.269  31.644  33.430  1.00  0.00     0.074 A 
ATOM     55  C   UNL A   1      41.619  31.683  32.137  1.00  0.00     0.031 C 
ATOM     56  C   UNL A   1      37.627  33.690  37.392  1.00  0.00     0.029 A 
ATOM     57  C   UNL A   1      38.969  33.237  37.758  1.00  0.00     0.049 A 
ATOM     58  H   UNL A   1      40.480  32.609  36.468  1.00  0.00     0.167 HD
ATOM     59  C   UNL A   1      43.564  31.292  33.629  1.00  0.00     0.034 A 
ATOM     60  C   UNL A   1      39.458  33.160  39.012  1.00  0.00     0.034 A 
ATOM     61  C   UNL A   1      44.196  31.252  34.926  1.00  0.00     0.049 A 
ATOM     62  C   UNL A   1      40.877  32.683  39.217  1.00  0.00     0.074 A 
ATOM     63  C   UNL A   1      45.503  30.924  35.238  1.00  0.00     0.029 A 
ATOM     64  N   UNL A   1      43.562  31.537  36.129  1.00  0.00    -0.354 N 
ATOM     65  N   UNL A   1      41.766  32.318  38.322  1.00  0.00    -0.248 NA
ATOM     66  C   UNL A   1      41.360  32.618  40.603  1.00  0.00     0.031 C 
ATOM     67  C   UNL A   1      45.640  30.935  36.631  1.00  0.00     0.029 A 
ATOM     68  C   UNL A   1      44.442  31.354  37.187  1.00  0.00     0.049 A 
ATOM     69  H   UNL A   1      42.626  31.825  36.219  1.00  0.00     0.167 HD
ATOM     70  C   UNL A   1      42.922  32.013  39.036  1.00  0.00     0.074 A 
ATOM     71  C   UNL A   1      42.622  32.249  40.432  1.00  0.00     0.031 C 
ATOM     72  C   UNL A   1      44.127  31.580  38.579  1.00  0.00     0.034 A 
BRANCH  59  73
ATOM     73  C   UNL A   1      44.361  30.870  32.417  1.00  0.00     0.023 A 
ATOM     74  C   UNL A   1      44.639  29.519  32.141  1.00  0.00     0.031 A 
ATOM     75  C   UNL A   1      44.876  31.839  31.538  1.00  0.00     0.131 A 
ATOM     76  C   UNL A   1      45.463  29.180  31.057  1.00  0.00     0.055 A 
ATOM     77  C   UNL A   1      45.631  31.491  30.417  1.00  0.00     0.041 A 
ATOM     78  F   UNL A   1      44.665  33.146  31.762  1.00  0.00    -0.206 F 
ATOM     79  C   UNL A   1      45.941  30.156  30.178  1.00  0.00     0.022 A 
BRANCH  76  80
ATOM     80  S   UNL A   1      46.020  27.461  30.890  1.00  0.00     0.124 S 
ATOM     81  O   UNL A   1      45.217  26.791  31.909  1.00  0.00    -0.237 OA
ATOM     82  O   UNL A   1      45.683  27.155  29.505  1.00  0.00    -0.237 OA
ATOM     83  O   UNL A   1      47.450  27.534  31.183  1.00  0.00    -0.744 OA
ENDBRANCH  76  80
ENDBRANCH  59  73
BRANCH  60  84
ATOM     84  C   UNL A   1      38.595  33.496  40.182  1.00  0.00     0.023 A 
ATOM     85  C   UNL A   1      37.520  32.676  40.557  1.00  0.00     0.031 A 
ATOM     86  C   UNL A   1      38.802  34.683  40.908  1.00  0.00     0.131 A 
ATOM     87  C   UNL A   1      36.663  33.075  41.597  1.00  0.00     0.055 A 
ATOM     88  C   UNL A   1      37.982  35.048  41.976  1.00  0.00     0.041 A 
ATOM     89  F   UNL A   1      39.814  35.507  40.590  1.00  0.00    -0.206 F 
ATOM     90  C   UNL A   1      36.896  34.248  42.317  1.00  0.00     0.022 A 
BRANCH  87  91
ATOM     91  S   UNL A   1      35.185  32.081  41.938  1.00  0.00     0.124 S 
ATOM     92  O   UNL A   1      35.535  31.452  43.205  1.00  0.00    -0.237 OA
ATOM     93  O   UNL A   1      34.143  33.101  41.992  1.00  0.00    -0.237 OA
ATOM     94  O   UNL A   1      35.111  31.178  40.791  1.00  0.00    -0.744 OA
ENDBRANCH  87  91
ENDBRANCH  60  84
BRANCH  72  95
ATOM     95  C   UNL A   1      45.221  31.383  39.602  1.00  0.00     0.023 A 
ATOM     96  C   UNL A   1      45.422  30.150  40.248  1.00  0.00     0.031 A 
ATOM     97  C   UNL A   1      46.069  32.453  39.944  1.00  0.00     0.131 A 
ATOM     98  C   UNL A   1      46.403  30.034  41.245  1.00  0.00     0.055 A 
ATOM     99  C   UNL A   1      47.086  32.313  40.890  1.00  0.00     0.041 A 
ATOM    100  F   UNL A   1      45.923  33.653  39.362  1.00  0.00    -0.206 F 
ATOM    101  C   UNL A   1      47.248  31.102  41.557  1.00  0.00     0.022 A 
BRANCH  98 102
ATOM    102  S   UNL A   1      46.496  28.495  42.202  1.00  0.00     0.124 S 
ATOM    103  O   UNL A   1      47.678  27.855  41.632  1.00  0.00    -0.237 OA
ATOM    104  O   UNL A   1      46.634  28.986  43.569  1.00  0.00    -0.237 OA
ATOM    105  O   UNL A   1      45.228  27.831  41.908  1.00  0.00    -0.744 OA
ENDBRANCH  98 102
ENDBRANCH  72  95
ENDBRANCH  46  47
ENDBRANCH  39  41
ENDBRANCH  38  39
ENDBRANCH  37  38
ENDBRANCH  36  37
ENDBRANCH  35  36
ENDBRANCH  34  35
ENDBRANCH  33  34
ENDBRANCH   1  33
TORSDOF 27
ENDMDL
MODEL 3
REMARK VINA RESULT:      -5.9      8.574     14.118
REMARK SMILES CCCCCCNC(=O)Oc1cccc(-c2ccc([C@@H](C)C(=O)OCCOCCOC(=O)c3ccc(-c4c5nc(c(-c6cc(S(=O)(=O)[O-])ccc6F)c6ccc([nH]6)c(-c6cc(S(=O)(=O)[O-])ccc6F)c6nc(c(-c7cc(S(=O)(=O)[O-])ccc7F)c7ccc4[nH]7)C=C6)C=C5)cc3)cc2C(F)(F)F)c1
REMARK SMILES IDX 24 1 22 2 23 3 20 4 21 5 19 6 16 7 17 8 97 9 18 10 96 11
REMARK SMILES IDX 15 12 11 13 12 14 102 15 13 16 14 17 10 18 8 19 7 20 9 22
REMARK SMILES IDX 6 23 5 24 4 25 3 26 2 27 1 28 98 29 99 30 100 31 101 32
REMARK SMILES IDX 25 33 26 34 27 35 28 36 29 37 30 38 31 39 32 40 33 41 34 42
REMARK SMILES IDX 95 43 35 44 94 45 36 46 37 47 38 48 88 49 39 50 93 51 87 52
REMARK SMILES IDX 89 53 40 54 92 55 86 56 85 57 41 59 73 60 53 61 72 62 54 63
REMARK SMILES IDX 57 64 71 65 90 66 55 67 56 68 70 70 91 71 58 72 42 73 43 74
REMARK SMILES IDX 51 75 44 76 50 77 52 78 49 79 45 80 46 81 47 82 48 83 74 84
REMARK SMILES IDX 75 85 83 86 76 87 82 88 84 89 81 90 77 91 78 92 79 93 80 94
REMARK SMILES IDX 59 95 60 96 68 97 61 98 67 99 69 100 66 101 62 102 63 103
REMARK SMILES IDX 64 104 65 105
REMARK H PARENT 7 21 89 58 57 69
REMARK Flexibility Score: inf
ROOT
ATOM      1  O   UNL A   1      48.697  45.513  23.646  1.00  0.00    -0.463 OA
ENDROOT
BRANCH   1   2
ATOM      2  C   UNL A   1      48.584  44.433  22.833  1.00  0.00     0.313 C 
ATOM      3  O   UNL A   1      49.528  43.875  22.280  1.00  0.00    -0.252 OA
BRANCH   2   4
ATOM      4  C   UNL A   1      47.153  43.965  22.622  1.00  0.00     0.126 C 
ATOM      5  C   UNL A   1      46.375  45.043  21.875  1.00  0.00     0.025 C 
BRANCH   4   6
ATOM      6  C   UNL A   1      46.377  43.432  23.823  1.00  0.00    -0.033 A 
ATOM      7  C   UNL A   1      44.889  42.218  25.948  1.00  0.00    -0.006 A 
ATOM      8  C   UNL A   1      44.468  43.414  25.330  1.00  0.00     0.009 A 
ATOM      9  C   UNL A   1      46.090  41.631  25.497  1.00  0.00     0.064 A 
ATOM     10  C   UNL A   1      45.190  44.005  24.283  1.00  0.00     0.005 A 
ATOM     11  C   UNL A   1      46.823  42.261  24.461  1.00  0.00     0.018 A 
BRANCH   7  12
ATOM     12  C   UNL A   1      44.029  41.599  26.977  1.00  0.00    -0.014 A 
ATOM     13  C   UNL A   1      43.316  41.327  29.283  1.00  0.00     0.133 A 
ATOM     14  C   UNL A   1      42.506  40.249  28.935  1.00  0.00     0.047 A 
ATOM     15  C   UNL A   1      44.066  42.011  28.321  1.00  0.00     0.056 A 
ATOM     16  C   UNL A   1      42.429  39.855  27.603  1.00  0.00     0.004 A 
ATOM     17  C   UNL A   1      43.189  40.522  26.636  1.00  0.00     0.009 A 
BRANCH  13  18
ATOM     18  O   UNL A   1      43.453  41.578  30.663  1.00  0.00    -0.410 OA
BRANCH  18  19
ATOM     19  C   UNL A   1      42.338  41.863  31.434  1.00  0.00     0.412 C 
ATOM     20  N   UNL A   1      42.463  43.013  32.162  1.00  0.00    -0.321 N 
ATOM     21  H   UNL A   1      41.709  43.244  32.750  1.00  0.00     0.167 HD
ATOM     22  O   UNL A   1      41.316  41.183  31.498  1.00  0.00    -0.224 OA
BRANCH  20  23
ATOM     23  C   UNL A   1      43.586  43.931  32.160  1.00  0.00     0.119 C 
BRANCH  23  24
ATOM     24  C   UNL A   1      44.801  43.353  32.889  1.00  0.00     0.021 C 
BRANCH  24  25
ATOM     25  C   UNL A   1      45.043  43.921  34.293  1.00  0.00     0.002 C 
BRANCH  25  26
ATOM     26  C   UNL A   1      46.162  44.963  34.401  1.00  0.00    -0.000 C 
BRANCH  26  27
ATOM     27  C   UNL A   1      47.455  44.475  35.058  1.00  0.00    -0.003 C 
ATOM     28  C   UNL A   1      48.526  44.073  34.054  1.00  0.00     0.004 C 
ENDBRANCH  26  27
ENDBRANCH  25  26
ENDBRANCH  24  25
ENDBRANCH  23  24
ENDBRANCH  20  23
ENDBRANCH  18  19
ENDBRANCH  13  18
ENDBRANCH   7  12
BRANCH   9  29
ATOM     29  C   UNL A   1      46.659  40.347  26.062  1.00  0.00     0.417 C 
ATOM     30  F   UNL A   1      47.747  39.909  25.356  1.00  0.00    -0.166 F 
ATOM     31  F   UNL A   1      47.106  40.503  27.341  1.00  0.00    -0.166 F 
ATOM     32  F   UNL A   1      45.813  39.282  26.080  1.00  0.00    -0.166 F 
ENDBRANCH   9  29
ENDBRANCH   4   6
ENDBRANCH   2   4
ENDBRANCH   1   2
BRANCH   1  33
ATOM     33  C   UNL A   1      49.016  45.236  25.022  1.00  0.00     0.261 C 
BRANCH  33  34
ATOM     34  C   UNL A   1      50.529  45.205  25.252  1.00  0.00     0.202 C 
BRANCH  34  35
ATOM     35  O   UNL A   1      50.971  45.396  26.596  1.00  0.00    -0.374 OA
BRANCH  35  36
ATOM     36  C   UNL A   1      50.191  46.250  27.433  1.00  0.00     0.202 C 
BRANCH  36  37
ATOM     37  C   UNL A   1      49.516  45.621  28.657  1.00  0.00     0.261 C 
BRANCH  37  38
ATOM     38  O   UNL A   1      50.025  44.312  28.966  1.00  0.00    -0.460 OA
BRANCH  38  39
ATOM     39  C   UNL A   1      50.019  44.008  30.289  1.00  0.00     0.338 C 
ATOM     40  O   UNL A   1      50.494  44.674  31.194  1.00  0.00    -0.246 OA
BRANCH  39  41
ATOM     41  C   UNL A   1      49.160  42.833  30.541  1.00  0.00     0.060 A 
ATOM     42  C   UNL A   1      47.777  43.019  30.420  1.00  0.00     0.016 A 
ATOM     43  C   UNL A   1      49.676  41.606  30.962  1.00  0.00     0.016 A 
ATOM     44  C   UNL A   1      46.900  41.998  30.777  1.00  0.00     0.010 A 
ATOM     45  C   UNL A   1      48.792  40.581  31.325  1.00  0.00     0.010 A 
ATOM     46  C   UNL A   1      47.399  40.787  31.273  1.00  0.00    -0.014 A 
BRANCH  46  47
ATOM     47  C   UNL A   1      46.456  39.815  31.885  1.00  0.00     0.031 A 
ATOM     48  C   UNL A   1      45.773  38.807  31.000  1.00  0.00     0.074 A 
ATOM     49  C   UNL A   1      46.260  39.786  33.216  1.00  0.00     0.049 A 
ATOM     50  N   UNL A   1      44.917  37.867  31.313  1.00  0.00    -0.248 NA
ATOM     51  C   UNL A   1      46.100  38.868  29.567  1.00  0.00     0.031 C 
ATOM     52  C   UNL A   1      46.906  40.676  34.181  1.00  0.00     0.029 A 
ATOM     53  N   UNL A   1      45.466  38.975  33.987  1.00  0.00    -0.354 N 
ATOM     54  C   UNL A   1      44.600  37.228  30.119  1.00  0.00     0.074 A 
ATOM     55  C   UNL A   1      45.326  37.915  29.071  1.00  0.00     0.031 C 
ATOM     56  C   UNL A   1      46.478  40.363  35.416  1.00  0.00     0.029 A 
ATOM     57  C   UNL A   1      45.500  39.279  35.328  1.00  0.00     0.049 A 
ATOM     58  H   UNL A   1      44.922  38.243  33.615  1.00  0.00     0.167 HD
ATOM     59  C   UNL A   1      43.787  36.161  29.916  1.00  0.00     0.034 A 
ATOM     60  C   UNL A   1      44.808  38.757  36.361  1.00  0.00     0.034 A 
ATOM     61  C   UNL A   1      43.064  35.490  30.970  1.00  0.00     0.049 A 
ATOM     62  C   UNL A   1      43.843  37.625  36.100  1.00  0.00     0.074 A 
ATOM     63  C   UNL A   1      42.225  34.394  30.878  1.00  0.00     0.029 A 
ATOM     64  N   UNL A   1      43.081  35.862  32.309  1.00  0.00    -0.354 N 
ATOM     65  N   UNL A   1      43.557  37.025  34.967  1.00  0.00    -0.248 NA
ATOM     66  C   UNL A   1      43.116  37.094  37.260  1.00  0.00     0.031 C 
ATOM     67  C   UNL A   1      41.678  34.150  32.142  1.00  0.00     0.029 A 
ATOM     68  C   UNL A   1      42.239  35.039  33.044  1.00  0.00     0.049 A 
ATOM     69  H   UNL A   1      43.613  36.601  32.682  1.00  0.00     0.167 HD
ATOM     70  C   UNL A   1      42.642  36.025  35.286  1.00  0.00     0.074 A 
ATOM     71  C   UNL A   1      42.435  36.094  36.717  1.00  0.00     0.031 C 
ATOM     72  C   UNL A   1      42.030  35.126  34.471  1.00  0.00     0.034 A 
BRANCH  59  73
ATOM     73  C   UNL A   1      43.598  35.693  28.492  1.00  0.00     0.023 A 
ATOM     74  C   UNL A   1      44.534  34.864  27.849  1.00  0.00     0.031 A 
ATOM     75  C   UNL A   1      42.473  36.107  27.757  1.00  0.00     0.131 A 
ATOM     76  C   UNL A   1      44.364  34.533  26.496  1.00  0.00     0.055 A 
ATOM     77  C   UNL A   1      42.269  35.711  26.434  1.00  0.00     0.041 A 
ATOM     78  F   UNL A   1      41.556  36.919  28.309  1.00  0.00    -0.206 F 
ATOM     79  C   UNL A   1      43.224  34.930  25.791  1.00  0.00     0.022 A 
BRANCH  76  80
ATOM     80  S   UNL A   1      45.718  33.693  25.628  1.00  0.00     0.124 S 
ATOM     81  O   UNL A   1      46.812  33.830  26.586  1.00  0.00    -0.237 OA
ATOM     82  O   UNL A   1      45.189  32.346  25.450  1.00  0.00    -0.237 OA
ATOM     83  O   UNL A   1      45.873  34.470  24.400  1.00  0.00    -0.744 OA
ENDBRANCH  76  80
ENDBRANCH  59  73
BRANCH  60  84
ATOM     84  C   UNL A   1      44.961  39.322  37.734  1.00  0.00     0.023 A 
ATOM     85  C   UNL A   1      44.304  40.502  38.116  1.00  0.00     0.031 A 
ATOM     86  C   UNL A   1      45.819  38.715  38.668  1.00  0.00     0.131 A 
ATOM     87  C   UNL A   1      44.551  41.064  39.380  1.00  0.00     0.055 A 
ATOM     88  C   UNL A   1      46.019  39.246  39.943  1.00  0.00     0.041 A 
ATOM     89  F   UNL A   1      46.476  37.586  38.354  1.00  0.00    -0.206 F 
ATOM     90  C   UNL A   1      45.393  40.436  40.300  1.00  0.00     0.022 A 
BRANCH  87  91
ATOM     91  S   UNL A   1      43.823  42.678  39.773  1.00  0.00     0.124 S 
ATOM     92  O   UNL A   1      44.669  43.581  39.004  1.00  0.00    -0.237 OA
ATOM     93  O   UNL A   1      42.454  42.515  39.293  1.00  0.00    -0.237 OA
ATOM     94  O   UNL A   1      43.964  42.770  41.224  1.00  0.00    -0.744 OA
ENDBRANCH  87  91
ENDBRANCH  60  84
BRANCH  72  95
ATOM     95  C   UNL A   1      41.116  34.115  35.123  1.00  0.00     0.023 A 
ATOM     96  C   UNL A   1      39.725  34.132  34.921  1.00  0.00     0.031 A 
ATOM     97  C   UNL A   1      41.648  33.127  35.972  1.00  0.00     0.131 A 
ATOM     98  C   UNL A   1      38.908  33.219  35.606  1.00  0.00     0.055 A 
ATOM     99  C   UNL A   1      40.836  32.181  36.600  1.00  0.00     0.041 A 
ATOM    100  F   UNL A   1      42.968  33.064  36.205  1.00  0.00    -0.206 F 
ATOM    101  C   UNL A   1      39.455  32.233  36.430  1.00  0.00     0.022 A 
BRANCH  98 102
ATOM    102  S   UNL A   1      37.106  33.400  35.485  1.00  0.00     0.124 S 
ATOM    103  O   UNL A   1      36.976  34.645  34.734  1.00  0.00    -0.237 OA
ATOM    104  O   UNL A   1      36.717  32.185  34.777  1.00  0.00    -0.237 OA
ATOM    105  O   UNL A   1      36.674  33.469  36.880  1.00  0.00    -0.744 OA
ENDBRANCH  98 102
ENDBRANCH  72  95
ENDBRANCH  46  47
ENDBRANCH  39  41
ENDBRANCH  38  39
ENDBRANCH  37  38
ENDBRANCH  36  37
ENDBRANCH  35  36
ENDBRANCH  34  35
ENDBRANCH  33  34
ENDBRANCH   1  33
TORSDOF 27
ENDMDL
