MODEL 1
REMARK VINA RESULT:     -10.2      0.000      0.000
REMARK SMILES CN(CCCC(=O)OCCOCCOC(=O)c1ccc(-c2c3nc(c(-c4cc(S(=O)(=O)[O-])ccc4F)c4ccc([nH]4)c(-c4cc(S(=O)(=O)[O-])ccc4F)c4nc(c(-c5cc(S(=O)(=O)[O-])ccc5F)c5ccc2[nH]5)C=C4)C=C3)cc1)C(=O)c1ccc(Br)o1
REMARK SMILES IDX 10 1 9 2 8 3 6 4 7 5 5 6 4 7 3 8 2 9 1 10 80 11 81 12 82 13
REMARK SMILES IDX 83 14 87 15 84 16 85 17 86 18 11 19 12 20 13 21 14 22 15 23
REMARK SMILES IDX 16 24 17 25 18 26 79 27 19 28 78 29 20 30 21 31 22 32 72 33
REMARK SMILES IDX 23 34 77 35 71 36 73 37 24 38 76 39 70 40 69 41 25 43 57 44
REMARK SMILES IDX 37 45 56 46 38 47 41 48 55 49 74 50 39 51 40 52 54 54 75 55
REMARK SMILES IDX 42 56 26 57 27 58 35 59 28 60 34 61 36 62 33 63 29 64 30 65
REMARK SMILES IDX 31 66 32 67 58 68 59 69 67 70 60 71 66 72 68 73 65 74 61 75
REMARK SMILES IDX 62 76 63 77 64 78 43 79 44 80 52 81 45 82 51 83 53 84 50 85
REMARK SMILES IDX 46 86 47 87 48 88 49 89
REMARK H PARENT 73 42 41 53
REMARK Flexibility Score: inf
ROOT
ATOM      1  C   UNL A   1      32.007  29.523  26.752  1.00  0.00     0.202 C 
ENDROOT
BRANCH   1   2
ATOM      2  C   UNL A   1      33.426  28.963  26.852  1.00  0.00     0.261 C 
BRANCH   2   3
ATOM      3  O   UNL A   1      33.963  28.601  25.571  1.00  0.00    -0.463 OA
BRANCH   3   4
ATOM      4  C   UNL A   1      33.537  27.426  25.042  1.00  0.00     0.305 C 
ATOM      5  O   UNL A   1      33.110  27.280  23.903  1.00  0.00    -0.252 OA
BRANCH   4   6
ATOM      6  C   UNL A   1      33.759  26.252  25.971  1.00  0.00     0.124 C 
BRANCH   6   7
ATOM      7  C   UNL A   1      33.103  24.921  25.609  1.00  0.00     0.033 C 
BRANCH   7   8
ATOM      8  C   UNL A   1      33.956  23.888  24.855  1.00  0.00     0.120 C 
BRANCH   8   9
ATOM      9  N   UNL A   1      34.266  22.660  25.588  1.00  0.00    -0.339 N 
ATOM     10  C   UNL A   1      33.575  22.478  26.856  1.00  0.00     0.147 C 
BRANCH   9  11
ATOM     11  C   UNL A   1      34.874  21.519  25.043  1.00  0.00     0.289 C 
ATOM     12  O   UNL A   1      36.079  21.513  24.783  1.00  0.00    -0.265 OA
BRANCH  11  13
ATOM     13  C   UNL A   1      34.055  20.385  24.679  1.00  0.00     0.193 A 
ATOM     14  C   UNL A   1      32.779  20.362  24.148  1.00  0.00     0.057 A 
ATOM     15  O   UNL A   1      34.589  19.124  24.648  1.00  0.00    -0.444 OA
ATOM     16  C   UNL A   1      32.512  19.025  23.779  1.00  0.00     0.059 A 
ATOM     17  C   UNL A   1      33.655  18.314  24.071  1.00  0.00     0.170 A 
ATOM     18  Br  UNL A   1      33.893  16.498  23.711  1.00  0.00    -0.008 Br
ENDBRANCH  11  13
ENDBRANCH   9  11
ENDBRANCH   8   9
ENDBRANCH   7   8
ENDBRANCH   6   7
ENDBRANCH   4   6
ENDBRANCH   3   4
ENDBRANCH   2   3
ENDBRANCH   1   2
BRANCH   1  19
ATOM     19  O   UNL A   1      31.783  30.634  25.888  1.00  0.00    -0.374 OA
BRANCH  19  20
ATOM     20  C   UNL A   1      31.116  31.782  26.395  1.00  0.00     0.202 C 
BRANCH  20  21
ATOM     21  C   UNL A   1      31.909  33.074  26.650  1.00  0.00     0.261 C 
BRANCH  21  22
ATOM     22  O   UNL A   1      32.333  33.276  28.009  1.00  0.00    -0.460 OA
BRANCH  22  23
ATOM     23  C   UNL A   1      33.449  34.039  28.121  1.00  0.00     0.338 C 
ATOM     24  O   UNL A   1      33.491  35.263  28.208  1.00  0.00    -0.246 OA
BRANCH  23  25
ATOM     25  C   UNL A   1      34.651  33.210  28.287  1.00  0.00     0.060 A 
ATOM     26  C   UNL A   1      34.481  31.924  28.816  1.00  0.00     0.016 A 
ATOM     27  C   UNL A   1      35.931  33.735  28.089  1.00  0.00     0.016 A 
ATOM     28  C   UNL A   1      35.589  31.180  29.211  1.00  0.00     0.010 A 
ATOM     29  C   UNL A   1      37.043  32.988  28.496  1.00  0.00     0.010 A 
ATOM     30  C   UNL A   1      36.872  31.730  29.103  1.00  0.00    -0.014 A 
BRANCH  30  31
ATOM     31  C   UNL A   1      37.996  31.067  29.810  1.00  0.00     0.031 A 
ATOM     32  C   UNL A   1      38.253  31.423  31.250  1.00  0.00     0.074 A 
ATOM     33  C   UNL A   1      38.728  30.116  29.204  1.00  0.00     0.049 A 
ATOM     34  N   UNL A   1      39.178  30.985  32.065  1.00  0.00    -0.248 NA
ATOM     35  C   UNL A   1      37.342  32.410  31.848  1.00  0.00     0.031 C 
ATOM     36  C   UNL A   1      38.525  29.643  27.836  1.00  0.00     0.029 A 
ATOM     37  N   UNL A   1      39.786  29.377  29.665  1.00  0.00    -0.354 N 
ATOM     38  C   UNL A   1      38.962  31.644  33.273  1.00  0.00     0.074 A 
ATOM     39  C   UNL A   1      37.847  32.544  33.064  1.00  0.00     0.031 C 
ATOM     40  C   UNL A   1      39.433  28.691  27.567  1.00  0.00     0.029 A 
ATOM     41  C   UNL A   1      40.305  28.516  28.727  1.00  0.00     0.049 A 
ATOM     42  H   UNL A   1      40.141  29.454  30.580  1.00  0.00     0.167 HD
ATOM     43  C   UNL A   1      39.627  31.503  34.447  1.00  0.00     0.034 A 
ATOM     44  C   UNL A   1      41.375  27.699  28.793  1.00  0.00     0.034 A 
ATOM     45  C   UNL A   1      40.746  30.610  34.630  1.00  0.00     0.049 A 
ATOM     46  C   UNL A   1      42.166  27.632  30.077  1.00  0.00     0.074 A 
ATOM     47  C   UNL A   1      41.493  30.383  35.772  1.00  0.00     0.029 A 
ATOM     48  N   UNL A   1      41.289  29.803  33.636  1.00  0.00    -0.354 N 
ATOM     49  N   UNL A   1      41.961  28.266  31.210  1.00  0.00    -0.248 NA
ATOM     50  C   UNL A   1      43.328  26.736  30.092  1.00  0.00     0.031 C 
ATOM     51  C   UNL A   1      42.532  29.501  35.449  1.00  0.00     0.029 A 
ATOM     52  C   UNL A   1      42.384  29.109  34.128  1.00  0.00     0.049 A 
ATOM     53  H   UNL A   1      40.945  29.735  32.715  1.00  0.00     0.167 HD
ATOM     54  C   UNL A   1      42.951  27.818  32.082  1.00  0.00     0.074 A 
ATOM     55  C   UNL A   1      43.744  26.855  31.345  1.00  0.00     0.031 C 
ATOM     56  C   UNL A   1      43.177  28.163  33.375  1.00  0.00     0.034 A 
BRANCH  43  57
ATOM     57  C   UNL A   1      39.191  32.384  35.596  1.00  0.00     0.023 A 
ATOM     58  C   UNL A   1      39.588  33.730  35.694  1.00  0.00     0.031 A 
ATOM     59  C   UNL A   1      38.413  31.853  36.641  1.00  0.00     0.131 A 
ATOM     60  C   UNL A   1      39.282  34.469  36.847  1.00  0.00     0.055 A 
ATOM     61  C   UNL A   1      38.037  32.621  37.745  1.00  0.00     0.041 A 
ATOM     62  F   UNL A   1      38.023  30.569  36.618  1.00  0.00    -0.206 F 
ATOM     63  C   UNL A   1      38.487  33.932  37.862  1.00  0.00     0.022 A 
BRANCH  60  64
ATOM     64  S   UNL A   1      40.081  36.083  37.079  1.00  0.00     0.124 S 
ATOM     65  O   UNL A   1      39.861  36.710  35.778  1.00  0.00    -0.237 OA
ATOM     66  O   UNL A   1      39.334  36.646  38.196  1.00  0.00    -0.237 OA
ATOM     67  O   UNL A   1      41.472  35.737  37.367  1.00  0.00    -0.744 OA
ENDBRANCH  60  64
ENDBRANCH  43  57
BRANCH  44  68
ATOM     68  C   UNL A   1      41.786  26.904  27.601  1.00  0.00     0.023 A 
ATOM     69  C   UNL A   1      41.545  25.524  27.527  1.00  0.00     0.031 A 
ATOM     70  C   UNL A   1      42.463  27.515  26.529  1.00  0.00     0.131 A 
ATOM     71  C   UNL A   1      42.008  24.792  26.423  1.00  0.00     0.055 A 
ATOM     72  C   UNL A   1      42.875  26.791  25.408  1.00  0.00     0.041 A 
ATOM     73  F   UNL A   1      42.720  28.832  26.550  1.00  0.00    -0.206 F 
ATOM     74  C   UNL A   1      42.657  25.419  25.356  1.00  0.00     0.022 A 
BRANCH  71  75
ATOM     75  S   UNL A   1      41.808  22.989  26.428  1.00  0.00     0.124 S 
ATOM     76  O   UNL A   1      42.579  22.609  27.606  1.00  0.00    -0.237 OA
ATOM     77  O   UNL A   1      40.360  22.846  26.534  1.00  0.00    -0.237 OA
ATOM     78  O   UNL A   1      42.380  22.579  25.147  1.00  0.00    -0.744 OA
ENDBRANCH  71  75
ENDBRANCH  44  68
BRANCH  56  79
ATOM     79  C   UNL A   1      44.306  27.455  34.088  1.00  0.00     0.023 A 
ATOM     80  C   UNL A   1      44.098  26.269  34.814  1.00  0.00     0.031 A 
ATOM     81  C   UNL A   1      45.609  27.985  34.047  1.00  0.00     0.131 A 
ATOM     82  C   UNL A   1      45.164  25.684  35.516  1.00  0.00     0.055 A 
ATOM     83  C   UNL A   1      46.676  27.363  34.694  1.00  0.00     0.041 A 
ATOM     84  F   UNL A   1      45.864  29.116  33.371  1.00  0.00    -0.206 F 
ATOM     85  C   UNL A   1      46.455  26.213  35.446  1.00  0.00     0.022 A 
BRANCH  82  86
ATOM     86  S   UNL A   1      44.822  24.270  36.601  1.00  0.00     0.124 S 
ATOM     87  O   UNL A   1      43.990  23.428  35.748  1.00  0.00    -0.237 OA
ATOM     88  O   UNL A   1      46.160  23.763  36.886  1.00  0.00    -0.237 OA
ATOM     89  O   UNL A   1      44.131  24.872  37.740  1.00  0.00    -0.744 OA
ENDBRANCH  82  86
ENDBRANCH  56  79
ENDBRANCH  30  31
ENDBRANCH  23  25
ENDBRANCH  22  23
ENDBRANCH  21  22
ENDBRANCH  20  21
ENDBRANCH  19  20
ENDBRANCH   1  19
TORSDOF 22
ENDMDL
MODEL 2
REMARK VINA RESULT:      -9.7      5.019     10.842
REMARK SMILES CN(CCCC(=O)OCCOCCOC(=O)c1ccc(-c2c3nc(c(-c4cc(S(=O)(=O)[O-])ccc4F)c4ccc([nH]4)c(-c4cc(S(=O)(=O)[O-])ccc4F)c4nc(c(-c5cc(S(=O)(=O)[O-])ccc5F)c5ccc2[nH]5)C=C4)C=C3)cc1)C(=O)c1ccc(Br)o1
REMARK SMILES IDX 10 1 9 2 8 3 6 4 7 5 5 6 4 7 3 8 2 9 1 10 80 11 81 12 82 13
REMARK SMILES IDX 83 14 87 15 84 16 85 17 86 18 11 19 12 20 13 21 14 22 15 23
REMARK SMILES IDX 16 24 17 25 18 26 79 27 19 28 78 29 20 30 21 31 22 32 72 33
REMARK SMILES IDX 23 34 77 35 71 36 73 37 24 38 76 39 70 40 69 41 25 43 57 44
REMARK SMILES IDX 37 45 56 46 38 47 41 48 55 49 74 50 39 51 40 52 54 54 75 55
REMARK SMILES IDX 42 56 26 57 27 58 35 59 28 60 34 61 36 62 33 63 29 64 30 65
REMARK SMILES IDX 31 66 32 67 58 68 59 69 67 70 60 71 66 72 68 73 65 74 61 75
REMARK SMILES IDX 62 76 63 77 64 78 43 79 44 80 52 81 45 82 51 83 53 84 50 85
REMARK SMILES IDX 46 86 47 87 48 88 49 89
REMARK H PARENT 73 42 41 53
REMARK Flexibility Score: inf
ROOT
ATOM      1  C   UNL A   1      35.434  21.651  26.016  1.00  0.00     0.202 C 
ENDROOT
BRANCH   1   2
ATOM      2  C   UNL A   1      34.313  20.886  25.313  1.00  0.00     0.261 C 
BRANCH   2   3
ATOM      3  O   UNL A   1      33.724  21.640  24.244  1.00  0.00    -0.463 OA
BRANCH   3   4
ATOM      4  C   UNL A   1      32.377  21.801  24.281  1.00  0.00     0.305 C 
ATOM      5  O   UNL A   1      31.656  21.492  25.223  1.00  0.00    -0.252 OA
BRANCH   4   6
ATOM      6  C   UNL A   1      31.842  22.530  23.068  1.00  0.00     0.124 C 
BRANCH   6   7
ATOM      7  C   UNL A   1      32.160  24.018  22.931  1.00  0.00     0.033 C 
BRANCH   7   8
ATOM      8  C   UNL A   1      31.967  24.906  24.170  1.00  0.00     0.120 C 
BRANCH   8   9
ATOM      9  N   UNL A   1      33.120  25.718  24.559  1.00  0.00    -0.339 N 
ATOM     10  C   UNL A   1      34.377  25.005  24.734  1.00  0.00     0.147 C 
BRANCH   9  11
ATOM     11  C   UNL A   1      33.210  27.113  24.442  1.00  0.00     0.289 C 
ATOM     12  O   UNL A   1      33.932  27.627  23.586  1.00  0.00    -0.265 OA
BRANCH  11  13
ATOM     13  C   UNL A   1      32.537  27.949  25.411  1.00  0.00     0.193 A 
ATOM     14  C   UNL A   1      32.199  27.671  26.722  1.00  0.00     0.057 A 
ATOM     15  O   UNL A   1      32.322  29.277  25.152  1.00  0.00    -0.444 OA
ATOM     16  C   UNL A   1      31.751  28.882  27.296  1.00  0.00     0.059 A 
ATOM     17  C   UNL A   1      31.876  29.838  26.312  1.00  0.00     0.170 A 
ATOM     18  Br  UNL A   1      31.498  31.651  26.545  1.00  0.00    -0.008 Br
ENDBRANCH  11  13
ENDBRANCH   9  11
ENDBRANCH   8   9
ENDBRANCH   7   8
ENDBRANCH   6   7
ENDBRANCH   4   6
ENDBRANCH   3   4
ENDBRANCH   2   3
ENDBRANCH   1   2
BRANCH   1  19
ATOM     19  O   UNL A   1      36.781  21.323  25.687  1.00  0.00    -0.374 OA
BRANCH  19  20
ATOM     20  C   UNL A   1      37.049  20.109  24.997  1.00  0.00     0.202 C 
BRANCH  20  21
ATOM     21  C   UNL A   1      38.476  19.538  24.986  1.00  0.00     0.261 C 
BRANCH  21  22
ATOM     22  O   UNL A   1      39.158  19.564  26.251  1.00  0.00    -0.460 OA
BRANCH  22  23
ATOM     23  C   UNL A   1      40.417  20.063  26.179  1.00  0.00     0.338 C 
ATOM     24  O   UNL A   1      41.359  19.582  25.554  1.00  0.00    -0.246 OA
BRANCH  23  25
ATOM     25  C   UNL A   1      40.512  21.377  26.830  1.00  0.00     0.060 A 
ATOM     26  C   UNL A   1      39.903  22.462  26.186  1.00  0.00     0.016 A 
ATOM     27  C   UNL A   1      41.318  21.577  27.954  1.00  0.00     0.016 A 
ATOM     28  C   UNL A   1      40.149  23.760  26.623  1.00  0.00     0.010 A 
ATOM     29  C   UNL A   1      41.572  22.885  28.385  1.00  0.00     0.010 A 
ATOM     30  C   UNL A   1      41.027  23.981  27.691  1.00  0.00    -0.014 A 
BRANCH  30  31
ATOM     31  C   UNL A   1      41.520  25.359  27.937  1.00  0.00     0.031 A 
ATOM     32  C   UNL A   1      42.901  25.727  27.462  1.00  0.00     0.074 A 
ATOM     33  C   UNL A   1      40.730  26.284  28.508  1.00  0.00     0.049 A 
ATOM     34  N   UNL A   1      43.547  26.859  27.573  1.00  0.00    -0.248 NA
ATOM     35  C   UNL A   1      43.654  24.669  26.771  1.00  0.00     0.031 C 
ATOM     36  C   UNL A   1      39.353  26.059  28.945  1.00  0.00     0.029 A 
ATOM     37  N   UNL A   1      40.972  27.598  28.814  1.00  0.00    -0.354 N 
ATOM     38  C   UNL A   1      44.784  26.651  26.967  1.00  0.00     0.074 A 
ATOM     39  C   UNL A   1      44.809  25.270  26.534  1.00  0.00     0.031 C 
ATOM     40  C   UNL A   1      38.871  27.200  29.465  1.00  0.00     0.029 A 
ATOM     41  C   UNL A   1      39.916  28.222  29.434  1.00  0.00     0.049 A 
ATOM     42  H   UNL A   1      41.820  28.053  28.607  1.00  0.00     0.167 HD
ATOM     43  C   UNL A   1      45.797  27.534  26.781  1.00  0.00     0.034 A 
ATOM     44  C   UNL A   1      39.816  29.467  29.940  1.00  0.00     0.034 A 
ATOM     45  C   UNL A   1      45.756  28.904  27.234  1.00  0.00     0.049 A 
ATOM     46  C   UNL A   1      40.993  30.404  29.816  1.00  0.00     0.074 A 
ATOM     47  C   UNL A   1      46.721  29.887  27.101  1.00  0.00     0.029 A 
ATOM     48  N   UNL A   1      44.696  29.482  27.923  1.00  0.00    -0.354 N 
ATOM     49  N   UNL A   1      42.161  30.195  29.250  1.00  0.00    -0.248 NA
ATOM     50  C   UNL A   1      40.835  31.745  30.393  1.00  0.00     0.031 C 
ATOM     51  C   UNL A   1      46.277  31.032  27.774  1.00  0.00     0.029 A 
ATOM     52  C   UNL A   1      44.999  30.794  28.255  1.00  0.00     0.049 A 
ATOM     53  H   UNL A   1      43.851  29.025  28.144  1.00  0.00     0.167 HD
ATOM     54  C   UNL A   1      42.863  31.392  29.376  1.00  0.00     0.074 A 
ATOM     55  C   UNL A   1      41.984  32.317  30.062  1.00  0.00     0.031 C 
ATOM     56  C   UNL A   1      44.117  31.700  28.955  1.00  0.00     0.034 A 
BRANCH  43  57
ATOM     57  C   UNL A   1      47.051  27.014  26.114  1.00  0.00     0.023 A 
ATOM     58  C   UNL A   1      48.051  26.337  26.836  1.00  0.00     0.031 A 
ATOM     59  C   UNL A   1      47.276  27.251  24.746  1.00  0.00     0.131 A 
ATOM     60  C   UNL A   1      49.260  26.000  26.209  1.00  0.00     0.055 A 
ATOM     61  C   UNL A   1      48.445  26.833  24.108  1.00  0.00     0.041 A 
ATOM     62  F   UNL A   1      46.371  27.913  24.009  1.00  0.00    -0.206 F 
ATOM     63  C   UNL A   1      49.455  26.221  24.844  1.00  0.00     0.022 A 
BRANCH  60  64
ATOM     64  S   UNL A   1      50.640  25.427  27.240  1.00  0.00     0.124 S 
ATOM     65  O   UNL A   1      50.798  26.543  28.168  1.00  0.00    -0.237 OA
ATOM     66  O   UNL A   1      50.118  24.190  27.807  1.00  0.00    -0.237 OA
ATOM     67  O   UNL A   1      51.735  25.263  26.285  1.00  0.00    -0.744 OA
ENDBRANCH  60  64
ENDBRANCH  43  57
BRANCH  44  68
ATOM     68  C   UNL A   1      38.571  29.894  30.641  1.00  0.00     0.023 A 
ATOM     69  C   UNL A   1      37.592  30.658  29.987  1.00  0.00     0.031 A 
ATOM     70  C   UNL A   1      38.362  29.571  31.994  1.00  0.00     0.131 A 
ATOM     71  C   UNL A   1      36.465  31.104  30.695  1.00  0.00     0.055 A 
ATOM     72  C   UNL A   1      37.214  29.973  32.680  1.00  0.00     0.041 A 
ATOM     73  F   UNL A   1      39.268  28.845  32.667  1.00  0.00    -0.206 F 
ATOM     74  C   UNL A   1      36.263  30.753  32.033  1.00  0.00     0.022 A 
BRANCH  71  75
ATOM     75  S   UNL A   1      35.293  32.208  29.860  1.00  0.00     0.124 S 
ATOM     76  O   UNL A   1      36.183  33.232  29.323  1.00  0.00    -0.237 OA
ATOM     77  O   UNL A   1      34.678  31.315  28.885  1.00  0.00    -0.237 OA
ATOM     78  O   UNL A   1      34.413  32.649  30.940  1.00  0.00    -0.744 OA
ENDBRANCH  71  75
ENDBRANCH  44  68
BRANCH  56  79
ATOM     79  C   UNL A   1      44.590  33.116  29.187  1.00  0.00     0.023 A 
ATOM     80  C   UNL A   1      44.490  34.106  28.192  1.00  0.00     0.031 A 
ATOM     81  C   UNL A   1      45.161  33.477  30.421  1.00  0.00     0.131 A 
ATOM     82  C   UNL A   1      45.005  35.390  28.429  1.00  0.00     0.055 A 
ATOM     83  C   UNL A   1      45.613  34.772  30.672  1.00  0.00     0.041 A 
ATOM     84  F   UNL A   1      45.284  32.573  31.405  1.00  0.00    -0.206 F 
ATOM     85  C   UNL A   1      45.549  35.734  29.669  1.00  0.00     0.022 A 
BRANCH  82  86
ATOM     86  S   UNL A   1      45.040  36.582  27.062  1.00  0.00     0.124 S 
ATOM     87  O   UNL A   1      43.618  36.808  26.821  1.00  0.00    -0.237 OA
ATOM     88  O   UNL A   1      45.774  37.702  27.641  1.00  0.00    -0.237 OA
ATOM     89  O   UNL A   1      45.741  35.864  25.999  1.00  0.00    -0.744 OA
ENDBRANCH  82  86
ENDBRANCH  56  79
ENDBRANCH  30  31
ENDBRANCH  23  25
ENDBRANCH  22  23
ENDBRANCH  21  22
ENDBRANCH  20  21
ENDBRANCH  19  20
ENDBRANCH   1  19
TORSDOF 22
ENDMDL
MODEL 3
REMARK VINA RESULT:      -9.7      5.198     10.804
REMARK SMILES CN(CCCC(=O)OCCOCCOC(=O)c1ccc(-c2c3nc(c(-c4cc(S(=O)(=O)[O-])ccc4F)c4ccc([nH]4)c(-c4cc(S(=O)(=O)[O-])ccc4F)c4nc(c(-c5cc(S(=O)(=O)[O-])ccc5F)c5ccc2[nH]5)C=C4)C=C3)cc1)C(=O)c1ccc(Br)o1
REMARK SMILES IDX 10 1 9 2 8 3 6 4 7 5 5 6 4 7 3 8 2 9 1 10 80 11 81 12 82 13
REMARK SMILES IDX 83 14 87 15 84 16 85 17 86 18 11 19 12 20 13 21 14 22 15 23
REMARK SMILES IDX 16 24 17 25 18 26 79 27 19 28 78 29 20 30 21 31 22 32 72 33
REMARK SMILES IDX 23 34 77 35 71 36 73 37 24 38 76 39 70 40 69 41 25 43 57 44
REMARK SMILES IDX 37 45 56 46 38 47 41 48 55 49 74 50 39 51 40 52 54 54 75 55
REMARK SMILES IDX 42 56 26 57 27 58 35 59 28 60 34 61 36 62 33 63 29 64 30 65
REMARK SMILES IDX 31 66 32 67 58 68 59 69 67 70 60 71 66 72 68 73 65 74 61 75
REMARK SMILES IDX 62 76 63 77 64 78 43 79 44 80 52 81 45 82 51 83 53 84 50 85
REMARK SMILES IDX 46 86 47 87 48 88 49 89
REMARK H PARENT 73 42 41 53
REMARK Flexibility Score: inf
ROOT
ATOM      1  C   UNL A   1      35.802  21.485  25.382  1.00  0.00     0.202 C 
ENDROOT
BRANCH   1   2
ATOM      2  C   UNL A   1      34.825  21.797  26.515  1.00  0.00     0.261 C 
BRANCH   2   3
ATOM      3  O   UNL A   1      33.455  21.645  26.114  1.00  0.00    -0.463 OA
BRANCH   3   4
ATOM      4  C   UNL A   1      32.533  22.353  26.814  1.00  0.00     0.305 C 
ATOM      5  O   UNL A   1      32.664  22.730  27.972  1.00  0.00    -0.252 OA
BRANCH   4   6
ATOM      6  C   UNL A   1      31.342  22.754  25.971  1.00  0.00     0.124 C 
BRANCH   6   7
ATOM      7  C   UNL A   1      31.593  23.130  24.511  1.00  0.00     0.033 C 
BRANCH   7   8
ATOM      8  C   UNL A   1      32.436  24.383  24.233  1.00  0.00     0.120 C 
BRANCH   8   9
ATOM      9  N   UNL A   1      32.882  24.558  22.850  1.00  0.00    -0.339 N 
ATOM     10  C   UNL A   1      33.080  23.339  22.080  1.00  0.00     0.147 C 
BRANCH   9  11
ATOM     11  C   UNL A   1      32.803  25.750  22.114  1.00  0.00     0.289 C 
ATOM     12  O   UNL A   1      33.406  25.870  21.046  1.00  0.00    -0.265 OA
BRANCH  11  13
ATOM     13  C   UNL A   1      32.103  26.884  22.675  1.00  0.00     0.193 A 
ATOM     14  C   UNL A   1      32.612  27.994  23.323  1.00  0.00     0.057 A 
ATOM     15  O   UNL A   1      30.769  27.068  22.428  1.00  0.00    -0.444 OA
ATOM     16  C   UNL A   1      31.541  28.901  23.487  1.00  0.00     0.059 A 
ATOM     17  C   UNL A   1      30.447  28.308  22.897  1.00  0.00     0.170 A 
ATOM     18  Br  UNL A   1      28.764  29.102  22.749  1.00  0.00    -0.008 Br
ENDBRANCH  11  13
ENDBRANCH   9  11
ENDBRANCH   8   9
ENDBRANCH   7   8
ENDBRANCH   6   7
ENDBRANCH   4   6
ENDBRANCH   3   4
ENDBRANCH   2   3
ENDBRANCH   1   2
BRANCH   1  19
ATOM     19  O   UNL A   1      37.182  21.344  25.705  1.00  0.00    -0.374 OA
BRANCH  19  20
ATOM     20  C   UNL A   1      38.015  20.559  24.862  1.00  0.00     0.202 C 
BRANCH  20  21
ATOM     21  C   UNL A   1      38.988  19.544  25.483  1.00  0.00     0.261 C 
BRANCH  21  22
ATOM     22  O   UNL A   1      39.655  19.984  26.678  1.00  0.00    -0.460 OA
BRANCH  22  23
ATOM     23  C   UNL A   1      40.836  20.607  26.441  1.00  0.00     0.338 C 
ATOM     24  O   UNL A   1      41.722  20.229  25.679  1.00  0.00    -0.246 OA
BRANCH  23  25
ATOM     25  C   UNL A   1      40.894  21.917  27.104  1.00  0.00     0.060 A 
ATOM     26  C   UNL A   1      40.211  22.979  26.496  1.00  0.00     0.016 A 
ATOM     27  C   UNL A   1      41.731  22.144  28.200  1.00  0.00     0.016 A 
ATOM     28  C   UNL A   1      40.412  24.283  26.939  1.00  0.00     0.010 A 
ATOM     29  C   UNL A   1      41.939  23.458  28.637  1.00  0.00     0.010 A 
ATOM     30  C   UNL A   1      41.318  24.534  27.976  1.00  0.00    -0.014 A 
BRANCH  30  31
ATOM     31  C   UNL A   1      41.755  25.932  28.221  1.00  0.00     0.031 A 
ATOM     32  C   UNL A   1      43.121  26.354  27.746  1.00  0.00     0.074 A 
ATOM     33  C   UNL A   1      40.928  26.824  28.790  1.00  0.00     0.049 A 
ATOM     34  N   UNL A   1      43.720  27.511  27.856  1.00  0.00    -0.248 NA
ATOM     35  C   UNL A   1      43.916  25.326  27.057  1.00  0.00     0.031 C 
ATOM     36  C   UNL A   1      39.561  26.545  29.226  1.00  0.00     0.029 A 
ATOM     37  N   UNL A   1      41.116  28.147  29.094  1.00  0.00    -0.354 N 
ATOM     38  C   UNL A   1      44.965  27.352  27.251  1.00  0.00     0.074 A 
ATOM     39  C   UNL A   1      45.046  25.972  26.820  1.00  0.00     0.031 C 
ATOM     40  C   UNL A   1      39.033  27.666  29.744  1.00  0.00     0.029 A 
ATOM     41  C   UNL A   1      40.036  28.730  29.713  1.00  0.00     0.049 A 
ATOM     42  H   UNL A   1      41.946  28.636  28.887  1.00  0.00     0.167 HD
ATOM     43  C   UNL A   1      45.942  28.275  27.065  1.00  0.00     0.034 A 
ATOM     44  C   UNL A   1      39.885  29.970  30.217  1.00  0.00     0.034 A 
ATOM     45  C   UNL A   1      45.846  29.642  27.516  1.00  0.00     0.049 A 
ATOM     46  C   UNL A   1      41.024  30.954  30.092  1.00  0.00     0.074 A 
ATOM     47  C   UNL A   1      46.770  30.663  27.382  1.00  0.00     0.029 A 
ATOM     48  N   UNL A   1      44.762  30.178  28.203  1.00  0.00    -0.354 N 
ATOM     49  N   UNL A   1      42.199  30.791  29.527  1.00  0.00    -0.248 NA
ATOM     50  C   UNL A   1      40.811  32.288  30.666  1.00  0.00     0.031 C 
ATOM     51  C   UNL A   1      46.280  31.791  28.053  1.00  0.00     0.029 A 
ATOM     52  C   UNL A   1      45.012  31.502  28.533  1.00  0.00     0.049 A 
ATOM     53  H   UNL A   1      43.937  29.688  28.424  1.00  0.00     0.167 HD
ATOM     54  C   UNL A   1      42.853  32.015  29.651  1.00  0.00     0.074 A 
ATOM     55  C   UNL A   1      41.936  32.905  30.335  1.00  0.00     0.031 C 
ATOM     56  C   UNL A   1      44.094  32.373  29.231  1.00  0.00     0.034 A 
BRANCH  43  57
ATOM     57  C   UNL A   1      47.216  27.805  26.399  1.00  0.00     0.023 A 
ATOM     58  C   UNL A   1      47.433  27.955  25.017  1.00  0.00     0.031 A 
ATOM     59  C   UNL A   1      48.204  27.143  27.150  1.00  0.00     0.131 A 
ATOM     60  C   UNL A   1      48.563  27.377  24.419  1.00  0.00     0.055 A 
ATOM     61  C   UNL A   1      49.370  26.648  26.561  1.00  0.00     0.041 A 
ATOM     62  F   UNL A   1      48.045  26.947  28.468  1.00  0.00    -0.206 F 
ATOM     63  C   UNL A   1      49.545  26.747  25.184  1.00  0.00     0.022 A 
BRANCH  60  64
ATOM     64  S   UNL A   1      48.644  27.310  22.606  1.00  0.00     0.124 S 
ATOM     65  O   UNL A   1      47.557  28.211  22.229  1.00  0.00    -0.237 OA
ATOM     66  O   UNL A   1      49.994  27.786  22.333  1.00  0.00    -0.237 OA
ATOM     67  O   UNL A   1      48.405  25.900  22.305  1.00  0.00    -0.744 OA
ENDBRANCH  60  64
ENDBRANCH  43  57
BRANCH  44  68
ATOM     68  C   UNL A   1      38.623  30.348  30.915  1.00  0.00     0.023 A 
ATOM     69  C   UNL A   1      37.610  31.061  30.257  1.00  0.00     0.031 A 
ATOM     70  C   UNL A   1      38.431  30.028  32.272  1.00  0.00     0.131 A 
ATOM     71  C   UNL A   1      36.466  31.463  30.963  1.00  0.00     0.055 A 
ATOM     72  C   UNL A   1      37.267  30.384  32.957  1.00  0.00     0.041 A 
ATOM     73  F   UNL A   1      39.370  29.348  32.950  1.00  0.00    -0.206 F 
ATOM     74  C   UNL A   1      36.282  31.116  32.304  1.00  0.00     0.022 A 
BRANCH  71  75
ATOM     75  S   UNL A   1      35.245  32.507  30.121  1.00  0.00     0.124 S 
ATOM     76  O   UNL A   1      34.901  31.686  28.965  1.00  0.00    -0.237 OA
ATOM     77  O   UNL A   1      34.211  32.647  31.140  1.00  0.00    -0.237 OA
ATOM     78  O   UNL A   1      35.990  33.728  29.821  1.00  0.00    -0.744 OA
ENDBRANCH  71  75
ENDBRANCH  44  68
BRANCH  56  79
ATOM     79  C   UNL A   1      44.509  33.808  29.461  1.00  0.00     0.023 A 
ATOM     80  C   UNL A   1      44.035  34.858  28.654  1.00  0.00     0.031 A 
ATOM     81  C   UNL A   1      45.405  34.126  30.498  1.00  0.00     0.131 A 
ATOM     82  C   UNL A   1      44.501  36.165  28.862  1.00  0.00     0.055 A 
ATOM     83  C   UNL A   1      45.816  35.436  30.740  1.00  0.00     0.041 A 
ATOM     84  F   UNL A   1      45.892  33.163  31.297  1.00  0.00    -0.206 F 
ATOM     85  C   UNL A   1      45.374  36.463  29.911  1.00  0.00     0.022 A 
BRANCH  82  86
ATOM     86  S   UNL A   1      44.024  37.459  27.684  1.00  0.00     0.124 S 
ATOM     87  O   UNL A   1      43.457  36.678  26.589  1.00  0.00    -0.237 OA
ATOM     88  O   UNL A   1      43.076  38.253  28.457  1.00  0.00    -0.237 OA
ATOM     89  O   UNL A   1      45.288  38.127  27.378  1.00  0.00    -0.744 OA
ENDBRANCH  82  86
ENDBRANCH  56  79
ENDBRANCH  30  31
ENDBRANCH  23  25
ENDBRANCH  22  23
ENDBRANCH  21  22
ENDBRANCH  20  21
ENDBRANCH  19  20
ENDBRANCH   1  19
TORSDOF 22
ENDMDL
