MODEL 1
REMARK VINA RESULT:     -11.3      0.000      0.000
REMARK SMILES CSc1ccc(/C=C2\C(C)=C(CC(=O)OCCOCCOC(=O)c3ccc(-c4c5nc(c(-c6cc(S(=O)(=O)[O-])ccc6F)c6ccc([nH]6)c(-c6cc(S(=O)(=O)[O-])ccc6F)c6nc(c(-c7cc(S(=O)(=O)[O-])ccc7F)c7ccc4[nH]7)C=C6)C=C5)cc3)c3cc(F)ccc32)cc1
REMARK SMILES IDX 18 1 17 2 16 3 15 4 13 5 14 6 12 7 11 8 7 9 8 10 9 11 93 12
REMARK SMILES IDX 10 13 87 14 92 15 88 16 91 17 89 18 90 19 6 20 3 21 4 22
REMARK SMILES IDX 95 23 5 24 94 25 2 26 1 27 19 28 20 29 21 30 22 31 23 32
REMARK SMILES IDX 24 33 25 34 86 35 26 36 85 37 27 38 28 39 29 40 79 41 30 42
REMARK SMILES IDX 84 43 78 44 80 45 31 46 83 47 77 48 76 49 32 51 64 52 44 53
REMARK SMILES IDX 63 54 45 55 48 56 62 57 81 58 46 59 47 60 61 62 82 63 49 64
REMARK SMILES IDX 33 65 34 66 42 67 35 68 41 69 43 70 40 71 36 72 37 73 38 74
REMARK SMILES IDX 39 75 65 76 66 77 74 78 67 79 73 80 75 81 72 82 68 83 69 84
REMARK SMILES IDX 70 85 71 86 50 87 51 88 59 89 52 90 58 91 60 92 57 93 53 94
REMARK SMILES IDX 54 95 55 96 56 97
REMARK H PARENT 80 50 48 61
REMARK Flexibility Score: inf
ROOT
ATOM      1  O   UNL A   1      39.009  21.927  26.714  1.00  0.00    -0.374 OA
ENDROOT
BRANCH   1   2
ATOM      2  C   UNL A   1      39.438  23.270  26.491  1.00  0.00     0.202 C 
BRANCH   2   3
ATOM      3  C   UNL A   1      38.323  24.310  26.395  1.00  0.00     0.261 C 
BRANCH   3   4
ATOM      4  O   UNL A   1      37.023  23.705  26.333  1.00  0.00    -0.463 OA
BRANCH   4   5
ATOM      5  C   UNL A   1      36.375  23.834  25.148  1.00  0.00     0.310 C 
ATOM      6  O   UNL A   1      36.777  23.407  24.070  1.00  0.00    -0.252 OA
BRANCH   5   7
ATOM      7  C   UNL A   1      35.087  24.616  25.260  1.00  0.00     0.159 C 
BRANCH   7   8
ATOM      8  C   UNL A   1      33.823  23.815  25.598  1.00  0.00    -0.025 C 
ATOM      9  C   UNL A   1      31.900  25.629  23.446  1.00  0.00     0.017 C 
ATOM     10  C   UNL A   1      32.375  24.532  24.068  1.00  0.00    -0.014 C 
ATOM     11  C   UNL A   1      32.580  24.373  25.538  1.00  0.00    -0.039 C 
ATOM     12  C   UNL A   1      32.872  23.228  23.516  1.00  0.00    -0.010 A 
ATOM     13  C   UNL A   1      31.377  23.614  26.150  1.00  0.00     0.045 C 
ATOM     14  C   UNL A   1      33.625  22.723  24.603  1.00  0.00    -0.011 A 
ATOM     15  C   UNL A   1      32.167  22.345  22.700  1.00  0.00     0.012 A 
ATOM     16  C   UNL A   1      33.565  21.387  24.967  1.00  0.00     0.048 A 
ATOM     17  C   UNL A   1      32.140  20.982  23.057  1.00  0.00     0.040 A 
ATOM     18  C   UNL A   1      32.803  20.527  24.200  1.00  0.00     0.123 A 
ATOM     19  F   UNL A   1      32.579  19.286  24.653  1.00  0.00    -0.207 F 
BRANCH   9  20
ATOM     20  C   UNL A   1      30.964  26.651  24.027  1.00  0.00    -0.025 A 
ATOM     21  C   UNL A   1      29.176  28.621  23.184  1.00  0.00     0.007 A 
ATOM     22  C   UNL A   1      28.709  27.353  23.487  1.00  0.00     0.015 A 
ATOM     23  C   UNL A   1      30.458  28.980  23.604  1.00  0.00     0.015 A 
ATOM     24  C   UNL A   1      29.588  26.419  24.022  1.00  0.00     0.009 A 
ATOM     25  C   UNL A   1      31.364  27.989  24.012  1.00  0.00     0.009 A 
BRANCH  21  26
ATOM     26  S   UNL A   1      28.186  29.708  22.185  1.00  0.00    -0.130 SA
ATOM     27  C   UNL A   1      27.767  30.939  23.465  1.00  0.00     0.091 C 
ENDBRANCH  21  26
ENDBRANCH   9  20
ENDBRANCH   7   8
ENDBRANCH   5   7
ENDBRANCH   4   5
ENDBRANCH   3   4
ENDBRANCH   2   3
ENDBRANCH   1   2
BRANCH   1  28
ATOM     28  C   UNL A   1      39.012  21.047  25.586  1.00  0.00     0.202 C 
BRANCH  28  29
ATOM     29  C   UNL A   1      39.646  19.676  25.843  1.00  0.00     0.261 C 
BRANCH  29  30
ATOM     30  O   UNL A   1      40.719  19.810  26.801  1.00  0.00    -0.460 OA
BRANCH  30  31
ATOM     31  C   UNL A   1      41.947  19.591  26.268  1.00  0.00     0.338 C 
ATOM     32  O   UNL A   1      42.276  18.638  25.587  1.00  0.00    -0.246 OA
BRANCH  31  33
ATOM     33  C   UNL A   1      42.793  20.793  26.416  1.00  0.00     0.060 A 
ATOM     34  C   UNL A   1      42.788  21.414  27.668  1.00  0.00     0.016 A 
ATOM     35  C   UNL A   1      43.429  21.398  25.330  1.00  0.00     0.016 A 
ATOM     36  C   UNL A   1      43.348  22.681  27.820  1.00  0.00     0.010 A 
ATOM     37  C   UNL A   1      44.005  22.671  25.491  1.00  0.00     0.010 A 
ATOM     38  C   UNL A   1      43.922  23.345  26.725  1.00  0.00    -0.014 A 
BRANCH  38  39
ATOM     39  C   UNL A   1      44.297  24.782  26.890  1.00  0.00     0.031 A 
ATOM     40  C   UNL A   1      43.293  25.767  27.441  1.00  0.00     0.074 A 
ATOM     41  C   UNL A   1      45.569  25.180  26.681  1.00  0.00     0.049 A 
ATOM     42  N   UNL A   1      43.458  27.026  27.763  1.00  0.00    -0.248 NA
ATOM     43  C   UNL A   1      41.930  25.267  27.667  1.00  0.00     0.031 C 
ATOM     44  C   UNL A   1      46.648  24.319  26.197  1.00  0.00     0.029 A 
ATOM     45  N   UNL A   1      46.176  26.396  26.877  1.00  0.00    -0.354 N 
ATOM     46  C   UNL A   1      42.225  27.467  28.239  1.00  0.00     0.074 A 
ATOM     47  C   UNL A   1      41.311  26.351  28.114  1.00  0.00     0.031 C 
ATOM     48  C   UNL A   1      47.790  25.024  26.166  1.00  0.00     0.029 A 
ATOM     49  C   UNL A   1      47.521  26.400  26.578  1.00  0.00     0.049 A 
ATOM     50  H   UNL A   1      45.696  27.192  27.203  1.00  0.00     0.167 HD
ATOM     51  C   UNL A   1      41.890  28.679  28.750  1.00  0.00     0.034 A 
ATOM     52  C   UNL A   1      48.430  27.397  26.615  1.00  0.00     0.034 A 
ATOM     53  C   UNL A   1      42.804  29.791  28.867  1.00  0.00     0.049 A 
ATOM     54  C   UNL A   1      48.001  28.767  27.089  1.00  0.00     0.074 A 
ATOM     55  C   UNL A   1      42.559  31.057  29.375  1.00  0.00     0.029 A 
ATOM     56  N   UNL A   1      44.133  29.783  28.465  1.00  0.00    -0.354 N 
ATOM     57  N   UNL A   1      46.833  29.158  27.545  1.00  0.00    -0.248 NA
ATOM     58  C   UNL A   1      49.020  29.825  27.067  1.00  0.00     0.031 C 
ATOM     59  C   UNL A   1      43.706  31.835  29.198  1.00  0.00     0.029 A 
ATOM     60  C   UNL A   1      44.704  31.031  28.674  1.00  0.00     0.049 A 
ATOM     61  H   UNL A   1      44.602  29.005  28.085  1.00  0.00     0.167 HD
ATOM     62  C   UNL A   1      46.994  30.498  27.896  1.00  0.00     0.074 A 
ATOM     63  C   UNL A   1      48.374  30.836  27.626  1.00  0.00     0.031 C 
ATOM     64  C   UNL A   1      46.080  31.370  28.396  1.00  0.00     0.034 A 
BRANCH  51  65
ATOM     65  C   UNL A   1      40.456  28.887  29.185  1.00  0.00     0.023 A 
ATOM     66  C   UNL A   1      40.075  28.837  30.537  1.00  0.00     0.031 A 
ATOM     67  C   UNL A   1      39.458  29.159  28.230  1.00  0.00     0.131 A 
ATOM     68  C   UNL A   1      38.726  28.999  30.890  1.00  0.00     0.055 A 
ATOM     69  C   UNL A   1      38.133  29.400  28.597  1.00  0.00     0.041 A 
ATOM     70  F   UNL A   1      39.756  29.197  26.922  1.00  0.00    -0.206 F 
ATOM     71  C   UNL A   1      37.757  29.309  29.933  1.00  0.00     0.022 A 
BRANCH  68  72
ATOM     72  S   UNL A   1      38.230  28.667  32.603  1.00  0.00     0.124 S 
ATOM     73  O   UNL A   1      36.977  29.412  32.698  1.00  0.00    -0.237 OA
ATOM     74  O   UNL A   1      38.113  27.213  32.620  1.00  0.00    -0.237 OA
ATOM     75  O   UNL A   1      39.332  29.213  33.392  1.00  0.00    -0.744 OA
ENDBRANCH  68  72
ENDBRANCH  51  65
BRANCH  52  76
ATOM     76  C   UNL A   1      49.832  27.170  26.149  1.00  0.00     0.023 A 
ATOM     77  C   UNL A   1      50.218  27.442  24.827  1.00  0.00     0.031 A 
ATOM     78  C   UNL A   1      50.785  26.579  27.001  1.00  0.00     0.131 A 
ATOM     79  C   UNL A   1      51.492  27.060  24.376  1.00  0.00     0.055 A 
ATOM     80  C   UNL A   1      52.076  26.273  26.568  1.00  0.00     0.041 A 
ATOM     81  F   UNL A   1      50.470  26.283  28.272  1.00  0.00    -0.206 F 
ATOM     82  C   UNL A   1      52.429  26.495  25.242  1.00  0.00     0.022 A 
BRANCH  79  83
ATOM     83  S   UNL A   1      51.858  27.182  22.602  1.00  0.00     0.124 S 
ATOM     84  O   UNL A   1      52.821  26.102  22.426  1.00  0.00    -0.237 OA
ATOM     85  O   UNL A   1      50.542  26.973  22.007  1.00  0.00    -0.237 OA
ATOM     86  O   UNL A   1      52.398  28.532  22.459  1.00  0.00    -0.744 OA
ENDBRANCH  79  83
ENDBRANCH  52  76
BRANCH  64  87
ATOM     87  C   UNL A   1      46.566  32.764  28.733  1.00  0.00     0.023 A 
ATOM     88  C   UNL A   1      46.563  33.801  27.783  1.00  0.00     0.031 A 
ATOM     89  C   UNL A   1      47.073  33.049  30.014  1.00  0.00     0.131 A 
ATOM     90  C   UNL A   1      47.131  35.045  28.102  1.00  0.00     0.055 A 
ATOM     91  C   UNL A   1      47.561  34.313  30.350  1.00  0.00     0.041 A 
ATOM     92  F   UNL A   1      47.108  32.100  30.963  1.00  0.00    -0.206 F 
ATOM     93  C   UNL A   1      47.610  35.314  29.385  1.00  0.00     0.022 A 
BRANCH  90  94
ATOM     94  S   UNL A   1      47.359  36.261  26.774  1.00  0.00     0.124 S 
ATOM     95  O   UNL A   1      48.325  35.589  25.911  1.00  0.00    -0.237 OA
ATOM     96  O   UNL A   1      46.010  36.395  26.238  1.00  0.00    -0.237 OA
ATOM     97  O   UNL A   1      47.868  37.440  27.473  1.00  0.00    -0.744 OA
ENDBRANCH  90  94
ENDBRANCH  64  87
ENDBRANCH  38  39
ENDBRANCH  31  33
ENDBRANCH  30  31
ENDBRANCH  29  30
ENDBRANCH  28  29
ENDBRANCH   1  28
TORSDOF 20
ENDMDL
MODEL 2
REMARK VINA RESULT:     -11.2      1.977      3.750
REMARK SMILES CSc1ccc(/C=C2\C(C)=C(CC(=O)OCCOCCOC(=O)c3ccc(-c4c5nc(c(-c6cc(S(=O)(=O)[O-])ccc6F)c6ccc([nH]6)c(-c6cc(S(=O)(=O)[O-])ccc6F)c6nc(c(-c7cc(S(=O)(=O)[O-])ccc7F)c7ccc4[nH]7)C=C6)C=C5)cc3)c3cc(F)ccc32)cc1
REMARK SMILES IDX 18 1 17 2 16 3 15 4 13 5 14 6 12 7 11 8 7 9 8 10 9 11 93 12
REMARK SMILES IDX 10 13 87 14 92 15 88 16 91 17 89 18 90 19 6 20 3 21 4 22
REMARK SMILES IDX 95 23 5 24 94 25 2 26 1 27 19 28 20 29 21 30 22 31 23 32
REMARK SMILES IDX 24 33 25 34 86 35 26 36 85 37 27 38 28 39 29 40 79 41 30 42
REMARK SMILES IDX 84 43 78 44 80 45 31 46 83 47 77 48 76 49 32 51 64 52 44 53
REMARK SMILES IDX 63 54 45 55 48 56 62 57 81 58 46 59 47 60 61 62 82 63 49 64
REMARK SMILES IDX 33 65 34 66 42 67 35 68 41 69 43 70 40 71 36 72 37 73 38 74
REMARK SMILES IDX 39 75 65 76 66 77 74 78 67 79 73 80 75 81 72 82 68 83 69 84
REMARK SMILES IDX 70 85 71 86 50 87 51 88 59 89 52 90 58 91 60 92 57 93 53 94
REMARK SMILES IDX 54 95 55 96 56 97
REMARK H PARENT 80 50 48 61
REMARK Flexibility Score: inf
ROOT
ATOM      1  O   UNL A   1      39.282  21.995  26.873  1.00  0.00    -0.374 OA
ENDROOT
BRANCH   1   2
ATOM      2  C   UNL A   1      39.642  23.358  26.644  1.00  0.00     0.202 C 
BRANCH   2   3
ATOM      3  C   UNL A   1      38.479  24.307  26.361  1.00  0.00     0.261 C 
BRANCH   3   4
ATOM      4  O   UNL A   1      37.216  23.625  26.342  1.00  0.00    -0.463 OA
BRANCH   4   5
ATOM      5  C   UNL A   1      36.405  23.928  25.298  1.00  0.00     0.310 C 
ATOM      6  O   UNL A   1      36.620  23.637  24.125  1.00  0.00    -0.252 OA
BRANCH   5   7
ATOM      7  C   UNL A   1      35.187  24.724  25.705  1.00  0.00     0.159 C 
BRANCH   7   8
ATOM      8  C   UNL A   1      34.012  24.736  24.719  1.00  0.00    -0.025 C 
ATOM      9  C   UNL A   1      33.061  21.572  25.561  1.00  0.00     0.017 C 
ATOM     10  C   UNL A   1      32.914  22.876  25.256  1.00  0.00    -0.014 C 
ATOM     11  C   UNL A   1      33.564  23.595  24.120  1.00  0.00    -0.039 C 
ATOM     12  C   UNL A   1      32.147  23.966  25.948  1.00  0.00    -0.010 A 
ATOM     13  C   UNL A   1      32.572  23.698  22.936  1.00  0.00     0.045 C 
ATOM     14  C   UNL A   1      32.757  25.128  25.418  1.00  0.00    -0.011 A 
ATOM     15  C   UNL A   1      30.782  23.975  26.231  1.00  0.00     0.012 A 
ATOM     16  C   UNL A   1      32.007  26.230  25.037  1.00  0.00     0.048 A 
ATOM     17  C   UNL A   1      30.033  25.113  25.873  1.00  0.00     0.040 A 
ATOM     18  C   UNL A   1      30.642  26.205  25.250  1.00  0.00     0.123 A 
ATOM     19  F   UNL A   1      29.887  27.172  24.709  1.00  0.00    -0.207 F 
BRANCH   9  20
ATOM     20  C   UNL A   1      33.380  20.461  24.601  1.00  0.00    -0.025 A 
ATOM     21  C   UNL A   1      33.630  17.682  24.570  1.00  0.00     0.007 A 
ATOM     22  C   UNL A   1      32.430  18.268  24.205  1.00  0.00     0.015 A 
ATOM     23  C   UNL A   1      34.772  18.481  24.638  1.00  0.00     0.015 A 
ATOM     24  C   UNL A   1      32.356  19.652  24.105  1.00  0.00     0.009 A 
ATOM     25  C   UNL A   1      34.647  19.878  24.670  1.00  0.00     0.009 A 
BRANCH  21  26
ATOM     26  S   UNL A   1      33.664  15.969  25.046  1.00  0.00    -0.130 SA
ATOM     27  C   UNL A   1      35.449  15.827  25.402  1.00  0.00     0.091 C 
ENDBRANCH  21  26
ENDBRANCH   9  20
ENDBRANCH   7   8
ENDBRANCH   5   7
ENDBRANCH   4   5
ENDBRANCH   3   4
ENDBRANCH   2   3
ENDBRANCH   1   2
BRANCH   1  28
ATOM     28  C   UNL A   1      39.000  21.194  25.722  1.00  0.00     0.202 C 
BRANCH  28  29
ATOM     29  C   UNL A   1      39.645  19.804  25.733  1.00  0.00     0.261 C 
BRANCH  29  30
ATOM     30  O   UNL A   1      40.628  19.735  26.791  1.00  0.00    -0.460 OA
BRANCH  30  31
ATOM     31  C   UNL A   1      41.883  19.484  26.344  1.00  0.00     0.338 C 
ATOM     32  O   UNL A   1      42.240  18.506  25.714  1.00  0.00    -0.246 OA
BRANCH  31  33
ATOM     33  C   UNL A   1      42.736  20.679  26.508  1.00  0.00     0.060 A 
ATOM     34  C   UNL A   1      42.656  21.343  27.735  1.00  0.00     0.016 A 
ATOM     35  C   UNL A   1      43.453  21.237  25.448  1.00  0.00     0.016 A 
ATOM     36  C   UNL A   1      43.224  22.607  27.882  1.00  0.00     0.010 A 
ATOM     37  C   UNL A   1      44.036  22.507  25.605  1.00  0.00     0.010 A 
ATOM     38  C   UNL A   1      43.881  23.225  26.807  1.00  0.00    -0.014 A 
BRANCH  38  39
ATOM     39  C   UNL A   1      44.266  24.662  26.949  1.00  0.00     0.031 A 
ATOM     40  C   UNL A   1      43.271  25.661  27.487  1.00  0.00     0.074 A 
ATOM     41  C   UNL A   1      45.540  25.047  26.730  1.00  0.00     0.049 A 
ATOM     42  N   UNL A   1      43.444  26.924  27.790  1.00  0.00    -0.248 NA
ATOM     43  C   UNL A   1      41.904  25.175  27.725  1.00  0.00     0.031 C 
ATOM     44  C   UNL A   1      46.612  24.171  26.257  1.00  0.00     0.029 A 
ATOM     45  N   UNL A   1      46.156  26.262  26.906  1.00  0.00    -0.354 N 
ATOM     46  C   UNL A   1      42.217  27.381  28.262  1.00  0.00     0.074 A 
ATOM     47  C   UNL A   1      41.295  26.269  28.156  1.00  0.00     0.031 C 
ATOM     48  C   UNL A   1      47.759  24.868  26.212  1.00  0.00     0.029 A 
ATOM     49  C   UNL A   1      47.500  26.253  26.603  1.00  0.00     0.049 A 
ATOM     50  H   UNL A   1      45.683  27.066  27.221  1.00  0.00     0.167 HD
ATOM     51  C   UNL A   1      41.891  28.603  28.754  1.00  0.00     0.034 A 
ATOM     52  C   UNL A   1      48.416  27.243  26.622  1.00  0.00     0.034 A 
ATOM     53  C   UNL A   1      42.813  29.711  28.852  1.00  0.00     0.049 A 
ATOM     54  C   UNL A   1      47.998  28.623  27.077  1.00  0.00     0.074 A 
ATOM     55  C   UNL A   1      42.578  30.986  29.342  1.00  0.00     0.029 A 
ATOM     56  N   UNL A   1      44.141  29.687  28.447  1.00  0.00    -0.354 N 
ATOM     57  N   UNL A   1      46.834  29.029  27.530  1.00  0.00    -0.248 NA
ATOM     58  C   UNL A   1      49.024  29.674  27.035  1.00  0.00     0.031 C 
ATOM     59  C   UNL A   1      43.730  31.753  29.150  1.00  0.00     0.029 A 
ATOM     60  C   UNL A   1      44.721  30.934  28.635  1.00  0.00     0.049 A 
ATOM     61  H   UNL A   1      44.603  28.900  28.078  1.00  0.00     0.167 HD
ATOM     62  C   UNL A   1      47.004  30.373  27.859  1.00  0.00     0.074 A 
ATOM     63  C   UNL A   1      48.386  30.698  27.580  1.00  0.00     0.031 C 
ATOM     64  C   UNL A   1      46.098  31.259  28.348  1.00  0.00     0.034 A 
BRANCH  51  65
ATOM     65  C   UNL A   1      40.460  28.828  29.190  1.00  0.00     0.023 A 
ATOM     66  C   UNL A   1      40.073  28.753  30.540  1.00  0.00     0.031 A 
ATOM     67  C   UNL A   1      39.470  29.140  28.240  1.00  0.00     0.131 A 
ATOM     68  C   UNL A   1      38.726  28.933  30.893  1.00  0.00     0.055 A 
ATOM     69  C   UNL A   1      38.148  29.397  28.607  1.00  0.00     0.041 A 
ATOM     70  F   UNL A   1      39.773  29.203  26.934  1.00  0.00    -0.206 F 
ATOM     71  C   UNL A   1      37.766  29.282  29.940  1.00  0.00     0.022 A 
BRANCH  68  72
ATOM     72  S   UNL A   1      38.218  28.570  32.596  1.00  0.00     0.124 S 
ATOM     73  O   UNL A   1      39.245  29.267  33.365  1.00  0.00    -0.237 OA
ATOM     74  O   UNL A   1      36.877  29.141  32.654  1.00  0.00    -0.237 OA
ATOM     75  O   UNL A   1      38.279  27.112  32.669  1.00  0.00    -0.744 OA
ENDBRANCH  68  72
ENDBRANCH  51  65
BRANCH  52  76
ATOM     76  C   UNL A   1      49.815  26.999  26.156  1.00  0.00     0.023 A 
ATOM     77  C   UNL A   1      50.223  27.336  24.856  1.00  0.00     0.031 A 
ATOM     78  C   UNL A   1      50.740  26.329  26.980  1.00  0.00     0.131 A 
ATOM     79  C   UNL A   1      51.489  26.941  24.395  1.00  0.00     0.055 A 
ATOM     80  C   UNL A   1      52.025  26.008  26.541  1.00  0.00     0.041 A 
ATOM     81  F   UNL A   1      50.403  25.969  28.229  1.00  0.00    -0.206 F 
ATOM     82  C   UNL A   1      52.399  26.296  25.234  1.00  0.00     0.022 A 
BRANCH  79  83
ATOM     83  S   UNL A   1      51.878  27.156  22.634  1.00  0.00     0.124 S 
ATOM     84  O   UNL A   1      50.601  26.832  22.010  1.00  0.00    -0.237 OA
ATOM     85  O   UNL A   1      52.283  28.556  22.583  1.00  0.00    -0.237 OA
ATOM     86  O   UNL A   1      52.950  26.190  22.403  1.00  0.00    -0.744 OA
ENDBRANCH  79  83
ENDBRANCH  52  76
BRANCH  64  87
ATOM     87  C   UNL A   1      46.594  32.655  28.662  1.00  0.00     0.023 A 
ATOM     88  C   UNL A   1      46.561  33.687  27.708  1.00  0.00     0.031 A 
ATOM     89  C   UNL A   1      47.143  32.946  29.925  1.00  0.00     0.131 A 
ATOM     90  C   UNL A   1      47.139  34.932  28.002  1.00  0.00     0.055 A 
ATOM     91  C   UNL A   1      47.641  34.212  30.239  1.00  0.00     0.041 A 
ATOM     92  F   UNL A   1      47.209  32.002  30.877  1.00  0.00    -0.206 F 
ATOM     93  C   UNL A   1      47.659  35.208  29.268  1.00  0.00     0.022 A 
BRANCH  90  94
ATOM     94  S   UNL A   1      47.324  36.142  26.662  1.00  0.00     0.124 S 
ATOM     95  O   UNL A   1      48.535  35.673  25.997  1.00  0.00    -0.237 OA
ATOM     96  O   UNL A   1      46.081  35.974  25.916  1.00  0.00    -0.237 OA
ATOM     97  O   UNL A   1      47.457  37.416  27.366  1.00  0.00    -0.744 OA
ENDBRANCH  90  94
ENDBRANCH  64  87
ENDBRANCH  38  39
ENDBRANCH  31  33
ENDBRANCH  30  31
ENDBRANCH  29  30
ENDBRANCH  28  29
ENDBRANCH   1  28
TORSDOF 20
ENDMDL
MODEL 3
REMARK VINA RESULT:     -11.1      2.748      8.458
REMARK SMILES CSc1ccc(/C=C2\C(C)=C(CC(=O)OCCOCCOC(=O)c3ccc(-c4c5nc(c(-c6cc(S(=O)(=O)[O-])ccc6F)c6ccc([nH]6)c(-c6cc(S(=O)(=O)[O-])ccc6F)c6nc(c(-c7cc(S(=O)(=O)[O-])ccc7F)c7ccc4[nH]7)C=C6)C=C5)cc3)c3cc(F)ccc32)cc1
REMARK SMILES IDX 18 1 17 2 16 3 15 4 13 5 14 6 12 7 11 8 7 9 8 10 9 11 93 12
REMARK SMILES IDX 10 13 87 14 92 15 88 16 91 17 89 18 90 19 6 20 3 21 4 22
REMARK SMILES IDX 95 23 5 24 94 25 2 26 1 27 19 28 20 29 21 30 22 31 23 32
REMARK SMILES IDX 24 33 25 34 86 35 26 36 85 37 27 38 28 39 29 40 79 41 30 42
REMARK SMILES IDX 84 43 78 44 80 45 31 46 83 47 77 48 76 49 32 51 64 52 44 53
REMARK SMILES IDX 63 54 45 55 48 56 62 57 81 58 46 59 47 60 61 62 82 63 49 64
REMARK SMILES IDX 33 65 34 66 42 67 35 68 41 69 43 70 40 71 36 72 37 73 38 74
REMARK SMILES IDX 39 75 65 76 66 77 74 78 67 79 73 80 75 81 72 82 68 83 69 84
REMARK SMILES IDX 70 85 71 86 50 87 51 88 59 89 52 90 58 91 60 92 57 93 53 94
REMARK SMILES IDX 54 95 55 96 56 97
REMARK H PARENT 80 50 48 61
REMARK Flexibility Score: inf
ROOT
ATOM      1  O   UNL A   1      39.399  21.081  26.553  1.00  0.00    -0.374 OA
ENDROOT
BRANCH   1   2
ATOM      2  C   UNL A   1      38.981  22.179  25.743  1.00  0.00     0.202 C 
BRANCH   2   3
ATOM      3  C   UNL A   1      37.876  23.052  26.335  1.00  0.00     0.261 C 
BRANCH   3   4
ATOM      4  O   UNL A   1      36.582  22.712  25.815  1.00  0.00    -0.463 OA
BRANCH   4   5
ATOM      5  C   UNL A   1      36.171  23.443  24.749  1.00  0.00     0.310 C 
ATOM      6  O   UNL A   1      36.618  23.349  23.610  1.00  0.00    -0.252 OA
BRANCH   5   7
ATOM      7  C   UNL A   1      35.105  24.456  25.101  1.00  0.00     0.159 C 
BRANCH   7   8
ATOM      8  C   UNL A   1      33.738  24.274  24.430  1.00  0.00    -0.025 C 
ATOM      9  C   UNL A   1      33.391  21.101  25.624  1.00  0.00     0.017 C 
ATOM     10  C   UNL A   1      33.023  22.356  25.304  1.00  0.00    -0.014 C 
ATOM     11  C   UNL A   1      33.298  23.052  24.012  1.00  0.00    -0.039 C 
ATOM     12  C   UNL A   1      32.320  23.409  26.111  1.00  0.00    -0.010 A 
ATOM     13  C   UNL A   1      32.048  22.966  23.102  1.00  0.00     0.045 C 
ATOM     14  C   UNL A   1      32.646  24.586  25.395  1.00  0.00    -0.011 A 
ATOM     15  C   UNL A   1      31.070  23.299  26.717  1.00  0.00     0.012 A 
ATOM     16  C   UNL A   1      31.704  25.574  25.158  1.00  0.00     0.048 A 
ATOM     17  C   UNL A   1      30.129  24.325  26.500  1.00  0.00     0.040 A 
ATOM     18  C   UNL A   1      30.441  25.425  25.697  1.00  0.00     0.123 A 
ATOM     19  F   UNL A   1      29.471  26.267  25.312  1.00  0.00    -0.207 F 
BRANCH   9  20
ATOM     20  C   UNL A   1      33.601  19.960  24.668  1.00  0.00    -0.025 A 
ATOM     21  C   UNL A   1      33.822  17.178  24.690  1.00  0.00     0.007 A 
ATOM     22  C   UNL A   1      32.597  17.769  24.431  1.00  0.00     0.015 A 
ATOM     23  C   UNL A   1      34.972  17.966  24.620  1.00  0.00     0.015 A 
ATOM     24  C   UNL A   1      32.525  19.151  24.301  1.00  0.00     0.009 A 
ATOM     25  C   UNL A   1      34.864  19.365  24.626  1.00  0.00     0.009 A 
BRANCH  21  26
ATOM     26  S   UNL A   1      33.888  15.479  25.207  1.00  0.00    -0.130 SA
ATOM     27  C   UNL A   1      32.156  15.300  25.755  1.00  0.00     0.091 C 
ENDBRANCH  21  26
ENDBRANCH   9  20
ENDBRANCH   7   8
ENDBRANCH   5   7
ENDBRANCH   4   5
ENDBRANCH   3   4
ENDBRANCH   2   3
ENDBRANCH   1   2
BRANCH   1  28
ATOM     28  C   UNL A   1      39.615  19.830  25.894  1.00  0.00     0.202 C 
BRANCH  28  29
ATOM     29  C   UNL A   1      40.973  19.179  26.180  1.00  0.00     0.261 C 
BRANCH  29  30
ATOM     30  O   UNL A   1      41.926  19.583  25.171  1.00  0.00    -0.460 OA
BRANCH  30  31
ATOM     31  C   UNL A   1      43.070  20.097  25.686  1.00  0.00     0.338 C 
ATOM     32  O   UNL A   1      44.194  19.663  25.516  1.00  0.00    -0.246 OA
BRANCH  31  33
ATOM     33  C   UNL A   1      42.811  21.416  26.298  1.00  0.00     0.060 A 
ATOM     34  C   UNL A   1      42.730  22.506  25.428  1.00  0.00     0.016 A 
ATOM     35  C   UNL A   1      42.823  21.614  27.681  1.00  0.00     0.016 A 
ATOM     36  C   UNL A   1      42.743  23.804  25.935  1.00  0.00     0.010 A 
ATOM     37  C   UNL A   1      42.823  22.926  28.188  1.00  0.00     0.010 A 
ATOM     38  C   UNL A   1      42.837  24.032  27.316  1.00  0.00    -0.014 A 
BRANCH  38  39
ATOM     39  C   UNL A   1      43.078  25.430  27.785  1.00  0.00     0.031 A 
ATOM     40  C   UNL A   1      44.444  26.055  27.626  1.00  0.00     0.074 A 
ATOM     41  C   UNL A   1      42.051  26.187  28.223  1.00  0.00     0.049 A 
ATOM     42  N   UNL A   1      44.826  27.286  27.865  1.00  0.00    -0.248 NA
ATOM     43  C   UNL A   1      45.517  25.185  27.125  1.00  0.00     0.031 C 
ATOM     44  C   UNL A   1      40.673  25.720  28.377  1.00  0.00     0.029 A 
ATOM     45  N   UNL A   1      41.997  27.510  28.587  1.00  0.00    -0.354 N 
ATOM     46  C   UNL A   1      46.177  27.342  27.534  1.00  0.00     0.074 A 
ATOM     47  C   UNL A   1      46.558  26.005  27.126  1.00  0.00     0.031 C 
ATOM     48  C   UNL A   1      39.904  26.749  28.772  1.00  0.00     0.029 A 
ATOM     49  C   UNL A   1      40.738  27.936  28.949  1.00  0.00     0.049 A 
ATOM     50  H   UNL A   1      42.785  28.100  28.589  1.00  0.00     0.167 HD
ATOM     51  C   UNL A   1      47.018  28.408  27.550  1.00  0.00     0.034 A 
ATOM     52  C   UNL A   1      40.305  29.136  29.387  1.00  0.00     0.034 A 
ATOM     53  C   UNL A   1      46.634  29.737  27.963  1.00  0.00     0.049 A 
ATOM     54  C   UNL A   1      41.289  30.279  29.495  1.00  0.00     0.074 A 
ATOM     55  C   UNL A   1      47.414  30.883  28.009  1.00  0.00     0.029 A 
ATOM     56  N   UNL A   1      45.373  30.105  28.412  1.00  0.00    -0.354 N 
ATOM     57  N   UNL A   1      42.560  30.312  29.166  1.00  0.00    -0.248 NA
ATOM     58  C   UNL A   1      40.773  31.551  30.019  1.00  0.00     0.031 C 
ATOM     59  C   UNL A   1      46.653  31.914  28.567  1.00  0.00     0.029 A 
ATOM     60  C   UNL A   1      45.367  31.445  28.775  1.00  0.00     0.049 A 
ATOM     61  H   UNL A   1      44.596  29.503  28.466  1.00  0.00     0.167 HD
ATOM     62  C   UNL A   1      42.980  31.619  29.412  1.00  0.00     0.074 A 
ATOM     63  C   UNL A   1      41.823  32.345  29.887  1.00  0.00     0.031 C 
ATOM     64  C   UNL A   1      44.213  32.167  29.259  1.00  0.00     0.034 A 
BRANCH  51  65
ATOM     65  C   UNL A   1      48.457  28.175  27.147  1.00  0.00     0.023 A 
ATOM     66  C   UNL A   1      48.880  28.274  25.810  1.00  0.00     0.031 A 
ATOM     67  C   UNL A   1      49.425  27.865  28.121  1.00  0.00     0.131 A 
ATOM     68  C   UNL A   1      50.219  28.013  25.478  1.00  0.00     0.055 A 
ATOM     69  C   UNL A   1      50.771  27.687  27.794  1.00  0.00     0.041 A 
ATOM     70  F   UNL A   1      49.079  27.734  29.411  1.00  0.00    -0.206 F 
ATOM     71  C   UNL A   1      51.173  27.748  26.464  1.00  0.00     0.022 A 
BRANCH  68  72
ATOM     72  S   UNL A   1      50.672  27.890  23.726  1.00  0.00     0.124 S 
ATOM     73  O   UNL A   1      51.526  26.705  23.724  1.00  0.00    -0.237 OA
ATOM     74  O   UNL A   1      49.375  27.745  23.075  1.00  0.00    -0.237 OA
ATOM     75  O   UNL A   1      51.366  29.148  23.462  1.00  0.00    -0.744 OA
ENDBRANCH  68  72
ENDBRANCH  51  65
BRANCH  52  76
ATOM     76  C   UNL A   1      38.883  29.328  29.808  1.00  0.00     0.023 A 
ATOM     77  C   UNL A   1      37.969  30.025  29.002  1.00  0.00     0.031 A 
ATOM     78  C   UNL A   1      38.446  28.901  31.076  1.00  0.00     0.131 A 
ATOM     79  C   UNL A   1      36.692  30.334  29.498  1.00  0.00     0.055 A 
ATOM     80  C   UNL A   1      37.150  29.144  31.533  1.00  0.00     0.041 A 
ATOM     81  F   UNL A   1      39.279  28.242  31.897  1.00  0.00    -0.206 F 
ATOM     82  C   UNL A   1      36.270  29.884  30.750  1.00  0.00     0.022 A 
BRANCH  79  83
ATOM     83  S   UNL A   1      35.638  31.461  28.541  1.00  0.00     0.124 S 
ATOM     84  O   UNL A   1      35.071  30.558  27.546  1.00  0.00    -0.237 OA
ATOM     85  O   UNL A   1      34.718  31.954  29.560  1.00  0.00    -0.237 OA
ATOM     86  O   UNL A   1      36.581  32.450  28.023  1.00  0.00    -0.744 OA
ENDBRANCH  79  83
ENDBRANCH  52  76
BRANCH  64  87
ATOM     87  C   UNL A   1      44.356  33.644  29.561  1.00  0.00     0.023 A 
ATOM     88  C   UNL A   1      43.884  34.632  28.678  1.00  0.00     0.031 A 
ATOM     89  C   UNL A   1      45.008  34.069  30.733  1.00  0.00     0.131 A 
ATOM     90  C   UNL A   1      44.143  35.987  28.940  1.00  0.00     0.055 A 
ATOM     91  C   UNL A   1      45.189  35.421  31.028  1.00  0.00     0.041 A 
ATOM     92  F   UNL A   1      45.487  33.174  31.613  1.00  0.00    -0.206 F 
ATOM     93  C   UNL A   1      44.773  36.389  30.119  1.00  0.00     0.022 A 
BRANCH  90  94
ATOM     94  S   UNL A   1      43.765  37.207  27.651  1.00  0.00     0.124 S 
ATOM     95  O   UNL A   1      45.062  37.845  27.450  1.00  0.00    -0.237 OA
ATOM     96  O   UNL A   1      43.290  36.369  26.556  1.00  0.00    -0.237 OA
ATOM     97  O   UNL A   1      42.747  38.055  28.269  1.00  0.00    -0.744 OA
ENDBRANCH  90  94
ENDBRANCH  64  87
ENDBRANCH  38  39
ENDBRANCH  31  33
ENDBRANCH  30  31
ENDBRANCH  29  30
ENDBRANCH  28  29
ENDBRANCH   1  28
TORSDOF 20
ENDMDL
