MODEL 1
REMARK VINA RESULT:     -11.2      0.000      0.000
REMARK SMILES O=C(OCCOCCOC(=O)[C@H](Cc1ccccn1)[C@H]1CCS(=O)(=O)C1)c1ccc(-c2c3nc(c(-c4cc(S(=O)(=O)[O-])ccc4F)c4ccc([nH]4)c(-c4cc(S(=O)(=O)[O-])ccc4F)c4nc(c(-c5cc(S(=O)(=O)[O-])ccc5F)c5ccc2[nH]5)C=C4)C=C3)cc1
REMARK SMILES IDX 5 1 4 2 3 3 2 4 1 5 27 6 28 7 89 8 29 9 88 10 30 11 31 12
REMARK SMILES IDX 32 13 82 14 33 15 87 16 81 17 83 18 34 19 86 20 80 21 79 22
REMARK SMILES IDX 35 24 67 25 47 26 66 27 48 28 51 29 65 30 84 31 49 32 50 33
REMARK SMILES IDX 64 35 85 36 52 37 36 38 37 39 45 40 38 41 44 42 46 43 43 44
REMARK SMILES IDX 39 45 40 46 41 47 42 48 68 49 69 50 77 51 70 52 76 53 78 54
REMARK SMILES IDX 75 55 71 56 72 57 73 58 74 59 53 60 54 61 62 62 55 63 61 64
REMARK SMILES IDX 63 65 60 66 56 67 57 68 58 69 59 70 6 71 7 72 8 73 9 74
REMARK SMILES IDX 10 75 11 76 12 77 13 78 14 79 15 80 19 81 16 82 18 83 17 84
REMARK SMILES IDX 20 85 21 86 26 87 22 88 23 89 24 90 25 91
REMARK H PARENT 83 23 51 34
REMARK Flexibility Score: inf
ROOT
ATOM      1  C   UNL A   1      32.483  31.035  26.843  1.00  0.00     0.202 C 
ENDROOT
BRANCH   1   2
ATOM      2  C   UNL A   1      31.727  32.355  27.042  1.00  0.00     0.261 C 
BRANCH   2   3
ATOM      3  O   UNL A   1      32.636  33.457  27.203  1.00  0.00    -0.460 OA
BRANCH   3   4
ATOM      4  C   UNL A   1      33.347  33.813  28.300  1.00  0.00     0.338 C 
ATOM      5  O   UNL A   1      32.979  34.803  28.931  1.00  0.00    -0.246 OA
BRANCH   4   6
ATOM      6  C   UNL A   1      34.586  33.111  28.765  1.00  0.00     0.060 A 
ATOM      7  C   UNL A   1      34.611  31.873  29.405  1.00  0.00     0.016 A 
ATOM      8  C   UNL A   1      35.822  33.701  28.447  1.00  0.00     0.016 A 
ATOM      9  C   UNL A   1      35.781  31.205  29.676  1.00  0.00     0.010 A 
ATOM     10  C   UNL A   1      37.025  33.065  28.770  1.00  0.00     0.010 A 
ATOM     11  C   UNL A   1      36.990  31.813  29.389  1.00  0.00    -0.014 A 
BRANCH  11  12
ATOM     12  C   UNL A   1      38.142  31.188  30.039  1.00  0.00     0.031 A 
ATOM     13  C   UNL A   1      38.297  31.447  31.504  1.00  0.00     0.074 A 
ATOM     14  C   UNL A   1      38.805  30.213  29.395  1.00  0.00     0.049 A 
ATOM     15  N   UNL A   1      39.194  31.005  32.336  1.00  0.00    -0.248 NA
ATOM     16  C   UNL A   1      37.267  32.302  32.122  1.00  0.00     0.031 C 
ATOM     17  C   UNL A   1      38.504  29.747  28.037  1.00  0.00     0.029 A 
ATOM     18  N   UNL A   1      39.816  29.400  29.813  1.00  0.00    -0.354 N 
ATOM     19  C   UNL A   1      38.862  31.561  33.566  1.00  0.00     0.074 A 
ATOM     20  C   UNL A   1      37.678  32.363  33.375  1.00  0.00     0.031 C 
ATOM     21  C   UNL A   1      39.313  28.718  27.741  1.00  0.00     0.029 A 
ATOM     22  C   UNL A   1      40.235  28.512  28.851  1.00  0.00     0.049 A 
ATOM     23  H   UNL A   1      40.208  29.445  30.715  1.00  0.00     0.167 HD
ATOM     24  C   UNL A   1      39.523  31.420  34.739  1.00  0.00     0.034 A 
ATOM     25  C   UNL A   1      41.285  27.671  28.874  1.00  0.00     0.034 A 
ATOM     26  C   UNL A   1      40.717  30.621  34.842  1.00  0.00     0.049 A 
ATOM     27  C   UNL A   1      42.111  27.661  30.136  1.00  0.00     0.074 A 
ATOM     28  C   UNL A   1      41.575  30.469  35.911  1.00  0.00     0.029 A 
ATOM     29  N   UNL A   1      41.222  29.838  33.805  1.00  0.00    -0.354 N 
ATOM     30  N   UNL A   1      41.900  28.301  31.266  1.00  0.00    -0.248 NA
ATOM     31  C   UNL A   1      43.318  26.832  30.126  1.00  0.00     0.031 C 
ATOM     32  C   UNL A   1      42.641  29.662  35.494  1.00  0.00     0.029 A 
ATOM     33  C   UNL A   1      42.398  29.226  34.197  1.00  0.00     0.049 A 
ATOM     34  H   UNL A   1      40.803  29.736  32.920  1.00  0.00     0.167 HD
ATOM     35  C   UNL A   1      42.931  27.927  32.118  1.00  0.00     0.074 A 
ATOM     36  C   UNL A   1      43.755  26.995  31.366  1.00  0.00     0.031 C 
ATOM     37  C   UNL A   1      43.181  28.305  33.400  1.00  0.00     0.034 A 
BRANCH  24  38
ATOM     38  C   UNL A   1      39.046  32.277  35.887  1.00  0.00     0.023 A 
ATOM     39  C   UNL A   1      39.564  33.562  36.135  1.00  0.00     0.031 A 
ATOM     40  C   UNL A   1      38.177  31.726  36.846  1.00  0.00     0.131 A 
ATOM     41  C   UNL A   1      39.301  34.198  37.360  1.00  0.00     0.055 A 
ATOM     42  C   UNL A   1      37.840  32.407  38.017  1.00  0.00     0.041 A 
ATOM     43  F   UNL A   1      37.683  30.488  36.689  1.00  0.00    -0.206 F 
ATOM     44  C   UNL A   1      38.422  33.640  38.292  1.00  0.00     0.022 A 
BRANCH  41  45
ATOM     45  S   UNL A   1      40.291  35.652  37.816  1.00  0.00     0.124 S 
ATOM     46  O   UNL A   1      39.949  35.810  39.229  1.00  0.00    -0.237 OA
ATOM     47  O   UNL A   1      41.653  35.209  37.535  1.00  0.00    -0.237 OA
ATOM     48  O   UNL A   1      39.783  36.704  36.939  1.00  0.00    -0.744 OA
ENDBRANCH  41  45
ENDBRANCH  24  38
BRANCH  25  49
ATOM     49  C   UNL A   1      41.652  26.864  27.675  1.00  0.00     0.023 A 
ATOM     50  C   UNL A   1      41.443  25.477  27.632  1.00  0.00     0.031 A 
ATOM     51  C   UNL A   1      42.267  27.466  26.558  1.00  0.00     0.131 A 
ATOM     52  C   UNL A   1      41.878  24.736  26.520  1.00  0.00     0.055 A 
ATOM     53  C   UNL A   1      42.646  26.734  25.432  1.00  0.00     0.041 A 
ATOM     54  F   UNL A   1      42.503  28.788  26.542  1.00  0.00    -0.206 F 
ATOM     55  C   UNL A   1      42.464  25.356  25.415  1.00  0.00     0.022 A 
BRANCH  52  56
ATOM     56  S   UNL A   1      41.748  22.927  26.576  1.00  0.00     0.124 S 
ATOM     57  O   UNL A   1      42.666  22.598  27.661  1.00  0.00    -0.237 OA
ATOM     58  O   UNL A   1      40.329  22.733  26.855  1.00  0.00    -0.237 OA
ATOM     59  O   UNL A   1      42.182  22.513  25.244  1.00  0.00    -0.744 OA
ENDBRANCH  52  56
ENDBRANCH  25  49
BRANCH  37  60
ATOM     60  C   UNL A   1      44.355  27.647  34.074  1.00  0.00     0.023 A 
ATOM     61  C   UNL A   1      44.225  26.443  34.782  1.00  0.00     0.031 A 
ATOM     62  C   UNL A   1      45.625  28.248  34.002  1.00  0.00     0.131 A 
ATOM     63  C   UNL A   1      45.334  25.909  35.450  1.00  0.00     0.055 A 
ATOM     64  C   UNL A   1      46.741  27.670  34.602  1.00  0.00     0.041 A 
ATOM     65  F   UNL A   1      45.800  29.402  33.340  1.00  0.00    -0.206 F 
ATOM     66  C   UNL A   1      46.596  26.502  35.345  1.00  0.00     0.022 A 
BRANCH  63  67
ATOM     67  S   UNL A   1      45.080  24.496  36.556  1.00  0.00     0.124 S 
ATOM     68  O   UNL A   1      44.444  23.529  35.669  1.00  0.00    -0.237 OA
ATOM     69  O   UNL A   1      46.443  24.180  36.974  1.00  0.00    -0.237 OA
ATOM     70  O   UNL A   1      44.218  25.036  37.606  1.00  0.00    -0.744 OA
ENDBRANCH  63  67
ENDBRANCH  37  60
ENDBRANCH  11  12
ENDBRANCH   4   6
ENDBRANCH   3   4
ENDBRANCH   2   3
ENDBRANCH   1   2
BRANCH   1  71
ATOM     71  O   UNL A   1      31.738  29.844  27.128  1.00  0.00    -0.374 OA
BRANCH  71  72
ATOM     72  C   UNL A   1      32.469  28.614  27.149  1.00  0.00     0.202 C 
BRANCH  72  73
ATOM     73  C   UNL A   1      31.877  27.665  26.125  1.00  0.00     0.261 C 
BRANCH  73  74
ATOM     74  O   UNL A   1      31.066  26.759  26.871  1.00  0.00    -0.463 OA
BRANCH  74  75
ATOM     75  C   UNL A   1      30.306  25.896  26.141  1.00  0.00     0.309 C 
ATOM     76  O   UNL A   1      29.576  25.023  26.580  1.00  0.00    -0.252 OA
BRANCH  75  77
ATOM     77  C   UNL A   1      30.613  26.135  24.675  1.00  0.00     0.109 C 
BRANCH  77  78
ATOM     78  C   UNL A   1      29.281  26.384  23.924  1.00  0.00     0.071 C 
BRANCH  78  79
ATOM     79  C   UNL A   1      29.162  27.702  23.171  1.00  0.00     0.041 A 
ATOM     80  C   UNL A   1      27.931  28.360  23.144  1.00  0.00     0.024 A 
ATOM     81  N   UNL A   1      30.284  28.274  22.670  1.00  0.00    -0.261 NA
ATOM     82  C   UNL A   1      27.840  29.622  22.557  1.00  0.00     0.003 A 
ATOM     83  C   UNL A   1      30.169  29.506  22.115  1.00  0.00     0.111 A 
ATOM     84  C   UNL A   1      28.981  30.210  22.031  1.00  0.00     0.020 A 
ENDBRANCH  78  79
ENDBRANCH  77  78
BRANCH  77  85
ATOM     85  C   UNL A   1      31.432  24.900  24.256  1.00  0.00     0.020 C 
ATOM     86  C   UNL A   1      30.673  23.840  23.457  1.00  0.00     0.021 C 
ATOM     87  C   UNL A   1      32.615  25.281  23.333  1.00  0.00     0.141 C 
ATOM     88  C   UNL A   1      31.732  22.818  23.035  1.00  0.00     0.137 C 
ATOM     89  S   UNL A   1      33.199  23.758  22.647  1.00  0.00     0.150 S 
ATOM     90  O   UNL A   1      34.294  23.275  23.470  1.00  0.00    -0.229 OA
ATOM     91  O   UNL A   1      33.316  23.903  21.215  1.00  0.00    -0.229 OA
ENDBRANCH  77  85
ENDBRANCH  75  77
ENDBRANCH  74  75
ENDBRANCH  73  74
ENDBRANCH  72  73
ENDBRANCH  71  72
ENDBRANCH   1  71
TORSDOF 20
ENDMDL
MODEL 2
REMARK VINA RESULT:     -11.2      5.151      8.527
REMARK SMILES O=C(OCCOCCOC(=O)[C@H](Cc1ccccn1)[C@H]1CCS(=O)(=O)C1)c1ccc(-c2c3nc(c(-c4cc(S(=O)(=O)[O-])ccc4F)c4ccc([nH]4)c(-c4cc(S(=O)(=O)[O-])ccc4F)c4nc(c(-c5cc(S(=O)(=O)[O-])ccc5F)c5ccc2[nH]5)C=C4)C=C3)cc1
REMARK SMILES IDX 5 1 4 2 3 3 2 4 1 5 27 6 28 7 89 8 29 9 88 10 30 11 31 12
REMARK SMILES IDX 32 13 82 14 33 15 87 16 81 17 83 18 34 19 86 20 80 21 79 22
REMARK SMILES IDX 35 24 67 25 47 26 66 27 48 28 51 29 65 30 84 31 49 32 50 33
REMARK SMILES IDX 64 35 85 36 52 37 36 38 37 39 45 40 38 41 44 42 46 43 43 44
REMARK SMILES IDX 39 45 40 46 41 47 42 48 68 49 69 50 77 51 70 52 76 53 78 54
REMARK SMILES IDX 75 55 71 56 72 57 73 58 74 59 53 60 54 61 62 62 55 63 61 64
REMARK SMILES IDX 63 65 60 66 56 67 57 68 58 69 59 70 6 71 7 72 8 73 9 74
REMARK SMILES IDX 10 75 11 76 12 77 13 78 14 79 15 80 19 81 16 82 18 83 17 84
REMARK SMILES IDX 20 85 21 86 26 87 22 88 23 89 24 90 25 91
REMARK H PARENT 83 23 51 34
REMARK Flexibility Score: inf
ROOT
ATOM      1  C   UNL A   1      36.109  20.934  24.941  1.00  0.00     0.202 C 
ENDROOT
BRANCH   1   2
ATOM      2  C   UNL A   1      37.544  20.393  24.975  1.00  0.00     0.261 C 
BRANCH   2   3
ATOM      3  O   UNL A   1      38.228  20.803  26.172  1.00  0.00    -0.460 OA
BRANCH   3   4
ATOM      4  C   UNL A   1      39.539  21.106  26.335  1.00  0.00     0.338 C 
ATOM      5  O   UNL A   1      40.360  20.198  26.216  1.00  0.00    -0.246 OA
BRANCH   4   6
ATOM      6  C   UNL A   1      40.050  22.464  26.705  1.00  0.00     0.060 A 
ATOM      7  C   UNL A   1      39.630  23.662  26.129  1.00  0.00     0.016 A 
ATOM      8  C   UNL A   1      40.952  22.544  27.781  1.00  0.00     0.016 A 
ATOM      9  C   UNL A   1      40.019  24.889  26.608  1.00  0.00     0.010 A 
ATOM     10  C   UNL A   1      41.409  23.783  28.243  1.00  0.00     0.010 A 
ATOM     11  C   UNL A   1      40.934  24.952  27.644  1.00  0.00    -0.014 A 
BRANCH  11  12
ATOM     12  C   UNL A   1      41.543  26.270  27.823  1.00  0.00     0.031 A 
ATOM     13  C   UNL A   1      40.796  27.232  28.692  1.00  0.00     0.074 A 
ATOM     14  C   UNL A   1      42.826  26.450  27.470  1.00  0.00     0.049 A 
ATOM     15  N   UNL A   1      41.106  28.445  29.048  1.00  0.00    -0.248 NA
ATOM     16  C   UNL A   1      39.532  26.736  29.268  1.00  0.00     0.031 C 
ATOM     17  C   UNL A   1      43.678  25.429  26.849  1.00  0.00     0.029 A 
ATOM     18  N   UNL A   1      43.653  27.520  27.638  1.00  0.00    -0.354 N 
ATOM     19  C   UNL A   1      40.057  28.872  29.853  1.00  0.00     0.074 A 
ATOM     20  C   UNL A   1      39.109  27.788  29.943  1.00  0.00     0.031 C 
ATOM     21  C   UNL A   1      44.916  25.928  26.700  1.00  0.00     0.029 A 
ATOM     22  C   UNL A   1      44.917  27.319  27.136  1.00  0.00     0.049 A 
ATOM     23  H   UNL A   1      43.373  28.357  28.075  1.00  0.00     0.167 HD
ATOM     24  C   UNL A   1      39.908  30.084  30.438  1.00  0.00     0.034 A 
ATOM     25  C   UNL A   1      45.929  28.196  27.010  1.00  0.00     0.034 A 
ATOM     26  C   UNL A   1      40.891  31.125  30.278  1.00  0.00     0.049 A 
ATOM     27  C   UNL A   1      45.674  29.594  27.516  1.00  0.00     0.074 A 
ATOM     28  C   UNL A   1      40.843  32.440  30.692  1.00  0.00     0.029 A 
ATOM     29  N   UNL A   1      42.113  30.951  29.629  1.00  0.00    -0.354 N 
ATOM     30  N   UNL A   1      44.620  30.063  28.149  1.00  0.00    -0.248 NA
ATOM     31  C   UNL A   1      46.728  30.581  27.280  1.00  0.00     0.031 C 
ATOM     32  C   UNL A   1      41.997  33.079  30.222  1.00  0.00     0.029 A 
ATOM     33  C   UNL A   1      42.814  32.142  29.602  1.00  0.00     0.049 A 
ATOM     34  H   UNL A   1      42.430  30.102  29.245  1.00  0.00     0.167 HD
ATOM     35  C   UNL A   1      44.898  31.397  28.421  1.00  0.00     0.074 A 
ATOM     36  C   UNL A   1      46.226  31.647  27.887  1.00  0.00     0.031 C 
ATOM     37  C   UNL A   1      44.139  32.332  29.052  1.00  0.00     0.034 A 
BRANCH  24  38
ATOM     38  C   UNL A   1      38.586  30.344  31.119  1.00  0.00     0.023 A 
ATOM     39  C   UNL A   1      37.514  30.979  30.465  1.00  0.00     0.031 A 
ATOM     40  C   UNL A   1      38.461  30.102  32.499  1.00  0.00     0.131 A 
ATOM     41  C   UNL A   1      36.420  31.450  31.211  1.00  0.00     0.055 A 
ATOM     42  C   UNL A   1      37.326  30.484  33.216  1.00  0.00     0.041 A 
ATOM     43  F   UNL A   1      39.465  29.539  33.189  1.00  0.00    -0.206 F 
ATOM     44  C   UNL A   1      36.307  31.184  32.578  1.00  0.00     0.022 A 
BRANCH  41  45
ATOM     45  S   UNL A   1      35.259  32.602  30.420  1.00  0.00     0.124 S 
ATOM     46  O   UNL A   1      34.281  32.813  31.486  1.00  0.00    -0.237 OA
ATOM     47  O   UNL A   1      36.111  33.743  30.102  1.00  0.00    -0.237 OA
ATOM     48  O   UNL A   1      34.761  31.854  29.269  1.00  0.00    -0.744 OA
ENDBRANCH  41  45
ENDBRANCH  24  38
BRANCH  25  49
ATOM     49  C   UNL A   1      47.197  27.815  26.325  1.00  0.00     0.023 A 
ATOM     50  C   UNL A   1      47.351  27.955  24.937  1.00  0.00     0.031 A 
ATOM     51  C   UNL A   1      48.271  27.257  27.048  1.00  0.00     0.131 A 
ATOM     52  C   UNL A   1      48.529  27.508  24.314  1.00  0.00     0.055 A 
ATOM     53  C   UNL A   1      49.461  26.867  26.431  1.00  0.00     0.041 A 
ATOM     54  F   UNL A   1      48.181  27.088  28.377  1.00  0.00    -0.206 F 
ATOM     55  C   UNL A   1      49.590  26.979  25.052  1.00  0.00     0.022 A 
BRANCH  52  56
ATOM     56  S   UNL A   1      48.622  27.545  22.502  1.00  0.00     0.124 S 
ATOM     57  O   UNL A   1      49.847  28.307  22.284  1.00  0.00    -0.237 OA
ATOM     58  O   UNL A   1      48.682  26.125  22.173  1.00  0.00    -0.237 OA
ATOM     59  O   UNL A   1      47.389  28.222  22.111  1.00  0.00    -0.744 OA
ENDBRANCH  52  56
ENDBRANCH  25  49
BRANCH  37  60
ATOM     60  C   UNL A   1      44.774  33.683  29.252  1.00  0.00     0.023 A 
ATOM     61  C   UNL A   1      44.750  34.669  28.254  1.00  0.00     0.031 A 
ATOM     62  C   UNL A   1      45.415  33.976  30.469  1.00  0.00     0.131 A 
ATOM     63  C   UNL A   1      45.416  35.882  28.465  1.00  0.00     0.055 A 
ATOM     64  C   UNL A   1      46.007  35.216  30.702  1.00  0.00     0.041 A 
ATOM     65  F   UNL A   1      45.467  33.065  31.453  1.00  0.00    -0.206 F 
ATOM     66  C   UNL A   1      46.023  36.171  29.690  1.00  0.00     0.022 A 
BRANCH  63  67
ATOM     67  S   UNL A   1      45.582  37.031  27.073  1.00  0.00     0.124 S 
ATOM     68  O   UNL A   1      44.227  37.559  26.955  1.00  0.00    -0.237 OA
ATOM     69  O   UNL A   1      46.592  37.966  27.559  1.00  0.00    -0.237 OA
ATOM     70  O   UNL A   1      46.011  36.172  25.970  1.00  0.00    -0.744 OA
ENDBRANCH  63  67
ENDBRANCH  37  60
ENDBRANCH  11  12
ENDBRANCH   4   6
ENDBRANCH   3   4
ENDBRANCH   2   3
ENDBRANCH   1   2
BRANCH   1  71
ATOM     71  O   UNL A   1      35.927  22.246  25.488  1.00  0.00    -0.374 OA
BRANCH  71  72
ATOM     72  C   UNL A   1      36.235  23.352  24.633  1.00  0.00     0.202 C 
BRANCH  72  73
ATOM     73  C   UNL A   1      35.916  22.976  23.199  1.00  0.00     0.261 C 
BRANCH  73  74
ATOM     74  O   UNL A   1      34.930  23.913  22.771  1.00  0.00    -0.463 OA
BRANCH  74  75
ATOM     75  C   UNL A   1      33.789  23.384  22.248  1.00  0.00     0.309 C 
ATOM     76  O   UNL A   1      33.361  23.556  21.118  1.00  0.00    -0.252 OA
BRANCH  75  77
ATOM     77  C   UNL A   1      33.079  22.629  23.355  1.00  0.00     0.109 C 
BRANCH  77  78
ATOM     78  C   UNL A   1      32.246  21.487  22.722  1.00  0.00     0.071 C 
BRANCH  78  79
ATOM     79  C   UNL A   1      32.339  20.125  23.398  1.00  0.00     0.041 A 
ATOM     80  C   UNL A   1      32.387  18.976  22.606  1.00  0.00     0.024 A 
ATOM     81  N   UNL A   1      32.517  20.071  24.740  1.00  0.00    -0.261 NA
ATOM     82  C   UNL A   1      32.588  17.735  23.210  1.00  0.00     0.003 A 
ATOM     83  C   UNL A   1      32.722  18.852  25.299  1.00  0.00     0.111 A 
ATOM     84  C   UNL A   1      32.759  17.668  24.584  1.00  0.00     0.020 A 
ENDBRANCH  78  79
ENDBRANCH  77  78
BRANCH  77  85
ATOM     85  C   UNL A   1      32.303  23.721  24.115  1.00  0.00     0.020 C 
ATOM     86  C   UNL A   1      30.814  23.832  23.782  1.00  0.00     0.021 C 
ATOM     87  C   UNL A   1      32.321  23.480  25.645  1.00  0.00     0.141 C 
ATOM     88  C   UNL A   1      30.256  24.859  24.771  1.00  0.00     0.137 C 
ATOM     89  S   UNL A   1      31.097  24.566  26.317  1.00  0.00     0.150 S 
ATOM     90  O   UNL A   1      31.752  25.794  26.732  1.00  0.00    -0.229 OA
ATOM     91  O   UNL A   1      30.237  23.813  27.200  1.00  0.00    -0.229 OA
ENDBRANCH  77  85
ENDBRANCH  75  77
ENDBRANCH  74  75
ENDBRANCH  73  74
ENDBRANCH  72  73
ENDBRANCH  71  72
ENDBRANCH   1  71
TORSDOF 20
ENDMDL
MODEL 3
REMARK VINA RESULT:     -11.1      4.985     10.596
REMARK SMILES O=C(OCCOCCOC(=O)[C@H](Cc1ccccn1)[C@H]1CCS(=O)(=O)C1)c1ccc(-c2c3nc(c(-c4cc(S(=O)(=O)[O-])ccc4F)c4ccc([nH]4)c(-c4cc(S(=O)(=O)[O-])ccc4F)c4nc(c(-c5cc(S(=O)(=O)[O-])ccc5F)c5ccc2[nH]5)C=C4)C=C3)cc1
REMARK SMILES IDX 5 1 4 2 3 3 2 4 1 5 27 6 28 7 89 8 29 9 88 10 30 11 31 12
REMARK SMILES IDX 32 13 82 14 33 15 87 16 81 17 83 18 34 19 86 20 80 21 79 22
REMARK SMILES IDX 35 24 67 25 47 26 66 27 48 28 51 29 65 30 84 31 49 32 50 33
REMARK SMILES IDX 64 35 85 36 52 37 36 38 37 39 45 40 38 41 44 42 46 43 43 44
REMARK SMILES IDX 39 45 40 46 41 47 42 48 68 49 69 50 77 51 70 52 76 53 78 54
REMARK SMILES IDX 75 55 71 56 72 57 73 58 74 59 53 60 54 61 62 62 55 63 61 64
REMARK SMILES IDX 63 65 60 66 56 67 57 68 58 69 59 70 6 71 7 72 8 73 9 74
REMARK SMILES IDX 10 75 11 76 12 77 13 78 14 79 15 80 19 81 16 82 18 83 17 84
REMARK SMILES IDX 20 85 21 86 26 87 22 88 23 89 24 90 25 91
REMARK H PARENT 83 23 51 34
REMARK Flexibility Score: inf
ROOT
ATOM      1  C   UNL A   1      37.095  20.688  24.904  1.00  0.00     0.202 C 
ENDROOT
BRANCH   1   2
ATOM      2  C   UNL A   1      38.338  19.808  24.713  1.00  0.00     0.261 C 
BRANCH   2   3
ATOM      3  O   UNL A   1      39.087  19.690  25.935  1.00  0.00    -0.460 OA
BRANCH   3   4
ATOM      4  C   UNL A   1      40.355  20.092  26.191  1.00  0.00     0.338 C 
ATOM      5  O   UNL A   1      41.257  19.263  26.076  1.00  0.00    -0.246 OA
BRANCH   4   6
ATOM      6  C   UNL A   1      40.725  21.466  26.659  1.00  0.00     0.060 A 
ATOM      7  C   UNL A   1      40.218  22.653  26.136  1.00  0.00     0.016 A 
ATOM      8  C   UNL A   1      41.577  21.560  27.774  1.00  0.00     0.016 A 
ATOM      9  C   UNL A   1      40.476  23.879  26.700  1.00  0.00     0.010 A 
ATOM     10  C   UNL A   1      41.901  22.804  28.326  1.00  0.00     0.010 A 
ATOM     11  C   UNL A   1      41.343  23.961  27.775  1.00  0.00    -0.014 A 
BRANCH  11  12
ATOM     12  C   UNL A   1      41.821  25.315  28.055  1.00  0.00     0.031 A 
ATOM     13  C   UNL A   1      43.137  25.690  27.451  1.00  0.00     0.074 A 
ATOM     14  C   UNL A   1      40.965  26.218  28.560  1.00  0.00     0.049 A 
ATOM     15  N   UNL A   1      43.785  26.818  27.504  1.00  0.00    -0.248 NA
ATOM     16  C   UNL A   1      43.798  24.649  26.641  1.00  0.00     0.031 C 
ATOM     17  C   UNL A   1      39.570  25.943  28.921  1.00  0.00     0.029 A 
ATOM     18  N   UNL A   1      41.117  27.552  28.795  1.00  0.00    -0.354 N 
ATOM     19  C   UNL A   1      44.948  26.609  26.771  1.00  0.00     0.074 A 
ATOM     20  C   UNL A   1      44.913  25.254  26.276  1.00  0.00     0.031 C 
ATOM     21  C   UNL A   1      38.992  27.086  29.324  1.00  0.00     0.029 A 
ATOM     22  C   UNL A   1      39.995  28.143  29.326  1.00  0.00     0.049 A 
ATOM     23  H   UNL A   1      41.948  28.043  28.605  1.00  0.00     0.167 HD
ATOM     24  C   UNL A   1      45.960  27.485  26.565  1.00  0.00     0.034 A 
ATOM     25  C   UNL A   1      39.839  29.393  29.800  1.00  0.00     0.034 A 
ATOM     26  C   UNL A   1      45.932  28.814  27.118  1.00  0.00     0.049 A 
ATOM     27  C   UNL A   1      41.043  30.299  29.716  1.00  0.00     0.074 A 
ATOM     28  C   UNL A   1      46.916  29.781  27.114  1.00  0.00     0.029 A 
ATOM     29  N   UNL A   1      44.837  29.355  27.792  1.00  0.00    -0.354 N 
ATOM     30  N   UNL A   1      42.213  30.068  29.159  1.00  0.00    -0.248 NA
ATOM     31  C   UNL A   1      40.915  31.621  30.330  1.00  0.00     0.031 C 
ATOM     32  C   UNL A   1      46.447  30.872  27.857  1.00  0.00     0.029 A 
ATOM     33  C   UNL A   1      45.133  30.630  28.238  1.00  0.00     0.049 A 
ATOM     34  H   UNL A   1      43.979  28.895  27.932  1.00  0.00     0.167 HD
ATOM     35  C   UNL A   1      42.954  31.230  29.326  1.00  0.00     0.074 A 
ATOM     36  C   UNL A   1      42.086  32.162  30.028  1.00  0.00     0.031 C 
ATOM     37  C   UNL A   1      44.226  31.514  28.938  1.00  0.00     0.034 A 
BRANCH  24  38
ATOM     38  C   UNL A   1      47.190  26.942  25.877  1.00  0.00     0.023 A 
ATOM     39  C   UNL A   1      48.165  26.190  26.559  1.00  0.00     0.031 A 
ATOM     40  C   UNL A   1      47.468  27.330  24.554  1.00  0.00     0.131 A 
ATOM     41  C   UNL A   1      49.412  25.952  25.957  1.00  0.00     0.055 A 
ATOM     42  C   UNL A   1      48.671  27.003  23.927  1.00  0.00     0.041 A 
ATOM     43  F   UNL A   1      46.598  28.084  23.865  1.00  0.00    -0.206 F 
ATOM     44  C   UNL A   1      49.662  26.332  24.635  1.00  0.00     0.022 A 
BRANCH  41  45
ATOM     45  S   UNL A   1      50.775  25.341  26.990  1.00  0.00     0.124 S 
ATOM     46  O   UNL A   1      51.721  24.867  25.981  1.00  0.00    -0.237 OA
ATOM     47  O   UNL A   1      51.174  26.535  27.727  1.00  0.00    -0.237 OA
ATOM     48  O   UNL A   1      50.155  24.289  27.792  1.00  0.00    -0.744 OA
ENDBRANCH  41  45
ENDBRANCH  24  38
BRANCH  25  49
ATOM     49  C   UNL A   1      38.567  29.817  30.451  1.00  0.00     0.023 A 
ATOM     50  C   UNL A   1      37.622  30.601  29.773  1.00  0.00     0.031 A 
ATOM     51  C   UNL A   1      38.294  29.480  31.793  1.00  0.00     0.131 A 
ATOM     52  C   UNL A   1      36.473  31.053  30.446  1.00  0.00     0.055 A 
ATOM     53  C   UNL A   1      37.124  29.884  32.439  1.00  0.00     0.041 A 
ATOM     54  F   UNL A   1      39.164  28.740  32.499  1.00  0.00    -0.206 F 
ATOM     55  C   UNL A   1      36.211  30.688  31.768  1.00  0.00     0.022 A 
BRANCH  52  56
ATOM     56  S   UNL A   1      35.362  32.206  29.592  1.00  0.00     0.124 S 
ATOM     57  O   UNL A   1      34.925  31.406  28.452  1.00  0.00    -0.237 OA
ATOM     58  O   UNL A   1      34.356  32.470  30.614  1.00  0.00    -0.237 OA
ATOM     59  O   UNL A   1      36.229  33.335  29.265  1.00  0.00    -0.744 OA
ENDBRANCH  52  56
ENDBRANCH  25  49
BRANCH  37  60
ATOM     60  C   UNL A   1      44.710  32.914  29.209  1.00  0.00     0.023 A 
ATOM     61  C   UNL A   1      45.393  33.247  30.389  1.00  0.00     0.031 A 
ATOM     62  C   UNL A   1      44.475  33.927  28.263  1.00  0.00     0.131 A 
ATOM     63  C   UNL A   1      45.760  34.577  30.624  1.00  0.00     0.055 A 
ATOM     64  C   UNL A   1      44.914  35.233  28.468  1.00  0.00     0.041 A 
ATOM     65  F   UNL A   1      43.823  33.659  27.120  1.00  0.00    -0.206 F 
ATOM     66  C   UNL A   1      45.546  35.568  29.661  1.00  0.00     0.022 A 
BRANCH  63  67
ATOM     67  S   UNL A   1      46.412  35.019  32.256  1.00  0.00     0.124 S 
ATOM     68  O   UNL A   1      47.801  34.582  32.154  1.00  0.00    -0.237 OA
ATOM     69  O   UNL A   1      46.199  36.463  32.296  1.00  0.00    -0.237 OA
ATOM     70  O   UNL A   1      45.584  34.243  33.177  1.00  0.00    -0.744 OA
ENDBRANCH  63  67
ENDBRANCH  37  60
ENDBRANCH  11  12
ENDBRANCH   4   6
ENDBRANCH   3   4
ENDBRANCH   2   3
ENDBRANCH   1   2
BRANCH   1  71
ATOM     71  O   UNL A   1      36.994  21.816  24.027  1.00  0.00    -0.374 OA
BRANCH  71  72
ATOM     72  C   UNL A   1      36.792  23.094  24.640  1.00  0.00     0.202 C 
BRANCH  72  73
ATOM     73  C   UNL A   1      36.297  22.895  26.059  1.00  0.00     0.261 C 
BRANCH  73  74
ATOM     74  O   UNL A   1      34.882  23.056  25.993  1.00  0.00    -0.463 OA
BRANCH  74  75
ATOM     75  C   UNL A   1      34.139  22.091  26.605  1.00  0.00     0.309 C 
ATOM     76  O   UNL A   1      34.416  21.512  27.642  1.00  0.00    -0.252 OA
BRANCH  75  77
ATOM     77  C   UNL A   1      32.957  21.780  25.707  1.00  0.00     0.109 C 
BRANCH  77  78
ATOM     78  C   UNL A   1      33.442  20.881  24.543  1.00  0.00     0.071 C 
BRANCH  78  79
ATOM     79  C   UNL A   1      33.566  19.393  24.841  1.00  0.00     0.041 A 
ATOM     80  C   UNL A   1      32.564  18.763  25.582  1.00  0.00     0.024 A 
ATOM     81  N   UNL A   1      34.567  18.689  24.261  1.00  0.00    -0.261 NA
ATOM     82  C   UNL A   1      32.609  17.381  25.762  1.00  0.00     0.003 A 
ATOM     83  C   UNL A   1      34.581  17.345  24.442  1.00  0.00     0.111 A 
ATOM     84  C   UNL A   1      33.637  16.653  25.181  1.00  0.00     0.020 A 
ENDBRANCH  78  79
ENDBRANCH  77  78
BRANCH  77  85
ATOM     85  C   UNL A   1      32.395  23.165  25.334  1.00  0.00     0.020 C 
ATOM     86  C   UNL A   1      31.256  23.166  24.314  1.00  0.00     0.021 C 
ATOM     87  C   UNL A   1      31.790  23.888  26.562  1.00  0.00     0.141 C 
ATOM     88  C   UNL A   1      30.780  24.620  24.243  1.00  0.00     0.137 C 
ATOM     89  S   UNL A   1      30.866  25.250  25.911  1.00  0.00     0.150 S 
ATOM     90  O   UNL A   1      31.717  26.427  25.922  1.00  0.00    -0.229 OA
ATOM     91  O   UNL A   1      29.547  25.245  26.497  1.00  0.00    -0.229 OA
ENDBRANCH  77  85
ENDBRANCH  75  77
ENDBRANCH  74  75
ENDBRANCH  73  74
ENDBRANCH  72  73
ENDBRANCH  71  72
ENDBRANCH   1  71
TORSDOF 20
ENDMDL
