MODEL 1
REMARK VINA RESULT:     -12.1      0.000      0.000
REMARK SMILES CC[C@](C)(NC(=O)N[C@@H]1C=CS(=O)(=O)C1)C(=O)OCCOCCOC(=O)c1ccc(-c2c3nc(c(-c4cc(S(=O)(=O)[O-])ccc4F)c4ccc([nH]4)c(-c4cc(S(=O)(=O)[O-])ccc4F)c4nc(c(-c5cc(S(=O)(=O)[O-])ccc5F)c5ccc2[nH]5)C=C4)C=C3)cc1
REMARK SMILES IDX 22 1 21 2 20 3 19 4 18 5 16 6 17 7 3 8 4 9 2 10 1 11 5 12
REMARK SMILES IDX 6 13 7 15 8 16 9 18 10 19 15 20 11 21 12 22 13 23 14 24
REMARK SMILES IDX 23 25 24 26 25 27 26 28 27 29 28 30 89 31 29 32 88 33 30 34
REMARK SMILES IDX 31 35 32 36 82 37 33 38 87 39 81 40 83 41 34 42 86 43 80 44
REMARK SMILES IDX 79 45 35 47 67 48 47 49 66 50 48 51 51 52 65 53 84 54 49 55
REMARK SMILES IDX 50 56 64 58 85 59 52 60 36 61 37 62 45 63 38 64 44 65 46 66
REMARK SMILES IDX 43 67 39 68 40 69 41 70 42 71 68 72 69 73 77 74 70 75 76 76
REMARK SMILES IDX 78 77 75 78 71 79 72 80 73 81 74 82 53 83 54 84 62 85 55 86
REMARK SMILES IDX 61 87 63 88 60 89 56 90 57 91 58 92 59 93
REMARK H PARENT 5 14 8 17 83 46 51 57
REMARK Flexibility Score: inf
ROOT
ATOM      1  C   UNL A   1      31.792  30.467  26.017  1.00  0.00     0.202 C 
ENDROOT
BRANCH   1   2
ATOM      2  O   UNL A   1      31.581  29.387  26.960  1.00  0.00    -0.374 OA
BRANCH   2   3
ATOM      3  C   UNL A   1      32.625  28.206  27.148  1.00  0.00     0.202 C 
BRANCH   3   4
ATOM      4  C   UNL A   1      33.283  26.618  25.774  1.00  0.00     0.261 C 
BRANCH   4   5
ATOM      5  O   UNL A   1      33.522  25.002  26.131  1.00  0.00    -0.462 OA
BRANCH   5   6
ATOM      6  C   UNL A   1      32.670  24.114  26.730  1.00  0.00     0.331 C 
ATOM      7  O   UNL A   1      31.598  24.465  27.210  1.00  0.00    -0.249 OA
BRANCH   6   8
ATOM      8  C   UNL A   1      33.241  22.614  26.753  1.00  0.00     0.136 C 
ATOM      9  C   UNL A   1      33.091  22.193  28.251  1.00  0.00     0.047 C 
BRANCH   8  10
ATOM     10  C   UNL A   1      34.756  22.661  26.431  1.00  0.00     0.037 C 
ATOM     11  C   UNL A   1      35.340  21.401  25.802  1.00  0.00     0.007 C 
ENDBRANCH   8  10
BRANCH   8  12
ATOM     12  N   UNL A   1      32.622  21.401  26.084  1.00  0.00    -0.322 N 
ATOM     13  C   UNL A   1      32.228  20.929  24.898  1.00  0.00     0.316 C 
ATOM     14  H   UNL A   1      32.448  20.716  26.769  1.00  0.00     0.166 HD
ATOM     15  O   UNL A   1      31.966  19.731  24.801  1.00  0.00    -0.249 OA
ATOM     16  N   UNL A   1      32.031  21.719  23.843  1.00  0.00    -0.331 N 
ATOM     17  H   UNL A   1      31.594  21.328  23.053  1.00  0.00     0.166 HD
BRANCH  16  18
ATOM     18  C   UNL A   1      32.410  23.093  23.778  1.00  0.00     0.123 C 
ATOM     19  C   UNL A   1      30.829  24.308  23.483  1.00  0.00     0.011 C 
ATOM     20  C   UNL A   1      33.911  23.727  22.581  1.00  0.00     0.170 C 
ATOM     21  C   UNL A   1      31.010  25.495  22.397  1.00  0.00     0.104 C 
ATOM     22  S   UNL A   1      33.095  25.666  21.529  1.00  0.00     0.173 S 
ATOM     23  O   UNL A   1      33.663  26.882  22.089  1.00  0.00    -0.224 OA
ATOM     24  O   UNL A   1      32.977  25.571  20.087  1.00  0.00    -0.224 OA
ENDBRANCH  16  18
ENDBRANCH   8  12
ENDBRANCH   6   8
ENDBRANCH   5   6
ENDBRANCH   4   5
ENDBRANCH   3   4
ENDBRANCH   2   3
ENDBRANCH   1   2
BRANCH   1  25
ATOM     25  C   UNL A   1      31.731  31.914  26.511  1.00  0.00     0.261 C 
BRANCH  25  26
ATOM     26  O   UNL A   1      32.413  32.098  27.747  1.00  0.00    -0.460 OA
BRANCH  26  27
ATOM     27  C   UNL A   1      33.315  33.110  27.711  1.00  0.00     0.338 C 
ATOM     28  O   UNL A   1      33.092  34.293  27.539  1.00  0.00    -0.246 OA
BRANCH  27  29
ATOM     29  C   UNL A   1      34.611  32.551  28.125  1.00  0.00     0.060 A 
ATOM     30  C   UNL A   1      34.623  31.264  28.675  1.00  0.00     0.016 A 
ATOM     31  C   UNL A   1      35.795  33.271  27.947  1.00  0.00     0.016 A 
ATOM     32  C   UNL A   1      35.828  30.695  29.078  1.00  0.00     0.010 A 
ATOM     33  C   UNL A   1      36.997  32.715  28.379  1.00  0.00     0.010 A 
ATOM     34  C   UNL A   1      37.008  31.442  28.977  1.00  0.00    -0.014 A 
BRANCH  34  35
ATOM     35  C   UNL A   1      38.194  31.046  29.767  1.00  0.00     0.031 A 
ATOM     36  C   UNL A   1      39.107  30.025  29.152  1.00  0.00     0.074 A 
ATOM     37  C   UNL A   1      38.441  31.548  30.986  1.00  0.00     0.049 A 
ATOM     38  N   UNL A   1      40.102  29.368  29.682  1.00  0.00    -0.248 NA
ATOM     39  C   UNL A   1      38.837  29.689  27.745  1.00  0.00     0.031 C 
ATOM     40  C   UNL A   1      37.663  32.595  31.642  1.00  0.00     0.029 A 
ATOM     41  N   UNL A   1      39.410  31.217  31.899  1.00  0.00    -0.354 N 
ATOM     42  C   UNL A   1      40.561  28.518  28.682  1.00  0.00     0.074 A 
ATOM     43  C   UNL A   1      39.713  28.724  27.528  1.00  0.00     0.031 C 
ATOM     44  C   UNL A   1      38.170  32.802  32.870  1.00  0.00     0.029 A 
ATOM     45  C   UNL A   1      39.264  31.859  33.105  1.00  0.00     0.049 A 
ATOM     46  H   UNL A   1      40.138  30.583  31.708  1.00  0.00     0.167 HD
ATOM     47  C   UNL A   1      41.594  27.643  28.728  1.00  0.00     0.034 A 
ATOM     48  C   UNL A   1      39.904  31.662  34.277  1.00  0.00     0.034 A 
ATOM     49  C   UNL A   1      42.401  27.442  29.905  1.00  0.00     0.049 A 
ATOM     50  C   UNL A   1      40.984  30.608  34.351  1.00  0.00     0.074 A 
ATOM     51  C   UNL A   1      43.475  26.590  30.078  1.00  0.00     0.029 A 
ATOM     52  N   UNL A   1      42.204  28.087  31.122  1.00  0.00    -0.354 N 
ATOM     53  N   UNL A   1      41.408  29.793  33.411  1.00  0.00    -0.248 NA
ATOM     54  C   UNL A   1      41.671  30.446  35.639  1.00  0.00     0.031 C 
ATOM     55  C   UNL A   1      43.861  26.645  31.420  1.00  0.00     0.029 A 
ATOM     56  C   UNL A   1      43.106  27.616  32.061  1.00  0.00     0.049 A 
ATOM     57  H   UNL A   1      41.521  28.776  31.291  1.00  0.00     0.167 HD
ATOM     58  C   UNL A   1      42.437  29.046  33.985  1.00  0.00     0.074 A 
ATOM     59  C   UNL A   1      42.563  29.506  35.354  1.00  0.00     0.031 C 
ATOM     60  C   UNL A   1      43.215  28.082  33.427  1.00  0.00     0.034 A 
BRANCH  47  61
ATOM     61  C   UNL A   1      41.822  26.786  27.505  1.00  0.00     0.023 A 
ATOM     62  C   UNL A   1      41.387  25.450  27.438  1.00  0.00     0.031 A 
ATOM     63  C   UNL A   1      42.575  27.284  26.427  1.00  0.00     0.131 A 
ATOM     64  C   UNL A   1      41.808  24.630  26.380  1.00  0.00     0.055 A 
ATOM     65  C   UNL A   1      42.897  26.493  25.324  1.00  0.00     0.041 A 
ATOM     66  F   UNL A   1      43.046  28.541  26.444  1.00  0.00    -0.206 F 
ATOM     67  C   UNL A   1      42.535  25.149  25.307  1.00  0.00     0.022 A 
BRANCH  64  68
ATOM     68  S   UNL A   1      41.585  22.835  26.538  1.00  0.00     0.124 S 
ATOM     69  O   UNL A   1      42.197  22.354  25.302  1.00  0.00    -0.237 OA
ATOM     70  O   UNL A   1      42.307  22.535  27.769  1.00  0.00    -0.237 OA
ATOM     71  O   UNL A   1      40.133  22.676  26.609  1.00  0.00    -0.744 OA
ENDBRANCH  64  68
ENDBRANCH  47  61
BRANCH  48  72
ATOM     72  C   UNL A   1      39.484  32.427  35.487  1.00  0.00     0.023 A 
ATOM     73  C   UNL A   1      39.869  33.761  35.689  1.00  0.00     0.031 A 
ATOM     74  C   UNL A   1      38.683  31.817  36.472  1.00  0.00     0.131 A 
ATOM     75  C   UNL A   1      39.468  34.435  36.855  1.00  0.00     0.055 A 
ATOM     76  C   UNL A   1      38.244  32.506  37.602  1.00  0.00     0.041 A 
ATOM     77  F   UNL A   1      38.289  30.540  36.332  1.00  0.00    -0.206 F 
ATOM     78  C   UNL A   1      38.643  33.823  37.803  1.00  0.00     0.022 A 
BRANCH  75  79
ATOM     79  S   UNL A   1      40.088  36.114  37.153  1.00  0.00     0.124 S 
ATOM     80  O   UNL A   1      39.223  36.560  38.240  1.00  0.00    -0.237 OA
ATOM     81  O   UNL A   1      41.483  35.865  37.501  1.00  0.00    -0.237 OA
ATOM     82  O   UNL A   1      39.879  36.785  35.872  1.00  0.00    -0.744 OA
ENDBRANCH  75  79
ENDBRANCH  48  72
BRANCH  60  83
ATOM     83  C   UNL A   1      44.327  27.501  34.269  1.00  0.00     0.023 A 
ATOM     84  C   UNL A   1      44.179  26.307  34.996  1.00  0.00     0.031 A 
ATOM     85  C   UNL A   1      45.579  28.144  34.303  1.00  0.00     0.131 A 
ATOM     86  C   UNL A   1      45.255  25.813  35.751  1.00  0.00     0.055 A 
ATOM     87  C   UNL A   1      46.663  27.614  35.002  1.00  0.00     0.041 A 
ATOM     88  F   UNL A   1      45.776  29.292  33.635  1.00  0.00    -0.206 F 
ATOM     89  C   UNL A   1      46.502  26.445  35.739  1.00  0.00     0.022 A 
BRANCH  86  90
ATOM     90  S   UNL A   1      44.985  24.375  36.823  1.00  0.00     0.124 S 
ATOM     91  O   UNL A   1      46.348  24.014  37.195  1.00  0.00    -0.237 OA
ATOM     92  O   UNL A   1      44.158  24.929  37.889  1.00  0.00    -0.237 OA
ATOM     93  O   UNL A   1      44.308  23.418  35.949  1.00  0.00    -0.744 OA
ENDBRANCH  86  90
ENDBRANCH  60  83
ENDBRANCH  34  35
ENDBRANCH  27  29
ENDBRANCH  26  27
ENDBRANCH  25  26
ENDBRANCH   1  25
TORSDOF 20
ENDMDL
MODEL 2
REMARK VINA RESULT:     -12.0      1.696      2.080
REMARK SMILES CC[C@](C)(NC(=O)N[C@@H]1C=CS(=O)(=O)C1)C(=O)OCCOCCOC(=O)c1ccc(-c2c3nc(c(-c4cc(S(=O)(=O)[O-])ccc4F)c4ccc([nH]4)c(-c4cc(S(=O)(=O)[O-])ccc4F)c4nc(c(-c5cc(S(=O)(=O)[O-])ccc5F)c5ccc2[nH]5)C=C4)C=C3)cc1
REMARK SMILES IDX 22 1 21 2 20 3 19 4 18 5 16 6 17 7 3 8 4 9 2 10 1 11 5 12
REMARK SMILES IDX 6 13 7 15 8 16 9 18 10 19 15 20 11 21 12 22 13 23 14 24
REMARK SMILES IDX 23 25 24 26 25 27 26 28 27 29 28 30 89 31 29 32 88 33 30 34
REMARK SMILES IDX 31 35 32 36 82 37 33 38 87 39 81 40 83 41 34 42 86 43 80 44
REMARK SMILES IDX 79 45 35 47 67 48 47 49 66 50 48 51 51 52 65 53 84 54 49 55
REMARK SMILES IDX 50 56 64 58 85 59 52 60 36 61 37 62 45 63 38 64 44 65 46 66
REMARK SMILES IDX 43 67 39 68 40 69 41 70 42 71 68 72 69 73 77 74 70 75 76 76
REMARK SMILES IDX 78 77 75 78 71 79 72 80 73 81 74 82 53 83 54 84 62 85 55 86
REMARK SMILES IDX 61 87 63 88 60 89 56 90 57 91 58 92 59 93
REMARK H PARENT 5 14 8 17 83 46 51 57
REMARK Flexibility Score: inf
ROOT
ATOM      1  C   UNL A   1      31.804  30.014  25.846  1.00  0.00     0.202 C 
ENDROOT
BRANCH   1   2
ATOM      2  O   UNL A   1      32.029  28.861  26.695  1.00  0.00    -0.374 OA
BRANCH   2   3
ATOM      3  C   UNL A   1      33.238  27.859  26.465  1.00  0.00     0.202 C 
BRANCH   3   4
ATOM      4  C   UNL A   1      33.668  26.452  24.829  1.00  0.00     0.261 C 
BRANCH   4   5
ATOM      5  O   UNL A   1      34.593  25.061  24.903  1.00  0.00    -0.462 OA
BRANCH   5   6
ATOM      6  C   UNL A   1      34.411  23.867  24.260  1.00  0.00     0.331 C 
ATOM      7  O   UNL A   1      34.142  23.807  23.065  1.00  0.00    -0.249 OA
BRANCH   6   8
ATOM      8  C   UNL A   1      34.561  22.600  25.233  1.00  0.00     0.136 C 
ATOM      9  C   UNL A   1      34.362  23.213  26.657  1.00  0.00     0.047 C 
BRANCH   8  10
ATOM     10  C   UNL A   1      36.020  22.085  25.147  1.00  0.00     0.037 C 
ATOM     11  C   UNL A   1      36.185  20.573  25.039  1.00  0.00     0.007 C 
ENDBRANCH   8  10
BRANCH   8  12
ATOM     12  N   UNL A   1      33.615  21.417  25.330  1.00  0.00    -0.322 N 
ATOM     13  C   UNL A   1      32.348  21.052  25.116  1.00  0.00     0.316 C 
ATOM     14  H   UNL A   1      34.113  20.641  25.674  1.00  0.00     0.166 HD
ATOM     15  O   UNL A   1      32.072  19.853  25.135  1.00  0.00    -0.249 OA
ATOM     16  N   UNL A   1      31.363  21.937  24.964  1.00  0.00    -0.331 N 
ATOM     17  H   UNL A   1      30.439  21.600  24.968  1.00  0.00     0.166 HD
BRANCH  16  18
ATOM     18  C   UNL A   1      31.556  23.341  24.799  1.00  0.00     0.123 C 
ATOM     19  C   UNL A   1      31.023  24.384  26.438  1.00  0.00     0.011 C 
ATOM     20  C   UNL A   1      30.850  24.327  23.180  1.00  0.00     0.170 C 
ATOM     21  C   UNL A   1      30.162  25.735  26.200  1.00  0.00     0.104 C 
ATOM     22  S   UNL A   1      29.864  26.288  24.024  1.00  0.00     0.173 S 
ATOM     23  O   UNL A   1      30.684  27.466  23.795  1.00  0.00    -0.224 OA
ATOM     24  O   UNL A   1      28.436  26.398  23.794  1.00  0.00    -0.224 OA
ENDBRANCH  16  18
ENDBRANCH   8  12
ENDBRANCH   6   8
ENDBRANCH   5   6
ENDBRANCH   4   5
ENDBRANCH   3   4
ENDBRANCH   2   3
ENDBRANCH   1   2
BRANCH   1  25
ATOM     25  C   UNL A   1      31.919  31.417  26.445  1.00  0.00     0.261 C 
BRANCH  25  26
ATOM     26  O   UNL A   1      32.719  31.445  27.622  1.00  0.00    -0.460 OA
BRANCH  26  27
ATOM     27  C   UNL A   1      33.533  32.527  27.686  1.00  0.00     0.338 C 
ATOM     28  O   UNL A   1      33.214  33.698  27.604  1.00  0.00    -0.246 OA
BRANCH  27  29
ATOM     29  C   UNL A   1      34.865  32.046  28.084  1.00  0.00     0.060 A 
ATOM     30  C   UNL A   1      34.992  30.702  28.452  1.00  0.00     0.016 A 
ATOM     31  C   UNL A   1      35.973  32.897  28.066  1.00  0.00     0.016 A 
ATOM     32  C   UNL A   1      36.235  30.203  28.832  1.00  0.00     0.010 A 
ATOM     33  C   UNL A   1      37.210  32.407  28.476  1.00  0.00     0.010 A 
ATOM     34  C   UNL A   1      37.333  31.069  28.894  1.00  0.00    -0.014 A 
BRANCH  34  35
ATOM     35  C   UNL A   1      38.525  30.684  29.680  1.00  0.00     0.031 A 
ATOM     36  C   UNL A   1      39.431  29.651  29.074  1.00  0.00     0.074 A 
ATOM     37  C   UNL A   1      38.784  31.207  30.889  1.00  0.00     0.049 A 
ATOM     38  N   UNL A   1      40.430  29.001  29.607  1.00  0.00    -0.248 NA
ATOM     39  C   UNL A   1      39.148  29.291  27.676  1.00  0.00     0.031 C 
ATOM     40  C   UNL A   1      38.014  32.266  31.533  1.00  0.00     0.029 A 
ATOM     41  N   UNL A   1      39.760  30.890  31.798  1.00  0.00    -0.354 N 
ATOM     42  C   UNL A   1      40.878  28.133  28.618  1.00  0.00     0.074 A 
ATOM     43  C   UNL A   1      40.020  28.321  27.468  1.00  0.00     0.031 C 
ATOM     44  C   UNL A   1      38.532  32.493  32.753  1.00  0.00     0.029 A 
ATOM     45  C   UNL A   1      39.627  31.553  32.994  1.00  0.00     0.049 A 
ATOM     46  H   UNL A   1      40.485  30.251  31.612  1.00  0.00     0.167 HD
ATOM     47  C   UNL A   1      41.909  27.257  28.670  1.00  0.00     0.034 A 
ATOM     48  C   UNL A   1      40.276  31.375  34.163  1.00  0.00     0.034 A 
ATOM     49  C   UNL A   1      42.726  27.075  29.843  1.00  0.00     0.049 A 
ATOM     50  C   UNL A   1      41.355  30.320  34.246  1.00  0.00     0.074 A 
ATOM     51  C   UNL A   1      43.800  26.223  30.021  1.00  0.00     0.029 A 
ATOM     52  N   UNL A   1      42.541  27.741  31.050  1.00  0.00    -0.354 N 
ATOM     53  N   UNL A   1      41.769  29.487  33.317  1.00  0.00    -0.248 NA
ATOM     54  C   UNL A   1      42.053  30.179  35.530  1.00  0.00     0.031 C 
ATOM     55  C   UNL A   1      44.198  26.301  31.359  1.00  0.00     0.029 A 
ATOM     56  C   UNL A   1      43.451  27.284  31.990  1.00  0.00     0.049 A 
ATOM     57  H   UNL A   1      41.861  28.434  31.213  1.00  0.00     0.167 HD
ATOM     58  C   UNL A   1      42.801  28.749  33.895  1.00  0.00     0.074 A 
ATOM     59  C   UNL A   1      42.940  29.232  35.254  1.00  0.00     0.031 C 
ATOM     60  C   UNL A   1      43.572  27.773  33.347  1.00  0.00     0.034 A 
BRANCH  47  61
ATOM     61  C   UNL A   1      42.125  26.378  27.460  1.00  0.00     0.023 A 
ATOM     62  C   UNL A   1      41.592  25.080  27.376  1.00  0.00     0.031 A 
ATOM     63  C   UNL A   1      42.962  26.812  26.417  1.00  0.00     0.131 A 
ATOM     64  C   UNL A   1      41.995  24.224  26.340  1.00  0.00     0.055 A 
ATOM     65  C   UNL A   1      43.271  25.992  25.330  1.00  0.00     0.041 A 
ATOM     66  F   UNL A   1      43.527  28.029  26.452  1.00  0.00    -0.206 F 
ATOM     67  C   UNL A   1      42.807  24.680  25.300  1.00  0.00     0.022 A 
BRANCH  64  68
ATOM     68  S   UNL A   1      41.627  22.453  26.491  1.00  0.00     0.124 S 
ATOM     69  O   UNL A   1      42.105  22.169  27.842  1.00  0.00    -0.237 OA
ATOM     70  O   UNL A   1      40.181  22.415  26.303  1.00  0.00    -0.237 OA
ATOM     71  O   UNL A   1      42.414  21.847  25.419  1.00  0.00    -0.744 OA
ENDBRANCH  64  68
ENDBRANCH  47  61
BRANCH  48  72
ATOM     72  C   UNL A   1      39.868  32.161  35.364  1.00  0.00     0.023 A 
ATOM     73  C   UNL A   1      38.983  31.642  36.320  1.00  0.00     0.031 A 
ATOM     74  C   UNL A   1      40.367  33.463  35.566  1.00  0.00     0.131 A 
ATOM     75  C   UNL A   1      38.609  32.427  37.425  1.00  0.00     0.055 A 
ATOM     76  C   UNL A   1      40.033  34.218  36.690  1.00  0.00     0.041 A 
ATOM     77  F   UNL A   1      41.214  34.010  34.679  1.00  0.00    -0.206 F 
ATOM     78  C   UNL A   1      39.143  33.703  37.625  1.00  0.00     0.022 A 
BRANCH  75  79
ATOM     79  S   UNL A   1      37.362  31.783  38.575  1.00  0.00     0.124 S 
ATOM     80  O   UNL A   1      38.064  31.872  39.851  1.00  0.00    -0.237 OA
ATOM     81  O   UNL A   1      36.259  32.718  38.381  1.00  0.00    -0.237 OA
ATOM     82  O   UNL A   1      37.119  30.427  38.088  1.00  0.00    -0.744 OA
ENDBRANCH  75  79
ENDBRANCH  48  72
BRANCH  60  83
ATOM     83  C   UNL A   1      44.691  27.205  34.189  1.00  0.00     0.023 A 
ATOM     84  C   UNL A   1      44.540  26.036  34.954  1.00  0.00     0.031 A 
ATOM     85  C   UNL A   1      45.951  27.833  34.184  1.00  0.00     0.131 A 
ATOM     86  C   UNL A   1      45.622  25.552  35.707  1.00  0.00     0.055 A 
ATOM     87  C   UNL A   1      47.040  27.311  34.881  1.00  0.00     0.041 A 
ATOM     88  F   UNL A   1      46.151  28.957  33.477  1.00  0.00    -0.206 F 
ATOM     89  C   UNL A   1      46.877  26.168  35.657  1.00  0.00     0.022 A 
BRANCH  86  90
ATOM     90  S   UNL A   1      45.352  24.151  36.827  1.00  0.00     0.124 S 
ATOM     91  O   UNL A   1      46.707  23.641  37.008  1.00  0.00    -0.237 OA
ATOM     92  O   UNL A   1      44.750  24.791  37.992  1.00  0.00    -0.237 OA
ATOM     93  O   UNL A   1      44.457  23.275  36.071  1.00  0.00    -0.744 OA
ENDBRANCH  86  90
ENDBRANCH  60  83
ENDBRANCH  34  35
ENDBRANCH  27  29
ENDBRANCH  26  27
ENDBRANCH  25  26
ENDBRANCH   1  25
TORSDOF 20
ENDMDL
MODEL 3
REMARK VINA RESULT:     -11.9      4.709      8.061
REMARK SMILES CC[C@](C)(NC(=O)N[C@@H]1C=CS(=O)(=O)C1)C(=O)OCCOCCOC(=O)c1ccc(-c2c3nc(c(-c4cc(S(=O)(=O)[O-])ccc4F)c4ccc([nH]4)c(-c4cc(S(=O)(=O)[O-])ccc4F)c4nc(c(-c5cc(S(=O)(=O)[O-])ccc5F)c5ccc2[nH]5)C=C4)C=C3)cc1
REMARK SMILES IDX 22 1 21 2 20 3 19 4 18 5 16 6 17 7 3 8 4 9 2 10 1 11 5 12
REMARK SMILES IDX 6 13 7 15 8 16 9 18 10 19 15 20 11 21 12 22 13 23 14 24
REMARK SMILES IDX 23 25 24 26 25 27 26 28 27 29 28 30 89 31 29 32 88 33 30 34
REMARK SMILES IDX 31 35 32 36 82 37 33 38 87 39 81 40 83 41 34 42 86 43 80 44
REMARK SMILES IDX 79 45 35 47 67 48 47 49 66 50 48 51 51 52 65 53 84 54 49 55
REMARK SMILES IDX 50 56 64 58 85 59 52 60 36 61 37 62 45 63 38 64 44 65 46 66
REMARK SMILES IDX 43 67 39 68 40 69 41 70 42 71 68 72 69 73 77 74 70 75 76 76
REMARK SMILES IDX 78 77 75 78 71 79 72 80 73 81 74 82 53 83 54 84 62 85 55 86
REMARK SMILES IDX 61 87 63 88 60 89 56 90 57 91 58 92 59 93
REMARK H PARENT 5 14 8 17 83 46 51 57
REMARK Flexibility Score: inf
ROOT
ATOM      1  C   UNL A   1      37.457  20.109  25.033  1.00  0.00     0.202 C 
ENDROOT
BRANCH   1   2
ATOM      2  O   UNL A   1      37.245  21.127  24.023  1.00  0.00    -0.374 OA
BRANCH   2   3
ATOM      3  C   UNL A   1      37.128  22.669  24.380  1.00  0.00     0.202 C 
BRANCH   3   4
ATOM      4  C   UNL A   1      36.032  23.710  25.980  1.00  0.00     0.261 C 
BRANCH   4   5
ATOM      5  O   UNL A   1      34.378  23.915  26.109  1.00  0.00    -0.462 OA
BRANCH   5   6
ATOM      6  C   UNL A   1      33.437  23.999  25.119  1.00  0.00     0.331 C 
ATOM      7  O   UNL A   1      33.494  24.853  24.241  1.00  0.00    -0.249 OA
BRANCH   6   8
ATOM      8  C   UNL A   1      32.276  22.901  25.261  1.00  0.00     0.136 C 
ATOM      9  C   UNL A   1      33.056  21.593  25.613  1.00  0.00     0.047 C 
BRANCH   8  10
ATOM     10  C   UNL A   1      31.622  22.695  23.872  1.00  0.00     0.037 C 
ATOM     11  C   UNL A   1      32.435  21.883  22.870  1.00  0.00     0.007 C 
ENDBRANCH   8  10
BRANCH   8  12
ATOM     12  N   UNL A   1      31.202  22.853  26.334  1.00  0.00    -0.322 N 
ATOM     13  C   UNL A   1      30.153  23.524  26.816  1.00  0.00     0.316 C 
ATOM     14  H   UNL A   1      31.323  22.034  26.866  1.00  0.00     0.166 HD
ATOM     15  O   UNL A   1      29.407  22.955  27.611  1.00  0.00    -0.249 OA
ATOM     16  N   UNL A   1      29.932  24.808  26.530  1.00  0.00    -0.331 N 
ATOM     17  H   UNL A   1      29.234  25.277  27.041  1.00  0.00     0.166 HD
BRANCH  16  18
ATOM     18  C   UNL A   1      30.638  25.549  25.536  1.00  0.00     0.123 C 
ATOM     19  C   UNL A   1      31.592  27.147  26.309  1.00  0.00     0.011 C 
ATOM     20  C   UNL A   1      29.751  26.129  23.814  1.00  0.00     0.170 C 
ATOM     21  C   UNL A   1      31.480  28.537  25.485  1.00  0.00     0.104 C 
ATOM     22  S   UNL A   1      30.395  28.370  23.504  1.00  0.00     0.173 S 
ATOM     23  O   UNL A   1      31.412  28.519  22.477  1.00  0.00    -0.224 OA
ATOM     24  O   UNL A   1      29.303  29.325  23.524  1.00  0.00    -0.224 OA
ENDBRANCH  16  18
ENDBRANCH   8  12
ENDBRANCH   6   8
ENDBRANCH   5   6
ENDBRANCH   4   5
ENDBRANCH   3   4
ENDBRANCH   2   3
ENDBRANCH   1   2
BRANCH   1  25
ATOM     25  C   UNL A   1      38.869  19.570  25.266  1.00  0.00     0.261 C 
BRANCH  25  26
ATOM     26  O   UNL A   1      39.358  19.864  26.570  1.00  0.00    -0.460 OA
BRANCH  26  27
ATOM     27  C   UNL A   1      40.687  20.132  26.591  1.00  0.00     0.338 C 
ATOM     28  O   UNL A   1      41.590  19.428  26.182  1.00  0.00    -0.246 OA
BRANCH  27  29
ATOM     29  C   UNL A   1      40.841  21.533  27.013  1.00  0.00     0.060 A 
ATOM     30  C   UNL A   1      40.026  22.493  26.403  1.00  0.00     0.016 A 
ATOM     31  C   UNL A   1      41.751  21.888  28.013  1.00  0.00     0.016 A 
ATOM     32  C   UNL A   1      40.135  23.831  26.775  1.00  0.00     0.010 A 
ATOM     33  C   UNL A   1      41.883  23.229  28.362  1.00  0.00     0.010 A 
ATOM     34  C   UNL A   1      41.100  24.205  27.717  1.00  0.00    -0.014 A 
BRANCH  34  35
ATOM     35  C   UNL A   1      41.521  25.620  27.811  1.00  0.00     0.031 A 
ATOM     36  C   UNL A   1      42.884  25.958  27.281  1.00  0.00     0.074 A 
ATOM     37  C   UNL A   1      40.742  26.561  28.365  1.00  0.00     0.049 A 
ATOM     38  N   UNL A   1      43.575  27.060  27.397  1.00  0.00    -0.248 NA
ATOM     39  C   UNL A   1      43.565  24.889  26.535  1.00  0.00     0.031 C 
ATOM     40  C   UNL A   1      39.377  26.356  28.841  1.00  0.00     0.029 A 
ATOM     41  N   UNL A   1      41.007  27.878  28.641  1.00  0.00    -0.354 N 
ATOM     42  C   UNL A   1      44.786  26.807  26.762  1.00  0.00     0.074 A 
ATOM     43  C   UNL A   1      44.742  25.439  26.294  1.00  0.00     0.031 C 
ATOM     44  C   UNL A   1      38.932  27.504  29.380  1.00  0.00     0.029 A 
ATOM     45  C   UNL A   1      40.002  28.501  29.342  1.00  0.00     0.049 A 
ATOM     46  H   UNL A   1      41.835  28.332  28.365  1.00  0.00     0.167 HD
ATOM     47  C   UNL A   1      45.838  27.642  26.592  1.00  0.00     0.034 A 
ATOM     48  C   UNL A   1      39.978  29.714  29.933  1.00  0.00     0.034 A 
ATOM     49  C   UNL A   1      45.859  28.992  27.096  1.00  0.00     0.049 A 
ATOM     50  C   UNL A   1      41.197  30.601  29.830  1.00  0.00     0.074 A 
ATOM     51  C   UNL A   1      46.861  29.937  26.987  1.00  0.00     0.029 A 
ATOM     52  N   UNL A   1      44.835  29.580  27.832  1.00  0.00    -0.354 N 
ATOM     53  N   UNL A   1      42.349  30.358  29.245  1.00  0.00    -0.248 NA
ATOM     54  C   UNL A   1      41.116  31.922  30.466  1.00  0.00     0.031 C 
ATOM     55  C   UNL A   1      46.488  31.055  27.738  1.00  0.00     0.029 A 
ATOM     56  C   UNL A   1      45.203  30.858  28.222  1.00  0.00     0.049 A 
ATOM     57  H   UNL A   1      43.976  29.150  28.045  1.00  0.00     0.167 HD
ATOM     58  C   UNL A   1      43.116  31.510  29.410  1.00  0.00     0.074 A 
ATOM     59  C   UNL A   1      42.297  32.444  30.156  1.00  0.00     0.031 C 
ATOM     60  C   UNL A   1      44.374  31.776  28.973  1.00  0.00     0.034 A 
BRANCH  47  61
ATOM     61  C   UNL A   1      47.066  27.071  25.922  1.00  0.00     0.023 A 
ATOM     62  C   UNL A   1      48.012  26.305  26.627  1.00  0.00     0.031 A 
ATOM     63  C   UNL A   1      47.344  27.383  24.580  1.00  0.00     0.131 A 
ATOM     64  C   UNL A   1      49.237  25.981  26.024  1.00  0.00     0.055 A 
ATOM     65  C   UNL A   1      48.518  26.962  23.953  1.00  0.00     0.041 A 
ATOM     66  F   UNL A   1      46.497  28.136  23.861  1.00  0.00    -0.206 F 
ATOM     67  C   UNL A   1      49.485  26.278  24.683  1.00  0.00     0.022 A 
BRANCH  64  68
ATOM     68  S   UNL A   1      50.582  25.369  27.079  1.00  0.00     0.124 S 
ATOM     69  O   UNL A   1      51.585  24.991  26.086  1.00  0.00    -0.237 OA
ATOM     70  O   UNL A   1      50.898  26.536  27.895  1.00  0.00    -0.237 OA
ATOM     71  O   UNL A   1      49.973  24.250  27.795  1.00  0.00    -0.744 OA
ENDBRANCH  64  68
ENDBRANCH  47  61
BRANCH  48  72
ATOM     72  C   UNL A   1      38.788  30.123  30.736  1.00  0.00     0.023 A 
ATOM     73  C   UNL A   1      37.754  30.892  30.183  1.00  0.00     0.031 A 
ATOM     74  C   UNL A   1      38.678  29.744  32.088  1.00  0.00     0.131 A 
ATOM     75  C   UNL A   1      36.663  31.273  30.984  1.00  0.00     0.055 A 
ATOM     76  C   UNL A   1      37.569  30.080  32.863  1.00  0.00     0.041 A 
ATOM     77  F   UNL A   1      39.642  29.011  32.668  1.00  0.00    -0.206 F 
ATOM     78  C   UNL A   1      36.554  30.856  32.313  1.00  0.00     0.022 A 
BRANCH  75  79
ATOM     79  S   UNL A   1      35.404  32.376  30.282  1.00  0.00     0.124 S 
ATOM     80  O   UNL A   1      34.417  32.418  31.354  1.00  0.00    -0.237 OA
ATOM     81  O   UNL A   1      36.166  33.601  30.060  1.00  0.00    -0.237 OA
ATOM     82  O   UNL A   1      34.982  31.681  29.069  1.00  0.00    -0.744 OA
ENDBRANCH  75  79
ENDBRANCH  48  72
BRANCH  60  83
ATOM     83  C   UNL A   1      44.927  33.160  29.222  1.00  0.00     0.023 A 
ATOM     84  C   UNL A   1      44.722  34.227  28.331  1.00  0.00     0.031 A 
ATOM     85  C   UNL A   1      45.642  33.419  30.408  1.00  0.00     0.131 A 
ATOM     86  C   UNL A   1      45.253  35.493  28.625  1.00  0.00     0.055 A 
ATOM     87  C   UNL A   1      46.110  34.693  30.725  1.00  0.00     0.041 A 
ATOM     88  F   UNL A   1      45.875  32.436  31.292  1.00  0.00    -0.206 F 
ATOM     89  C   UNL A   1      45.925  35.739  29.827  1.00  0.00     0.022 A 
BRANCH  86  90
ATOM     90  S   UNL A   1      45.132  36.804  27.378  1.00  0.00     0.124 S 
ATOM     91  O   UNL A   1      46.044  36.325  26.345  1.00  0.00    -0.237 OA
ATOM     92  O   UNL A   1      43.714  36.783  27.036  1.00  0.00    -0.237 OA
ATOM     93  O   UNL A   1      45.578  38.000  28.092  1.00  0.00    -0.744 OA
ENDBRANCH  86  90
ENDBRANCH  60  83
ENDBRANCH  34  35
ENDBRANCH  27  29
ENDBRANCH  26  27
ENDBRANCH  25  26
ENDBRANCH   1  25
TORSDOF 20
ENDMDL
