MODEL 1
REMARK VINA RESULT:     -11.5      0.000      0.000
REMARK SMILES CC[C@@H](C)Oc1cccc(C(=O)Nc2ccc(Cl)c(C(=O)OCCOCCOC(=O)c3ccc(-c4c5nc(c(-c6cc(S(=O)(=O)[O-])ccc6F)c6ccc([nH]6)c(-c6cc(S(=O)(=O)[O-])ccc6F)c6nc(c(-c7cc(S(=O)(=O)[O-])ccc7F)c7ccc4[nH]7)C=C6)C=C5)cc3)c2)c1
REMARK SMILES IDX 24 1 23 2 22 3 20 4 21 5 19 6 14 7 15 8 94 9 16 10 17 11
REMARK SMILES IDX 18 12 13 13 11 14 12 15 10 17 6 18 7 19 95 20 8 21 9 22 5 23
REMARK SMILES IDX 3 24 4 25 2 26 1 27 25 28 26 29 27 30 28 31 29 32 30 33
REMARK SMILES IDX 31 34 32 35 93 36 33 37 92 38 34 39 35 40 36 41 86 42 37 43
REMARK SMILES IDX 91 44 85 45 87 46 38 47 90 48 84 49 83 50 39 52 71 53 51 54
REMARK SMILES IDX 70 55 52 56 55 57 69 58 88 59 53 60 54 61 68 63 89 64 56 65
REMARK SMILES IDX 40 66 41 67 49 68 42 69 48 70 50 71 47 72 43 73 44 74 45 75
REMARK SMILES IDX 46 76 72 77 73 78 81 79 74 80 80 81 82 82 79 83 75 84 76 85
REMARK SMILES IDX 77 86 78 87 57 88 58 89 66 90 59 91 65 92 67 93 64 94 60 95
REMARK SMILES IDX 61 96 62 97 63 98
REMARK H PARENT 13 16 87 51 55 62
REMARK Flexibility Score: inf
ROOT
ATOM      1  C   UNL A   1      35.972  20.720  25.330  1.00  0.00     0.202 C 
ENDROOT
BRANCH   1   2
ATOM      2  C   UNL A   1      34.685  21.264  24.698  1.00  0.00     0.261 C 
BRANCH   2   3
ATOM      3  O   UNL A   1      33.700  21.680  25.660  1.00  0.00    -0.460 OA
BRANCH   3   4
ATOM      4  C   UNL A   1      32.432  21.336  25.343  1.00  0.00     0.339 C 
ATOM      5  O   UNL A   1      31.978  20.197  25.315  1.00  0.00    -0.246 OA
BRANCH   4   6
ATOM      6  C   UNL A   1      31.604  22.530  25.069  1.00  0.00     0.080 A 
ATOM      7  C   UNL A   1      30.961  24.732  25.857  1.00  0.00     0.042 A 
ATOM      8  C   UNL A   1      30.609  25.088  24.551  1.00  0.00     0.028 A 
ATOM      9  C   UNL A   1      31.354  23.419  26.127  1.00  0.00     0.043 A 
ATOM     10  C   UNL A   1      30.774  24.179  23.505  1.00  0.00     0.023 A 
ATOM     11  C   UNL A   1      31.303  22.911  23.754  1.00  0.00     0.055 A 
ATOM     12  Cl  UNL A   1      31.567  21.900  22.377  1.00  0.00    -0.083 Cl
BRANCH   7  13
ATOM     13  N   UNL A   1      30.986  25.769  26.805  1.00  0.00    -0.322 N 
ATOM     14  C   UNL A   1      31.421  27.081  26.736  1.00  0.00     0.255 C 
ATOM     15  O   UNL A   1      31.456  27.745  27.771  1.00  0.00    -0.269 OA
ATOM     16  H   UNL A   1      30.627  25.515  27.686  1.00  0.00     0.170 HD
BRANCH  14  17
ATOM     17  C   UNL A   1      31.764  27.744  25.449  1.00  0.00     0.043 A 
ATOM     18  C   UNL A   1      31.192  29.241  23.634  1.00  0.00     0.120 A 
ATOM     19  C   UNL A   1      32.252  28.709  22.893  1.00  0.00     0.046 A 
ATOM     20  C   UNL A   1      31.006  28.811  24.940  1.00  0.00     0.060 A 
ATOM     21  C   UNL A   1      33.110  27.755  23.449  1.00  0.00     0.005 A 
ATOM     22  C   UNL A   1      32.854  27.255  24.723  1.00  0.00     0.014 A 
BRANCH  18  23
ATOM     23  O   UNL A   1      30.296  29.979  22.921  1.00  0.00    -0.491 OA
BRANCH  23  24
ATOM     24  C   UNL A   1      28.904  30.101  23.252  1.00  0.00     0.170 C 
ATOM     25  C   UNL A   1      28.086  29.004  22.587  1.00  0.00     0.053 C 
BRANCH  24  26
ATOM     26  C   UNL A   1      28.286  31.497  23.087  1.00  0.00     0.041 C 
ATOM     27  C   UNL A   1      28.368  32.046  21.670  1.00  0.00     0.008 C 
ENDBRANCH  24  26
ENDBRANCH  23  24
ENDBRANCH  18  23
ENDBRANCH  14  17
ENDBRANCH   7  13
ENDBRANCH   4   6
ENDBRANCH   3   4
ENDBRANCH   2   3
ENDBRANCH   1   2
BRANCH   1  28
ATOM     28  O   UNL A   1      37.083  20.375  24.511  1.00  0.00    -0.374 OA
BRANCH  28  29
ATOM     29  C   UNL A   1      37.868  19.236  24.831  1.00  0.00     0.202 C 
BRANCH  29  30
ATOM     30  C   UNL A   1      39.189  19.385  25.603  1.00  0.00     0.261 C 
BRANCH  30  31
ATOM     31  O   UNL A   1      39.504  20.714  26.036  1.00  0.00    -0.460 OA
BRANCH  31  32
ATOM     32  C   UNL A   1      40.587  20.787  26.846  1.00  0.00     0.338 C 
ATOM     33  O   UNL A   1      41.445  19.922  27.004  1.00  0.00    -0.246 OA
BRANCH  32  34
ATOM     34  C   UNL A   1      40.718  22.136  27.417  1.00  0.00     0.060 A 
ATOM     35  C   UNL A   1      39.915  23.152  26.881  1.00  0.00     0.016 A 
ATOM     36  C   UNL A   1      41.688  22.426  28.377  1.00  0.00     0.016 A 
ATOM     37  C   UNL A   1      40.109  24.474  27.268  1.00  0.00     0.010 A 
ATOM     38  C   UNL A   1      41.899  23.757  28.748  1.00  0.00     0.010 A 
ATOM     39  C   UNL A   1      41.137  24.788  28.164  1.00  0.00    -0.014 A 
BRANCH  39  40
ATOM     40  C   UNL A   1      41.559  26.201  28.316  1.00  0.00     0.031 A 
ATOM     41  C   UNL A   1      42.904  26.601  27.771  1.00  0.00     0.074 A 
ATOM     42  C   UNL A   1      40.754  27.107  28.898  1.00  0.00     0.049 A 
ATOM     43  N   UNL A   1      43.531  27.743  27.862  1.00  0.00    -0.248 NA
ATOM     44  C   UNL A   1      43.641  25.567  27.024  1.00  0.00     0.031 C 
ATOM     45  C   UNL A   1      39.405  26.843  29.395  1.00  0.00     0.029 A 
ATOM     46  N   UNL A   1      40.963  28.434  29.179  1.00  0.00    -0.354 N 
ATOM     47  C   UNL A   1      44.741  27.564  27.201  1.00  0.00     0.074 A 
ATOM     48  C   UNL A   1      44.769  26.196  26.731  1.00  0.00     0.031 C 
ATOM     49  C   UNL A   1      38.914  27.969  29.941  1.00  0.00     0.029 A 
ATOM     50  C   UNL A   1      39.930  29.019  29.873  1.00  0.00     0.049 A 
ATOM     51  H   UNL A   1      41.775  28.921  28.909  1.00  0.00     0.167 HD
ATOM     52  C   UNL A   1      45.739  28.460  27.006  1.00  0.00     0.034 A 
ATOM     53  C   UNL A   1      39.836  30.248  30.422  1.00  0.00     0.034 A 
ATOM     54  C   UNL A   1      45.690  29.819  27.484  1.00  0.00     0.049 A 
ATOM     55  C   UNL A   1      40.997  31.205  30.262  1.00  0.00     0.074 A 
ATOM     56  C   UNL A   1      46.639  30.816  27.341  1.00  0.00     0.029 A 
ATOM     57  N   UNL A   1      44.639  30.369  28.206  1.00  0.00    -0.354 N 
ATOM     58  N   UNL A   1      42.140  31.022  29.641  1.00  0.00    -0.248 NA
ATOM     59  C   UNL A   1      40.854  32.535  30.871  1.00  0.00     0.031 C 
ATOM     60  C   UNL A   1      46.191  31.946  28.033  1.00  0.00     0.029 A 
ATOM     61  C   UNL A   1      44.928  31.681  28.539  1.00  0.00     0.049 A 
ATOM     62  H   UNL A   1      43.810  29.894  28.446  1.00  0.00     0.167 HD
ATOM     63  C   UNL A   1      42.828  32.229  29.746  1.00  0.00     0.074 A 
ATOM     64  C   UNL A   1      41.973  33.131  30.488  1.00  0.00     0.031 C 
ATOM     65  C   UNL A   1      44.051  32.567  29.265  1.00  0.00     0.034 A 
BRANCH  52  66
ATOM     66  C   UNL A   1      46.983  27.982  26.303  1.00  0.00     0.023 A 
ATOM     67  C   UNL A   1      47.162  28.132  24.917  1.00  0.00     0.031 A 
ATOM     68  C   UNL A   1      48.008  27.358  27.038  1.00  0.00     0.131 A 
ATOM     69  C   UNL A   1      48.316  27.620  24.303  1.00  0.00     0.055 A 
ATOM     70  C   UNL A   1      49.183  26.914  26.432  1.00  0.00     0.041 A 
ATOM     71  F   UNL A   1      47.879  27.164  28.360  1.00  0.00    -0.206 F 
ATOM     72  C   UNL A   1      49.338  27.035  25.054  1.00  0.00     0.022 A 
BRANCH  69  73
ATOM     73  S   UNL A   1      48.417  27.632  22.492  1.00  0.00     0.124 S 
ATOM     74  O   UNL A   1      48.518  26.206  22.193  1.00  0.00    -0.237 OA
ATOM     75  O   UNL A   1      47.167  28.278  22.110  1.00  0.00    -0.237 OA
ATOM     76  O   UNL A   1      49.627  28.406  22.221  1.00  0.00    -0.744 OA
ENDBRANCH  69  73
ENDBRANCH  52  66
BRANCH  53  77
ATOM     77  C   UNL A   1      38.636  30.639  31.220  1.00  0.00     0.023 A 
ATOM     78  C   UNL A   1      37.513  31.218  30.609  1.00  0.00     0.031 A 
ATOM     79  C   UNL A   1      38.631  30.516  32.622  1.00  0.00     0.131 A 
ATOM     80  C   UNL A   1      36.460  31.709  31.398  1.00  0.00     0.055 A 
ATOM     81  C   UNL A   1      37.554  30.950  33.398  1.00  0.00     0.041 A 
ATOM     82  F   UNL A   1      39.679  29.973  33.261  1.00  0.00    -0.206 F 
ATOM     83  C   UNL A   1      36.469  31.567  32.788  1.00  0.00     0.022 A 
BRANCH  80  84
ATOM     84  S   UNL A   1      35.133  32.645  30.590  1.00  0.00     0.124 S 
ATOM     85  O   UNL A   1      34.074  32.580  31.590  1.00  0.00    -0.237 OA
ATOM     86  O   UNL A   1      35.758  33.950  30.401  1.00  0.00    -0.237 OA
ATOM     87  O   UNL A   1      34.884  31.891  29.365  1.00  0.00    -0.744 OA
ENDBRANCH  80  84
ENDBRANCH  53  77
BRANCH  65  88
ATOM     88  C   UNL A   1      44.501  33.994  29.455  1.00  0.00     0.023 A 
ATOM     89  C   UNL A   1      44.247  34.992  28.498  1.00  0.00     0.031 A 
ATOM     90  C   UNL A   1      45.179  34.361  30.632  1.00  0.00     0.131 A 
ATOM     91  C   UNL A   1      44.706  36.300  28.716  1.00  0.00     0.055 A 
ATOM     92  C   UNL A   1      45.583  35.674  30.868  1.00  0.00     0.041 A 
ATOM     93  F   UNL A   1      45.445  33.447  31.578  1.00  0.00    -0.206 F 
ATOM     94  C   UNL A   1      45.357  36.650  29.903  1.00  0.00     0.022 A 
BRANCH  91  95
ATOM     95  S   UNL A   1      44.500  37.528  27.399  1.00  0.00     0.124 S 
ATOM     96  O   UNL A   1      44.510  38.781  28.147  1.00  0.00    -0.237 OA
ATOM     97  O   UNL A   1      45.664  37.280  26.555  1.00  0.00    -0.237 OA
ATOM     98  O   UNL A   1      43.215  37.174  26.798  1.00  0.00    -0.744 OA
ENDBRANCH  91  95
ENDBRANCH  65  88
ENDBRANCH  39  40
ENDBRANCH  32  34
ENDBRANCH  31  32
ENDBRANCH  30  31
ENDBRANCH  29  30
ENDBRANCH  28  29
ENDBRANCH   1  28
TORSDOF 22
ENDMDL
MODEL 2
REMARK VINA RESULT:     -11.4      4.944     10.990
REMARK SMILES CC[C@@H](C)Oc1cccc(C(=O)Nc2ccc(Cl)c(C(=O)OCCOCCOC(=O)c3ccc(-c4c5nc(c(-c6cc(S(=O)(=O)[O-])ccc6F)c6ccc([nH]6)c(-c6cc(S(=O)(=O)[O-])ccc6F)c6nc(c(-c7cc(S(=O)(=O)[O-])ccc7F)c7ccc4[nH]7)C=C6)C=C5)cc3)c2)c1
REMARK SMILES IDX 24 1 23 2 22 3 20 4 21 5 19 6 14 7 15 8 94 9 16 10 17 11
REMARK SMILES IDX 18 12 13 13 11 14 12 15 10 17 6 18 7 19 95 20 8 21 9 22 5 23
REMARK SMILES IDX 3 24 4 25 2 26 1 27 25 28 26 29 27 30 28 31 29 32 30 33
REMARK SMILES IDX 31 34 32 35 93 36 33 37 92 38 34 39 35 40 36 41 86 42 37 43
REMARK SMILES IDX 91 44 85 45 87 46 38 47 90 48 84 49 83 50 39 52 71 53 51 54
REMARK SMILES IDX 70 55 52 56 55 57 69 58 88 59 53 60 54 61 68 63 89 64 56 65
REMARK SMILES IDX 40 66 41 67 49 68 42 69 48 70 50 71 47 72 43 73 44 74 45 75
REMARK SMILES IDX 46 76 72 77 73 78 81 79 74 80 80 81 82 82 79 83 75 84 76 85
REMARK SMILES IDX 77 86 78 87 57 88 58 89 66 90 59 91 65 92 67 93 64 94 60 95
REMARK SMILES IDX 61 96 62 97 63 98
REMARK H PARENT 13 16 87 51 55 62
REMARK Flexibility Score: inf
ROOT
ATOM      1  C   UNL A   1      33.964  30.588  27.260  1.00  0.00     0.202 C 
ENDROOT
BRANCH   1   2
ATOM      2  C   UNL A   1      33.377  29.805  26.080  1.00  0.00     0.261 C 
BRANCH   2   3
ATOM      3  O   UNL A   1      32.072  29.259  26.340  1.00  0.00    -0.460 OA
BRANCH   3   4
ATOM      4  C   UNL A   1      31.259  29.219  25.261  1.00  0.00     0.339 C 
ATOM      5  O   UNL A   1      30.749  30.184  24.704  1.00  0.00    -0.246 OA
BRANCH   4   6
ATOM      6  C   UNL A   1      31.081  27.834  24.774  1.00  0.00     0.080 A 
ATOM      7  C   UNL A   1      30.448  25.573  25.387  1.00  0.00     0.042 A 
ATOM      8  C   UNL A   1      30.135  25.308  24.050  1.00  0.00     0.028 A 
ATOM      9  C   UNL A   1      31.023  26.801  25.725  1.00  0.00     0.043 A 
ATOM     10  C   UNL A   1      30.271  26.305  23.083  1.00  0.00     0.023 A 
ATOM     11  C   UNL A   1      30.711  27.579  23.446  1.00  0.00     0.055 A 
ATOM     12  Cl  UNL A   1      30.744  28.772  22.196  1.00  0.00    -0.083 Cl
BRANCH   7  13
ATOM     13  N   UNL A   1      30.064  24.601  26.326  1.00  0.00    -0.322 N 
ATOM     14  C   UNL A   1      30.605  23.374  26.667  1.00  0.00     0.255 C 
ATOM     15  O   UNL A   1      29.980  22.650  27.441  1.00  0.00    -0.269 OA
ATOM     16  H   UNL A   1      29.257  24.837  26.839  1.00  0.00     0.170 HD
BRANCH  14  17
ATOM     17  C   UNL A   1      31.948  22.934  26.203  1.00  0.00     0.043 A 
ATOM     18  C   UNL A   1      33.367  21.308  25.104  1.00  0.00     0.120 A 
ATOM     19  C   UNL A   1      34.483  21.952  25.646  1.00  0.00     0.046 A 
ATOM     20  C   UNL A   1      32.108  21.853  25.320  1.00  0.00     0.060 A 
ATOM     21  C   UNL A   1      34.343  23.121  26.400  1.00  0.00     0.005 A 
ATOM     22  C   UNL A   1      33.071  23.602  26.698  1.00  0.00     0.014 A 
BRANCH  18  23
ATOM     23  O   UNL A   1      33.601  20.069  24.591  1.00  0.00    -0.491 OA
BRANCH  23  24
ATOM     24  C   UNL A   1      32.617  19.026  24.515  1.00  0.00     0.170 C 
ATOM     25  C   UNL A   1      32.675  18.130  25.744  1.00  0.00     0.053 C 
BRANCH  24  26
ATOM     26  C   UNL A   1      32.561  18.238  23.199  1.00  0.00     0.041 C 
ATOM     27  C   UNL A   1      33.606  17.136  23.092  1.00  0.00     0.008 C 
ENDBRANCH  24  26
ENDBRANCH  23  24
ENDBRANCH  18  23
ENDBRANCH  14  17
ENDBRANCH   7  13
ENDBRANCH   4   6
ENDBRANCH   3   4
ENDBRANCH   2   3
ENDBRANCH   1   2
BRANCH   1  28
ATOM     28  O   UNL A   1      33.159  31.517  27.977  1.00  0.00    -0.374 OA
BRANCH  28  29
ATOM     29  C   UNL A   1      32.569  32.613  27.294  1.00  0.00     0.202 C 
BRANCH  29  30
ATOM     30  C   UNL A   1      32.923  34.060  27.679  1.00  0.00     0.261 C 
BRANCH  30  31
ATOM     31  O   UNL A   1      32.631  34.426  29.034  1.00  0.00    -0.460 OA
BRANCH  31  32
ATOM     32  C   UNL A   1      33.694  34.919  29.711  1.00  0.00     0.338 C 
ATOM     33  O   UNL A   1      33.763  36.002  30.286  1.00  0.00    -0.246 OA
BRANCH  32  34
ATOM     34  C   UNL A   1      34.750  33.901  29.827  1.00  0.00     0.060 A 
ATOM     35  C   UNL A   1      34.482  32.768  30.607  1.00  0.00     0.016 A 
ATOM     36  C   UNL A   1      36.018  34.106  29.281  1.00  0.00     0.016 A 
ATOM     37  C   UNL A   1      35.494  31.854  30.883  1.00  0.00     0.010 A 
ATOM     38  C   UNL A   1      37.040  33.200  29.579  1.00  0.00     0.010 A 
ATOM     39  C   UNL A   1      36.790  32.094  30.414  1.00  0.00    -0.014 A 
BRANCH  39  40
ATOM     40  C   UNL A   1      37.920  31.318  30.978  1.00  0.00     0.031 A 
ATOM     41  C   UNL A   1      38.369  31.638  32.379  1.00  0.00     0.074 A 
ATOM     42  C   UNL A   1      38.510  30.338  30.272  1.00  0.00     0.049 A 
ATOM     43  N   UNL A   1      39.384  31.167  33.054  1.00  0.00    -0.248 NA
ATOM     44  C   UNL A   1      37.561  32.626  33.115  1.00  0.00     0.031 C 
ATOM     45  C   UNL A   1      38.108  29.900  28.937  1.00  0.00     0.029 A 
ATOM     46  N   UNL A   1      39.584  29.542  30.579  1.00  0.00    -0.354 N 
ATOM     47  C   UNL A   1      39.349  31.811  34.286  1.00  0.00     0.074 A 
ATOM     48  C   UNL A   1      38.224  32.721  34.258  1.00  0.00     0.031 C 
ATOM     49  C   UNL A   1      38.940  28.926  28.529  1.00  0.00     0.029 A 
ATOM     50  C   UNL A   1      39.960  28.704  29.555  1.00  0.00     0.049 A 
ATOM     51  H   UNL A   1      40.042  29.566  31.450  1.00  0.00     0.167 HD
ATOM     52  C   UNL A   1      40.183  31.657  35.343  1.00  0.00     0.034 A 
ATOM     53  C   UNL A   1      41.026  27.885  29.447  1.00  0.00     0.034 A 
ATOM     54  C   UNL A   1      41.299  30.745  35.349  1.00  0.00     0.049 A 
ATOM     55  C   UNL A   1      41.990  27.791  30.610  1.00  0.00     0.074 A 
ATOM     56  C   UNL A   1      42.207  30.502  36.364  1.00  0.00     0.029 A 
ATOM     57  N   UNL A   1      41.664  29.933  34.284  1.00  0.00    -0.354 N 
ATOM     58  N   UNL A   1      41.951  28.410  31.767  1.00  0.00    -0.248 NA
ATOM     59  C   UNL A   1      43.136  26.885  30.454  1.00  0.00     0.031 C 
ATOM     60  C   UNL A   1      43.159  29.594  35.890  1.00  0.00     0.029 A 
ATOM     61  C   UNL A   1      42.799  29.209  34.608  1.00  0.00     0.049 A 
ATOM     62  H   UNL A   1      41.186  29.880  33.425  1.00  0.00     0.167 HD
ATOM     63  C   UNL A   1      43.041  27.931  32.492  1.00  0.00     0.074 A 
ATOM     64  C   UNL A   1      43.715  26.972  31.643  1.00  0.00     0.031 C 
ATOM     65  C   UNL A   1      43.444  28.245  33.749  1.00  0.00     0.034 A 
BRANCH  52  66
ATOM     66  C   UNL A   1      39.956  32.535  36.548  1.00  0.00     0.023 A 
ATOM     67  C   UNL A   1      39.043  32.192  37.559  1.00  0.00     0.031 A 
ATOM     68  C   UNL A   1      40.667  33.741  36.681  1.00  0.00     0.131 A 
ATOM     69  C   UNL A   1      38.829  33.070  38.633  1.00  0.00     0.055 A 
ATOM     70  C   UNL A   1      40.501  34.577  37.785  1.00  0.00     0.041 A 
ATOM     71  F   UNL A   1      41.533  34.131  35.731  1.00  0.00    -0.206 F 
ATOM     72  C   UNL A   1      39.569  34.247  38.766  1.00  0.00     0.022 A 
BRANCH  69  73
ATOM     73  S   UNL A   1      37.490  32.707  39.802  1.00  0.00     0.124 S 
ATOM     74  O   UNL A   1      37.914  31.418  40.343  1.00  0.00    -0.237 OA
ATOM     75  O   UNL A   1      37.556  33.838  40.719  1.00  0.00    -0.237 OA
ATOM     76  O   UNL A   1      36.299  32.659  38.956  1.00  0.00    -0.744 OA
ENDBRANCH  69  73
ENDBRANCH  52  66
BRANCH  53  77
ATOM     77  C   UNL A   1      41.284  27.128  28.186  1.00  0.00     0.023 A 
ATOM     78  C   UNL A   1      41.079  25.741  28.115  1.00  0.00     0.031 A 
ATOM     79  C   UNL A   1      41.822  27.771  27.056  1.00  0.00     0.131 A 
ATOM     80  C   UNL A   1      41.467  25.034  26.965  1.00  0.00     0.055 A 
ATOM     81  C   UNL A   1      42.149  27.072  25.893  1.00  0.00     0.041 A 
ATOM     82  F   UNL A   1      42.043  29.096  27.068  1.00  0.00    -0.206 F 
ATOM     83  C   UNL A   1      41.988  25.692  25.850  1.00  0.00     0.022 A 
BRANCH  80  84
ATOM     84  S   UNL A   1      41.391  23.221  26.996  1.00  0.00     0.124 S 
ATOM     85  O   UNL A   1      42.173  22.913  28.188  1.00  0.00    -0.237 OA
ATOM     86  O   UNL A   1      39.955  22.982  27.090  1.00  0.00    -0.237 OA
ATOM     87  O   UNL A   1      42.004  22.835  25.729  1.00  0.00    -0.744 OA
ENDBRANCH  80  84
ENDBRANCH  53  77
BRANCH  65  88
ATOM     88  C   UNL A   1      44.620  27.485  34.311  1.00  0.00     0.023 A 
ATOM     89  C   UNL A   1      44.459  26.312  35.068  1.00  0.00     0.031 A 
ATOM     90  C   UNL A   1      45.927  27.941  34.061  1.00  0.00     0.131 A 
ATOM     91  C   UNL A   1      45.588  25.657  35.584  1.00  0.00     0.055 A 
ATOM     92  C   UNL A   1      47.046  27.254  34.529  1.00  0.00     0.041 A 
ATOM     93  F   UNL A   1      46.135  29.055  33.342  1.00  0.00    -0.206 F 
ATOM     94  C   UNL A   1      46.880  26.111  35.304  1.00  0.00     0.022 A 
BRANCH  91  95
ATOM     95  S   UNL A   1      45.345  24.236  36.683  1.00  0.00     0.124 S 
ATOM     96  O   UNL A   1      46.695  24.005  37.185  1.00  0.00    -0.237 OA
ATOM     97  O   UNL A   1      44.384  24.751  37.653  1.00  0.00    -0.237 OA
ATOM     98  O   UNL A   1      44.828  23.198  35.792  1.00  0.00    -0.744 OA
ENDBRANCH  91  95
ENDBRANCH  65  88
ENDBRANCH  39  40
ENDBRANCH  32  34
ENDBRANCH  31  32
ENDBRANCH  30  31
ENDBRANCH  29  30
ENDBRANCH  28  29
ENDBRANCH   1  28
TORSDOF 22
ENDMDL
MODEL 3
REMARK VINA RESULT:     -11.4      4.614     10.685
REMARK SMILES CC[C@@H](C)Oc1cccc(C(=O)Nc2ccc(Cl)c(C(=O)OCCOCCOC(=O)c3ccc(-c4c5nc(c(-c6cc(S(=O)(=O)[O-])ccc6F)c6ccc([nH]6)c(-c6cc(S(=O)(=O)[O-])ccc6F)c6nc(c(-c7cc(S(=O)(=O)[O-])ccc7F)c7ccc4[nH]7)C=C6)C=C5)cc3)c2)c1
REMARK SMILES IDX 24 1 23 2 22 3 20 4 21 5 19 6 14 7 15 8 94 9 16 10 17 11
REMARK SMILES IDX 18 12 13 13 11 14 12 15 10 17 6 18 7 19 95 20 8 21 9 22 5 23
REMARK SMILES IDX 3 24 4 25 2 26 1 27 25 28 26 29 27 30 28 31 29 32 30 33
REMARK SMILES IDX 31 34 32 35 93 36 33 37 92 38 34 39 35 40 36 41 86 42 37 43
REMARK SMILES IDX 91 44 85 45 87 46 38 47 90 48 84 49 83 50 39 52 71 53 51 54
REMARK SMILES IDX 70 55 52 56 55 57 69 58 88 59 53 60 54 61 68 63 89 64 56 65
REMARK SMILES IDX 40 66 41 67 49 68 42 69 48 70 50 71 47 72 43 73 44 74 45 75
REMARK SMILES IDX 46 76 72 77 73 78 81 79 74 80 80 81 82 82 79 83 75 84 76 85
REMARK SMILES IDX 77 86 78 87 57 88 58 89 66 90 59 91 65 92 67 93 64 94 60 95
REMARK SMILES IDX 61 96 62 97 63 98
REMARK H PARENT 13 16 87 51 55 62
REMARK Flexibility Score: inf
ROOT
ATOM      1  C   UNL A   1      31.410  30.277  25.019  1.00  0.00     0.202 C 
ENDROOT
BRANCH   1   2
ATOM      2  C   UNL A   1      30.343  30.164  23.924  1.00  0.00     0.261 C 
BRANCH   2   3
ATOM      3  O   UNL A   1      29.799  28.840  23.783  1.00  0.00    -0.460 OA
BRANCH   3   4
ATOM      4  C   UNL A   1      30.636  27.952  23.202  1.00  0.00     0.339 C 
ATOM      5  O   UNL A   1      30.670  27.663  22.011  1.00  0.00    -0.246 OA
BRANCH   4   6
ATOM      6  C   UNL A   1      31.577  27.377  24.187  1.00  0.00     0.080 A 
ATOM      7  C   UNL A   1      31.840  25.781  25.994  1.00  0.00     0.042 A 
ATOM      8  C   UNL A   1      33.216  25.739  25.746  1.00  0.00     0.028 A 
ATOM      9  C   UNL A   1      31.043  26.683  25.285  1.00  0.00     0.043 A 
ATOM     10  C   UNL A   1      33.768  26.493  24.710  1.00  0.00     0.023 A 
ATOM     11  C   UNL A   1      32.948  27.288  23.906  1.00  0.00     0.055 A 
ATOM     12  Cl  UNL A   1      33.712  28.098  22.585  1.00  0.00    -0.083 Cl
BRANCH   7  13
ATOM     13  N   UNL A   1      31.335  24.824  26.891  1.00  0.00    -0.322 N 
ATOM     14  C   UNL A   1      31.012  23.487  26.739  1.00  0.00     0.255 C 
ATOM     15  O   UNL A   1      30.449  22.908  27.668  1.00  0.00    -0.269 OA
ATOM     16  H   UNL A   1      31.180  25.171  27.800  1.00  0.00     0.170 HD
BRANCH  14  17
ATOM     17  C   UNL A   1      31.395  22.703  25.535  1.00  0.00     0.043 A 
ATOM     18  C   UNL A   1      32.665  20.918  24.502  1.00  0.00     0.120 A 
ATOM     19  C   UNL A   1      32.371  21.467  23.250  1.00  0.00     0.046 A 
ATOM     20  C   UNL A   1      32.105  21.495  25.634  1.00  0.00     0.060 A 
ATOM     21  C   UNL A   1      31.536  22.582  23.132  1.00  0.00     0.005 A 
ATOM     22  C   UNL A   1      31.063  23.216  24.278  1.00  0.00     0.014 A 
BRANCH  18  23
ATOM     23  O   UNL A   1      33.661  19.990  24.511  1.00  0.00    -0.491 OA
BRANCH  23  24
ATOM     24  C   UNL A   1      33.480  18.607  24.166  1.00  0.00     0.170 C 
ATOM     25  C   UNL A   1      32.265  18.023  24.871  1.00  0.00     0.053 C 
BRANCH  24  26
ATOM     26  C   UNL A   1      34.723  17.713  24.270  1.00  0.00     0.041 C 
ATOM     27  C   UNL A   1      34.468  16.255  23.913  1.00  0.00     0.008 C 
ENDBRANCH  24  26
ENDBRANCH  23  24
ENDBRANCH  18  23
ENDBRANCH  14  17
ENDBRANCH   7  13
ENDBRANCH   4   6
ENDBRANCH   3   4
ENDBRANCH   2   3
ENDBRANCH   1   2
BRANCH   1  28
ATOM     28  O   UNL A   1      31.151  31.030  26.199  1.00  0.00    -0.374 OA
BRANCH  28  29
ATOM     29  C   UNL A   1      31.017  32.441  26.120  1.00  0.00     0.202 C 
BRANCH  29  30
ATOM     30  C   UNL A   1      31.835  33.360  27.043  1.00  0.00     0.261 C 
BRANCH  30  31
ATOM     31  O   UNL A   1      32.946  32.740  27.704  1.00  0.00    -0.460 OA
BRANCH  31  32
ATOM     32  C   UNL A   1      33.978  33.581  27.949  1.00  0.00     0.338 C 
ATOM     33  O   UNL A   1      33.916  34.800  28.090  1.00  0.00    -0.246 OA
BRANCH  32  34
ATOM     34  C   UNL A   1      35.214  32.825  28.200  1.00  0.00     0.060 A 
ATOM     35  C   UNL A   1      35.106  31.438  28.374  1.00  0.00     0.016 A 
ATOM     36  C   UNL A   1      36.437  33.473  28.378  1.00  0.00     0.016 A 
ATOM     37  C   UNL A   1      36.214  30.696  28.773  1.00  0.00     0.010 A 
ATOM     38  C   UNL A   1      37.543  32.730  28.802  1.00  0.00     0.010 A 
ATOM     39  C   UNL A   1      37.423  31.347  29.039  1.00  0.00    -0.014 A 
BRANCH  39  40
ATOM     40  C   UNL A   1      38.488  30.624  29.774  1.00  0.00     0.031 A 
ATOM     41  C   UNL A   1      38.682  30.941  31.233  1.00  0.00     0.074 A 
ATOM     42  C   UNL A   1      39.241  29.691  29.166  1.00  0.00     0.049 A 
ATOM     43  N   UNL A   1      39.598  30.515  32.061  1.00  0.00    -0.248 NA
ATOM     44  C   UNL A   1      37.709  31.869  31.835  1.00  0.00     0.031 C 
ATOM     45  C   UNL A   1      39.089  29.256  27.779  1.00  0.00     0.029 A 
ATOM     46  N   UNL A   1      40.294  28.950  29.639  1.00  0.00    -0.354 N 
ATOM     47  C   UNL A   1      39.325  31.133  33.277  1.00  0.00     0.074 A 
ATOM     48  C   UNL A   1      38.169  31.979  33.072  1.00  0.00     0.031 C 
ATOM     49  C   UNL A   1      40.032  28.337  27.505  1.00  0.00     0.029 A 
ATOM     50  C   UNL A   1      40.881  28.153  28.682  1.00  0.00     0.049 A 
ATOM     51  H   UNL A   1      40.601  28.983  30.574  1.00  0.00     0.167 HD
ATOM     52  C   UNL A   1      39.981  31.006  34.456  1.00  0.00     0.034 A 
ATOM     53  C   UNL A   1      41.996  27.397  28.744  1.00  0.00     0.034 A 
ATOM     54  C   UNL A   1      41.132  30.157  34.637  1.00  0.00     0.049 A 
ATOM     55  C   UNL A   1      42.760  27.334  30.049  1.00  0.00     0.074 A 
ATOM     56  C   UNL A   1      41.873  29.945  35.786  1.00  0.00     0.029 A 
ATOM     57  N   UNL A   1      41.713  29.386  33.639  1.00  0.00    -0.354 N 
ATOM     58  N   UNL A   1      42.496  27.929  31.190  1.00  0.00    -0.248 NA
ATOM     59  C   UNL A   1      43.966  26.496  30.076  1.00  0.00     0.031 C 
ATOM     60  C   UNL A   1      42.941  29.100  35.466  1.00  0.00     0.029 A 
ATOM     61  C   UNL A   1      42.820  28.720  34.139  1.00  0.00     0.049 A 
ATOM     62  H   UNL A   1      41.386  29.322  32.712  1.00  0.00     0.167 HD
ATOM     63  C   UNL A   1      43.478  27.497  32.080  1.00  0.00     0.074 A 
ATOM     64  C   UNL A   1      44.336  26.593  31.345  1.00  0.00     0.031 C 
ATOM     65  C   UNL A   1      43.650  27.809  33.389  1.00  0.00     0.034 A 
BRANCH  52  66
ATOM     66  C   UNL A   1      39.510  31.847  35.615  1.00  0.00     0.023 A 
ATOM     67  C   UNL A   1      38.736  31.312  36.658  1.00  0.00     0.031 A 
ATOM     68  C   UNL A   1      39.840  33.213  35.670  1.00  0.00     0.131 A 
ATOM     69  C   UNL A   1      38.276  32.150  37.686  1.00  0.00     0.055 A 
ATOM     70  C   UNL A   1      39.439  34.026  36.730  1.00  0.00     0.041 A 
ATOM     71  F   UNL A   1      40.555  33.783  34.686  1.00  0.00    -0.206 F 
ATOM     72  C   UNL A   1      38.643  33.497  37.743  1.00  0.00     0.022 A 
BRANCH  69  73
ATOM     73  S   UNL A   1      37.101  31.481  38.895  1.00  0.00     0.124 S 
ATOM     74  O   UNL A   1      37.889  31.524  40.125  1.00  0.00    -0.237 OA
ATOM     75  O   UNL A   1      35.992  32.424  38.814  1.00  0.00    -0.237 OA
ATOM     76  O   UNL A   1      36.817  30.139  38.392  1.00  0.00    -0.744 OA
ENDBRANCH  69  73
ENDBRANCH  52  66
BRANCH  53  77
ATOM     77  C   UNL A   1      42.500  26.679  27.536  1.00  0.00     0.023 A 
ATOM     78  C   UNL A   1      42.175  25.334  27.300  1.00  0.00     0.031 A 
ATOM     79  C   UNL A   1      43.386  27.307  26.641  1.00  0.00     0.131 A 
ATOM     80  C   UNL A   1      42.779  24.643  26.237  1.00  0.00     0.055 A 
ATOM     81  C   UNL A   1      43.937  26.633  25.550  1.00  0.00     0.041 A 
ATOM     82  F   UNL A   1      43.735  28.591  26.819  1.00  0.00    -0.206 F 
ATOM     83  C   UNL A   1      43.648  25.287  25.353  1.00  0.00     0.022 A 
BRANCH  80  84
ATOM     84  S   UNL A   1      42.506  22.855  26.098  1.00  0.00     0.124 S 
ATOM     85  O   UNL A   1      42.885  22.604  24.712  1.00  0.00    -0.237 OA
ATOM     86  O   UNL A   1      43.411  22.332  27.116  1.00  0.00    -0.237 OA
ATOM     87  O   UNL A   1      41.084  22.705  26.395  1.00  0.00    -0.744 OA
ENDBRANCH  80  84
ENDBRANCH  53  77
BRANCH  65  88
ATOM     88  C   UNL A   1      44.760  27.105  34.130  1.00  0.00     0.023 A 
ATOM     89  C   UNL A   1      46.094  27.544  34.069  1.00  0.00     0.031 A 
ATOM     90  C   UNL A   1      44.465  25.985  34.928  1.00  0.00     0.131 A 
ATOM     91  C   UNL A   1      47.091  26.839  34.762  1.00  0.00     0.055 A 
ATOM     92  C   UNL A   1      45.450  25.323  35.658  1.00  0.00     0.041 A 
ATOM     93  F   UNL A   1      43.206  25.527  35.021  1.00  0.00    -0.206 F 
ATOM     94  C   UNL A   1      46.774  25.742  35.570  1.00  0.00     0.022 A 
BRANCH  91  95
ATOM     95  S   UNL A   1      48.821  27.333  34.544  1.00  0.00     0.124 S 
ATOM     96  O   UNL A   1      48.690  28.728  34.137  1.00  0.00    -0.237 OA
ATOM     97  O   UNL A   1      49.382  27.106  35.871  1.00  0.00    -0.237 OA
ATOM     98  O   UNL A   1      49.308  26.427  33.504  1.00  0.00    -0.744 OA
ENDBRANCH  91  95
ENDBRANCH  65  88
ENDBRANCH  39  40
ENDBRANCH  32  34
ENDBRANCH  31  32
ENDBRANCH  30  31
ENDBRANCH  29  30
ENDBRANCH  28  29
ENDBRANCH   1  28
TORSDOF 22
ENDMDL
