MODEL 1
REMARK VINA RESULT:     -10.4      0.000      0.000
REMARK SMILES CC[C@@H](C)[C@H](NC(=O)CCc1ccc(F)c(F)c1)C(=O)OCCOCCOC(=O)c1ccc(-c2c3nc(c(-c4cc(S(=O)(=O)[O-])ccc4F)c4ccc([nH]4)c(-c4cc(S(=O)(=O)[O-])ccc4F)c4nc(c(-c5cc(S(=O)(=O)[O-])ccc5F)c5ccc2[nH]5)C=C4)C=C3)cc1
REMARK SMILES IDX 23 1 22 2 21 3 19 4 20 5 5 6 3 7 4 8 2 9 1 10 6 11 7 12 8 14
REMARK SMILES IDX 9 15 10 16 11 17 12 18 18 19 13 20 16 21 14 22 17 23 15 24
REMARK SMILES IDX 24 25 25 26 26 27 27 28 28 29 29 30 30 31 31 32 92 33 32 34
REMARK SMILES IDX 91 35 33 36 34 37 35 38 85 39 36 40 90 41 84 42 86 43 37 44
REMARK SMILES IDX 89 45 83 46 82 47 38 49 70 50 50 51 69 52 51 53 54 54 68 55
REMARK SMILES IDX 87 56 52 57 53 58 67 60 88 61 55 62 39 63 40 64 48 65 41 66
REMARK SMILES IDX 47 67 49 68 46 69 42 70 43 71 44 72 45 73 71 74 72 75 80 76
REMARK SMILES IDX 73 77 79 78 81 79 78 80 74 81 75 82 76 83 77 84 56 85 57 86
REMARK SMILES IDX 65 87 58 88 64 89 66 90 63 91 59 92 60 93 61 94 62 95
REMARK H PARENT 6 13 86 48 54 59
REMARK Flexibility Score: inf
ROOT
ATOM      1  C   UNL A   1      32.393  29.117  26.447  1.00  0.00     0.202 C 
ENDROOT
BRANCH   1   2
ATOM      2  C   UNL A   1      33.378  28.099  25.839  1.00  0.00     0.261 C 
BRANCH   2   3
ATOM      3  O   UNL A   1      32.872  27.210  24.809  1.00  0.00    -0.462 OA
BRANCH   3   4
ATOM      4  C   UNL A   1      33.001  27.700  23.544  1.00  0.00     0.328 C 
ATOM      5  O   UNL A   1      34.012  28.266  23.134  1.00  0.00    -0.250 OA
BRANCH   4   6
ATOM      6  C   UNL A   1      31.751  27.585  22.630  1.00  0.00     0.195 C 
BRANCH   6   7
ATOM      7  C   UNL A   1      30.442  27.679  23.501  1.00  0.00     0.019 C 
ATOM      8  C   UNL A   1      29.858  26.314  23.897  1.00  0.00     0.010 C 
BRANCH   7   9
ATOM      9  C   UNL A   1      29.352  28.593  22.900  1.00  0.00     0.002 C 
ATOM     10  C   UNL A   1      29.905  29.889  22.320  1.00  0.00     0.004 C 
ENDBRANCH   7   9
ENDBRANCH   6   7
BRANCH   6  11
ATOM     11  N   UNL A   1      31.691  26.614  21.524  1.00  0.00    -0.343 N 
ATOM     12  C   UNL A   1      32.674  25.669  21.287  1.00  0.00     0.221 C 
ATOM     13  H   UNL A   1      30.911  26.638  20.924  1.00  0.00     0.164 HD
ATOM     14  O   UNL A   1      33.095  25.497  20.144  1.00  0.00    -0.275 OA
BRANCH  12  15
ATOM     15  C   UNL A   1      33.072  24.750  22.425  1.00  0.00     0.105 C 
BRANCH  15  16
ATOM     16  C   UNL A   1      32.023  23.897  23.148  1.00  0.00     0.045 C 
BRANCH  16  17
ATOM     17  C   UNL A   1      32.433  22.555  23.728  1.00  0.00    -0.044 A 
ATOM     18  C   UNL A   1      32.152  21.381  23.008  1.00  0.00     0.007 A 
ATOM     19  C   UNL A   1      33.050  22.405  24.971  1.00  0.00     0.046 A 
ATOM     20  C   UNL A   1      32.614  20.134  23.451  1.00  0.00     0.043 A 
ATOM     21  C   UNL A   1      33.584  21.182  25.372  1.00  0.00     0.159 A 
ATOM     22  C   UNL A   1      33.379  20.052  24.606  1.00  0.00     0.158 A 
ATOM     23  F   UNL A   1      34.314  21.117  26.494  1.00  0.00    -0.204 F 
ATOM     24  F   UNL A   1      33.900  18.876  24.980  1.00  0.00    -0.204 F 
ENDBRANCH  16  17
ENDBRANCH  15  16
ENDBRANCH  12  15
ENDBRANCH   6  11
ENDBRANCH   4   6
ENDBRANCH   3   4
ENDBRANCH   2   3
ENDBRANCH   1   2
BRANCH   1  25
ATOM     25  O   UNL A   1      32.476  30.492  26.085  1.00  0.00    -0.374 OA
BRANCH  25  26
ATOM     26  C   UNL A   1      31.343  31.295  26.375  1.00  0.00     0.202 C 
BRANCH  26  27
ATOM     27  C   UNL A   1      31.564  32.762  26.777  1.00  0.00     0.261 C 
BRANCH  27  28
ATOM     28  O   UNL A   1      32.943  33.157  26.718  1.00  0.00    -0.460 OA
BRANCH  28  29
ATOM     29  C   UNL A   1      33.401  33.747  27.853  1.00  0.00     0.338 C 
ATOM     30  O   UNL A   1      32.819  34.569  28.539  1.00  0.00    -0.246 OA
BRANCH  29  31
ATOM     31  C   UNL A   1      34.630  33.067  28.297  1.00  0.00     0.060 A 
ATOM     32  C   UNL A   1      34.490  31.769  28.808  1.00  0.00     0.016 A 
ATOM     33  C   UNL A   1      35.877  33.695  28.265  1.00  0.00     0.016 A 
ATOM     34  C   UNL A   1      35.591  31.106  29.330  1.00  0.00     0.010 A 
ATOM     35  C   UNL A   1      36.981  33.036  28.814  1.00  0.00     0.010 A 
ATOM     36  C   UNL A   1      36.829  31.758  29.381  1.00  0.00    -0.014 A 
BRANCH  36  37
ATOM     37  C   UNL A   1      37.885  31.166  30.231  1.00  0.00     0.031 A 
ATOM     38  C   UNL A   1      38.780  30.124  29.619  1.00  0.00     0.074 A 
ATOM     39  C   UNL A   1      38.095  31.626  31.477  1.00  0.00     0.049 A 
ATOM     40  N   UNL A   1      39.812  29.509  30.131  1.00  0.00    -0.248 NA
ATOM     41  C   UNL A   1      38.467  29.728  28.236  1.00  0.00     0.031 C 
ATOM     42  C   UNL A   1      37.311  32.675  32.128  1.00  0.00     0.029 A 
ATOM     43  N   UNL A   1      39.038  31.283  32.410  1.00  0.00    -0.354 N 
ATOM     44  C   UNL A   1      40.280  28.661  29.130  1.00  0.00     0.074 A 
ATOM     45  C   UNL A   1      39.388  28.808  28.001  1.00  0.00     0.031 C 
ATOM     46  C   UNL A   1      37.806  32.889  33.359  1.00  0.00     0.029 A 
ATOM     47  C   UNL A   1      38.923  31.976  33.590  1.00  0.00     0.049 A 
ATOM     48  H   UNL A   1      39.733  30.603  32.248  1.00  0.00     0.167 HD
ATOM     49  C   UNL A   1      41.361  27.846  29.153  1.00  0.00     0.034 A 
ATOM     50  C   UNL A   1      39.634  31.868  34.731  1.00  0.00     0.034 A 
ATOM     51  C   UNL A   1      42.214  27.703  30.308  1.00  0.00     0.049 A 
ATOM     52  C   UNL A   1      40.784  30.890  34.764  1.00  0.00     0.074 A 
ATOM     53  C   UNL A   1      43.326  26.898  30.468  1.00  0.00     0.029 A 
ATOM     54  N   UNL A   1      42.033  28.377  31.511  1.00  0.00    -0.354 N 
ATOM     55  N   UNL A   1      41.219  30.095  33.811  1.00  0.00    -0.248 NA
ATOM     56  C   UNL A   1      41.545  30.803  36.015  1.00  0.00     0.031 C 
ATOM     57  C   UNL A   1      43.774  27.033  31.788  1.00  0.00     0.029 A 
ATOM     58  C   UNL A   1      42.993  27.983  32.428  1.00  0.00     0.049 A 
ATOM     59  H   UNL A   1      41.325  29.039  31.685  1.00  0.00     0.167 HD
ATOM     60  C   UNL A   1      42.323  29.433  34.342  1.00  0.00     0.074 A 
ATOM     61  C   UNL A   1      42.495  29.938  35.691  1.00  0.00     0.031 C 
ATOM     62  C   UNL A   1      43.126  28.497  33.773  1.00  0.00     0.034 A 
BRANCH  49  63
ATOM     63  C   UNL A   1      41.626  27.014  27.920  1.00  0.00     0.023 A 
ATOM     64  C   UNL A   1      41.364  25.632  27.887  1.00  0.00     0.031 A 
ATOM     65  C   UNL A   1      42.201  27.599  26.779  1.00  0.00     0.131 A 
ATOM     66  C   UNL A   1      41.748  24.871  26.771  1.00  0.00     0.055 A 
ATOM     67  C   UNL A   1      42.508  26.851  25.641  1.00  0.00     0.041 A 
ATOM     68  F   UNL A   1      42.501  28.908  26.761  1.00  0.00    -0.206 F 
ATOM     69  C   UNL A   1      42.296  25.476  25.637  1.00  0.00     0.022 A 
BRANCH  66  70
ATOM     70  S   UNL A   1      41.662  23.062  26.879  1.00  0.00     0.124 S 
ATOM     71  O   UNL A   1      41.895  22.673  25.490  1.00  0.00    -0.237 OA
ATOM     72  O   UNL A   1      42.733  22.751  27.818  1.00  0.00    -0.237 OA
ATOM     73  O   UNL A   1      40.308  22.810  27.368  1.00  0.00    -0.744 OA
ENDBRANCH  66  70
ENDBRANCH  49  63
BRANCH  50  74
ATOM     74  C   UNL A   1      39.266  32.673  35.932  1.00  0.00     0.023 A 
ATOM     75  C   UNL A   1      39.779  33.964  36.139  1.00  0.00     0.031 A 
ATOM     76  C   UNL A   1      38.413  32.141  36.917  1.00  0.00     0.131 A 
ATOM     77  C   UNL A   1      39.465  34.662  37.317  1.00  0.00     0.055 A 
ATOM     78  C   UNL A   1      38.062  32.859  38.062  1.00  0.00     0.041 A 
ATOM     79  F   UNL A   1      37.893  30.911  36.773  1.00  0.00    -0.206 F 
ATOM     80  C   UNL A   1      38.600  34.124  38.273  1.00  0.00     0.022 A 
BRANCH  77  81
ATOM     81  S   UNL A   1      40.267  36.260  37.623  1.00  0.00     0.124 S 
ATOM     82  O   UNL A   1      41.478  35.856  38.327  1.00  0.00    -0.237 OA
ATOM     83  O   UNL A   1      40.450  36.770  36.268  1.00  0.00    -0.237 OA
ATOM     84  O   UNL A   1      39.288  36.984  38.431  1.00  0.00    -0.744 OA
ENDBRANCH  77  81
ENDBRANCH  50  74
BRANCH  62  85
ATOM     85  C   UNL A   1      44.277  27.991  34.607  1.00  0.00     0.023 A 
ATOM     86  C   UNL A   1      44.163  26.834  35.395  1.00  0.00     0.031 A 
ATOM     87  C   UNL A   1      45.500  28.685  34.616  1.00  0.00     0.131 A 
ATOM     88  C   UNL A   1      45.235  26.437  36.208  1.00  0.00     0.055 A 
ATOM     89  C   UNL A   1      46.585  28.247  35.377  1.00  0.00     0.041 A 
ATOM     90  F   UNL A   1      45.663  29.796  33.881  1.00  0.00    -0.206 F 
ATOM     91  C   UNL A   1      46.451  27.125  36.190  1.00  0.00     0.022 A 
BRANCH  88  92
ATOM     92  S   UNL A   1      44.984  25.063  37.364  1.00  0.00     0.124 S 
ATOM     93  O   UNL A   1      46.062  25.277  38.326  1.00  0.00    -0.237 OA
ATOM     94  O   UNL A   1      43.633  25.311  37.856  1.00  0.00    -0.237 OA
ATOM     95  O   UNL A   1      45.130  23.876  36.522  1.00  0.00    -0.744 OA
ENDBRANCH  88  92
ENDBRANCH  62  85
ENDBRANCH  36  37
ENDBRANCH  29  31
ENDBRANCH  28  29
ENDBRANCH  27  28
ENDBRANCH  26  27
ENDBRANCH  25  26
ENDBRANCH   1  25
TORSDOF 23
ENDMDL
MODEL 2
REMARK VINA RESULT:     -10.2      5.151      8.877
REMARK SMILES CC[C@@H](C)[C@H](NC(=O)CCc1ccc(F)c(F)c1)C(=O)OCCOCCOC(=O)c1ccc(-c2c3nc(c(-c4cc(S(=O)(=O)[O-])ccc4F)c4ccc([nH]4)c(-c4cc(S(=O)(=O)[O-])ccc4F)c4nc(c(-c5cc(S(=O)(=O)[O-])ccc5F)c5ccc2[nH]5)C=C4)C=C3)cc1
REMARK SMILES IDX 23 1 22 2 21 3 19 4 20 5 5 6 3 7 4 8 2 9 1 10 6 11 7 12 8 14
REMARK SMILES IDX 9 15 10 16 11 17 12 18 18 19 13 20 16 21 14 22 17 23 15 24
REMARK SMILES IDX 24 25 25 26 26 27 27 28 28 29 29 30 30 31 31 32 92 33 32 34
REMARK SMILES IDX 91 35 33 36 34 37 35 38 85 39 36 40 90 41 84 42 86 43 37 44
REMARK SMILES IDX 89 45 83 46 82 47 38 49 70 50 50 51 69 52 51 53 54 54 68 55
REMARK SMILES IDX 87 56 52 57 53 58 67 60 88 61 55 62 39 63 40 64 48 65 41 66
REMARK SMILES IDX 47 67 49 68 46 69 42 70 43 71 44 72 45 73 71 74 72 75 80 76
REMARK SMILES IDX 73 77 79 78 81 79 78 80 74 81 75 82 76 83 77 84 56 85 57 86
REMARK SMILES IDX 65 87 58 88 64 89 66 90 63 91 59 92 60 93 61 94 62 95
REMARK H PARENT 6 13 86 48 54 59
REMARK Flexibility Score: inf
ROOT
ATOM      1  C   UNL A   1      36.847  21.722  25.471  1.00  0.00     0.202 C 
ENDROOT
BRANCH   1   2
ATOM      2  C   UNL A   1      35.552  21.019  25.016  1.00  0.00     0.261 C 
BRANCH   2   3
ATOM      3  O   UNL A   1      34.836  21.596  23.892  1.00  0.00    -0.462 OA
BRANCH   3   4
ATOM      4  C   UNL A   1      33.495  21.725  24.100  1.00  0.00     0.328 C 
ATOM      5  O   UNL A   1      32.689  20.813  23.927  1.00  0.00    -0.250 OA
BRANCH   4   6
ATOM      6  C   UNL A   1      32.993  23.139  24.501  1.00  0.00     0.195 C 
BRANCH   6   7
ATOM      7  C   UNL A   1      34.148  24.191  24.302  1.00  0.00     0.019 C 
ATOM      8  C   UNL A   1      34.660  24.809  25.613  1.00  0.00     0.010 C 
BRANCH   7   9
ATOM      9  C   UNL A   1      33.828  25.287  23.263  1.00  0.00     0.002 C 
ATOM     10  C   UNL A   1      32.721  24.893  22.292  1.00  0.00     0.004 C 
ENDBRANCH   7   9
ENDBRANCH   6   7
BRANCH   6  11
ATOM     11  N   UNL A   1      32.160  23.351  25.695  1.00  0.00    -0.343 N 
ATOM     12  C   UNL A   1      31.396  24.487  25.899  1.00  0.00     0.221 C 
ATOM     13  H   UNL A   1      32.144  22.648  26.384  1.00  0.00     0.164 HD
ATOM     14  O   UNL A   1      31.419  25.054  26.990  1.00  0.00    -0.275 OA
BRANCH  12  15
ATOM     15  C   UNL A   1      30.415  24.893  24.815  1.00  0.00     0.105 C 
BRANCH  15  16
ATOM     16  C   UNL A   1      29.513  26.120  24.995  1.00  0.00     0.045 C 
BRANCH  16  17
ATOM     17  C   UNL A   1      29.707  27.318  24.083  1.00  0.00    -0.044 A 
ATOM     18  C   UNL A   1      30.994  27.861  23.926  1.00  0.00     0.007 A 
ATOM     19  C   UNL A   1      28.663  27.952  23.405  1.00  0.00     0.046 A 
ATOM     20  C   UNL A   1      31.236  28.892  23.008  1.00  0.00     0.043 A 
ATOM     21  C   UNL A   1      28.913  28.917  22.431  1.00  0.00     0.159 A 
ATOM     22  C   UNL A   1      30.198  29.375  22.222  1.00  0.00     0.158 A 
ATOM     23  F   UNL A   1      27.899  29.379  21.687  1.00  0.00    -0.204 F 
ATOM     24  F   UNL A   1      30.446  30.294  21.280  1.00  0.00    -0.204 F 
ENDBRANCH  16  17
ENDBRANCH  15  16
ENDBRANCH  12  15
ENDBRANCH   6  11
ENDBRANCH   4   6
ENDBRANCH   3   4
ENDBRANCH   2   3
ENDBRANCH   1   2
BRANCH   1  25
ATOM     25  O   UNL A   1      38.113  21.218  25.059  1.00  0.00    -0.374 OA
BRANCH  25  26
ATOM     26  C   UNL A   1      38.235  19.807  24.966  1.00  0.00     0.202 C 
BRANCH  26  27
ATOM     27  C   UNL A   1      39.379  19.116  25.726  1.00  0.00     0.261 C 
BRANCH  27  28
ATOM     28  O   UNL A   1      40.680  19.523  25.273  1.00  0.00    -0.460 OA
BRANCH  28  29
ATOM     29  C   UNL A   1      41.598  19.654  26.267  1.00  0.00     0.338 C 
ATOM     30  O   UNL A   1      42.439  18.840  26.600  1.00  0.00    -0.246 OA
BRANCH  29  31
ATOM     31  C   UNL A   1      41.603  21.048  26.747  1.00  0.00     0.060 A 
ATOM     32  C   UNL A   1      41.465  22.053  25.780  1.00  0.00     0.016 A 
ATOM     33  C   UNL A   1      41.791  21.366  28.093  1.00  0.00     0.016 A 
ATOM     34  C   UNL A   1      41.556  23.388  26.150  1.00  0.00     0.010 A 
ATOM     35  C   UNL A   1      41.907  22.711  28.461  1.00  0.00     0.010 A 
ATOM     36  C   UNL A   1      41.829  23.718  27.483  1.00  0.00    -0.014 A 
BRANCH  36  37
ATOM     37  C   UNL A   1      42.245  25.107  27.778  1.00  0.00     0.031 A 
ATOM     38  C   UNL A   1      43.617  25.539  27.340  1.00  0.00     0.074 A 
ATOM     39  C   UNL A   1      41.379  25.975  28.329  1.00  0.00     0.049 A 
ATOM     40  N   UNL A   1      44.186  26.711  27.422  1.00  0.00    -0.248 NA
ATOM     41  C   UNL A   1      44.459  24.502  26.719  1.00  0.00     0.031 C 
ATOM     42  C   UNL A   1      40.010  25.655  28.731  1.00  0.00     0.029 A 
ATOM     43  N   UNL A   1      41.516  27.304  28.630  1.00  0.00    -0.354 N 
ATOM     44  C   UNL A   1      45.447  26.558  26.853  1.00  0.00     0.074 A 
ATOM     45  C   UNL A   1      45.575  25.168  26.476  1.00  0.00     0.031 C 
ATOM     46  C   UNL A   1      39.432  26.761  29.229  1.00  0.00     0.029 A 
ATOM     47  C   UNL A   1      40.397  27.857  29.205  1.00  0.00     0.049 A 
ATOM     48  H   UNL A   1      42.339  27.815  28.451  1.00  0.00     0.167 HD
ATOM     49  C   UNL A   1      46.403  27.498  26.656  1.00  0.00     0.034 A 
ATOM     50  C   UNL A   1      40.189  29.106  29.669  1.00  0.00     0.034 A 
ATOM     51  C   UNL A   1      46.253  28.872  27.070  1.00  0.00     0.049 A 
ATOM     52  C   UNL A   1      41.300  30.118  29.517  1.00  0.00     0.074 A 
ATOM     53  C   UNL A   1      47.149  29.916  26.949  1.00  0.00     0.029 A 
ATOM     54  N   UNL A   1      45.126  29.386  27.705  1.00  0.00    -0.354 N 
ATOM     55  N   UNL A   1      42.488  29.963  28.976  1.00  0.00    -0.248 NA
ATOM     56  C   UNL A   1      41.040  31.469  30.023  1.00  0.00     0.031 C 
ATOM     57  C   UNL A   1      46.594  31.041  27.571  1.00  0.00     0.029 A 
ATOM     58  C   UNL A   1      45.319  30.724  28.009  1.00  0.00     0.049 A 
ATOM     59  H   UNL A   1      44.310  28.873  27.908  1.00  0.00     0.167 HD
ATOM     60  C   UNL A   1      43.107  31.208  29.053  1.00  0.00     0.074 A 
ATOM     61  C   UNL A   1      42.151  32.103  29.676  1.00  0.00     0.031 C 
ATOM     62  C   UNL A   1      44.347  31.584  28.647  1.00  0.00     0.034 A 
BRANCH  49  63
ATOM     63  C   UNL A   1      47.699  27.044  26.028  1.00  0.00     0.023 A 
ATOM     64  C   UNL A   1      48.692  26.378  26.770  1.00  0.00     0.031 A 
ATOM     65  C   UNL A   1      47.973  27.332  24.679  1.00  0.00     0.131 A 
ATOM     66  C   UNL A   1      49.935  26.093  26.184  1.00  0.00     0.055 A 
ATOM     67  C   UNL A   1      49.182  26.975  24.079  1.00  0.00     0.041 A 
ATOM     68  F   UNL A   1      47.078  27.992  23.926  1.00  0.00    -0.206 F 
ATOM     69  C   UNL A   1      50.178  26.365  24.836  1.00  0.00     0.022 A 
BRANCH  66  70
ATOM     70  S   UNL A   1      51.283  25.501  27.244  1.00  0.00     0.124 S 
ATOM     71  O   UNL A   1      52.165  24.861  26.271  1.00  0.00    -0.237 OA
ATOM     72  O   UNL A   1      51.779  26.735  27.842  1.00  0.00    -0.237 OA
ATOM     73  O   UNL A   1      50.617  24.583  28.167  1.00  0.00    -0.744 OA
ENDBRANCH  66  70
ENDBRANCH  49  63
BRANCH  50  74
ATOM     74  C   UNL A   1      38.906  29.459  30.344  1.00  0.00     0.023 A 
ATOM     75  C   UNL A   1      37.941  30.263  29.717  1.00  0.00     0.031 A 
ATOM     76  C   UNL A   1      38.641  29.018  31.655  1.00  0.00     0.131 A 
ATOM     77  C   UNL A   1      36.777  30.632  30.412  1.00  0.00     0.055 A 
ATOM     78  C   UNL A   1      37.460  29.345  32.323  1.00  0.00     0.041 A 
ATOM     79  F   UNL A   1      39.528  28.247  32.304  1.00  0.00    -0.206 F 
ATOM     80  C   UNL A   1      36.524  30.168  31.704  1.00  0.00     0.022 A 
BRANCH  77  81
ATOM     81  S   UNL A   1      35.628  31.797  29.629  1.00  0.00     0.124 S 
ATOM     82  O   UNL A   1      34.887  30.924  28.726  1.00  0.00    -0.237 OA
ATOM     83  O   UNL A   1      34.889  32.310  30.778  1.00  0.00    -0.237 OA
ATOM     84  O   UNL A   1      36.511  32.762  28.978  1.00  0.00    -0.744 OA
ENDBRANCH  77  81
ENDBRANCH  50  74
BRANCH  62  85
ATOM     85  C   UNL A   1      44.715  33.034  28.840  1.00  0.00     0.023 A 
ATOM     86  C   UNL A   1      45.338  33.486  30.015  1.00  0.00     0.031 A 
ATOM     87  C   UNL A   1      44.428  33.975  27.835  1.00  0.00     0.131 A 
ATOM     88  C   UNL A   1      45.601  34.854  30.183  1.00  0.00     0.055 A 
ATOM     89  C   UNL A   1      44.752  35.325  27.981  1.00  0.00     0.041 A 
ATOM     90  F   UNL A   1      43.834  33.597  26.693  1.00  0.00    -0.206 F 
ATOM     91  C   UNL A   1      45.329  35.773  29.166  1.00  0.00     0.022 A 
BRANCH  88  92
ATOM     92  S   UNL A   1      46.215  35.429  31.788  1.00  0.00     0.124 S 
ATOM     93  O   UNL A   1      47.100  36.523  31.399  1.00  0.00    -0.237 OA
ATOM     94  O   UNL A   1      44.986  35.817  32.472  1.00  0.00    -0.237 OA
ATOM     95  O   UNL A   1      46.888  34.253  32.340  1.00  0.00    -0.744 OA
ENDBRANCH  88  92
ENDBRANCH  62  85
ENDBRANCH  36  37
ENDBRANCH  29  31
ENDBRANCH  28  29
ENDBRANCH  27  28
ENDBRANCH  26  27
ENDBRANCH  25  26
ENDBRANCH   1  25
TORSDOF 23
ENDMDL
MODEL 3
REMARK VINA RESULT:     -10.1      5.933     10.830
REMARK SMILES CC[C@@H](C)[C@H](NC(=O)CCc1ccc(F)c(F)c1)C(=O)OCCOCCOC(=O)c1ccc(-c2c3nc(c(-c4cc(S(=O)(=O)[O-])ccc4F)c4ccc([nH]4)c(-c4cc(S(=O)(=O)[O-])ccc4F)c4nc(c(-c5cc(S(=O)(=O)[O-])ccc5F)c5ccc2[nH]5)C=C4)C=C3)cc1
REMARK SMILES IDX 23 1 22 2 21 3 19 4 20 5 5 6 3 7 4 8 2 9 1 10 6 11 7 12 8 14
REMARK SMILES IDX 9 15 10 16 11 17 12 18 18 19 13 20 16 21 14 22 17 23 15 24
REMARK SMILES IDX 24 25 25 26 26 27 27 28 28 29 29 30 30 31 31 32 92 33 32 34
REMARK SMILES IDX 91 35 33 36 34 37 35 38 85 39 36 40 90 41 84 42 86 43 37 44
REMARK SMILES IDX 89 45 83 46 82 47 38 49 70 50 50 51 69 52 51 53 54 54 68 55
REMARK SMILES IDX 87 56 52 57 53 58 67 60 88 61 55 62 39 63 40 64 48 65 41 66
REMARK SMILES IDX 47 67 49 68 46 69 42 70 43 71 44 72 45 73 71 74 72 75 80 76
REMARK SMILES IDX 73 77 79 78 81 79 78 80 74 81 75 82 76 83 77 84 56 85 57 86
REMARK SMILES IDX 65 87 58 88 64 89 66 90 63 91 59 92 60 93 61 94 62 95
REMARK H PARENT 6 13 86 48 54 59
REMARK Flexibility Score: inf
ROOT
ATOM      1  C   UNL A   1      36.853  21.837  24.875  1.00  0.00     0.202 C 
ENDROOT
BRANCH   1   2
ATOM      2  C   UNL A   1      36.791  23.303  24.402  1.00  0.00     0.261 C 
BRANCH   2   3
ATOM      3  O   UNL A   1      36.474  24.315  25.393  1.00  0.00    -0.462 OA
BRANCH   3   4
ATOM      4  C   UNL A   1      35.152  24.372  25.721  1.00  0.00     0.328 C 
ATOM      5  O   UNL A   1      34.645  23.705  26.620  1.00  0.00    -0.250 OA
BRANCH   4   6
ATOM      6  C   UNL A   1      34.262  25.283  24.833  1.00  0.00     0.195 C 
BRANCH   6   7
ATOM      7  C   UNL A   1      33.261  26.097  25.738  1.00  0.00     0.019 C 
ATOM      8  C   UNL A   1      31.872  26.291  25.112  1.00  0.00     0.010 C 
BRANCH   7   9
ATOM      9  C   UNL A   1      33.827  27.438  26.252  1.00  0.00     0.002 C 
ATOM     10  C   UNL A   1      32.879  28.171  27.195  1.00  0.00     0.004 C 
ENDBRANCH   7   9
ENDBRANCH   6   7
BRANCH   6  11
ATOM     11  N   UNL A   1      33.698  24.806  23.560  1.00  0.00    -0.343 N 
ATOM     12  C   UNL A   1      33.610  23.467  23.221  1.00  0.00     0.221 C 
ATOM     13  H   UNL A   1      33.364  25.473  22.918  1.00  0.00     0.164 HD
ATOM     14  O   UNL A   1      33.959  23.094  22.103  1.00  0.00    -0.275 OA
BRANCH  12  15
ATOM     15  C   UNL A   1      32.914  22.528  24.188  1.00  0.00     0.105 C 
BRANCH  15  16
ATOM     16  C   UNL A   1      32.053  21.370  23.672  1.00  0.00     0.045 C 
BRANCH  16  17
ATOM     17  C   UNL A   1      32.638  19.969  23.646  1.00  0.00    -0.044 A 
ATOM     18  C   UNL A   1      32.052  18.995  22.818  1.00  0.00     0.007 A 
ATOM     19  C   UNL A   1      33.718  19.566  24.435  1.00  0.00     0.046 A 
ATOM     20  C   UNL A   1      32.629  17.725  22.678  1.00  0.00     0.043 A 
ATOM     21  C   UNL A   1      34.343  18.336  24.234  1.00  0.00     0.159 A 
ATOM     22  C   UNL A   1      33.808  17.424  23.347  1.00  0.00     0.158 A 
ATOM     23  F   UNL A   1      35.475  18.057  24.893  1.00  0.00    -0.204 F 
ATOM     24  F   UNL A   1      34.410  16.245  23.141  1.00  0.00    -0.204 F 
ENDBRANCH  16  17
ENDBRANCH  15  16
ENDBRANCH  12  15
ENDBRANCH   6  11
ENDBRANCH   4   6
ENDBRANCH   3   4
ENDBRANCH   2   3
ENDBRANCH   1   2
BRANCH   1  25
ATOM     25  O   UNL A   1      38.101  21.259  25.241  1.00  0.00    -0.374 OA
BRANCH  25  26
ATOM     26  C   UNL A   1      38.273  19.880  24.950  1.00  0.00     0.202 C 
BRANCH  26  27
ATOM     27  C   UNL A   1      39.340  19.092  25.726  1.00  0.00     0.261 C 
BRANCH  27  28
ATOM     28  O   UNL A   1      40.619  19.745  25.740  1.00  0.00    -0.460 OA
BRANCH  28  29
ATOM     29  C   UNL A   1      41.078  20.038  26.985  1.00  0.00     0.338 C 
ATOM     30  O   UNL A   1      40.964  19.358  27.989  1.00  0.00    -0.246 OA
BRANCH  29  31
ATOM     31  C   UNL A   1      41.969  21.210  26.915  1.00  0.00     0.060 A 
ATOM     32  C   UNL A   1      42.534  21.652  28.119  1.00  0.00     0.016 A 
ATOM     33  C   UNL A   1      42.204  21.891  25.719  1.00  0.00     0.016 A 
ATOM     34  C   UNL A   1      43.306  22.804  28.142  1.00  0.00     0.010 A 
ATOM     35  C   UNL A   1      42.962  23.067  25.747  1.00  0.00     0.010 A 
ATOM     36  C   UNL A   1      43.479  23.542  26.965  1.00  0.00    -0.014 A 
BRANCH  36  37
ATOM     37  C   UNL A   1      44.015  24.917  27.085  1.00  0.00     0.031 A 
ATOM     38  C   UNL A   1      43.091  25.991  27.588  1.00  0.00     0.074 A 
ATOM     39  C   UNL A   1      45.315  25.164  26.847  1.00  0.00     0.049 A 
ATOM     40  N   UNL A   1      43.337  27.248  27.842  1.00  0.00    -0.248 NA
ATOM     41  C   UNL A   1      41.699  25.585  27.843  1.00  0.00     0.031 C 
ATOM     42  C   UNL A   1      46.293  24.168  26.411  1.00  0.00     0.029 A 
ATOM     43  N   UNL A   1      46.038  26.323  26.953  1.00  0.00    -0.354 N 
ATOM     44  C   UNL A   1      42.136  27.782  28.299  1.00  0.00     0.074 A 
ATOM     45  C   UNL A   1      41.152  26.724  28.239  1.00  0.00     0.031 C 
ATOM     46  C   UNL A   1      47.492  24.762  26.286  1.00  0.00     0.029 A 
ATOM     47  C   UNL A   1      47.359  26.181  26.605  1.00  0.00     0.049 A 
ATOM     48  H   UNL A   1      45.646  27.176  27.250  1.00  0.00     0.167 HD
ATOM     49  C   UNL A   1      41.884  29.039  28.737  1.00  0.00     0.034 A 
ATOM     50  C   UNL A   1      48.342  27.102  26.542  1.00  0.00     0.034 A 
ATOM     51  C   UNL A   1      42.883  30.080  28.757  1.00  0.00     0.049 A 
ATOM     52  C   UNL A   1      48.018  28.519  26.954  1.00  0.00     0.074 A 
ATOM     53  C   UNL A   1      42.754  31.397  29.156  1.00  0.00     0.029 A 
ATOM     54  N   UNL A   1      44.200  29.917  28.341  1.00  0.00    -0.354 N 
ATOM     55  N   UNL A   1      46.880  29.013  27.386  1.00  0.00    -0.248 NA
ATOM     56  C   UNL A   1      49.111  29.495  26.884  1.00  0.00     0.031 C 
ATOM     57  C   UNL A   1      43.972  32.046  28.916  1.00  0.00     0.029 A 
ATOM     58  C   UNL A   1      44.885  31.117  28.445  1.00  0.00     0.049 A 
ATOM     59  H   UNL A   1      44.590  29.071  28.020  1.00  0.00     0.167 HD
ATOM     60  C   UNL A   1      47.127  30.355  27.665  1.00  0.00     0.074 A 
ATOM     61  C   UNL A   1      48.529  30.582  27.368  1.00  0.00     0.031 C 
ATOM     62  C   UNL A   1      46.282  31.312  28.125  1.00  0.00     0.034 A 
BRANCH  49  63
ATOM     63  C   UNL A   1      40.468  29.354  29.159  1.00  0.00     0.023 A 
ATOM     64  C   UNL A   1      40.078  29.351  30.511  1.00  0.00     0.031 A 
ATOM     65  C   UNL A   1      39.479  29.604  28.193  1.00  0.00     0.131 A 
ATOM     66  C   UNL A   1      38.726  29.516  30.853  1.00  0.00     0.055 A 
ATOM     67  C   UNL A   1      38.149  29.847  28.543  1.00  0.00     0.041 A 
ATOM     68  F   UNL A   1      39.782  29.592  26.884  1.00  0.00    -0.206 F 
ATOM     69  C   UNL A   1      37.763  29.788  29.879  1.00  0.00     0.022 A 
BRANCH  66  70
ATOM     70  S   UNL A   1      38.220  29.218  32.569  1.00  0.00     0.124 S 
ATOM     71  O   UNL A   1      36.771  29.084  32.430  1.00  0.00    -0.237 OA
ATOM     72  O   UNL A   1      38.944  27.999  32.905  1.00  0.00    -0.237 OA
ATOM     73  O   UNL A   1      38.661  30.422  33.271  1.00  0.00    -0.744 OA
ENDBRANCH  66  70
ENDBRANCH  49  63
BRANCH  50  74
ATOM     74  C   UNL A   1      49.699  26.730  26.045  1.00  0.00     0.023 A 
ATOM     75  C   UNL A   1      50.145  27.106  24.769  1.00  0.00     0.031 A 
ATOM     76  C   UNL A   1      50.564  25.954  26.840  1.00  0.00     0.131 A 
ATOM     77  C   UNL A   1      51.401  26.676  24.310  1.00  0.00     0.055 A 
ATOM     78  C   UNL A   1      51.833  25.572  26.401  1.00  0.00     0.041 A 
ATOM     79  F   UNL A   1      50.190  25.565  28.070  1.00  0.00    -0.206 F 
ATOM     80  C   UNL A   1      52.253  25.923  25.122  1.00  0.00     0.022 A 
BRANCH  77  81
ATOM     81  S   UNL A   1      51.880  27.049  22.601  1.00  0.00     0.124 S 
ATOM     82  O   UNL A   1      52.515  28.353  22.746  1.00  0.00    -0.237 OA
ATOM     83  O   UNL A   1      52.765  25.933  22.285  1.00  0.00    -0.237 OA
ATOM     84  O   UNL A   1      50.606  27.052  21.883  1.00  0.00    -0.744 OA
ENDBRANCH  77  81
ENDBRANCH  50  74
BRANCH  62  85
ATOM     85  C   UNL A   1      46.870  32.681  28.362  1.00  0.00     0.023 A 
ATOM     86  C   UNL A   1      46.955  33.635  27.334  1.00  0.00     0.031 A 
ATOM     87  C   UNL A   1      47.360  33.029  29.634  1.00  0.00     0.131 A 
ATOM     88  C   UNL A   1      47.571  34.871  27.580  1.00  0.00     0.055 A 
ATOM     89  C   UNL A   1      47.913  34.284  29.888  1.00  0.00     0.041 A 
ATOM     90  F   UNL A   1      47.303  32.154  30.651  1.00  0.00    -0.206 F 
ATOM     91  C   UNL A   1      48.034  35.208  28.855  1.00  0.00     0.022 A 
BRANCH  88  92
ATOM     92  S   UNL A   1      47.847  35.995  26.185  1.00  0.00     0.124 S 
ATOM     93  O   UNL A   1      46.518  36.567  25.990  1.00  0.00    -0.237 OA
ATOM     94  O   UNL A   1      48.860  36.904  26.712  1.00  0.00    -0.237 OA
ATOM     95  O   UNL A   1      48.305  35.109  25.116  1.00  0.00    -0.744 OA
ENDBRANCH  88  92
ENDBRANCH  62  85
ENDBRANCH  36  37
ENDBRANCH  29  31
ENDBRANCH  28  29
ENDBRANCH  27  28
ENDBRANCH  26  27
ENDBRANCH  25  26
ENDBRANCH   1  25
TORSDOF 23
ENDMDL
