MODEL 1
REMARK VINA RESULT:     -11.8      0.000      0.000
REMARK SMILES COc1cccc([C@@H]2[NH2+][C@@](C)(C(=O)OCCOCCOC(=O)c3ccc(-c4c5nc(c(-c6cc(S(=O)(=O)[O-])ccc6F)c6ccc([nH]6)c(-c6cc(S(=O)(=O)[O-])ccc6F)c6nc(c(-c7cc(S(=O)(=O)[O-])ccc7F)c7ccc4[nH]7)C=C6)C=C5)cc3)[C@@H]3C(=O)N(C)C(=O)[C@@H]32)c1O
REMARK SMILES IDX 18 1 17 2 16 3 15 4 14 5 12 6 13 7 10 8 8 9 9 10 93 11 86 14
REMARK SMILES IDX 91 15 11 16 87 17 89 18 92 19 88 20 90 21 7 22 3 23 4 24
REMARK SMILES IDX 94 25 5 26 6 27 2 28 1 29 95 30 19 32 20 33 21 34 22 35
REMARK SMILES IDX 23 36 24 37 85 38 25 39 84 40 26 41 27 42 28 43 78 44 29 45
REMARK SMILES IDX 83 46 77 47 79 48 30 49 82 50 76 51 75 52 31 54 63 55 43 56
REMARK SMILES IDX 62 57 44 58 47 59 61 60 80 61 45 62 46 63 60 65 81 66 48 67
REMARK SMILES IDX 32 68 33 69 41 70 34 71 40 72 42 73 39 74 35 75 36 76 37 77
REMARK SMILES IDX 38 78 64 79 65 80 73 81 66 82 72 83 74 84 71 85 67 86 68 87
REMARK SMILES IDX 69 88 70 89 49 90 50 91 58 92 51 93 57 94 59 95 56 96 52 97
REMARK SMILES IDX 53 98 54 99 55 100
REMARK H PARENT 9 12 9 13 95 31 79 53 47 64
REMARK Flexibility Score: inf
ROOT
ATOM      1  C   UNL A   1      37.394  20.459  24.945  1.00  0.00     0.202 C 
ENDROOT
BRANCH   1   2
ATOM      2  O   UNL A   1      37.482  21.722  24.299  1.00  0.00    -0.374 OA
BRANCH   2   3
ATOM      3  C   UNL A   1      36.394  22.625  24.442  1.00  0.00     0.202 C 
BRANCH   3   4
ATOM      4  C   UNL A   1      35.617  23.088  23.195  1.00  0.00     0.261 C 
BRANCH   4   5
ATOM      5  O   UNL A   1      34.234  22.682  23.141  1.00  0.00    -0.459 OA
BRANCH   5   6
ATOM      6  C   UNL A   1      33.431  23.569  22.500  1.00  0.00     0.368 C 
ATOM      7  O   UNL A   1      33.517  23.799  21.292  1.00  0.00    -0.245 OA
BRANCH   6   8
ATOM      8  C   UNL A   1      32.399  24.331  23.385  1.00  0.00     0.204 C 
ATOM      9  C   UNL A   1      31.653  26.542  22.679  1.00  0.00     0.232 C 
ATOM     10  N   UNL A   1      31.325  25.098  22.661  1.00  0.00    -0.325 N 
ATOM     11  C   UNL A   1      33.036  26.678  23.332  1.00  0.00     0.161 C 
ATOM     12  H   UNL A   1      31.266  24.773  21.696  1.00  0.00     0.347 HD
ATOM     13  H   UNL A   1      30.428  24.946  23.124  1.00  0.00     0.347 HD
ATOM     14  C   UNL A   1      33.241  25.384  24.094  1.00  0.00     0.170 C 
ATOM     15  C   UNL A   1      33.298  27.700  24.404  1.00  0.00     0.239 C 
ATOM     16  C   UNL A   1      31.768  23.242  24.252  1.00  0.00     0.093 C 
ATOM     17  C   UNL A   1      32.940  25.744  25.515  1.00  0.00     0.240 C 
ATOM     18  N   UNL A   1      33.175  27.090  25.626  1.00  0.00    -0.285 N 
ATOM     19  O   UNL A   1      33.582  28.868  24.180  1.00  0.00    -0.274 OA
ATOM     20  O   UNL A   1      32.625  24.975  26.399  1.00  0.00    -0.274 OA
ATOM     21  C   UNL A   1      33.129  27.786  26.887  1.00  0.00     0.156 C 
BRANCH   9  22
ATOM     22  C   UNL A   1      30.544  27.545  23.020  1.00  0.00     0.056 A 
ATOM     23  C   UNL A   1      29.141  29.283  22.072  1.00  0.00     0.161 A 
ATOM     24  C   UNL A   1      28.013  28.749  22.682  1.00  0.00     0.050 A 
ATOM     25  C   UNL A   1      30.409  28.787  22.397  1.00  0.00     0.166 A 
ATOM     26  C   UNL A   1      28.163  27.695  23.576  1.00  0.00     0.005 A 
ATOM     27  C   UNL A   1      29.413  27.076  23.720  1.00  0.00     0.014 A 
BRANCH  23  28
ATOM     28  O   UNL A   1      28.994  30.287  21.146  1.00  0.00    -0.493 OA
ATOM     29  C   UNL A   1      28.924  31.557  21.814  1.00  0.00     0.278 C 
ENDBRANCH  23  28
BRANCH  25  30
ATOM     30  O   UNL A   1      31.506  29.530  22.088  1.00  0.00    -0.504 OA
ATOM     31  H   UNL A   1      31.737  30.267  22.618  1.00  0.00     0.293 HD
ENDBRANCH  25  30
ENDBRANCH   9  22
ENDBRANCH   6   8
ENDBRANCH   5   6
ENDBRANCH   4   5
ENDBRANCH   3   4
ENDBRANCH   2   3
ENDBRANCH   1   2
BRANCH   1  32
ATOM     32  C   UNL A   1      38.663  19.707  25.369  1.00  0.00     0.261 C 
BRANCH  32  33
ATOM     33  O   UNL A   1      39.813  20.551  25.538  1.00  0.00    -0.460 OA
BRANCH  33  34
ATOM     34  C   UNL A   1      40.330  20.538  26.792  1.00  0.00     0.338 C 
ATOM     35  O   UNL A   1      40.699  19.561  27.423  1.00  0.00    -0.246 OA
BRANCH  34  36
ATOM     36  C   UNL A   1      40.594  21.913  27.247  1.00  0.00     0.060 A 
ATOM     37  C   UNL A   1      40.030  22.955  26.500  1.00  0.00     0.016 A 
ATOM     38  C   UNL A   1      41.460  22.182  28.308  1.00  0.00     0.016 A 
ATOM     39  C   UNL A   1      40.372  24.272  26.779  1.00  0.00     0.010 A 
ATOM     40  C   UNL A   1      41.813  23.508  28.578  1.00  0.00     0.010 A 
ATOM     41  C   UNL A   1      41.301  24.553  27.788  1.00  0.00    -0.014 A 
BRANCH  41  42
ATOM     42  C   UNL A   1      41.852  25.926  27.876  1.00  0.00     0.031 A 
ATOM     43  C   UNL A   1      41.073  26.975  28.622  1.00  0.00     0.074 A 
ATOM     44  C   UNL A   1      43.069  26.204  27.376  1.00  0.00     0.049 A 
ATOM     45  N   UNL A   1      41.377  28.224  28.863  1.00  0.00    -0.248 NA
ATOM     46  C   UNL A   1      39.774  26.553  29.170  1.00  0.00     0.031 C 
ATOM     47  C   UNL A   1      43.932  25.246  26.685  1.00  0.00     0.029 A 
ATOM     48  N   UNL A   1      43.795  27.366  27.386  1.00  0.00    -0.354 N 
ATOM     49  C   UNL A   1      40.310  28.738  29.594  1.00  0.00     0.074 A 
ATOM     50  C   UNL A   1      39.331  27.678  29.710  1.00  0.00     0.031 C 
ATOM     51  C   UNL A   1      45.078  25.860  26.345  1.00  0.00     0.029 A 
ATOM     52  C   UNL A   1      45.014  27.260  26.760  1.00  0.00     0.049 A 
ATOM     53  H   UNL A   1      43.474  28.199  27.803  1.00  0.00     0.167 HD
ATOM     54  C   UNL A   1      40.169  29.976  30.131  1.00  0.00     0.034 A 
ATOM     55  C   UNL A   1      45.961  28.191  26.537  1.00  0.00     0.034 A 
ATOM     56  C   UNL A   1      41.151  31.024  29.986  1.00  0.00     0.049 A 
ATOM     57  C   UNL A   1      45.740  29.590  27.059  1.00  0.00     0.074 A 
ATOM     58  C   UNL A   1      41.117  32.315  30.481  1.00  0.00     0.029 A 
ATOM     59  N   UNL A   1      42.344  30.904  29.280  1.00  0.00    -0.354 N 
ATOM     60  N   UNL A   1      44.728  30.066  27.751  1.00  0.00    -0.248 NA
ATOM     61  C   UNL A   1      46.795  30.571  26.782  1.00  0.00     0.031 C 
ATOM     62  C   UNL A   1      42.246  32.997  30.010  1.00  0.00     0.029 A 
ATOM     63  C   UNL A   1      43.033  32.108  29.295  1.00  0.00     0.049 A 
ATOM     64  H   UNL A   1      42.654  30.083  28.834  1.00  0.00     0.167 HD
ATOM     65  C   UNL A   1      45.042  31.398  28.014  1.00  0.00     0.074 A 
ATOM     66  C   UNL A   1      46.345  31.637  27.427  1.00  0.00     0.031 C 
ATOM     67  C   UNL A   1      44.322  32.338  28.681  1.00  0.00     0.034 A 
BRANCH  54  68
ATOM     68  C   UNL A   1      38.880  30.268  30.865  1.00  0.00     0.023 A 
ATOM     69  C   UNL A   1      37.812  30.948  30.252  1.00  0.00     0.031 A 
ATOM     70  C   UNL A   1      38.735  29.905  32.217  1.00  0.00     0.131 A 
ATOM     71  C   UNL A   1      36.689  31.318  31.008  1.00  0.00     0.055 A 
ATOM     72  C   UNL A   1      37.577  30.199  32.940  1.00  0.00     0.041 A 
ATOM     73  F   UNL A   1      39.728  29.278  32.866  1.00  0.00    -0.206 F 
ATOM     74  C   UNL A   1      36.552  30.925  32.341  1.00  0.00     0.022 A 
BRANCH  71  75
ATOM     75  S   UNL A   1      35.487  32.462  30.274  1.00  0.00     0.124 S 
ATOM     76  O   UNL A   1      36.268  33.695  30.191  1.00  0.00    -0.237 OA
ATOM     77  O   UNL A   1      35.172  31.818  29.005  1.00  0.00    -0.237 OA
ATOM     78  O   UNL A   1      34.398  32.488  31.249  1.00  0.00    -0.744 OA
ENDBRANCH  71  75
ENDBRANCH  54  68
BRANCH  55  79
ATOM     79  C   UNL A   1      47.188  27.849  25.761  1.00  0.00     0.023 A 
ATOM     80  C   UNL A   1      47.243  28.021  24.369  1.00  0.00     0.031 A 
ATOM     81  C   UNL A   1      48.314  27.298  26.401  1.00  0.00     0.131 A 
ATOM     82  C   UNL A   1      48.381  27.609  23.658  1.00  0.00     0.055 A 
ATOM     83  C   UNL A   1      49.464  26.940  25.697  1.00  0.00     0.041 A 
ATOM     84  F   UNL A   1      48.314  27.110  27.732  1.00  0.00    -0.206 F 
ATOM     85  C   UNL A   1      49.496  27.083  24.313  1.00  0.00     0.022 A 
BRANCH  82  86
ATOM     86  S   UNL A   1      48.350  27.693  21.846  1.00  0.00     0.124 S 
ATOM     87  O   UNL A   1      47.019  28.234  21.596  1.00  0.00    -0.237 OA
ATOM     88  O   UNL A   1      49.470  28.586  21.566  1.00  0.00    -0.237 OA
ATOM     89  O   UNL A   1      48.547  26.304  21.437  1.00  0.00    -0.744 OA
ENDBRANCH  82  86
ENDBRANCH  55  79
BRANCH  67  90
ATOM     90  C   UNL A   1      44.957  33.701  28.833  1.00  0.00     0.023 A 
ATOM     91  C   UNL A   1      45.778  34.016  29.930  1.00  0.00     0.031 A 
ATOM     92  C   UNL A   1      44.706  34.711  27.887  1.00  0.00     0.131 A 
ATOM     93  C   UNL A   1      46.253  35.326  30.097  1.00  0.00     0.055 A 
ATOM     94  C   UNL A   1      45.244  35.993  28.018  1.00  0.00     0.041 A 
ATOM     95  F   UNL A   1      43.928  34.472  26.820  1.00  0.00    -0.206 F 
ATOM     96  C   UNL A   1      46.006  36.311  29.138  1.00  0.00     0.022 A 
BRANCH  93  97
ATOM     97  S   UNL A   1      47.084  35.757  31.650  1.00  0.00     0.124 S 
ATOM     98  O   UNL A   1      48.317  34.982  31.559  1.00  0.00    -0.237 OA
ATOM     99  O   UNL A   1      47.230  37.204  31.535  1.00  0.00    -0.237 OA
ATOM    100  O   UNL A   1      46.145  35.309  32.677  1.00  0.00    -0.744 OA
ENDBRANCH  93  97
ENDBRANCH  67  90
ENDBRANCH  41  42
ENDBRANCH  34  36
ENDBRANCH  33  34
ENDBRANCH  32  33
ENDBRANCH   1  32
TORSDOF 20
ENDMDL
MODEL 2
REMARK VINA RESULT:     -11.8      1.924      2.190
REMARK SMILES COc1cccc([C@@H]2[NH2+][C@@](C)(C(=O)OCCOCCOC(=O)c3ccc(-c4c5nc(c(-c6cc(S(=O)(=O)[O-])ccc6F)c6ccc([nH]6)c(-c6cc(S(=O)(=O)[O-])ccc6F)c6nc(c(-c7cc(S(=O)(=O)[O-])ccc7F)c7ccc4[nH]7)C=C6)C=C5)cc3)[C@@H]3C(=O)N(C)C(=O)[C@@H]32)c1O
REMARK SMILES IDX 18 1 17 2 16 3 15 4 14 5 12 6 13 7 10 8 8 9 9 10 93 11 86 14
REMARK SMILES IDX 91 15 11 16 87 17 89 18 92 19 88 20 90 21 7 22 3 23 4 24
REMARK SMILES IDX 94 25 5 26 6 27 2 28 1 29 95 30 19 32 20 33 21 34 22 35
REMARK SMILES IDX 23 36 24 37 85 38 25 39 84 40 26 41 27 42 28 43 78 44 29 45
REMARK SMILES IDX 83 46 77 47 79 48 30 49 82 50 76 51 75 52 31 54 63 55 43 56
REMARK SMILES IDX 62 57 44 58 47 59 61 60 80 61 45 62 46 63 60 65 81 66 48 67
REMARK SMILES IDX 32 68 33 69 41 70 34 71 40 72 42 73 39 74 35 75 36 76 37 77
REMARK SMILES IDX 38 78 64 79 65 80 73 81 66 82 72 83 74 84 71 85 67 86 68 87
REMARK SMILES IDX 69 88 70 89 49 90 50 91 58 92 51 93 57 94 59 95 56 96 52 97
REMARK SMILES IDX 53 98 54 99 55 100
REMARK H PARENT 9 12 9 13 95 31 79 53 47 64
REMARK Flexibility Score: inf
ROOT
ATOM      1  C   UNL A   1      36.560  20.178  24.878  1.00  0.00     0.202 C 
ENDROOT
BRANCH   1   2
ATOM      2  O   UNL A   1      36.460  21.567  24.594  1.00  0.00    -0.374 OA
BRANCH   2   3
ATOM      3  C   UNL A   1      35.171  22.165  24.618  1.00  0.00     0.202 C 
BRANCH   3   4
ATOM      4  C   UNL A   1      34.629  22.862  23.357  1.00  0.00     0.261 C 
BRANCH   4   5
ATOM      5  O   UNL A   1      33.193  22.974  23.280  1.00  0.00    -0.459 OA
BRANCH   5   6
ATOM      6  C   UNL A   1      32.767  24.112  22.675  1.00  0.00     0.368 C 
ATOM      7  O   UNL A   1      33.229  24.515  21.606  1.00  0.00    -0.245 OA
BRANCH   6   8
ATOM      8  C   UNL A   1      31.672  24.925  23.427  1.00  0.00     0.204 C 
ATOM      9  C   UNL A   1      31.132  27.171  22.646  1.00  0.00     0.232 C 
ATOM     10  N   UNL A   1      30.737  25.745  22.579  1.00  0.00    -0.325 N 
ATOM     11  C   UNL A   1      32.427  27.237  23.468  1.00  0.00     0.161 C 
ATOM     12  H   UNL A   1      30.784  25.424  21.612  1.00  0.00     0.347 HD
ATOM     13  H   UNL A   1      29.783  25.640  22.924  1.00  0.00     0.347 HD
ATOM     14  C   UNL A   1      32.470  25.935  24.243  1.00  0.00     0.170 C 
ATOM     15  C   UNL A   1      32.604  28.246  24.571  1.00  0.00     0.239 C 
ATOM     16  C   UNL A   1      30.882  23.871  24.202  1.00  0.00     0.093 C 
ATOM     17  C   UNL A   1      32.011  26.312  25.617  1.00  0.00     0.240 C 
ATOM     18  N   UNL A   1      32.298  27.643  25.763  1.00  0.00    -0.285 N 
ATOM     19  O   UNL A   1      32.973  29.397  24.390  1.00  0.00    -0.274 OA
ATOM     20  O   UNL A   1      31.550  25.560  26.449  1.00  0.00    -0.274 OA
ATOM     21  C   UNL A   1      32.129  28.342  27.013  1.00  0.00     0.156 C 
BRANCH   9  22
ATOM     22  C   UNL A   1      30.041  28.230  22.851  1.00  0.00     0.056 A 
ATOM     23  C   UNL A   1      28.751  29.932  21.702  1.00  0.00     0.161 A 
ATOM     24  C   UNL A   1      27.574  29.480  22.285  1.00  0.00     0.050 A 
ATOM     25  C   UNL A   1      29.982  29.425  22.132  1.00  0.00     0.166 A 
ATOM     26  C   UNL A   1      27.640  28.491  23.261  1.00  0.00     0.005 A 
ATOM     27  C   UNL A   1      28.859  27.848  23.519  1.00  0.00     0.014 A 
BRANCH  23  28
ATOM     28  O   UNL A   1      28.687  30.869  20.698  1.00  0.00    -0.493 OA
ATOM     29  C   UNL A   1      28.063  32.066  21.191  1.00  0.00     0.278 C 
ENDBRANCH  23  28
BRANCH  25  30
ATOM     30  O   UNL A   1      31.118  30.110  21.832  1.00  0.00    -0.504 OA
ATOM     31  H   UNL A   1      31.080  31.030  21.662  1.00  0.00     0.293 HD
ENDBRANCH  25  30
ENDBRANCH   9  22
ENDBRANCH   6   8
ENDBRANCH   5   6
ENDBRANCH   4   5
ENDBRANCH   3   4
ENDBRANCH   2   3
ENDBRANCH   1   2
BRANCH   1  32
ATOM     32  C   UNL A   1      37.917  19.545  25.215  1.00  0.00     0.261 C 
BRANCH  32  33
ATOM     33  O   UNL A   1      39.010  20.476  25.225  1.00  0.00    -0.460 OA
BRANCH  33  34
ATOM     34  C   UNL A   1      39.855  20.327  26.277  1.00  0.00     0.338 C 
ATOM     35  O   UNL A   1      40.405  19.299  26.636  1.00  0.00    -0.246 OA
BRANCH  34  36
ATOM     36  C   UNL A   1      40.203  21.643  26.837  1.00  0.00     0.060 A 
ATOM     37  C   UNL A   1      39.649  22.772  26.220  1.00  0.00     0.016 A 
ATOM     38  C   UNL A   1      41.136  21.778  27.867  1.00  0.00     0.016 A 
ATOM     39  C   UNL A   1      40.064  24.043  26.596  1.00  0.00     0.010 A 
ATOM     40  C   UNL A   1      41.562  23.059  28.235  1.00  0.00     0.010 A 
ATOM     41  C   UNL A   1      41.057  24.192  27.572  1.00  0.00    -0.014 A 
BRANCH  41  42
ATOM     42  C   UNL A   1      41.673  25.528  27.752  1.00  0.00     0.031 A 
ATOM     43  C   UNL A   1      40.901  26.591  28.484  1.00  0.00     0.074 A 
ATOM     44  C   UNL A   1      42.934  25.755  27.345  1.00  0.00     0.049 A 
ATOM     45  N   UNL A   1      41.253  27.811  28.795  1.00  0.00    -0.248 NA
ATOM     46  C   UNL A   1      39.547  26.223  28.927  1.00  0.00     0.031 C 
ATOM     47  C   UNL A   1      43.790  24.776  26.676  1.00  0.00     0.029 A 
ATOM     48  N   UNL A   1      43.719  26.873  27.451  1.00  0.00    -0.354 N 
ATOM     49  C   UNL A   1      40.168  28.358  29.473  1.00  0.00     0.074 A 
ATOM     50  C   UNL A   1      39.128  27.350  29.480  1.00  0.00     0.031 C 
ATOM     51  C   UNL A   1      44.988  25.336  26.439  1.00  0.00     0.029 A 
ATOM     52  C   UNL A   1      44.971  26.721  26.904  1.00  0.00     0.049 A 
ATOM     53  H   UNL A   1      43.415  27.707  27.878  1.00  0.00     0.167 HD
ATOM     54  C   UNL A   1      40.056  29.582  30.047  1.00  0.00     0.034 A 
ATOM     55  C   UNL A   1      45.980  27.606  26.782  1.00  0.00     0.034 A 
ATOM     56  C   UNL A   1      41.101  30.578  30.011  1.00  0.00     0.049 A 
ATOM     57  C   UNL A   1      45.798  28.995  27.344  1.00  0.00     0.074 A 
ATOM     58  C   UNL A   1      41.102  31.850  30.553  1.00  0.00     0.029 A 
ATOM     59  N   UNL A   1      42.331  30.416  29.382  1.00  0.00    -0.354 N 
ATOM     60  N   UNL A   1      44.768  29.502  27.984  1.00  0.00    -0.248 NA
ATOM     61  C   UNL A   1      46.920  29.925  27.177  1.00  0.00     0.031 C 
ATOM     62  C   UNL A   1      42.295  32.484  30.186  1.00  0.00     0.029 A 
ATOM     63  C   UNL A   1      43.081  31.578  29.491  1.00  0.00     0.049 A 
ATOM     64  H   UNL A   1      42.628  29.596  28.925  1.00  0.00     0.167 HD
ATOM     65  C   UNL A   1      45.133  30.804  28.320  1.00  0.00     0.074 A 
ATOM     66  C   UNL A   1      46.484  30.990  27.832  1.00  0.00     0.031 C 
ATOM     67  C   UNL A   1      44.420  31.758  28.975  1.00  0.00     0.034 A 
BRANCH  54  68
ATOM     68  C   UNL A   1      38.737  29.919  30.704  1.00  0.00     0.023 A 
ATOM     69  C   UNL A   1      37.723  30.618  30.023  1.00  0.00     0.031 A 
ATOM     70  C   UNL A   1      38.507  29.581  32.051  1.00  0.00     0.131 A 
ATOM     71  C   UNL A   1      36.571  31.029  30.711  1.00  0.00     0.055 A 
ATOM     72  C   UNL A   1      37.319  29.916  32.704  1.00  0.00     0.041 A 
ATOM     73  F   UNL A   1      39.445  28.937  32.763  1.00  0.00    -0.206 F 
ATOM     74  C   UNL A   1      36.350  30.659  32.038  1.00  0.00     0.022 A 
BRANCH  71  75
ATOM     75  S   UNL A   1      35.443  32.193  29.894  1.00  0.00     0.124 S 
ATOM     76  O   UNL A   1      34.457  32.432  30.945  1.00  0.00    -0.237 OA
ATOM     77  O   UNL A   1      36.322  33.311  29.573  1.00  0.00    -0.237 OA
ATOM     78  O   UNL A   1      34.946  31.439  28.744  1.00  0.00    -0.744 OA
ENDBRANCH  71  75
ENDBRANCH  54  68
BRANCH  55  79
ATOM     79  C   UNL A   1      47.237  27.224  26.078  1.00  0.00     0.023 A 
ATOM     80  C   UNL A   1      48.262  26.529  26.740  1.00  0.00     0.031 A 
ATOM     81  C   UNL A   1      47.452  27.592  24.737  1.00  0.00     0.131 A 
ATOM     82  C   UNL A   1      49.468  26.261  26.075  1.00  0.00     0.055 A 
ATOM     83  C   UNL A   1      48.632  27.275  24.063  1.00  0.00     0.041 A 
ATOM     84  F   UNL A   1      46.506  28.260  24.056  1.00  0.00    -0.206 F 
ATOM     85  C   UNL A   1      49.655  26.616  24.737  1.00  0.00     0.022 A 
BRANCH  82  86
ATOM     86  S   UNL A   1      50.828  25.509  27.011  1.00  0.00     0.124 S 
ATOM     87  O   UNL A   1      51.226  26.605  27.888  1.00  0.00    -0.237 OA
ATOM     88  O   UNL A   1      50.165  24.380  27.654  1.00  0.00    -0.237 OA
ATOM     89  O   UNL A   1      51.798  25.154  25.976  1.00  0.00    -0.744 OA
ENDBRANCH  82  86
ENDBRANCH  55  79
BRANCH  67  90
ATOM     90  C   UNL A   1      45.114  33.077  29.223  1.00  0.00     0.023 A 
ATOM     91  C   UNL A   1      44.900  34.193  28.394  1.00  0.00     0.031 A 
ATOM     92  C   UNL A   1      46.033  33.209  30.279  1.00  0.00     0.131 A 
ATOM     93  C   UNL A   1      45.651  35.363  28.586  1.00  0.00     0.055 A 
ATOM     94  C   UNL A   1      46.722  34.401  30.512  1.00  0.00     0.041 A 
ATOM     95  F   UNL A   1      46.283  32.178  31.102  1.00  0.00    -0.206 F 
ATOM     96  C   UNL A   1      46.547  35.480  29.651  1.00  0.00     0.022 A 
BRANCH  93  97
ATOM     97  S   UNL A   1      45.537  36.681  27.344  1.00  0.00     0.124 S 
ATOM     98  O   UNL A   1      46.744  36.457  26.555  1.00  0.00    -0.237 OA
ATOM     99  O   UNL A   1      44.274  36.375  26.681  1.00  0.00    -0.237 OA
ATOM    100  O   UNL A   1      45.537  37.905  28.144  1.00  0.00    -0.744 OA
ENDBRANCH  93  97
ENDBRANCH  67  90
ENDBRANCH  41  42
ENDBRANCH  34  36
ENDBRANCH  33  34
ENDBRANCH  32  33
ENDBRANCH   1  32
TORSDOF 20
ENDMDL
MODEL 3
REMARK VINA RESULT:     -11.7      1.502      7.426
REMARK SMILES COc1cccc([C@@H]2[NH2+][C@@](C)(C(=O)OCCOCCOC(=O)c3ccc(-c4c5nc(c(-c6cc(S(=O)(=O)[O-])ccc6F)c6ccc([nH]6)c(-c6cc(S(=O)(=O)[O-])ccc6F)c6nc(c(-c7cc(S(=O)(=O)[O-])ccc7F)c7ccc4[nH]7)C=C6)C=C5)cc3)[C@@H]3C(=O)N(C)C(=O)[C@@H]32)c1O
REMARK SMILES IDX 18 1 17 2 16 3 15 4 14 5 12 6 13 7 10 8 8 9 9 10 93 11 86 14
REMARK SMILES IDX 91 15 11 16 87 17 89 18 92 19 88 20 90 21 7 22 3 23 4 24
REMARK SMILES IDX 94 25 5 26 6 27 2 28 1 29 95 30 19 32 20 33 21 34 22 35
REMARK SMILES IDX 23 36 24 37 85 38 25 39 84 40 26 41 27 42 28 43 78 44 29 45
REMARK SMILES IDX 83 46 77 47 79 48 30 49 82 50 76 51 75 52 31 54 63 55 43 56
REMARK SMILES IDX 62 57 44 58 47 59 61 60 80 61 45 62 46 63 60 65 81 66 48 67
REMARK SMILES IDX 32 68 33 69 41 70 34 71 40 72 42 73 39 74 35 75 36 76 37 77
REMARK SMILES IDX 38 78 64 79 65 80 73 81 66 82 72 83 74 84 71 85 67 86 68 87
REMARK SMILES IDX 69 88 70 89 49 90 50 91 58 92 51 93 57 94 59 95 56 96 52 97
REMARK SMILES IDX 53 98 54 99 55 100
REMARK H PARENT 9 12 9 13 95 31 79 53 47 64
REMARK Flexibility Score: inf
ROOT
ATOM      1  C   UNL A   1      37.643  21.338  25.401  1.00  0.00     0.202 C 
ENDROOT
BRANCH   1   2
ATOM      2  O   UNL A   1      36.870  21.565  24.231  1.00  0.00    -0.374 OA
BRANCH   2   3
ATOM      3  C   UNL A   1      36.252  22.835  24.072  1.00  0.00     0.202 C 
BRANCH   3   4
ATOM      4  C   UNL A   1      35.061  22.990  23.108  1.00  0.00     0.261 C 
BRANCH   4   5
ATOM      5  O   UNL A   1      33.819  23.397  23.719  1.00  0.00    -0.459 OA
BRANCH   5   6
ATOM      6  C   UNL A   1      33.070  24.215  22.937  1.00  0.00     0.368 C 
ATOM      7  O   UNL A   1      33.304  24.399  21.741  1.00  0.00    -0.245 OA
BRANCH   6   8
ATOM      8  C   UNL A   1      31.897  24.961  23.643  1.00  0.00     0.204 C 
ATOM      9  C   UNL A   1      31.251  27.167  22.832  1.00  0.00     0.232 C 
ATOM     10  N   UNL A   1      30.948  25.720  22.755  1.00  0.00    -0.325 N 
ATOM     11  C   UNL A   1      32.506  27.315  23.705  1.00  0.00     0.161 C 
ATOM     12  H   UNL A   1      31.053  25.400  21.792  1.00  0.00     0.347 HD
ATOM     13  H   UNL A   1      29.989  25.556  23.064  1.00  0.00     0.347 HD
ATOM     14  C   UNL A   1      32.599  26.019  24.485  1.00  0.00     0.170 C 
ATOM     15  C   UNL A   1      32.576  28.334  24.809  1.00  0.00     0.239 C 
ATOM     16  C   UNL A   1      31.145  23.860  24.390  1.00  0.00     0.093 C 
ATOM     17  C   UNL A   1      32.063  26.368  25.839  1.00  0.00     0.240 C 
ATOM     18  N   UNL A   1      32.262  27.716  25.991  1.00  0.00    -0.285 N 
ATOM     19  O   UNL A   1      32.880  29.506  24.638  1.00  0.00    -0.274 OA
ATOM     20  O   UNL A   1      31.617  25.591  26.655  1.00  0.00    -0.274 OA
ATOM     21  C   UNL A   1      32.001  28.404  27.231  1.00  0.00     0.156 C 
BRANCH   9  22
ATOM     22  C   UNL A   1      30.089  28.156  22.990  1.00  0.00     0.056 A 
ATOM     23  C   UNL A   1      28.718  29.747  21.776  1.00  0.00     0.161 A 
ATOM     24  C   UNL A   1      27.560  29.231  22.344  1.00  0.00     0.050 A 
ATOM     25  C   UNL A   1      29.969  29.330  22.244  1.00  0.00     0.166 A 
ATOM     26  C   UNL A   1      27.668  28.269  23.343  1.00  0.00     0.005 A 
ATOM     27  C   UNL A   1      28.920  27.713  23.641  1.00  0.00     0.014 A 
BRANCH  23  28
ATOM     28  O   UNL A   1      28.617  30.656  20.750  1.00  0.00    -0.493 OA
ATOM     29  C   UNL A   1      28.228  31.937  21.274  1.00  0.00     0.278 C 
ENDBRANCH  23  28
BRANCH  25  30
ATOM     30  O   UNL A   1      31.065  30.081  21.953  1.00  0.00    -0.504 OA
ATOM     31  H   UNL A   1      31.899  29.669  21.840  1.00  0.00     0.293 HD
ENDBRANCH  25  30
ENDBRANCH   9  22
ENDBRANCH   6   8
ENDBRANCH   5   6
ENDBRANCH   4   5
ENDBRANCH   3   4
ENDBRANCH   2   3
ENDBRANCH   1   2
BRANCH   1  32
ATOM     32  C   UNL A   1      38.858  20.401  25.366  1.00  0.00     0.261 C 
BRANCH  32  33
ATOM     33  O   UNL A   1      39.638  20.409  26.571  1.00  0.00    -0.460 OA
BRANCH  33  34
ATOM     34  C   UNL A   1      40.886  20.922  26.420  1.00  0.00     0.338 C 
ATOM     35  O   UNL A   1      41.785  20.470  25.731  1.00  0.00    -0.246 OA
BRANCH  34  36
ATOM     36  C   UNL A   1      40.968  22.250  27.050  1.00  0.00     0.060 A 
ATOM     37  C   UNL A   1      40.436  23.333  26.339  1.00  0.00     0.016 A 
ATOM     38  C   UNL A   1      41.647  22.450  28.254  1.00  0.00     0.016 A 
ATOM     39  C   UNL A   1      40.627  24.628  26.802  1.00  0.00     0.010 A 
ATOM     40  C   UNL A   1      41.849  23.756  28.712  1.00  0.00     0.010 A 
ATOM     41  C   UNL A   1      41.374  24.850  27.966  1.00  0.00    -0.014 A 
BRANCH  41  42
ATOM     42  C   UNL A   1      41.794  26.236  28.279  1.00  0.00     0.031 A 
ATOM     43  C   UNL A   1      43.172  26.686  27.876  1.00  0.00     0.074 A 
ATOM     44  C   UNL A   1      40.925  27.101  28.833  1.00  0.00     0.049 A 
ATOM     45  N   UNL A   1      43.737  27.858  28.008  1.00  0.00    -0.248 NA
ATOM     46  C   UNL A   1      44.025  25.674  27.235  1.00  0.00     0.031 C 
ATOM     47  C   UNL A   1      39.549  26.783  29.211  1.00  0.00     0.029 A 
ATOM     48  N   UNL A   1      41.068  28.424  29.159  1.00  0.00    -0.354 N 
ATOM     49  C   UNL A   1      45.011  27.727  27.464  1.00  0.00     0.074 A 
ATOM     50  C   UNL A   1      45.149  26.347  27.049  1.00  0.00     0.031 C 
ATOM     51  C   UNL A   1      38.969  27.888  29.709  1.00  0.00     0.029 A 
ATOM     52  C   UNL A   1      39.942  28.978  29.720  1.00  0.00     0.049 A 
ATOM     53  H   UNL A   1      41.899  28.931  29.005  1.00  0.00     0.167 HD
ATOM     54  C   UNL A   1      45.970  28.676  27.313  1.00  0.00     0.034 A 
ATOM     55  C   UNL A   1      39.730  30.218  30.202  1.00  0.00     0.034 A 
ATOM     56  C   UNL A   1      45.815  30.042  27.753  1.00  0.00     0.049 A 
ATOM     57  C   UNL A   1      40.845  31.232  30.111  1.00  0.00     0.074 A 
ATOM     58  C   UNL A   1      46.715  31.088  27.656  1.00  0.00     0.029 A 
ATOM     59  N   UNL A   1      44.687  30.550  28.387  1.00  0.00    -0.354 N 
ATOM     60  N   UNL A   1      42.046  31.098  29.593  1.00  0.00    -0.248 NA
ATOM     61  C   UNL A   1      40.570  32.565  30.657  1.00  0.00     0.031 C 
ATOM     62  C   UNL A   1      46.165  32.203  28.301  1.00  0.00     0.029 A 
ATOM     63  C   UNL A   1      44.884  31.882  28.721  1.00  0.00     0.049 A 
ATOM     64  H   UNL A   1      43.866  30.039  28.573  1.00  0.00     0.167 HD
ATOM     65  C   UNL A   1      42.658  32.342  29.729  1.00  0.00     0.074 A 
ATOM     66  C   UNL A   1      41.684  33.213  30.354  1.00  0.00     0.031 C 
ATOM     67  C   UNL A   1      43.910  32.732  29.368  1.00  0.00     0.034 A 
BRANCH  54  68
ATOM     68  C   UNL A   1      47.282  28.239  26.703  1.00  0.00     0.023 A 
ATOM     69  C   UNL A   1      47.458  28.139  25.310  1.00  0.00     0.031 A 
ATOM     70  C   UNL A   1      48.360  27.865  27.527  1.00  0.00     0.131 A 
ATOM     71  C   UNL A   1      48.645  27.600  24.790  1.00  0.00     0.055 A 
ATOM     72  C   UNL A   1      49.571  27.413  26.999  1.00  0.00     0.041 A 
ATOM     73  F   UNL A   1      48.246  27.913  28.863  1.00  0.00    -0.206 F 
ATOM     74  C   UNL A   1      49.712  27.262  25.623  1.00  0.00     0.022 A 
BRANCH  71  75
ATOM     75  S   UNL A   1      48.711  27.192  23.023  1.00  0.00     0.124 S 
ATOM     76  O   UNL A   1      47.663  28.056  22.483  1.00  0.00    -0.237 OA
ATOM     77  O   UNL A   1      50.079  27.546  22.667  1.00  0.00    -0.237 OA
ATOM     78  O   UNL A   1      48.406  25.762  22.990  1.00  0.00    -0.744 OA
ENDBRANCH  71  75
ENDBRANCH  54  68
BRANCH  55  79
ATOM     79  C   UNL A   1      38.428  30.569  30.837  1.00  0.00     0.023 A 
ATOM     80  C   UNL A   1      37.433  31.261  30.129  1.00  0.00     0.031 A 
ATOM     81  C   UNL A   1      38.177  30.254  32.186  1.00  0.00     0.131 A 
ATOM     82  C   UNL A   1      36.253  31.652  30.781  1.00  0.00     0.055 A 
ATOM     83  C   UNL A   1      36.980  30.598  32.815  1.00  0.00     0.041 A 
ATOM     84  F   UNL A   1      39.095  29.595  32.911  1.00  0.00    -0.206 F 
ATOM     85  C   UNL A   1      36.014  31.313  32.114  1.00  0.00     0.022 A 
BRANCH  82  86
ATOM     86  S   UNL A   1      35.065  32.687  29.881  1.00  0.00     0.124 S 
ATOM     87  O   UNL A   1      34.499  31.734  28.933  1.00  0.00    -0.237 OA
ATOM     88  O   UNL A   1      34.179  33.131  30.951  1.00  0.00    -0.237 OA
ATOM     89  O   UNL A   1      35.901  33.731  29.293  1.00  0.00    -0.744 OA
ENDBRANCH  82  86
ENDBRANCH  55  79
BRANCH  67  90
ATOM     90  C   UNL A   1      44.271  34.178  29.618  1.00  0.00     0.023 A 
ATOM     91  C   UNL A   1      44.144  35.156  28.615  1.00  0.00     0.031 A 
ATOM     92  C   UNL A   1      44.786  34.578  30.864  1.00  0.00     0.131 A 
ATOM     93  C   UNL A   1      44.599  36.462  28.848  1.00  0.00     0.055 A 
ATOM     94  C   UNL A   1      45.167  35.897  31.116  1.00  0.00     0.041 A 
ATOM     95  F   UNL A   1      44.933  33.690  31.860  1.00  0.00    -0.206 F 
ATOM     96  C   UNL A   1      45.092  36.844  30.098  1.00  0.00     0.022 A 
BRANCH  93  97
ATOM     97  S   UNL A   1      44.661  37.622  27.454  1.00  0.00     0.124 S 
ATOM     98  O   UNL A   1      44.996  38.877  28.119  1.00  0.00    -0.237 OA
ATOM     99  O   UNL A   1      45.706  37.045  26.616  1.00  0.00    -0.237 OA
ATOM    100  O   UNL A   1      43.312  37.557  26.895  1.00  0.00    -0.744 OA
ENDBRANCH  93  97
ENDBRANCH  67  90
ENDBRANCH  41  42
ENDBRANCH  34  36
ENDBRANCH  33  34
ENDBRANCH  32  33
ENDBRANCH   1  32
TORSDOF 20
ENDMDL
