MODEL 1
REMARK VINA RESULT:     -11.6      0.000      0.000
REMARK SMILES COc1cc2c(CC(=O)OCCOCCOC(=O)c3ccc(-c4c5nc(c(-c6cc(S(=O)(=O)[O-])ccc6F)c6ccc([nH]6)c(-c6cc(S(=O)(=O)[O-])ccc6F)c6nc(c(-c7cc(S(=O)(=O)[O-])ccc7F)c7ccc4[nH]7)C=C6)C=C5)cc3)c(C)n(C(=O)c3ccc(Cl)cc3)c2cc1Cl
REMARK SMILES IDX 13 1 12 2 11 3 10 4 8 5 9 6 7 7 6 8 3 9 4 10 96 11 5 12
REMARK SMILES IDX 95 13 97 14 94 15 82 16 84 17 83 18 2 19 1 20 85 21 86 22
REMARK SMILES IDX 87 23 88 24 93 25 89 26 92 27 90 28 91 29 14 30 15 31 16 32
REMARK SMILES IDX 17 33 18 34 19 35 20 36 81 37 21 38 80 39 22 40 23 41 24 42
REMARK SMILES IDX 74 43 25 44 79 45 73 46 75 47 26 48 78 49 72 50 71 51 27 53
REMARK SMILES IDX 59 54 39 55 58 56 40 57 43 58 57 59 76 60 41 61 42 62 56 64
REMARK SMILES IDX 77 65 44 66 28 67 29 68 37 69 30 70 36 71 38 72 35 73 31 74
REMARK SMILES IDX 32 75 33 76 34 77 60 78 61 79 69 80 62 81 68 82 70 83 67 84
REMARK SMILES IDX 63 85 64 86 65 87 66 88 45 89 46 90 54 91 47 92 53 93 55 94
REMARK SMILES IDX 52 95 48 96 49 97 50 98 51 99
REMARK H PARENT 75 52 43 63
REMARK Flexibility Score: inf
ROOT
ATOM      1  O   UNL A   1      36.804  22.512  25.771  1.00  0.00    -0.374 OA
ENDROOT
BRANCH   1   2
ATOM      2  C   UNL A   1      35.679  21.931  26.419  1.00  0.00     0.202 C 
BRANCH   2   3
ATOM      3  C   UNL A   1      34.443  21.514  25.602  1.00  0.00     0.261 C 
BRANCH   3   4
ATOM      4  O   UNL A   1      33.860  22.563  24.802  1.00  0.00    -0.463 OA
BRANCH   4   5
ATOM      5  C   UNL A   1      33.373  23.608  25.517  1.00  0.00     0.310 C 
ATOM      6  O   UNL A   1      32.685  23.491  26.530  1.00  0.00    -0.252 OA
BRANCH   5   7
ATOM      7  C   UNL A   1      33.733  24.989  25.017  1.00  0.00     0.160 C 
BRANCH   7   8
ATOM      8  C   UNL A   1      32.677  26.052  24.824  1.00  0.00    -0.008 A 
ATOM      9  C   UNL A   1      33.204  29.305  26.818  1.00  0.00     0.138 A 
ATOM     10  C   UNL A   1      33.429  27.970  26.429  1.00  0.00     0.058 A 
ATOM     11  C   UNL A   1      32.027  29.917  26.410  1.00  0.00     0.085 A 
ATOM     12  C   UNL A   1      32.593  27.304  25.500  1.00  0.00     0.008 A 
ATOM     13  C   UNL A   1      31.103  29.207  25.627  1.00  0.00     0.051 A 
ATOM     14  Cl  UNL A   1      31.592  31.564  26.707  1.00  0.00    -0.080 Cl
ATOM     15  C   UNL A   1      31.412  27.932  25.102  1.00  0.00     0.058 A 
ATOM     16  C   UNL A   1      31.525  25.929  24.051  1.00  0.00     0.028 A 
ATOM     17  N   UNL A   1      30.728  27.077  24.214  1.00  0.00    -0.280 N 
ATOM     18  C   UNL A   1      31.182  24.748  23.193  1.00  0.00     0.065 C 
BRANCH   9  19
ATOM     19  O   UNL A   1      34.294  29.842  27.445  1.00  0.00    -0.495 OA
ATOM     20  C   UNL A   1      35.535  29.158  27.416  1.00  0.00     0.278 C 
ENDBRANCH   9  19
BRANCH  17  21
ATOM     21  C   UNL A   1      29.445  27.324  23.633  1.00  0.00     0.262 C 
ATOM     22  O   UNL A   1      28.534  26.516  23.803  1.00  0.00    -0.268 OA
BRANCH  21  23
ATOM     23  C   UNL A   1      29.066  28.543  22.896  1.00  0.00     0.040 A 
ATOM     24  C   UNL A   1      29.954  29.150  22.000  1.00  0.00     0.015 A 
ATOM     25  C   UNL A   1      27.818  29.119  23.169  1.00  0.00     0.015 A 
ATOM     26  C   UNL A   1      29.628  30.396  21.455  1.00  0.00     0.021 A 
ATOM     27  C   UNL A   1      27.494  30.355  22.610  1.00  0.00     0.021 A 
ATOM     28  C   UNL A   1      28.410  30.999  21.775  1.00  0.00     0.041 A 
ATOM     29  Cl  UNL A   1      28.043  32.566  21.166  1.00  0.00    -0.084 Cl
ENDBRANCH  21  23
ENDBRANCH  17  21
ENDBRANCH   7   8
ENDBRANCH   5   7
ENDBRANCH   4   5
ENDBRANCH   3   4
ENDBRANCH   2   3
ENDBRANCH   1   2
BRANCH   1  30
ATOM     30  C   UNL A   1      37.818  21.631  25.302  1.00  0.00     0.202 C 
BRANCH  30  31
ATOM     31  C   UNL A   1      39.206  21.627  25.971  1.00  0.00     0.261 C 
BRANCH  31  32
ATOM     32  O   UNL A   1      39.658  22.934  26.317  1.00  0.00    -0.460 OA
BRANCH  32  33
ATOM     33  C   UNL A   1      40.932  22.967  26.804  1.00  0.00     0.338 C 
ATOM     34  O   UNL A   1      41.810  22.153  26.649  1.00  0.00    -0.246 OA
BRANCH  33  35
ATOM     35  C   UNL A   1      41.112  24.377  27.190  1.00  0.00     0.060 A 
ATOM     36  C   UNL A   1      42.210  24.745  27.972  1.00  0.00     0.016 A 
ATOM     37  C   UNL A   1      39.969  25.184  27.087  1.00  0.00     0.016 A 
ATOM     38  C   UNL A   1      42.118  25.898  28.735  1.00  0.00     0.010 A 
ATOM     39  C   UNL A   1      39.866  26.311  27.888  1.00  0.00     0.010 A 
ATOM     40  C   UNL A   1      40.927  26.644  28.735  1.00  0.00    -0.014 A 
BRANCH  40  41
ATOM     41  C   UNL A   1      40.941  27.933  29.422  1.00  0.00     0.031 A 
ATOM     42  C   UNL A   1      41.883  28.875  28.756  1.00  0.00     0.074 A 
ATOM     43  C   UNL A   1      40.115  28.316  30.417  1.00  0.00     0.049 A 
ATOM     44  N   UNL A   1      42.989  29.360  29.217  1.00  0.00    -0.248 NA
ATOM     45  C   UNL A   1      41.677  29.117  27.316  1.00  0.00     0.031 C 
ATOM     46  C   UNL A   1      38.924  27.633  30.918  1.00  0.00     0.029 A 
ATOM     47  N   UNL A   1      40.099  29.487  31.114  1.00  0.00    -0.354 N 
ATOM     48  C   UNL A   1      43.514  30.132  28.182  1.00  0.00     0.074 A 
ATOM     49  C   UNL A   1      42.802  29.750  26.995  1.00  0.00     0.031 C 
ATOM     50  C   UNL A   1      38.172  28.509  31.627  1.00  0.00     0.029 A 
ATOM     51  C   UNL A   1      38.883  29.774  31.725  1.00  0.00     0.049 A 
ATOM     52  H   UNL A   1      40.882  30.080  31.181  1.00  0.00     0.167 HD
ATOM     53  C   UNL A   1      44.325  31.202  28.417  1.00  0.00     0.034 A 
ATOM     54  C   UNL A   1      38.453  30.995  32.147  1.00  0.00     0.034 A 
ATOM     55  C   UNL A   1      44.835  31.177  29.760  1.00  0.00     0.049 A 
ATOM     56  C   UNL A   1      39.628  31.899  32.221  1.00  0.00     0.074 A 
ATOM     57  C   UNL A   1      45.615  30.292  30.477  1.00  0.00     0.029 A 
ATOM     58  N   UNL A   1      44.218  31.981  30.688  1.00  0.00    -0.354 N 
ATOM     59  N   UNL A   1      40.578  31.794  33.105  1.00  0.00    -0.248 NA
ATOM     60  C   UNL A   1      39.974  32.629  31.008  1.00  0.00     0.031 C 
ATOM     61  C   UNL A   1      45.053  30.287  31.784  1.00  0.00     0.029 A 
ATOM     62  C   UNL A   1      44.021  31.227  31.814  1.00  0.00     0.049 A 
ATOM     63  H   UNL A   1      43.966  32.925  30.566  1.00  0.00     0.167 HD
ATOM     64  C   UNL A   1      41.740  32.009  32.380  1.00  0.00     0.074 A 
ATOM     65  C   UNL A   1      41.303  32.596  31.113  1.00  0.00     0.031 C 
ATOM     66  C   UNL A   1      42.918  31.421  32.731  1.00  0.00     0.034 A 
BRANCH  53  67
ATOM     67  C   UNL A   1      44.349  32.441  27.549  1.00  0.00     0.023 A 
ATOM     68  C   UNL A   1      43.786  33.670  27.938  1.00  0.00     0.031 A 
ATOM     69  C   UNL A   1      45.143  32.478  26.385  1.00  0.00     0.131 A 
ATOM     70  C   UNL A   1      43.994  34.847  27.210  1.00  0.00     0.055 A 
ATOM     71  C   UNL A   1      45.412  33.667  25.696  1.00  0.00     0.041 A 
ATOM     72  F   UNL A   1      45.736  31.369  25.916  1.00  0.00    -0.206 F 
ATOM     73  C   UNL A   1      44.837  34.862  26.108  1.00  0.00     0.022 A 
BRANCH  70  74
ATOM     74  S   UNL A   1      43.169  36.384  27.709  1.00  0.00     0.124 S 
ATOM     75  O   UNL A   1      44.301  37.276  27.932  1.00  0.00    -0.237 OA
ATOM     76  O   UNL A   1      42.354  36.675  26.533  1.00  0.00    -0.237 OA
ATOM     77  O   UNL A   1      42.417  36.000  28.900  1.00  0.00    -0.744 OA
ENDBRANCH  70  74
ENDBRANCH  53  67
BRANCH  54  78
ATOM     78  C   UNL A   1      37.091  31.563  31.945  1.00  0.00     0.023 A 
ATOM     79  C   UNL A   1      36.670  31.900  30.647  1.00  0.00     0.031 A 
ATOM     80  C   UNL A   1      36.359  32.106  33.017  1.00  0.00     0.131 A 
ATOM     81  C   UNL A   1      35.619  32.804  30.447  1.00  0.00     0.055 A 
ATOM     82  C   UNL A   1      35.289  32.991  32.815  1.00  0.00     0.041 A 
ATOM     83  F   UNL A   1      36.722  31.859  34.285  1.00  0.00    -0.206 F 
ATOM     84  C   UNL A   1      34.927  33.360  31.523  1.00  0.00     0.022 A 
BRANCH  81  85
ATOM     85  S   UNL A   1      35.224  33.362  28.767  1.00  0.00     0.124 S 
ATOM     86  O   UNL A   1      33.798  33.062  28.665  1.00  0.00    -0.237 OA
ATOM     87  O   UNL A   1      35.570  34.776  28.837  1.00  0.00    -0.237 OA
ATOM     88  O   UNL A   1      36.088  32.538  27.925  1.00  0.00    -0.744 OA
ENDBRANCH  81  85
ENDBRANCH  54  78
BRANCH  66  89
ATOM     89  C   UNL A   1      43.033  30.710  34.059  1.00  0.00     0.023 A 
ATOM     90  C   UNL A   1      42.675  29.351  34.064  1.00  0.00     0.031 A 
ATOM     91  C   UNL A   1      43.219  31.341  35.303  1.00  0.00     0.131 A 
ATOM     92  C   UNL A   1      42.447  28.682  35.268  1.00  0.00     0.055 A 
ATOM     93  C   UNL A   1      43.070  30.643  36.508  1.00  0.00     0.041 A 
ATOM     94  F   UNL A   1      43.449  32.656  35.400  1.00  0.00    -0.206 F 
ATOM     95  C   UNL A   1      42.659  29.314  36.496  1.00  0.00     0.022 A 
BRANCH  92  96
ATOM     96  S   UNL A   1      41.679  27.043  35.252  1.00  0.00     0.124 S 
ATOM     97  O   UNL A   1      42.823  26.171  34.999  1.00  0.00    -0.237 OA
ATOM     98  O   UNL A   1      41.105  26.952  36.594  1.00  0.00    -0.237 OA
ATOM     99  O   UNL A   1      40.700  27.120  34.171  1.00  0.00    -0.744 OA
ENDBRANCH  92  96
ENDBRANCH  66  89
ENDBRANCH  40  41
ENDBRANCH  33  35
ENDBRANCH  32  33
ENDBRANCH  31  32
ENDBRANCH  30  31
ENDBRANCH   1  30
TORSDOF 21
ENDMDL
MODEL 2
REMARK VINA RESULT:     -11.1      1.649      2.752
REMARK SMILES COc1cc2c(CC(=O)OCCOCCOC(=O)c3ccc(-c4c5nc(c(-c6cc(S(=O)(=O)[O-])ccc6F)c6ccc([nH]6)c(-c6cc(S(=O)(=O)[O-])ccc6F)c6nc(c(-c7cc(S(=O)(=O)[O-])ccc7F)c7ccc4[nH]7)C=C6)C=C5)cc3)c(C)n(C(=O)c3ccc(Cl)cc3)c2cc1Cl
REMARK SMILES IDX 13 1 12 2 11 3 10 4 8 5 9 6 7 7 6 8 3 9 4 10 96 11 5 12
REMARK SMILES IDX 95 13 97 14 94 15 82 16 84 17 83 18 2 19 1 20 85 21 86 22
REMARK SMILES IDX 87 23 88 24 93 25 89 26 92 27 90 28 91 29 14 30 15 31 16 32
REMARK SMILES IDX 17 33 18 34 19 35 20 36 81 37 21 38 80 39 22 40 23 41 24 42
REMARK SMILES IDX 74 43 25 44 79 45 73 46 75 47 26 48 78 49 72 50 71 51 27 53
REMARK SMILES IDX 59 54 39 55 58 56 40 57 43 58 57 59 76 60 41 61 42 62 56 64
REMARK SMILES IDX 77 65 44 66 28 67 29 68 37 69 30 70 36 71 38 72 35 73 31 74
REMARK SMILES IDX 32 75 33 76 34 77 60 78 61 79 69 80 62 81 68 82 70 83 67 84
REMARK SMILES IDX 63 85 64 86 65 87 66 88 45 89 46 90 54 91 47 92 53 93 55 94
REMARK SMILES IDX 52 95 48 96 49 97 50 98 51 99
REMARK H PARENT 75 52 43 63
REMARK Flexibility Score: inf
ROOT
ATOM      1  O   UNL A   1      38.855  21.681  25.756  1.00  0.00    -0.374 OA
ENDROOT
BRANCH   1   2
ATOM      2  C   UNL A   1      38.305  22.910  26.214  1.00  0.00     0.202 C 
BRANCH   2   3
ATOM      3  C   UNL A   1      36.869  23.307  25.831  1.00  0.00     0.261 C 
BRANCH   3   4
ATOM      4  O   UNL A   1      36.738  23.965  24.554  1.00  0.00    -0.463 OA
BRANCH   4   5
ATOM      5  C   UNL A   1      35.823  23.401  23.725  1.00  0.00     0.310 C 
ATOM      6  O   UNL A   1      35.802  22.206  23.432  1.00  0.00    -0.252 OA
BRANCH   5   7
ATOM      7  C   UNL A   1      34.771  24.326  23.157  1.00  0.00     0.160 C 
BRANCH   7   8
ATOM      8  C   UNL A   1      33.614  24.807  24.001  1.00  0.00    -0.008 A 
ATOM      9  C   UNL A   1      31.423  22.044  25.552  1.00  0.00     0.138 A 
ATOM     10  C   UNL A   1      32.416  22.601  24.722  1.00  0.00     0.058 A 
ATOM     11  C   UNL A   1      30.504  22.901  26.139  1.00  0.00     0.085 A 
ATOM     12  C   UNL A   1      32.613  23.999  24.615  1.00  0.00     0.008 A 
ATOM     13  C   UNL A   1      30.583  24.282  25.903  1.00  0.00     0.051 A 
ATOM     14  Cl  UNL A   1      29.260  22.438  27.249  1.00  0.00    -0.080 Cl
ATOM     15  C   UNL A   1      31.678  24.848  25.210  1.00  0.00     0.058 A 
ATOM     16  C   UNL A   1      33.247  26.135  24.206  1.00  0.00     0.028 A 
ATOM     17  N   UNL A   1      32.051  26.180  24.946  1.00  0.00    -0.280 N 
ATOM     18  C   UNL A   1      34.004  27.328  23.703  1.00  0.00     0.065 C 
BRANCH   9  19
ATOM     19  O   UNL A   1      31.625  20.707  25.757  1.00  0.00    -0.495 OA
ATOM     20  C   UNL A   1      32.911  20.147  25.558  1.00  0.00     0.278 C 
ENDBRANCH   9  19
BRANCH  17  21
ATOM     21  C   UNL A   1      31.317  27.348  25.325  1.00  0.00     0.262 C 
ATOM     22  O   UNL A   1      31.498  27.847  26.433  1.00  0.00    -0.268 OA
BRANCH  21  23
ATOM     23  C   UNL A   1      30.392  28.092  24.451  1.00  0.00     0.040 A 
ATOM     24  C   UNL A   1      29.350  27.440  23.781  1.00  0.00     0.015 A 
ATOM     25  C   UNL A   1      30.628  29.459  24.251  1.00  0.00     0.015 A 
ATOM     26  C   UNL A   1      28.606  28.143  22.828  1.00  0.00     0.021 A 
ATOM     27  C   UNL A   1      29.872  30.157  23.309  1.00  0.00     0.021 A 
ATOM     28  C   UNL A   1      28.882  29.491  22.585  1.00  0.00     0.041 A 
ATOM     29  Cl  UNL A   1      28.018  30.334  21.358  1.00  0.00    -0.084 Cl
ENDBRANCH  21  23
ENDBRANCH  17  21
ENDBRANCH   7   8
ENDBRANCH   5   7
ENDBRANCH   4   5
ENDBRANCH   3   4
ENDBRANCH   2   3
ENDBRANCH   1   2
BRANCH   1  30
ATOM     30  C   UNL A   1      39.924  21.120  26.511  1.00  0.00     0.202 C 
BRANCH  30  31
ATOM     31  C   UNL A   1      41.380  21.512  26.193  1.00  0.00     0.261 C 
BRANCH  31  32
ATOM     32  O   UNL A   1      41.727  22.803  26.688  1.00  0.00    -0.460 OA
BRANCH  32  33
ATOM     33  C   UNL A   1      42.629  23.469  25.909  1.00  0.00     0.338 C 
ATOM     34  O   UNL A   1      43.084  23.131  24.843  1.00  0.00    -0.246 OA
BRANCH  33  35
ATOM     35  C   UNL A   1      42.595  24.839  26.447  1.00  0.00     0.060 A 
ATOM     36  C   UNL A   1      43.509  25.217  27.435  1.00  0.00     0.016 A 
ATOM     37  C   UNL A   1      41.406  25.548  26.224  1.00  0.00     0.016 A 
ATOM     38  C   UNL A   1      43.175  26.269  28.273  1.00  0.00     0.010 A 
ATOM     39  C   UNL A   1      41.058  26.570  27.095  1.00  0.00     0.010 A 
ATOM     40  C   UNL A   1      41.927  26.903  28.137  1.00  0.00    -0.014 A 
BRANCH  40  41
ATOM     41  C   UNL A   1      41.696  28.107  28.931  1.00  0.00     0.031 A 
ATOM     42  C   UNL A   1      42.540  29.232  28.440  1.00  0.00     0.074 A 
ATOM     43  C   UNL A   1      40.743  28.271  29.872  1.00  0.00     0.049 A 
ATOM     44  N   UNL A   1      43.521  29.818  29.045  1.00  0.00    -0.248 NA
ATOM     45  C   UNL A   1      42.418  29.584  27.014  1.00  0.00     0.031 C 
ATOM     46  C   UNL A   1      39.630  27.382  30.198  1.00  0.00     0.029 A 
ATOM     47  N   UNL A   1      40.498  29.354  30.663  1.00  0.00    -0.354 N 
ATOM     48  C   UNL A   1      44.009  30.754  28.134  1.00  0.00     0.074 A 
ATOM     49  C   UNL A   1      43.459  30.396  26.856  1.00  0.00     0.031 C 
ATOM     50  C   UNL A   1      38.701  28.071  30.905  1.00  0.00     0.029 A 
ATOM     51  C   UNL A   1      39.207  29.406  31.178  1.00  0.00     0.049 A 
ATOM     52  H   UNL A   1      41.177  30.040  30.855  1.00  0.00     0.167 HD
ATOM     53  C   UNL A   1      44.631  31.898  28.536  1.00  0.00     0.034 A 
ATOM     54  C   UNL A   1      38.569  30.509  31.660  1.00  0.00     0.034 A 
ATOM     55  C   UNL A   1      45.028  31.811  29.914  1.00  0.00     0.049 A 
ATOM     56  C   UNL A   1      39.588  31.555  31.923  1.00  0.00     0.074 A 
ATOM     57  C   UNL A   1      45.869  30.977  30.624  1.00  0.00     0.029 A 
ATOM     58  N   UNL A   1      44.226  32.426  30.846  1.00  0.00    -0.354 N 
ATOM     59  N   UNL A   1      40.468  31.496  32.881  1.00  0.00    -0.248 NA
ATOM     60  C   UNL A   1      39.920  32.442  30.816  1.00  0.00     0.031 C 
ATOM     61  C   UNL A   1      45.208  30.765  31.866  1.00  0.00     0.029 A 
ATOM     62  C   UNL A   1      44.051  31.544  31.879  1.00  0.00     0.049 A 
ATOM     63  H   UNL A   1      43.848  33.333  30.782  1.00  0.00     0.167 HD
ATOM     64  C   UNL A   1      41.641  31.942  32.291  1.00  0.00     0.074 A 
ATOM     65  C   UNL A   1      41.227  32.585  31.043  1.00  0.00     0.031 C 
ATOM     66  C   UNL A   1      42.860  31.491  32.700  1.00  0.00     0.034 A 
BRANCH  53  67
ATOM     67  C   UNL A   1      44.543  33.207  27.785  1.00  0.00     0.023 A 
ATOM     68  C   UNL A   1      43.677  34.254  28.151  1.00  0.00     0.031 A 
ATOM     69  C   UNL A   1      45.498  33.527  26.799  1.00  0.00     0.131 A 
ATOM     70  C   UNL A   1      43.754  35.523  27.566  1.00  0.00     0.055 A 
ATOM     71  C   UNL A   1      45.626  34.816  26.265  1.00  0.00     0.041 A 
ATOM     72  F   UNL A   1      46.382  32.612  26.370  1.00  0.00    -0.206 F 
ATOM     73  C   UNL A   1      44.751  35.824  26.649  1.00  0.00     0.022 A 
BRANCH  70  74
ATOM     74  S   UNL A   1      42.553  36.808  28.014  1.00  0.00     0.124 S 
ATOM     75  O   UNL A   1      42.073  37.240  26.707  1.00  0.00    -0.237 OA
ATOM     76  O   UNL A   1      41.602  36.050  28.822  1.00  0.00    -0.237 OA
ATOM     77  O   UNL A   1      43.352  37.781  28.753  1.00  0.00    -0.744 OA
ENDBRANCH  70  74
ENDBRANCH  53  67
BRANCH  54  78
ATOM     78  C   UNL A   1      37.159  30.898  31.380  1.00  0.00     0.023 A 
ATOM     79  C   UNL A   1      36.712  30.956  30.048  1.00  0.00     0.031 A 
ATOM     80  C   UNL A   1      36.375  31.552  32.348  1.00  0.00     0.131 A 
ATOM     81  C   UNL A   1      35.580  31.705  29.705  1.00  0.00     0.055 A 
ATOM     82  C   UNL A   1      35.226  32.281  32.007  1.00  0.00     0.041 A 
ATOM     83  F   UNL A   1      36.757  31.572  33.635  1.00  0.00    -0.206 F 
ATOM     84  C   UNL A   1      34.834  32.376  30.675  1.00  0.00     0.022 A 
BRANCH  81  85
ATOM     85  S   UNL A   1      35.138  31.913  27.959  1.00  0.00     0.124 S 
ATOM     86  O   UNL A   1      35.633  30.674  27.362  1.00  0.00    -0.237 OA
ATOM     87  O   UNL A   1      33.689  32.042  28.035  1.00  0.00    -0.237 OA
ATOM     88  O   UNL A   1      35.864  33.118  27.566  1.00  0.00    -0.744 OA
ENDBRANCH  81  85
ENDBRANCH  54  78
BRANCH  66  89
ATOM     89  C   UNL A   1      42.970  30.676  33.967  1.00  0.00     0.023 A 
ATOM     90  C   UNL A   1      42.848  29.284  33.817  1.00  0.00     0.031 A 
ATOM     91  C   UNL A   1      42.930  31.197  35.274  1.00  0.00     0.131 A 
ATOM     92  C   UNL A   1      42.626  28.467  34.927  1.00  0.00     0.055 A 
ATOM     93  C   UNL A   1      42.791  30.365  36.391  1.00  0.00     0.041 A 
ATOM     94  F   UNL A   1      42.925  32.515  35.507  1.00  0.00    -0.206 F 
ATOM     95  C   UNL A   1      42.613  28.996  36.220  1.00  0.00     0.022 A 
BRANCH  92  96
ATOM     96  S   UNL A   1      42.151  26.736  34.688  1.00  0.00     0.124 S 
ATOM     97  O   UNL A   1      43.056  26.315  33.623  1.00  0.00    -0.237 OA
ATOM     98  O   UNL A   1      42.413  26.154  36.003  1.00  0.00    -0.237 OA
ATOM     99  O   UNL A   1      40.739  26.805  34.319  1.00  0.00    -0.744 OA
ENDBRANCH  92  96
ENDBRANCH  66  89
ENDBRANCH  40  41
ENDBRANCH  33  35
ENDBRANCH  32  33
ENDBRANCH  31  32
ENDBRANCH  30  31
ENDBRANCH   1  30
TORSDOF 21
ENDMDL
MODEL 3
REMARK VINA RESULT:     -10.8      7.637     14.209
REMARK SMILES COc1cc2c(CC(=O)OCCOCCOC(=O)c3ccc(-c4c5nc(c(-c6cc(S(=O)(=O)[O-])ccc6F)c6ccc([nH]6)c(-c6cc(S(=O)(=O)[O-])ccc6F)c6nc(c(-c7cc(S(=O)(=O)[O-])ccc7F)c7ccc4[nH]7)C=C6)C=C5)cc3)c(C)n(C(=O)c3ccc(Cl)cc3)c2cc1Cl
REMARK SMILES IDX 13 1 12 2 11 3 10 4 8 5 9 6 7 7 6 8 3 9 4 10 96 11 5 12
REMARK SMILES IDX 95 13 97 14 94 15 82 16 84 17 83 18 2 19 1 20 85 21 86 22
REMARK SMILES IDX 87 23 88 24 93 25 89 26 92 27 90 28 91 29 14 30 15 31 16 32
REMARK SMILES IDX 17 33 18 34 19 35 20 36 81 37 21 38 80 39 22 40 23 41 24 42
REMARK SMILES IDX 74 43 25 44 79 45 73 46 75 47 26 48 78 49 72 50 71 51 27 53
REMARK SMILES IDX 59 54 39 55 58 56 40 57 43 58 57 59 76 60 41 61 42 62 56 64
REMARK SMILES IDX 77 65 44 66 28 67 29 68 37 69 30 70 36 71 38 72 35 73 31 74
REMARK SMILES IDX 32 75 33 76 34 77 60 78 61 79 69 80 62 81 68 82 70 83 67 84
REMARK SMILES IDX 63 85 64 86 65 87 66 88 45 89 46 90 54 91 47 92 53 93 55 94
REMARK SMILES IDX 52 95 48 96 49 97 50 98 51 99
REMARK H PARENT 75 52 43 63
REMARK Flexibility Score: inf
ROOT
ATOM      1  O   UNL A   1      41.864  40.516  25.741  1.00  0.00    -0.374 OA
ENDROOT
BRANCH   1   2
ATOM      2  C   UNL A   1      42.970  41.410  25.736  1.00  0.00     0.202 C 
BRANCH   2   3
ATOM      3  C   UNL A   1      43.202  42.350  24.540  1.00  0.00     0.261 C 
BRANCH   3   4
ATOM      4  O   UNL A   1      42.674  41.879  23.284  1.00  0.00    -0.463 OA
BRANCH   4   5
ATOM      5  C   UNL A   1      41.845  42.756  22.662  1.00  0.00     0.310 C 
ATOM      6  O   UNL A   1      41.270  43.684  23.229  1.00  0.00    -0.252 OA
BRANCH   5   7
ATOM      7  C   UNL A   1      41.653  42.558  21.175  1.00  0.00     0.160 C 
BRANCH   7   8
ATOM      8  C   UNL A   1      42.536  43.263  20.171  1.00  0.00    -0.008 A 
ATOM      9  C   UNL A   1      46.289  43.363  21.035  1.00  0.00     0.138 A 
ATOM     10  C   UNL A   1      44.913  43.140  21.246  1.00  0.00     0.058 A 
ATOM     11  C   UNL A   1      46.669  44.124  19.939  1.00  0.00     0.085 A 
ATOM     12  C   UNL A   1      43.935  43.508  20.290  1.00  0.00     0.008 A 
ATOM     13  C   UNL A   1      45.693  44.643  19.074  1.00  0.00     0.051 A 
ATOM     14  Cl  UNL A   1      48.297  44.449  19.455  1.00  0.00    -0.080 Cl
ATOM     15  C   UNL A   1      44.334  44.276  19.195  1.00  0.00     0.058 A 
ATOM     16  C   UNL A   1      42.105  43.917  19.020  1.00  0.00     0.028 A 
ATOM     17  N   UNL A   1      43.199  44.553  18.406  1.00  0.00    -0.280 N 
ATOM     18  C   UNL A   1      40.690  43.948  18.523  1.00  0.00     0.065 C 
BRANCH   9  19
ATOM     19  O   UNL A   1      47.058  42.645  21.909  1.00  0.00    -0.495 OA
ATOM     20  C   UNL A   1      47.462  41.328  21.578  1.00  0.00     0.278 C 
ENDBRANCH   9  19
BRANCH  17  21
ATOM     21  C   UNL A   1      43.174  45.368  17.231  1.00  0.00     0.262 C 
ATOM     22  O   UNL A   1      42.739  44.905  16.179  1.00  0.00    -0.268 OA
BRANCH  21  23
ATOM     23  C   UNL A   1      43.549  46.792  17.176  1.00  0.00     0.040 A 
ATOM     24  C   UNL A   1      42.611  47.797  17.440  1.00  0.00     0.015 A 
ATOM     25  C   UNL A   1      44.854  47.116  16.782  1.00  0.00     0.015 A 
ATOM     26  C   UNL A   1      42.957  49.132  17.207  1.00  0.00     0.021 A 
ATOM     27  C   UNL A   1      45.196  48.452  16.566  1.00  0.00     0.021 A 
ATOM     28  C   UNL A   1      44.239  49.451  16.755  1.00  0.00     0.041 A 
ATOM     29  Cl  UNL A   1      44.639  51.085  16.394  1.00  0.00    -0.084 Cl
ENDBRANCH  21  23
ENDBRANCH  17  21
ENDBRANCH   7   8
ENDBRANCH   5   7
ENDBRANCH   4   5
ENDBRANCH   3   4
ENDBRANCH   2   3
ENDBRANCH   1   2
BRANCH   1  30
ATOM     30  C   UNL A   1      41.692  39.692  26.889  1.00  0.00     0.202 C 
BRANCH  30  31
ATOM     31  C   UNL A   1      42.510  38.395  27.036  1.00  0.00     0.261 C 
BRANCH  31  32
ATOM     32  O   UNL A   1      43.739  38.591  27.731  1.00  0.00    -0.460 OA
BRANCH  32  33
ATOM     33  C   UNL A   1      44.725  37.722  27.365  1.00  0.00     0.338 C 
ATOM     34  O   UNL A   1      45.816  37.980  26.917  1.00  0.00    -0.246 OA
BRANCH  33  35
ATOM     35  C   UNL A   1      44.328  36.463  28.018  1.00  0.00     0.060 A 
ATOM     36  C   UNL A   1      43.865  35.397  27.241  1.00  0.00     0.016 A 
ATOM     37  C   UNL A   1      44.063  36.551  29.393  1.00  0.00     0.016 A 
ATOM     38  C   UNL A   1      43.045  34.454  27.838  1.00  0.00     0.010 A 
ATOM     39  C   UNL A   1      43.204  35.629  29.973  1.00  0.00     0.010 A 
ATOM     40  C   UNL A   1      42.670  34.605  29.185  1.00  0.00    -0.014 A 
BRANCH  40  41
ATOM     41  C   UNL A   1      41.944  33.502  29.808  1.00  0.00     0.031 A 
ATOM     42  C   UNL A   1      40.600  33.948  30.268  1.00  0.00     0.074 A 
ATOM     43  C   UNL A   1      42.328  32.209  29.833  1.00  0.00     0.049 A 
ATOM     44  N   UNL A   1      40.164  34.051  31.481  1.00  0.00    -0.248 NA
ATOM     45  C   UNL A   1      39.723  34.571  29.260  1.00  0.00     0.031 C 
ATOM     46  C   UNL A   1      43.435  31.578  29.117  1.00  0.00     0.029 A 
ATOM     47  N   UNL A   1      41.712  31.144  30.421  1.00  0.00    -0.354 N 
ATOM     48  C   UNL A   1      38.874  34.569  31.367  1.00  0.00     0.074 A 
ATOM     49  C   UNL A   1      38.764  35.081  30.029  1.00  0.00     0.031 C 
ATOM     50  C   UNL A   1      43.248  30.237  29.098  1.00  0.00     0.029 A 
ATOM     51  C   UNL A   1      42.077  29.909  29.895  1.00  0.00     0.049 A 
ATOM     52  H   UNL A   1      41.065  31.240  31.157  1.00  0.00     0.167 HD
ATOM     53  C   UNL A   1      37.910  34.322  32.297  1.00  0.00     0.034 A 
ATOM     54  C   UNL A   1      41.380  28.744  30.000  1.00  0.00     0.034 A 
ATOM     55  C   UNL A   1      38.485  33.817  33.513  1.00  0.00     0.049 A 
ATOM     56  C   UNL A   1      40.384  28.897  31.091  1.00  0.00     0.074 A 
ATOM     57  C   UNL A   1      39.391  34.313  34.428  1.00  0.00     0.029 A 
ATOM     58  N   UNL A   1      38.435  32.460  33.723  1.00  0.00    -0.354 N 
ATOM     59  N   UNL A   1      40.688  28.970  32.355  1.00  0.00    -0.248 NA
ATOM     60  C   UNL A   1      39.084  29.441  30.722  1.00  0.00     0.031 C 
ATOM     61  C   UNL A   1      40.190  33.194  34.793  1.00  0.00     0.029 A 
ATOM     62  C   UNL A   1      39.676  32.067  34.150  1.00  0.00     0.049 A 
ATOM     63  H   UNL A   1      37.652  31.878  33.591  1.00  0.00     0.167 HD
ATOM     64  C   UNL A   1      39.863  29.972  32.843  1.00  0.00     0.074 A 
ATOM     65  C   UNL A   1      38.843  30.171  31.813  1.00  0.00     0.031 C 
ATOM     66  C   UNL A   1      40.244  30.762  33.885  1.00  0.00     0.034 A 
BRANCH  53  67
ATOM     67  C   UNL A   1      36.439  34.196  31.966  1.00  0.00     0.023 A 
ATOM     68  C   UNL A   1      35.493  35.198  32.248  1.00  0.00     0.031 A 
ATOM     69  C   UNL A   1      35.983  33.144  31.147  1.00  0.00     0.131 A 
ATOM     70  C   UNL A   1      34.184  35.144  31.757  1.00  0.00     0.055 A 
ATOM     71  C   UNL A   1      34.697  33.124  30.594  1.00  0.00     0.041 A 
ATOM     72  F   UNL A   1      36.796  32.131  30.805  1.00  0.00    -0.206 F 
ATOM     73  C   UNL A   1      33.788  34.129  30.897  1.00  0.00     0.022 A 
BRANCH  70  74
ATOM     74  S   UNL A   1      32.980  36.418  32.228  1.00  0.00     0.124 S 
ATOM     75  O   UNL A   1      32.904  37.224  31.017  1.00  0.00    -0.237 OA
ATOM     76  O   UNL A   1      31.801  35.610  32.530  1.00  0.00    -0.237 OA
ATOM     77  O   UNL A   1      33.598  37.062  33.384  1.00  0.00    -0.744 OA
ENDBRANCH  70  74
ENDBRANCH  53  67
BRANCH  54  78
ATOM     78  C   UNL A   1      41.137  27.766  28.904  1.00  0.00     0.023 A 
ATOM     79  C   UNL A   1      41.744  26.500  28.961  1.00  0.00     0.031 A 
ATOM     80  C   UNL A   1      40.631  28.178  27.656  1.00  0.00     0.131 A 
ATOM     81  C   UNL A   1      41.905  25.729  27.803  1.00  0.00     0.055 A 
ATOM     82  C   UNL A   1      40.769  27.394  26.502  1.00  0.00     0.041 A 
ATOM     83  F   UNL A   1      40.070  29.389  27.514  1.00  0.00    -0.206 F 
ATOM     84  C   UNL A   1      41.427  26.170  26.568  1.00  0.00     0.022 A 
BRANCH  81  85
ATOM     85  S   UNL A   1      42.857  24.188  27.877  1.00  0.00     0.124 S 
ATOM     86  O   UNL A   1      41.845  23.214  28.280  1.00  0.00    -0.237 OA
ATOM     87  O   UNL A   1      43.336  24.071  26.506  1.00  0.00    -0.237 OA
ATOM     88  O   UNL A   1      43.877  24.468  28.885  1.00  0.00    -0.744 OA
ENDBRANCH  81  85
ENDBRANCH  54  78
BRANCH  66  89
ATOM     89  C   UNL A   1      41.474  30.406  34.684  1.00  0.00     0.023 A 
ATOM     90  C   UNL A   1      42.702  30.838  34.153  1.00  0.00     0.031 A 
ATOM     91  C   UNL A   1      41.513  29.487  35.750  1.00  0.00     0.131 A 
ATOM     92  C   UNL A   1      43.905  30.313  34.628  1.00  0.00     0.055 A 
ATOM     93  C   UNL A   1      42.724  29.026  36.279  1.00  0.00     0.041 A 
ATOM     94  F   UNL A   1      40.397  28.935  36.244  1.00  0.00    -0.206 F 
ATOM     95  C   UNL A   1      43.928  29.420  35.701  1.00  0.00     0.022 A 
BRANCH  92  96
ATOM     96  S   UNL A   1      45.442  30.630  33.724  1.00  0.00     0.124 S 
ATOM     97  O   UNL A   1      46.060  29.308  33.698  1.00  0.00    -0.237 OA
ATOM     98  O   UNL A   1      44.953  31.121  32.437  1.00  0.00    -0.237 OA
ATOM     99  O   UNL A   1      46.132  31.628  34.538  1.00  0.00    -0.744 OA
ENDBRANCH  92  96
ENDBRANCH  66  89
ENDBRANCH  40  41
ENDBRANCH  33  35
ENDBRANCH  32  33
ENDBRANCH  31  32
ENDBRANCH  30  31
ENDBRANCH   1  30
TORSDOF 21
ENDMDL
