MODEL 1
REMARK VINA RESULT:     -13.4      0.000      0.000
REMARK SMILES Cc1ccc(-c2cnnc(-n3nc(C)c4c3NC(=O)C[C@@H]4c3ccc(C(=O)OCCOCCOC(=O)c4ccc(-c5c6nc(c(-c7cc(S(=O)(=O)[O-])ccc7F)c7ccc([nH]7)c(-c7cc(S(=O)(=O)[O-])ccc7F)c7nc(c(-c8cc(S(=O)(=O)[O-])ccc8F)c8ccc5[nH]8)C=C7)C=C6)cc4)cc3)n2)cc1
REMARK SMILES IDX 31 1 30 2 29 3 28 4 26 5 27 6 25 7 22 8 23 9 101 10 24 11
REMARK SMILES IDX 100 12 21 13 11 14 12 15 16 16 13 17 15 18 17 19 14 20 18 21
REMARK SMILES IDX 20 23 19 24 10 25 6 26 7 27 102 28 8 29 9 30 5 31 1 32 2 33
REMARK SMILES IDX 3 34 104 35 4 36 103 37 32 38 33 39 34 40 35 41 36 42 37 43
REMARK SMILES IDX 38 44 99 45 39 46 98 47 40 48 41 49 42 50 92 51 43 52 97 53
REMARK SMILES IDX 91 54 93 55 44 56 96 57 90 58 89 59 45 61 77 62 57 63 76 64
REMARK SMILES IDX 58 65 61 66 75 67 94 68 59 69 60 70 74 72 95 73 62 74 46 75
REMARK SMILES IDX 47 76 55 77 48 78 54 79 56 80 53 81 49 82 50 83 51 84 52 85
REMARK SMILES IDX 78 86 79 87 87 88 80 89 86 90 88 91 85 92 81 93 82 94 83 95
REMARK SMILES IDX 84 96 63 97 64 98 72 99 65 100 71 101 73 102 70 103 66 104
REMARK SMILES IDX 67 105 68 106 69 107
REMARK H PARENT 17 22 93 60 61 71
REMARK Flexibility Score: inf
ROOT
ATOM      1  O   UNL A   1      31.711  30.786  26.007  1.00  0.00    -0.374 OA
ENDROOT
BRANCH   1   2
ATOM      2  C   UNL A   1      31.028  32.003  26.257  1.00  0.00     0.202 C 
BRANCH   2   3
ATOM      3  C   UNL A   1      30.181  32.196  25.060  1.00  0.00     0.261 C 
BRANCH   3   4
ATOM      4  O   UNL A   1      30.192  31.078  24.162  1.00  0.00    -0.460 OA
BRANCH   4   5
ATOM      5  C   UNL A   1      29.100  30.549  23.552  1.00  0.00     0.338 C 
ATOM      6  O   UNL A   1      28.045  31.036  23.260  1.00  0.00    -0.246 OA
BRANCH   5   7
ATOM      7  C   UNL A   1      29.522  29.150  23.336  1.00  0.00     0.060 A 
ATOM      8  C   UNL A   1      30.618  26.607  23.174  1.00  0.00    -0.040 A 
ATOM      9  C   UNL A   1      29.243  26.777  23.459  1.00  0.00     0.005 A 
ATOM     10  C   UNL A   1      31.365  27.713  22.792  1.00  0.00     0.005 A 
ATOM     11  C   UNL A   1      28.683  28.058  23.526  1.00  0.00     0.016 A 
ATOM     12  C   UNL A   1      30.841  28.963  22.925  1.00  0.00     0.016 A 
BRANCH   8  13
ATOM     13  C   UNL A   1      31.263  25.252  23.276  1.00  0.00     0.064 C 
ATOM     14  N   UNL A   1      34.577  25.029  24.709  1.00  0.00    -0.180 N 
ATOM     15  N   UNL A   1      34.075  25.710  25.762  1.00  0.00    -0.168 NA
ATOM     16  C   UNL A   1      33.764  25.247  23.614  1.00  0.00     0.143 A 
ATOM     17  C   UNL A   1      32.774  25.846  25.469  1.00  0.00     0.066 A 
ATOM     18  C   UNL A   1      32.490  25.344  24.147  1.00  0.00     0.026 A 
ATOM     19  N   UNL A   1      33.986  25.479  22.267  1.00  0.00    -0.310 N 
ATOM     20  C   UNL A   1      31.961  26.642  26.431  1.00  0.00     0.069 C 
ATOM     21  C   UNL A   1      32.852  25.503  21.391  1.00  0.00     0.226 C 
ATOM     22  H   UNL A   1      34.897  25.622  21.922  1.00  0.00     0.171 HD
ATOM     23  C   UNL A   1      31.634  24.756  21.876  1.00  0.00     0.113 C 
ATOM     24  O   UNL A   1      32.995  26.005  20.289  1.00  0.00    -0.275 OA
BRANCH  14  25
ATOM     25  C   UNL A   1      35.347  23.850  24.926  1.00  0.00     0.272 A 
ATOM     26  C   UNL A   1      35.539  21.603  25.246  1.00  0.00     0.095 A 
ATOM     27  C   UNL A   1      36.772  21.803  25.842  1.00  0.00     0.164 A 
ATOM     28  N   UNL A   1      34.766  22.635  24.821  1.00  0.00    -0.208 NA
ATOM     29  N   UNL A   1      37.296  23.029  25.951  1.00  0.00    -0.153 NA
ATOM     30  N   UNL A   1      36.588  24.058  25.445  1.00  0.00    -0.109 NA
BRANCH  26  31
ATOM     31  C   UNL A   1      35.065  20.254  24.932  1.00  0.00     0.002 A 
ATOM     32  C   UNL A   1      33.610  16.343  23.801  1.00  0.00     0.044 C 
ATOM     33  C   UNL A   1      34.112  17.705  24.173  1.00  0.00    -0.051 A 
ATOM     34  C   UNL A   1      35.462  17.892  24.492  1.00  0.00     0.004 A 
ATOM     35  C   UNL A   1      33.243  18.796  24.228  1.00  0.00     0.004 A 
ATOM     36  C   UNL A   1      35.935  19.153  24.867  1.00  0.00     0.011 A 
ATOM     37  C   UNL A   1      33.714  20.053  24.609  1.00  0.00     0.011 A 
ENDBRANCH  26  31
ENDBRANCH  14  25
ENDBRANCH   8  13
ENDBRANCH   5   7
ENDBRANCH   4   5
ENDBRANCH   3   4
ENDBRANCH   2   3
ENDBRANCH   1   2
BRANCH   1  38
ATOM     38  C   UNL A   1      32.217  30.170  27.163  1.00  0.00     0.202 C 
BRANCH  38  39
ATOM     39  C   UNL A   1      33.746  30.080  27.130  1.00  0.00     0.261 C 
BRANCH  39  40
ATOM     40  O   UNL A   1      34.317  31.354  27.513  1.00  0.00    -0.460 OA
BRANCH  40  41
ATOM     41  C   UNL A   1      35.014  31.387  28.688  1.00  0.00     0.338 C 
ATOM     42  O   UNL A   1      34.961  32.287  29.509  1.00  0.00    -0.246 OA
BRANCH  41  43
ATOM     43  C   UNL A   1      35.993  30.255  28.740  1.00  0.00     0.060 A 
ATOM     44  C   UNL A   1      36.296  29.613  29.962  1.00  0.00     0.016 A 
ATOM     45  C   UNL A   1      36.822  30.065  27.641  1.00  0.00     0.016 A 
ATOM     46  C   UNL A   1      37.516  28.926  30.126  1.00  0.00     0.010 A 
ATOM     47  C   UNL A   1      38.060  29.495  27.842  1.00  0.00     0.010 A 
ATOM     48  C   UNL A   1      38.440  28.948  29.082  1.00  0.00    -0.014 A 
BRANCH  48  49
ATOM     49  C   UNL A   1      39.862  28.571  29.153  1.00  0.00     0.031 A 
ATOM     50  C   UNL A   1      40.207  27.207  28.720  1.00  0.00     0.074 A 
ATOM     51  C   UNL A   1      40.851  29.486  29.324  1.00  0.00     0.049 A 
ATOM     52  N   UNL A   1      41.312  26.619  29.004  1.00  0.00    -0.248 NA
ATOM     53  C   UNL A   1      39.287  26.343  27.985  1.00  0.00     0.031 C 
ATOM     54  C   UNL A   1      42.257  29.434  28.913  1.00  0.00     0.029 A 
ATOM     55  N   UNL A   1      40.764  30.752  29.897  1.00  0.00    -0.354 N 
ATOM     56  C   UNL A   1      41.399  25.507  28.199  1.00  0.00     0.074 A 
ATOM     57  C   UNL A   1      40.058  25.285  27.739  1.00  0.00     0.031 C 
ATOM     58  C   UNL A   1      42.935  30.463  29.466  1.00  0.00     0.029 A 
ATOM     59  C   UNL A   1      42.018  31.178  30.344  1.00  0.00     0.049 A 
ATOM     60  H   UNL A   1      39.934  31.275  29.977  1.00  0.00     0.167 HD
ATOM     61  C   UNL A   1      42.635  25.032  27.882  1.00  0.00     0.034 A 
ATOM     62  C   UNL A   1      42.160  31.546  31.643  1.00  0.00     0.034 A 
ATOM     63  C   UNL A   1      43.672  25.828  28.576  1.00  0.00     0.049 A 
ATOM     64  C   UNL A   1      42.951  30.430  32.275  1.00  0.00     0.074 A 
ATOM     65  C   UNL A   1      44.590  26.773  28.144  1.00  0.00     0.029 A 
ATOM     66  N   UNL A   1      43.619  25.959  29.967  1.00  0.00    -0.354 N 
ATOM     67  N   UNL A   1      43.061  29.253  31.711  1.00  0.00    -0.248 NA
ATOM     68  C   UNL A   1      43.795  30.563  33.453  1.00  0.00     0.031 C 
ATOM     69  C   UNL A   1      45.000  27.538  29.282  1.00  0.00     0.029 A 
ATOM     70  C   UNL A   1      44.359  27.042  30.409  1.00  0.00     0.049 A 
ATOM     71  H   UNL A   1      43.116  25.355  30.559  1.00  0.00     0.167 HD
ATOM     72  C   UNL A   1      44.044  28.541  32.310  1.00  0.00     0.074 A 
ATOM     73  C   UNL A   1      44.441  29.381  33.436  1.00  0.00     0.031 C 
ATOM     74  C   UNL A   1      44.468  27.331  31.839  1.00  0.00     0.034 A 
BRANCH  61  75
ATOM     75  C   UNL A   1      42.933  24.054  26.752  1.00  0.00     0.023 A 
ATOM     76  C   UNL A   1      42.441  22.737  26.858  1.00  0.00     0.031 A 
ATOM     77  C   UNL A   1      43.691  24.297  25.583  1.00  0.00     0.131 A 
ATOM     78  C   UNL A   1      42.737  21.752  25.892  1.00  0.00     0.055 A 
ATOM     79  C   UNL A   1      44.006  23.314  24.634  1.00  0.00     0.041 A 
ATOM     80  F   UNL A   1      44.146  25.503  25.242  1.00  0.00    -0.206 F 
ATOM     81  C   UNL A   1      43.529  22.030  24.785  1.00  0.00     0.022 A 
BRANCH  78  82
ATOM     82  S   UNL A   1      42.053  20.089  26.095  1.00  0.00     0.124 S 
ATOM     83  O   UNL A   1      40.620  20.331  25.963  1.00  0.00    -0.237 OA
ATOM     84  O   UNL A   1      42.691  19.357  25.006  1.00  0.00    -0.237 OA
ATOM     85  O   UNL A   1      42.493  19.704  27.435  1.00  0.00    -0.744 OA
ENDBRANCH  78  82
ENDBRANCH  61  75
BRANCH  62  86
ATOM     86  C   UNL A   1      40.949  32.306  32.132  1.00  0.00     0.023 A 
ATOM     87  C   UNL A   1      40.045  31.609  32.991  1.00  0.00     0.031 A 
ATOM     88  C   UNL A   1      40.932  33.708  32.204  1.00  0.00     0.131 A 
ATOM     89  C   UNL A   1      39.271  32.296  33.954  1.00  0.00     0.055 A 
ATOM     90  C   UNL A   1      40.151  34.389  33.157  1.00  0.00     0.041 A 
ATOM     91  F   UNL A   1      41.780  34.437  31.465  1.00  0.00    -0.206 F 
ATOM     92  C   UNL A   1      39.343  33.687  34.056  1.00  0.00     0.022 A 
BRANCH  89  93
ATOM     93  S   UNL A   1      38.505  31.357  35.341  1.00  0.00     0.124 S 
ATOM     94  O   UNL A   1      38.194  30.074  34.729  1.00  0.00    -0.237 OA
ATOM     95  O   UNL A   1      39.558  31.340  36.356  1.00  0.00    -0.237 OA
ATOM     96  O   UNL A   1      37.354  32.179  35.711  1.00  0.00    -0.744 OA
ENDBRANCH  89  93
ENDBRANCH  62  86
BRANCH  74  97
ATOM     97  C   UNL A   1      45.093  26.321  32.748  1.00  0.00     0.023 A 
ATOM     98  C   UNL A   1      44.311  25.577  33.635  1.00  0.00     0.031 A 
ATOM     99  C   UNL A   1      46.457  25.974  32.672  1.00  0.00     0.131 A 
ATOM    100  C   UNL A   1      44.892  24.669  34.516  1.00  0.00     0.055 A 
ATOM    101  C   UNL A   1      47.011  24.958  33.451  1.00  0.00     0.041 A 
ATOM    102  F   UNL A   1      47.303  26.593  31.837  1.00  0.00    -0.206 F 
ATOM    103  C   UNL A   1      46.233  24.321  34.409  1.00  0.00     0.022 A 
BRANCH 100 104
ATOM    104  S   UNL A   1      43.865  24.099  35.885  1.00  0.00     0.124 S 
ATOM    105  O   UNL A   1      42.815  23.368  35.178  1.00  0.00    -0.237 OA
ATOM    106  O   UNL A   1      44.791  23.277  36.657  1.00  0.00    -0.237 OA
ATOM    107  O   UNL A   1      43.437  25.337  36.529  1.00  0.00    -0.744 OA
ENDBRANCH 100 104
ENDBRANCH  74  97
ENDBRANCH  48  49
ENDBRANCH  41  43
ENDBRANCH  40  41
ENDBRANCH  39  40
ENDBRANCH  38  39
ENDBRANCH   1  38
TORSDOF 20
ENDMDL
MODEL 2
REMARK VINA RESULT:     -12.0      2.028      2.399
REMARK SMILES Cc1ccc(-c2cnnc(-n3nc(C)c4c3NC(=O)C[C@@H]4c3ccc(C(=O)OCCOCCOC(=O)c4ccc(-c5c6nc(c(-c7cc(S(=O)(=O)[O-])ccc7F)c7ccc([nH]7)c(-c7cc(S(=O)(=O)[O-])ccc7F)c7nc(c(-c8cc(S(=O)(=O)[O-])ccc8F)c8ccc5[nH]8)C=C7)C=C6)cc4)cc3)n2)cc1
REMARK SMILES IDX 31 1 30 2 29 3 28 4 26 5 27 6 25 7 22 8 23 9 101 10 24 11
REMARK SMILES IDX 100 12 21 13 11 14 12 15 16 16 13 17 15 18 17 19 14 20 18 21
REMARK SMILES IDX 20 23 19 24 10 25 6 26 7 27 102 28 8 29 9 30 5 31 1 32 2 33
REMARK SMILES IDX 3 34 104 35 4 36 103 37 32 38 33 39 34 40 35 41 36 42 37 43
REMARK SMILES IDX 38 44 99 45 39 46 98 47 40 48 41 49 42 50 92 51 43 52 97 53
REMARK SMILES IDX 91 54 93 55 44 56 96 57 90 58 89 59 45 61 77 62 57 63 76 64
REMARK SMILES IDX 58 65 61 66 75 67 94 68 59 69 60 70 74 72 95 73 62 74 46 75
REMARK SMILES IDX 47 76 55 77 48 78 54 79 56 80 53 81 49 82 50 83 51 84 52 85
REMARK SMILES IDX 78 86 79 87 87 88 80 89 86 90 88 91 85 92 81 93 82 94 83 95
REMARK SMILES IDX 84 96 63 97 64 98 72 99 65 100 71 101 73 102 70 103 66 104
REMARK SMILES IDX 67 105 68 106 69 107
REMARK H PARENT 17 22 93 60 61 71
REMARK Flexibility Score: inf
ROOT
ATOM      1  O   UNL A   1      32.129  30.894  26.231  1.00  0.00    -0.374 OA
ENDROOT
BRANCH   1   2
ATOM      2  C   UNL A   1      31.458  32.109  26.521  1.00  0.00     0.202 C 
BRANCH   2   3
ATOM      3  C   UNL A   1      30.319  32.128  25.578  1.00  0.00     0.261 C 
BRANCH   3   4
ATOM      4  O   UNL A   1      30.434  31.167  24.519  1.00  0.00    -0.460 OA
BRANCH   4   5
ATOM      5  C   UNL A   1      29.416  30.752  23.721  1.00  0.00     0.338 C 
ATOM      6  O   UNL A   1      28.448  31.328  23.313  1.00  0.00    -0.246 OA
BRANCH   5   7
ATOM      7  C   UNL A   1      29.782  29.344  23.470  1.00  0.00     0.060 A 
ATOM      8  C   UNL A   1      30.740  26.746  23.290  1.00  0.00    -0.040 A 
ATOM      9  C   UNL A   1      29.351  26.991  23.393  1.00  0.00     0.005 A 
ATOM     10  C   UNL A   1      31.597  27.820  23.090  1.00  0.00     0.005 A 
ATOM     11  C   UNL A   1      28.863  28.301  23.469  1.00  0.00     0.016 A 
ATOM     12  C   UNL A   1      31.133  29.092  23.234  1.00  0.00     0.016 A 
BRANCH   8  13
ATOM     13  C   UNL A   1      31.283  25.347  23.388  1.00  0.00     0.064 C 
ATOM     14  N   UNL A   1      34.597  24.883  24.762  1.00  0.00    -0.180 N 
ATOM     15  N   UNL A   1      34.167  25.605  25.821  1.00  0.00    -0.168 NA
ATOM     16  C   UNL A   1      33.783  25.157  23.681  1.00  0.00     0.143 A 
ATOM     17  C   UNL A   1      32.875  25.836  25.550  1.00  0.00     0.066 A 
ATOM     18  C   UNL A   1      32.529  25.351  24.236  1.00  0.00     0.026 A 
ATOM     19  N   UNL A   1      33.998  25.366  22.329  1.00  0.00    -0.310 N 
ATOM     20  C   UNL A   1      32.141  26.695  26.522  1.00  0.00     0.069 C 
ATOM     21  C   UNL A   1      32.853  25.471  21.473  1.00  0.00     0.226 C 
ATOM     22  H   UNL A   1      34.910  25.439  21.967  1.00  0.00     0.171 HD
ATOM     23  C   UNL A   1      31.591  24.820  21.984  1.00  0.00     0.113 C 
ATOM     24  O   UNL A   1      33.013  25.956  20.366  1.00  0.00    -0.275 OA
BRANCH  14  25
ATOM     25  C   UNL A   1      35.281  23.651  24.973  1.00  0.00     0.272 A 
ATOM     26  C   UNL A   1      35.311  21.397  25.298  1.00  0.00     0.095 A 
ATOM     27  C   UNL A   1      36.564  21.507  25.875  1.00  0.00     0.164 A 
ATOM     28  N   UNL A   1      34.610  22.483  24.881  1.00  0.00    -0.208 NA
ATOM     29  N   UNL A   1      37.179  22.691  25.971  1.00  0.00    -0.153 NA
ATOM     30  N   UNL A   1      36.541  23.768  25.472  1.00  0.00    -0.109 NA
BRANCH  26  31
ATOM     31  C   UNL A   1      34.733  20.086  24.997  1.00  0.00     0.002 A 
ATOM     32  C   UNL A   1      33.138  16.131  24.284  1.00  0.00     0.044 C 
ATOM     33  C   UNL A   1      33.699  17.495  24.548  1.00  0.00    -0.051 A 
ATOM     34  C   UNL A   1      32.845  18.552  24.885  1.00  0.00     0.004 A 
ATOM     35  C   UNL A   1      35.071  17.736  24.444  1.00  0.00     0.004 A 
ATOM     36  C   UNL A   1      33.356  19.834  25.108  1.00  0.00     0.011 A 
ATOM     37  C   UNL A   1      35.579  19.017  24.660  1.00  0.00     0.011 A 
ENDBRANCH  26  31
ENDBRANCH  14  25
ENDBRANCH   8  13
ENDBRANCH   5   7
ENDBRANCH   4   5
ENDBRANCH   3   4
ENDBRANCH   2   3
ENDBRANCH   1   2
BRANCH   1  38
ATOM     38  C   UNL A   1      32.809  30.344  27.331  1.00  0.00     0.202 C 
BRANCH  38  39
ATOM     39  C   UNL A   1      34.265  30.016  26.985  1.00  0.00     0.261 C 
BRANCH  39  40
ATOM     40  O   UNL A   1      35.122  31.105  27.404  1.00  0.00    -0.460 OA
BRANCH  40  41
ATOM     41  C   UNL A   1      35.706  30.990  28.634  1.00  0.00     0.338 C 
ATOM     42  O   UNL A   1      35.630  31.817  29.527  1.00  0.00    -0.246 OA
BRANCH  41  43
ATOM     43  C   UNL A   1      36.607  29.794  28.667  1.00  0.00     0.060 A 
ATOM     44  C   UNL A   1      36.990  29.208  29.895  1.00  0.00     0.016 A 
ATOM     45  C   UNL A   1      37.306  29.478  27.509  1.00  0.00     0.016 A 
ATOM     46  C   UNL A   1      38.171  28.444  29.986  1.00  0.00     0.010 A 
ATOM     47  C   UNL A   1      38.516  28.832  27.627  1.00  0.00     0.010 A 
ATOM     48  C   UNL A   1      38.984  28.335  28.859  1.00  0.00    -0.014 A 
BRANCH  48  49
ATOM     49  C   UNL A   1      40.377  27.860  28.816  1.00  0.00     0.031 A 
ATOM     50  C   UNL A   1      40.578  26.403  28.747  1.00  0.00     0.074 A 
ATOM     51  C   UNL A   1      41.422  28.689  28.564  1.00  0.00     0.049 A 
ATOM     52  N   UNL A   1      41.686  25.814  29.015  1.00  0.00    -0.248 NA
ATOM     53  C   UNL A   1      39.504  25.460  28.441  1.00  0.00     0.031 C 
ATOM     54  C   UNL A   1      42.732  28.393  27.975  1.00  0.00     0.029 A 
ATOM     55  N   UNL A   1      41.495  30.066  28.755  1.00  0.00    -0.354 N 
ATOM     56  C   UNL A   1      41.580  24.521  28.561  1.00  0.00     0.074 A 
ATOM     57  C   UNL A   1      40.170  24.308  28.395  1.00  0.00     0.031 C 
ATOM     58  C   UNL A   1      43.543  29.466  28.098  1.00  0.00     0.029 A 
ATOM     59  C   UNL A   1      42.826  30.478  28.863  1.00  0.00     0.049 A 
ATOM     60  H   UNL A   1      40.718  30.667  28.808  1.00  0.00     0.167 HD
ATOM     61  C   UNL A   1      42.718  23.862  28.209  1.00  0.00     0.034 A 
ATOM     62  C   UNL A   1      43.209  31.176  29.964  1.00  0.00     0.034 A 
ATOM     63  C   UNL A   1      43.896  24.717  28.477  1.00  0.00     0.049 A 
ATOM     64  C   UNL A   1      44.045  30.208  30.762  1.00  0.00     0.074 A 
ATOM     65  C   UNL A   1      44.769  25.416  27.657  1.00  0.00     0.029 A 
ATOM     66  N   UNL A   1      44.091  25.231  29.763  1.00  0.00    -0.354 N 
ATOM     67  N   UNL A   1      43.999  28.916  30.550  1.00  0.00    -0.248 NA
ATOM     68  C   UNL A   1      45.085  30.580  31.708  1.00  0.00     0.031 C 
ATOM     69  C   UNL A   1      45.405  26.422  28.450  1.00  0.00     0.029 A 
ATOM     70  C   UNL A   1      44.947  26.319  29.756  1.00  0.00     0.049 A 
ATOM     71  H   UNL A   1      43.671  24.864  30.573  1.00  0.00     0.167 HD
ATOM     72  C   UNL A   1      45.037  28.307  31.170  1.00  0.00     0.074 A 
ATOM     73  C   UNL A   1      45.662  29.384  31.933  1.00  0.00     0.031 C 
ATOM     74  C   UNL A   1      45.315  26.980  31.008  1.00  0.00     0.034 A 
BRANCH  61  75
ATOM     75  C   UNL A   1      42.770  22.587  27.376  1.00  0.00     0.023 A 
ATOM     76  C   UNL A   1      43.758  22.479  26.377  1.00  0.00     0.031 A 
ATOM     77  C   UNL A   1      41.905  21.470  27.459  1.00  0.00     0.131 A 
ATOM     78  C   UNL A   1      43.825  21.365  25.514  1.00  0.00     0.055 A 
ATOM     79  C   UNL A   1      41.955  20.374  26.587  1.00  0.00     0.041 A 
ATOM     80  F   UNL A   1      40.980  21.329  28.408  1.00  0.00    -0.206 F 
ATOM     81  C   UNL A   1      42.920  20.315  25.605  1.00  0.00     0.022 A 
BRANCH  78  82
ATOM     82  S   UNL A   1      45.136  21.297  24.267  1.00  0.00     0.124 S 
ATOM     83  O   UNL A   1      46.275  21.850  24.993  1.00  0.00    -0.237 OA
ATOM     84  O   UNL A   1      45.194  19.873  23.956  1.00  0.00    -0.237 OA
ATOM     85  O   UNL A   1      44.622  22.141  23.190  1.00  0.00    -0.744 OA
ENDBRANCH  78  82
ENDBRANCH  61  75
BRANCH  62  86
ATOM     86  C   UNL A   1      42.138  32.151  30.393  1.00  0.00     0.023 A 
ATOM     87  C   UNL A   1      41.470  31.884  31.627  1.00  0.00     0.031 A 
ATOM     88  C   UNL A   1      42.122  33.481  29.943  1.00  0.00     0.131 A 
ATOM     89  C   UNL A   1      40.935  32.931  32.414  1.00  0.00     0.055 A 
ATOM     90  C   UNL A   1      41.580  34.519  30.725  1.00  0.00     0.041 A 
ATOM     91  F   UNL A   1      42.765  33.825  28.818  1.00  0.00    -0.206 F 
ATOM     92  C   UNL A   1      41.014  34.255  31.975  1.00  0.00     0.022 A 
BRANCH  89  93
ATOM     93  S   UNL A   1      40.528  32.620  34.182  1.00  0.00     0.124 S 
ATOM     94  O   UNL A   1      41.310  31.431  34.489  1.00  0.00    -0.237 OA
ATOM     95  O   UNL A   1      40.954  33.851  34.847  1.00  0.00    -0.237 OA
ATOM     96  O   UNL A   1      39.077  32.439  34.168  1.00  0.00    -0.744 OA
ENDBRANCH  89  93
ENDBRANCH  62  86
BRANCH  74  97
ATOM     97  C   UNL A   1      46.040  26.205  32.063  1.00  0.00     0.023 A 
ATOM     98  C   UNL A   1      47.436  26.186  32.103  1.00  0.00     0.031 A 
ATOM     99  C   UNL A   1      45.373  25.569  33.130  1.00  0.00     0.131 A 
ATOM    100  C   UNL A   1      48.116  25.430  33.054  1.00  0.00     0.055 A 
ATOM    101  C   UNL A   1      46.060  24.937  34.166  1.00  0.00     0.041 A 
ATOM    102  F   UNL A   1      44.036  25.547  33.220  1.00  0.00    -0.206 F 
ATOM    103  C   UNL A   1      47.444  24.832  34.113  1.00  0.00     0.022 A 
BRANCH 100 104
ATOM    104  S   UNL A   1      49.870  25.135  32.750  1.00  0.00     0.124 S 
ATOM    105  O   UNL A   1      50.016  25.632  31.383  1.00  0.00    -0.237 OA
ATOM    106  O   UNL A   1      50.512  25.942  33.783  1.00  0.00    -0.237 OA
ATOM    107  O   UNL A   1      50.006  23.691  32.906  1.00  0.00    -0.744 OA
ENDBRANCH 100 104
ENDBRANCH  74  97
ENDBRANCH  48  49
ENDBRANCH  41  43
ENDBRANCH  40  41
ENDBRANCH  39  40
ENDBRANCH  38  39
ENDBRANCH   1  38
TORSDOF 20
ENDMDL
MODEL 3
REMARK VINA RESULT:     -11.3      2.434      2.793
REMARK SMILES Cc1ccc(-c2cnnc(-n3nc(C)c4c3NC(=O)C[C@@H]4c3ccc(C(=O)OCCOCCOC(=O)c4ccc(-c5c6nc(c(-c7cc(S(=O)(=O)[O-])ccc7F)c7ccc([nH]7)c(-c7cc(S(=O)(=O)[O-])ccc7F)c7nc(c(-c8cc(S(=O)(=O)[O-])ccc8F)c8ccc5[nH]8)C=C7)C=C6)cc4)cc3)n2)cc1
REMARK SMILES IDX 31 1 30 2 29 3 28 4 26 5 27 6 25 7 22 8 23 9 101 10 24 11
REMARK SMILES IDX 100 12 21 13 11 14 12 15 16 16 13 17 15 18 17 19 14 20 18 21
REMARK SMILES IDX 20 23 19 24 10 25 6 26 7 27 102 28 8 29 9 30 5 31 1 32 2 33
REMARK SMILES IDX 3 34 104 35 4 36 103 37 32 38 33 39 34 40 35 41 36 42 37 43
REMARK SMILES IDX 38 44 99 45 39 46 98 47 40 48 41 49 42 50 92 51 43 52 97 53
REMARK SMILES IDX 91 54 93 55 44 56 96 57 90 58 89 59 45 61 77 62 57 63 76 64
REMARK SMILES IDX 58 65 61 66 75 67 94 68 59 69 60 70 74 72 95 73 62 74 46 75
REMARK SMILES IDX 47 76 55 77 48 78 54 79 56 80 53 81 49 82 50 83 51 84 52 85
REMARK SMILES IDX 78 86 79 87 87 88 80 89 86 90 88 91 85 92 81 93 82 94 83 95
REMARK SMILES IDX 84 96 63 97 64 98 72 99 65 100 71 101 73 102 70 103 66 104
REMARK SMILES IDX 67 105 68 106 69 107
REMARK H PARENT 17 22 93 60 61 71
REMARK Flexibility Score: inf
ROOT
ATOM      1  O   UNL A   1      32.217  30.683  26.226  1.00  0.00    -0.374 OA
ENDROOT
BRANCH   1   2
ATOM      2  C   UNL A   1      31.557  31.886  26.585  1.00  0.00     0.202 C 
BRANCH   2   3
ATOM      3  C   UNL A   1      30.390  31.944  25.678  1.00  0.00     0.261 C 
BRANCH   3   4
ATOM      4  O   UNL A   1      30.507  31.083  24.536  1.00  0.00    -0.460 OA
BRANCH   4   5
ATOM      5  C   UNL A   1      29.471  30.638  23.779  1.00  0.00     0.338 C 
ATOM      6  O   UNL A   1      28.472  31.187  23.407  1.00  0.00    -0.246 OA
BRANCH   5   7
ATOM      7  C   UNL A   1      29.866  29.240  23.518  1.00  0.00     0.060 A 
ATOM      8  C   UNL A   1      30.875  26.663  23.319  1.00  0.00    -0.040 A 
ATOM      9  C   UNL A   1      29.481  26.881  23.417  1.00  0.00     0.005 A 
ATOM     10  C   UNL A   1      31.712  27.756  23.133  1.00  0.00     0.005 A 
ATOM     11  C   UNL A   1      28.967  28.180  23.501  1.00  0.00     0.016 A 
ATOM     12  C   UNL A   1      31.222  29.017  23.286  1.00  0.00     0.016 A 
BRANCH   8  13
ATOM     13  C   UNL A   1      31.445  25.274  23.407  1.00  0.00     0.064 C 
ATOM     14  N   UNL A   1      34.785  24.869  24.736  1.00  0.00    -0.180 N 
ATOM     15  N   UNL A   1      34.356  25.581  25.801  1.00  0.00    -0.168 NA
ATOM     16  C   UNL A   1      33.951  25.130  23.666  1.00  0.00     0.143 A 
ATOM     17  C   UNL A   1      33.057  25.789  25.549  1.00  0.00     0.066 A 
ATOM     18  C   UNL A   1      32.702  25.299  24.239  1.00  0.00     0.026 A 
ATOM     19  N   UNL A   1      34.144  25.343  22.312  1.00  0.00    -0.310 N 
ATOM     20  C   UNL A   1      32.321  26.633  26.532  1.00  0.00     0.069 C 
ATOM     21  C   UNL A   1      32.985  25.429  21.472  1.00  0.00     0.226 C 
ATOM     22  H   UNL A   1      35.050  25.434  21.938  1.00  0.00     0.171 HD
ATOM     23  C   UNL A   1      31.743  24.754  21.999  1.00  0.00     0.113 C 
ATOM     24  O   UNL A   1      33.122  25.918  20.363  1.00  0.00    -0.275 OA
BRANCH  14  25
ATOM     25  C   UNL A   1      35.494  23.649  24.935  1.00  0.00     0.272 A 
ATOM     26  C   UNL A   1      35.569  21.398  25.272  1.00  0.00     0.095 A 
ATOM     27  C   UNL A   1      36.835  21.531  25.815  1.00  0.00     0.164 A 
ATOM     28  N   UNL A   1      34.840  22.470  24.867  1.00  0.00    -0.208 NA
ATOM     29  N   UNL A   1      37.433  22.725  25.888  1.00  0.00    -0.153 NA
ATOM     30  N   UNL A   1      36.765  23.789  25.400  1.00  0.00    -0.109 NA
BRANCH  26  31
ATOM     31  C   UNL A   1      35.004  20.076  24.994  1.00  0.00     0.002 A 
ATOM     32  C   UNL A   1      33.259  16.253  23.978  1.00  0.00     0.044 C 
ATOM     33  C   UNL A   1      33.859  17.585  24.312  1.00  0.00    -0.051 A 
ATOM     34  C   UNL A   1      35.246  17.715  24.446  1.00  0.00     0.004 A 
ATOM     35  C   UNL A   1      33.048  18.704  24.512  1.00  0.00     0.004 A 
ATOM     36  C   UNL A   1      35.814  18.948  24.783  1.00  0.00     0.011 A 
ATOM     37  C   UNL A   1      33.615  19.931  24.855  1.00  0.00     0.011 A 
ENDBRANCH  26  31
ENDBRANCH  14  25
ENDBRANCH   8  13
ENDBRANCH   5   7
ENDBRANCH   4   5
ENDBRANCH   3   4
ENDBRANCH   2   3
ENDBRANCH   1   2
BRANCH   1  38
ATOM     38  C   UNL A   1      32.801  30.010  27.311  1.00  0.00     0.202 C 
BRANCH  38  39
ATOM     39  C   UNL A   1      34.312  29.845  27.124  1.00  0.00     0.261 C 
BRANCH  39  40
ATOM     40  O   UNL A   1      34.986  31.069  27.506  1.00  0.00    -0.460 OA
BRANCH  40  41
ATOM     41  C   UNL A   1      35.461  31.135  28.785  1.00  0.00     0.338 C 
ATOM     42  O   UNL A   1      35.130  31.968  29.613  1.00  0.00    -0.246 OA
BRANCH  41  43
ATOM     43  C   UNL A   1      36.581  30.160  28.973  1.00  0.00     0.060 A 
ATOM     44  C   UNL A   1      36.690  29.398  30.158  1.00  0.00     0.016 A 
ATOM     45  C   UNL A   1      37.670  30.252  28.115  1.00  0.00     0.016 A 
ATOM     46  C   UNL A   1      37.935  28.876  30.562  1.00  0.00     0.010 A 
ATOM     47  C   UNL A   1      38.903  29.842  28.571  1.00  0.00     0.010 A 
ATOM     48  C   UNL A   1      39.064  29.182  29.804  1.00  0.00    -0.014 A 
BRANCH  48  49
ATOM     49  C   UNL A   1      40.471  29.006  30.203  1.00  0.00     0.031 A 
ATOM     50  C   UNL A   1      41.142  27.779  29.742  1.00  0.00     0.074 A 
ATOM     51  C   UNL A   1      41.215  30.020  30.715  1.00  0.00     0.049 A 
ATOM     52  N   UNL A   1      42.231  27.322  30.243  1.00  0.00    -0.248 NA
ATOM     53  C   UNL A   1      40.590  26.904  28.712  1.00  0.00     0.031 C 
ATOM     54  C   UNL A   1      42.666  30.228  30.680  1.00  0.00     0.029 A 
ATOM     55  N   UNL A   1      40.774  31.168  31.368  1.00  0.00    -0.354 N 
ATOM     56  C   UNL A   1      42.700  26.357  29.383  1.00  0.00     0.074 A 
ATOM     57  C   UNL A   1      41.569  26.012  28.571  1.00  0.00     0.031 C 
ATOM     58  C   UNL A   1      43.002  31.256  31.489  1.00  0.00     0.029 A 
ATOM     59  C   UNL A   1      41.790  31.702  32.165  1.00  0.00     0.049 A 
ATOM     60  H   UNL A   1      39.871  31.550  31.282  1.00  0.00     0.167 HD
ATOM     61  C   UNL A   1      44.039  26.113  29.352  1.00  0.00     0.034 A 
ATOM     62  C   UNL A   1      41.551  31.902  33.487  1.00  0.00     0.034 A 
ATOM     63  C   UNL A   1      44.725  26.944  30.366  1.00  0.00     0.049 A 
ATOM     64  C   UNL A   1      42.348  30.833  34.189  1.00  0.00     0.074 A 
ATOM     65  C   UNL A   1      45.541  28.062  30.283  1.00  0.00     0.029 A 
ATOM     66  N   UNL A   1      44.318  26.871  31.702  1.00  0.00    -0.354 N 
ATOM     67  N   UNL A   1      42.793  29.775  33.559  1.00  0.00    -0.248 NA
ATOM     68  C   UNL A   1      42.848  30.919  35.553  1.00  0.00     0.031 C 
ATOM     69  C   UNL A   1      45.526  28.711  31.558  1.00  0.00     0.029 A 
ATOM     70  C   UNL A   1      44.730  27.976  32.426  1.00  0.00     0.049 A 
ATOM     71  H   UNL A   1      43.800  26.124  32.080  1.00  0.00     0.167 HD
ATOM     72  C   UNL A   1      43.712  29.135  34.319  1.00  0.00     0.074 A 
ATOM     73  C   UNL A   1      43.675  29.857  35.587  1.00  0.00     0.031 C 
ATOM     74  C   UNL A   1      44.440  28.075  33.856  1.00  0.00     0.034 A 
BRANCH  61  75
ATOM     75  C   UNL A   1      44.765  25.356  28.247  1.00  0.00     0.023 A 
ATOM     76  C   UNL A   1      45.638  26.074  27.404  1.00  0.00     0.031 A 
ATOM     77  C   UNL A   1      44.651  23.982  27.927  1.00  0.00     0.131 A 
ATOM     78  C   UNL A   1      46.289  25.462  26.312  1.00  0.00     0.055 A 
ATOM     79  C   UNL A   1      45.278  23.378  26.829  1.00  0.00     0.041 A 
ATOM     80  F   UNL A   1      43.967  23.111  28.669  1.00  0.00    -0.206 F 
ATOM     81  C   UNL A   1      46.104  24.118  26.011  1.00  0.00     0.022 A 
BRANCH  78  82
ATOM     82  S   UNL A   1      47.406  26.452  25.288  1.00  0.00     0.124 S 
ATOM     83  O   UNL A   1      48.621  25.643  25.292  1.00  0.00    -0.237 OA
ATOM     84  O   UNL A   1      46.681  26.527  24.024  1.00  0.00    -0.237 OA
ATOM     85  O   UNL A   1      47.503  27.715  26.017  1.00  0.00    -0.744 OA
ENDBRANCH  78  82
ENDBRANCH  61  75
BRANCH  62  86
ATOM     86  C   UNL A   1      40.145  32.405  33.718  1.00  0.00     0.023 A 
ATOM     87  C   UNL A   1      39.429  31.854  34.824  1.00  0.00     0.031 A 
ATOM     88  C   UNL A   1      39.720  33.660  33.255  1.00  0.00     0.131 A 
ATOM     89  C   UNL A   1      38.431  32.598  35.497  1.00  0.00     0.055 A 
ATOM     90  C   UNL A   1      38.719  34.393  33.921  1.00  0.00     0.041 A 
ATOM     91  F   UNL A   1      40.366  34.268  32.251  1.00  0.00    -0.206 F 
ATOM     92  C   UNL A   1      38.094  33.881  35.061  1.00  0.00     0.022 A 
BRANCH  89  93
ATOM     93  S   UNL A   1      37.885  32.073  37.176  1.00  0.00     0.124 S 
ATOM     94  O   UNL A   1      39.045  32.378  38.001  1.00  0.00    -0.237 OA
ATOM     95  O   UNL A   1      36.700  32.895  37.415  1.00  0.00    -0.237 OA
ATOM     96  O   UNL A   1      37.584  30.653  37.004  1.00  0.00    -0.744 OA
ENDBRANCH  89  93
ENDBRANCH  62  86
BRANCH  74  97
ATOM     97  C   UNL A   1      44.995  27.048  34.791  1.00  0.00     0.023 A 
ATOM     98  C   UNL A   1      46.272  27.193  35.337  1.00  0.00     0.031 A 
ATOM     99  C   UNL A   1      44.228  25.964  35.267  1.00  0.00     0.131 A 
ATOM    100  C   UNL A   1      46.811  26.218  36.171  1.00  0.00     0.055 A 
ATOM    101  C   UNL A   1      44.716  25.069  36.219  1.00  0.00     0.041 A 
ATOM    102  F   UNL A   1      42.977  25.737  34.843  1.00  0.00    -0.206 F 
ATOM    103  C   UNL A   1      46.032  25.171  36.651  1.00  0.00     0.022 A 
BRANCH 100 104
ATOM    104  S   UNL A   1      48.590  26.293  36.461  1.00  0.00     0.124 S 
ATOM    105  O   UNL A   1      48.929  27.582  35.861  1.00  0.00    -0.237 OA
ATOM    106  O   UNL A   1      48.679  26.235  37.916  1.00  0.00    -0.237 OA
ATOM    107  O   UNL A   1      49.101  25.123  35.753  1.00  0.00    -0.744 OA
ENDBRANCH 100 104
ENDBRANCH  74  97
ENDBRANCH  48  49
ENDBRANCH  41  43
ENDBRANCH  40  41
ENDBRANCH  39  40
ENDBRANCH  38  39
ENDBRANCH   1  38
TORSDOF 20
ENDMDL
