MODEL 1
REMARK VINA RESULT:     -12.3      0.000      0.000
REMARK SMILES O=C(OCCOCCOC(=O)C1CCN(C2=[NH+]C(Cl)=[NH+]C3=[NH+]C=N[C@@H]32)CC1)c1ccc(-c2c3nc(c(-c4cc(S(=O)(=O)[O-])ccc4F)c4ccc([nH]4)c(-c4cc(S(=O)(=O)[O-])ccc4F)c4nc(c(-c5cc(S(=O)(=O)[O-])ccc5F)c5ccc2[nH]5)C=C4)C=C3)cc1
REMARK SMILES IDX 4 1 3 2 2 3 1 4 28 5 29 6 90 7 30 8 89 9 31 10 32 11 33 12
REMARK SMILES IDX 83 13 34 14 88 15 82 16 84 17 35 18 87 19 81 20 80 21 36 23
REMARK SMILES IDX 68 24 48 25 67 26 49 27 52 28 66 29 85 30 50 31 51 32 65 34
REMARK SMILES IDX 86 35 53 36 37 37 38 38 46 39 39 40 45 41 47 42 44 43 40 44
REMARK SMILES IDX 41 45 42 46 43 47 69 48 70 49 78 50 71 51 77 52 79 53 76 54
REMARK SMILES IDX 72 55 73 56 74 57 75 58 54 59 55 60 63 61 56 62 62 63 64 64
REMARK SMILES IDX 61 65 57 66 58 67 59 68 60 69 5 70 6 71 7 72 8 73 9 74 10 75
REMARK SMILES IDX 11 76 12 77 13 78 27 79 14 80 26 81 15 82 16 83 17 84 25 85
REMARK SMILES IDX 18 86 21 88 24 89 19 90 20 91 22 92 23 93
REMARK H PARENT 84 22 52 33 17 87 20 94 22 95
REMARK Flexibility Score: inf
ROOT
ATOM      1  C   UNL A   1      37.448  32.167  29.437  1.00  0.00     0.261 C 
ENDROOT
BRANCH   1   2
ATOM      2  O   UNL A   1      36.398  31.205  29.279  1.00  0.00    -0.460 OA
BRANCH   2   3
ATOM      3  C   UNL A   1      36.430  30.042  28.587  1.00  0.00     0.338 C 
ATOM      4  O   UNL A   1      35.383  29.654  28.062  1.00  0.00    -0.246 OA
BRANCH   3   5
ATOM      5  C   UNL A   1      37.663  29.225  28.403  1.00  0.00     0.060 A 
ATOM      6  C   UNL A   1      38.147  28.273  29.294  1.00  0.00     0.016 A 
ATOM      7  C   UNL A   1      38.427  29.507  27.259  1.00  0.00     0.016 A 
ATOM      8  C   UNL A   1      39.470  27.885  29.244  1.00  0.00     0.010 A 
ATOM      9  C   UNL A   1      39.716  29.008  27.130  1.00  0.00     0.010 A 
ATOM     10  C   UNL A   1      40.276  28.303  28.189  1.00  0.00    -0.014 A 
BRANCH  10  11
ATOM     11  C   UNL A   1      41.682  27.927  28.269  1.00  0.00     0.031 A 
ATOM     12  C   UNL A   1      42.043  26.623  27.641  1.00  0.00     0.074 A 
ATOM     13  C   UNL A   1      42.621  28.695  28.853  1.00  0.00     0.049 A 
ATOM     14  N   UNL A   1      42.585  25.584  28.191  1.00  0.00    -0.248 NA
ATOM     15  C   UNL A   1      41.623  26.412  26.247  1.00  0.00     0.031 C 
ATOM     16  C   UNL A   1      42.511  30.079  29.316  1.00  0.00     0.029 A 
ATOM     17  N   UNL A   1      43.936  28.404  29.048  1.00  0.00    -0.354 N 
ATOM     18  C   UNL A   1      42.735  24.644  27.176  1.00  0.00     0.074 A 
ATOM     19  C   UNL A   1      42.009  25.154  26.042  1.00  0.00     0.031 C 
ATOM     20  C   UNL A   1      43.751  30.585  29.485  1.00  0.00     0.029 A 
ATOM     21  C   UNL A   1      44.718  29.519  29.292  1.00  0.00     0.049 A 
ATOM     22  H   UNL A   1      44.296  27.487  29.019  1.00  0.00     0.167 HD
ATOM     23  C   UNL A   1      43.574  23.577  27.282  1.00  0.00     0.034 A 
ATOM     24  C   UNL A   1      46.070  29.587  29.235  1.00  0.00     0.034 A 
ATOM     25  C   UNL A   1      43.865  23.257  28.656  1.00  0.00     0.049 A 
ATOM     26  C   UNL A   1      46.594  28.214  29.431  1.00  0.00     0.074 A 
ATOM     27  C   UNL A   1      43.096  22.869  29.737  1.00  0.00     0.029 A 
ATOM     28  N   UNL A   1      45.072  23.639  29.191  1.00  0.00    -0.354 N 
ATOM     29  N   UNL A   1      46.464  27.546  30.544  1.00  0.00    -0.248 NA
ATOM     30  C   UNL A   1      46.876  27.403  28.256  1.00  0.00     0.031 C 
ATOM     31  C   UNL A   1      43.684  23.516  30.862  1.00  0.00     0.029 A 
ATOM     32  C   UNL A   1      44.799  24.222  30.405  1.00  0.00     0.049 A 
ATOM     33  H   UNL A   1      45.960  23.518  28.783  1.00  0.00     0.167 HD
ATOM     34  C   UNL A   1      46.227  26.236  30.156  1.00  0.00     0.074 A 
ATOM     35  C   UNL A   1      46.605  26.190  28.746  1.00  0.00     0.031 C 
ATOM     36  C   UNL A   1      45.494  25.382  30.931  1.00  0.00     0.034 A 
BRANCH  23  37
ATOM     37  C   UNL A   1      44.330  22.979  26.118  1.00  0.00     0.023 A 
ATOM     38  C   UNL A   1      44.012  21.668  25.710  1.00  0.00     0.031 A 
ATOM     39  C   UNL A   1      45.512  23.525  25.566  1.00  0.00     0.131 A 
ATOM     40  C   UNL A   1      44.865  20.956  24.845  1.00  0.00     0.055 A 
ATOM     41  C   UNL A   1      46.316  22.839  24.652  1.00  0.00     0.041 A 
ATOM     42  F   UNL A   1      46.006  24.708  25.950  1.00  0.00    -0.206 F 
ATOM     43  C   UNL A   1      46.009  21.537  24.305  1.00  0.00     0.022 A 
BRANCH  40  44
ATOM     44  S   UNL A   1      44.555  19.189  24.574  1.00  0.00     0.124 S 
ATOM     45  O   UNL A   1      45.420  18.574  25.574  1.00  0.00    -0.237 OA
ATOM     46  O   UNL A   1      43.120  19.097  24.817  1.00  0.00    -0.237 OA
ATOM     47  O   UNL A   1      44.965  18.983  23.186  1.00  0.00    -0.744 OA
ENDBRANCH  40  44
ENDBRANCH  23  37
BRANCH  24  48
ATOM     48  C   UNL A   1      46.836  30.711  28.646  1.00  0.00     0.023 A 
ATOM     49  C   UNL A   1      46.291  31.567  27.676  1.00  0.00     0.031 A 
ATOM     50  C   UNL A   1      48.087  31.081  29.198  1.00  0.00     0.131 A 
ATOM     51  C   UNL A   1      46.996  32.725  27.280  1.00  0.00     0.055 A 
ATOM     52  C   UNL A   1      48.788  32.215  28.790  1.00  0.00     0.041 A 
ATOM     53  F   UNL A   1      48.633  30.393  30.213  1.00  0.00    -0.206 F 
ATOM     54  C   UNL A   1      48.241  33.047  27.830  1.00  0.00     0.022 A 
BRANCH  51  55
ATOM     55  S   UNL A   1      46.243  33.889  26.106  1.00  0.00     0.124 S 
ATOM     56  O   UNL A   1      47.398  34.350  25.343  1.00  0.00    -0.237 OA
ATOM     57  O   UNL A   1      45.292  33.042  25.393  1.00  0.00    -0.237 OA
ATOM     58  O   UNL A   1      45.632  34.899  26.971  1.00  0.00    -0.744 OA
ENDBRANCH  51  55
ENDBRANCH  24  48
BRANCH  36  59
ATOM     59  C   UNL A   1      45.160  25.797  32.352  1.00  0.00     0.023 A 
ATOM     60  C   UNL A   1      44.005  26.526  32.716  1.00  0.00     0.031 A 
ATOM     61  C   UNL A   1      45.976  25.313  33.390  1.00  0.00     0.131 A 
ATOM     62  C   UNL A   1      43.712  26.758  34.074  1.00  0.00     0.055 A 
ATOM     63  C   UNL A   1      45.673  25.529  34.735  1.00  0.00     0.041 A 
ATOM     64  F   UNL A   1      47.069  24.581  33.113  1.00  0.00    -0.206 F 
ATOM     65  C   UNL A   1      44.542  26.259  35.083  1.00  0.00     0.022 A 
BRANCH  62  66
ATOM     66  S   UNL A   1      42.243  27.722  34.553  1.00  0.00     0.124 S 
ATOM     67  O   UNL A   1      42.624  28.319  35.827  1.00  0.00    -0.237 OA
ATOM     68  O   UNL A   1      42.092  28.647  33.432  1.00  0.00    -0.237 OA
ATOM     69  O   UNL A   1      41.188  26.710  34.648  1.00  0.00    -0.744 OA
ENDBRANCH  62  66
ENDBRANCH  36  59
ENDBRANCH  10  11
ENDBRANCH   3   5
ENDBRANCH   2   3
ENDBRANCH   1   2
BRANCH   1  70
ATOM     70  C   UNL A   1      38.469  31.753  30.509  1.00  0.00     0.202 C 
BRANCH  70  71
ATOM     71  O   UNL A   1      37.993  31.148  31.705  1.00  0.00    -0.374 OA
BRANCH  71  72
ATOM     72  C   UNL A   1      38.930  30.483  32.560  1.00  0.00     0.202 C 
BRANCH  72  73
ATOM     73  C   UNL A   1      39.411  31.198  33.826  1.00  0.00     0.261 C 
BRANCH  73  74
ATOM     74  O   UNL A   1      38.875  32.537  33.946  1.00  0.00    -0.463 OA
BRANCH  74  75
ATOM     75  C   UNL A   1      37.830  32.661  34.800  1.00  0.00     0.309 C 
ATOM     76  O   UNL A   1      37.543  31.836  35.664  1.00  0.00    -0.252 OA
BRANCH  75  77
ATOM     77  C   UNL A   1      37.017  33.938  34.640  1.00  0.00     0.108 C 
ATOM     78  C   UNL A   1      35.515  33.902  34.936  1.00  0.00     0.070 C 
ATOM     79  C   UNL A   1      37.341  34.604  33.295  1.00  0.00     0.070 C 
ATOM     80  C   UNL A   1      34.626  33.577  33.746  1.00  0.00     0.277 C 
ATOM     81  C   UNL A   1      36.448  34.159  32.147  1.00  0.00     0.277 C 
ATOM     82  N   UNL A   1      35.054  34.265  32.533  1.00  0.00    -0.230 N 
ATOM     83  C   UNL A   1      34.143  34.785  31.628  1.00  0.00     0.383 C 
ATOM     84  N   UNL A   1      34.112  34.395  30.383  1.00  0.00    -0.155 N 
ATOM     85  C   UNL A   1      33.215  35.894  32.079  1.00  0.00     0.523 C 
ATOM     86  C   UNL A   1      33.224  35.006  29.525  1.00  0.00     0.414 C 
ATOM     87  H   UNL A   1      34.710  33.681  30.065  1.00  0.00     0.367 HD
ATOM     88  C   UNL A   1      33.043  36.733  30.870  1.00  0.00     0.389 C 
ATOM     89  N   UNL A   1      33.869  36.858  32.998  1.00  0.00     0.003 NA
ATOM     90  Cl  UNL A   1      32.864  34.155  28.088  1.00  0.00     0.028 Cl
ATOM     91  N   UNL A   1      32.680  36.168  29.701  1.00  0.00    -0.155 N 
ATOM     92  N   UNL A   1      33.409  37.955  31.031  1.00  0.00    -0.169 N 
ATOM     93  C   UNL A   1      33.901  37.963  32.311  1.00  0.00     0.532 C 
ATOM     94  H   UNL A   1      32.070  36.591  29.053  1.00  0.00     0.367 HD
ATOM     95  H   UNL A   1      33.349  38.702  30.392  1.00  0.00     0.365 HD
ENDBRANCH  75  77
ENDBRANCH  74  75
ENDBRANCH  73  74
ENDBRANCH  72  73
ENDBRANCH  71  72
ENDBRANCH  70  71
ENDBRANCH   1  70
TORSDOF 17
ENDMDL
MODEL 2
REMARK VINA RESULT:     -12.1      5.093     10.648
REMARK SMILES O=C(OCCOCCOC(=O)C1CCN(C2=[NH+]C(Cl)=[NH+]C3=[NH+]C=N[C@@H]32)CC1)c1ccc(-c2c3nc(c(-c4cc(S(=O)(=O)[O-])ccc4F)c4ccc([nH]4)c(-c4cc(S(=O)(=O)[O-])ccc4F)c4nc(c(-c5cc(S(=O)(=O)[O-])ccc5F)c5ccc2[nH]5)C=C4)C=C3)cc1
REMARK SMILES IDX 4 1 3 2 2 3 1 4 28 5 29 6 90 7 30 8 89 9 31 10 32 11 33 12
REMARK SMILES IDX 83 13 34 14 88 15 82 16 84 17 35 18 87 19 81 20 80 21 36 23
REMARK SMILES IDX 68 24 48 25 67 26 49 27 52 28 66 29 85 30 50 31 51 32 65 34
REMARK SMILES IDX 86 35 53 36 37 37 38 38 46 39 39 40 45 41 47 42 44 43 40 44
REMARK SMILES IDX 41 45 42 46 43 47 69 48 70 49 78 50 71 51 77 52 79 53 76 54
REMARK SMILES IDX 72 55 73 56 74 57 75 58 54 59 55 60 63 61 56 62 62 63 64 64
REMARK SMILES IDX 61 65 57 66 58 67 59 68 60 69 5 70 6 71 7 72 8 73 9 74 10 75
REMARK SMILES IDX 11 76 12 77 13 78 27 79 14 80 26 81 15 82 16 83 17 84 25 85
REMARK SMILES IDX 18 86 21 88 24 89 19 90 20 91 22 92 23 93
REMARK H PARENT 84 22 52 33 17 87 20 94 22 95
REMARK Flexibility Score: inf
ROOT
ATOM      1  C   UNL A   1      43.180  18.495  25.753  1.00  0.00     0.261 C 
ENDROOT
BRANCH   1   2
ATOM      2  O   UNL A   1      43.472  19.357  24.646  1.00  0.00    -0.460 OA
BRANCH   2   3
ATOM      3  C   UNL A   1      44.600  20.067  24.418  1.00  0.00     0.338 C 
ATOM      4  O   UNL A   1      45.475  19.553  23.715  1.00  0.00    -0.246 OA
BRANCH   3   5
ATOM      5  C   UNL A   1      44.830  21.443  24.945  1.00  0.00     0.060 A 
ATOM      6  C   UNL A   1      45.785  21.801  25.892  1.00  0.00     0.016 A 
ATOM      7  C   UNL A   1      43.949  22.436  24.488  1.00  0.00     0.016 A 
ATOM      8  C   UNL A   1      45.648  22.973  26.605  1.00  0.00     0.010 A 
ATOM      9  C   UNL A   1      43.897  23.675  25.111  1.00  0.00     0.010 A 
ATOM     10  C   UNL A   1      44.661  23.889  26.253  1.00  0.00    -0.014 A 
BRANCH  10  11
ATOM     11  C   UNL A   1      44.526  25.052  27.121  1.00  0.00     0.031 A 
ATOM     12  C   UNL A   1      45.691  25.984  27.145  1.00  0.00     0.074 A 
ATOM     13  C   UNL A   1      43.427  25.304  27.856  1.00  0.00     0.049 A 
ATOM     14  N   UNL A   1      46.417  26.343  28.155  1.00  0.00    -0.248 NA
ATOM     15  C   UNL A   1      46.184  26.473  25.849  1.00  0.00     0.031 C 
ATOM     16  C   UNL A   1      42.120  24.646  27.798  1.00  0.00     0.029 A 
ATOM     17  N   UNL A   1      43.231  26.311  28.750  1.00  0.00    -0.354 N 
ATOM     18  C   UNL A   1      47.356  27.240  27.655  1.00  0.00     0.074 A 
ATOM     19  C   UNL A   1      47.251  27.179  26.220  1.00  0.00     0.031 C 
ATOM     20  C   UNL A   1      41.208  25.428  28.414  1.00  0.00     0.029 A 
ATOM     21  C   UNL A   1      41.897  26.549  29.030  1.00  0.00     0.049 A 
ATOM     22  H   UNL A   1      43.968  26.820  29.159  1.00  0.00     0.167 HD
ATOM     23  C   UNL A   1      48.057  28.091  28.454  1.00  0.00     0.034 A 
ATOM     24  C   UNL A   1      41.381  27.645  29.637  1.00  0.00     0.034 A 
ATOM     25  C   UNL A   1      48.106  27.628  29.817  1.00  0.00     0.049 A 
ATOM     26  C   UNL A   1      42.465  28.262  30.438  1.00  0.00     0.074 A 
ATOM     27  C   UNL A   1      48.612  26.497  30.432  1.00  0.00     0.029 A 
ATOM     28  N   UNL A   1      47.282  28.209  30.752  1.00  0.00    -0.354 N 
ATOM     29  N   UNL A   1      43.011  27.687  31.474  1.00  0.00    -0.248 NA
ATOM     30  C   UNL A   1      43.255  29.326  29.837  1.00  0.00     0.031 C 
ATOM     31  C   UNL A   1      47.684  26.194  31.470  1.00  0.00     0.029 A 
ATOM     32  C   UNL A   1      46.697  27.181  31.453  1.00  0.00     0.049 A 
ATOM     33  H   UNL A   1      47.139  29.172  30.891  1.00  0.00     0.167 HD
ATOM     34  C   UNL A   1      44.357  28.008  31.400  1.00  0.00     0.074 A 
ATOM     35  C   UNL A   1      44.427  29.108  30.441  1.00  0.00     0.031 C 
ATOM     36  C   UNL A   1      45.319  27.182  31.909  1.00  0.00     0.034 A 
BRANCH  23  37
ATOM     37  C   UNL A   1      48.487  29.479  28.039  1.00  0.00     0.023 A 
ATOM     38  C   UNL A   1      47.493  30.441  27.771  1.00  0.00     0.031 A 
ATOM     39  C   UNL A   1      49.800  29.825  27.643  1.00  0.00     0.131 A 
ATOM     40  C   UNL A   1      47.811  31.640  27.104  1.00  0.00     0.055 A 
ATOM     41  C   UNL A   1      50.121  31.046  27.045  1.00  0.00     0.041 A 
ATOM     42  F   UNL A   1      50.825  28.968  27.720  1.00  0.00    -0.206 F 
ATOM     43  C   UNL A   1      49.121  31.953  26.749  1.00  0.00     0.022 A 
BRANCH  40  44
ATOM     44  S   UNL A   1      46.459  32.710  26.542  1.00  0.00     0.124 S 
ATOM     45  O   UNL A   1      47.181  33.759  25.828  1.00  0.00    -0.237 OA
ATOM     46  O   UNL A   1      45.674  31.794  25.721  1.00  0.00    -0.237 OA
ATOM     47  O   UNL A   1      45.821  33.132  27.787  1.00  0.00    -0.744 OA
ENDBRANCH  40  44
ENDBRANCH  23  37
BRANCH  24  48
ATOM     48  C   UNL A   1      40.136  28.333  29.222  1.00  0.00     0.023 A 
ATOM     49  C   UNL A   1      39.173  28.771  30.146  1.00  0.00     0.031 A 
ATOM     50  C   UNL A   1      39.974  28.755  27.880  1.00  0.00     0.131 A 
ATOM     51  C   UNL A   1      38.096  29.575  29.715  1.00  0.00     0.055 A 
ATOM     52  C   UNL A   1      38.899  29.534  27.456  1.00  0.00     0.041 A 
ATOM     53  F   UNL A   1      40.903  28.489  26.947  1.00  0.00    -0.206 F 
ATOM     54  C   UNL A   1      37.955  29.953  28.376  1.00  0.00     0.022 A 
BRANCH  51  55
ATOM     55  S   UNL A   1      36.910  30.230  30.927  1.00  0.00     0.124 S 
ATOM     56  O   UNL A   1      35.771  30.582  30.087  1.00  0.00    -0.237 OA
ATOM     57  O   UNL A   1      36.727  29.097  31.827  1.00  0.00    -0.237 OA
ATOM     58  O   UNL A   1      37.618  31.368  31.515  1.00  0.00    -0.744 OA
ENDBRANCH  51  55
ENDBRANCH  24  48
BRANCH  36  59
ATOM     59  C   UNL A   1      44.889  26.029  32.797  1.00  0.00     0.023 A 
ATOM     60  C   UNL A   1      44.632  26.146  34.183  1.00  0.00     0.031 A 
ATOM     61  C   UNL A   1      44.598  24.797  32.185  1.00  0.00     0.131 A 
ATOM     62  C   UNL A   1      44.117  25.051  34.902  1.00  0.00     0.055 A 
ATOM     63  C   UNL A   1      44.069  23.720  32.898  1.00  0.00     0.041 A 
ATOM     64  F   UNL A   1      44.784  24.632  30.864  1.00  0.00    -0.206 F 
ATOM     65  C   UNL A   1      43.832  23.841  34.262  1.00  0.00     0.022 A 
BRANCH  62  66
ATOM     66  S   UNL A   1      43.810  25.182  36.693  1.00  0.00     0.124 S 
ATOM     67  O   UNL A   1      44.669  24.152  37.265  1.00  0.00    -0.237 OA
ATOM     68  O   UNL A   1      44.191  26.563  36.979  1.00  0.00    -0.237 OA
ATOM     69  O   UNL A   1      42.376  24.913  36.814  1.00  0.00    -0.744 OA
ENDBRANCH  62  66
ENDBRANCH  36  59
ENDBRANCH  10  11
ENDBRANCH   3   5
ENDBRANCH   2   3
ENDBRANCH   1   2
BRANCH   1  70
ATOM     70  C   UNL A   1      42.449  19.226  26.891  1.00  0.00     0.202 C 
BRANCH  70  71
ATOM     71  O   UNL A   1      41.965  20.543  26.655  1.00  0.00    -0.374 OA
BRANCH  71  72
ATOM     72  C   UNL A   1      40.607  20.847  26.990  1.00  0.00     0.202 C 
BRANCH  72  73
ATOM     73  C   UNL A   1      40.011  22.179  26.523  1.00  0.00     0.261 C 
BRANCH  73  74
ATOM     74  O   UNL A   1      38.599  22.081  26.222  1.00  0.00    -0.463 OA
BRANCH  74  75
ATOM     75  C   UNL A   1      37.951  23.267  26.117  1.00  0.00     0.309 C 
ATOM     76  O   UNL A   1      38.373  24.326  26.575  1.00  0.00    -0.252 OA
BRANCH  75  77
ATOM     77  C   UNL A   1      36.636  23.216  25.352  1.00  0.00     0.108 C 
ATOM     78  C   UNL A   1      35.328  23.085  26.137  1.00  0.00     0.070 C 
ATOM     79  C   UNL A   1      36.737  22.211  24.195  1.00  0.00     0.070 C 
ATOM     80  C   UNL A   1      34.859  21.659  26.386  1.00  0.00     0.277 C 
ATOM     81  C   UNL A   1      36.320  20.796  24.560  1.00  0.00     0.277 C 
ATOM     82  N   UNL A   1      35.024  20.811  25.210  1.00  0.00    -0.230 N 
ATOM     83  C   UNL A   1      34.085  19.855  24.863  1.00  0.00     0.383 C 
ATOM     84  N   UNL A   1      34.393  18.590  24.774  1.00  0.00    -0.155 N 
ATOM     85  C   UNL A   1      32.685  20.302  24.499  1.00  0.00     0.523 C 
ATOM     86  C   UNL A   1      33.423  17.705  24.357  1.00  0.00     0.414 C 
ATOM     87  H   UNL A   1      35.299  18.276  24.999  1.00  0.00     0.367 HD
ATOM     88  C   UNL A   1      32.257  19.336  23.460  1.00  0.00     0.389 C 
ATOM     89  N   UNL A   1      32.664  21.569  23.727  1.00  0.00     0.003 NA
ATOM     90  Cl  UNL A   1      33.699  16.060  24.729  1.00  0.00     0.028 Cl
ATOM     91  N   UNL A   1      32.358  18.010  23.686  1.00  0.00    -0.155 N 
ATOM     92  N   UNL A   1      31.947  19.883  22.338  1.00  0.00    -0.169 N 
ATOM     93  C   UNL A   1      32.221  21.209  22.558  1.00  0.00     0.532 C 
ATOM     94  H   UNL A   1      31.697  17.348  23.377  1.00  0.00     0.367 HD
ATOM     95  H   UNL A   1      31.597  19.455  21.524  1.00  0.00     0.365 HD
ENDBRANCH  75  77
ENDBRANCH  74  75
ENDBRANCH  73  74
ENDBRANCH  72  73
ENDBRANCH  71  72
ENDBRANCH  70  71
ENDBRANCH   1  70
TORSDOF 17
ENDMDL
MODEL 3
REMARK VINA RESULT:     -12.0      4.514      9.871
REMARK SMILES O=C(OCCOCCOC(=O)C1CCN(C2=[NH+]C(Cl)=[NH+]C3=[NH+]C=N[C@@H]32)CC1)c1ccc(-c2c3nc(c(-c4cc(S(=O)(=O)[O-])ccc4F)c4ccc([nH]4)c(-c4cc(S(=O)(=O)[O-])ccc4F)c4nc(c(-c5cc(S(=O)(=O)[O-])ccc5F)c5ccc2[nH]5)C=C4)C=C3)cc1
REMARK SMILES IDX 4 1 3 2 2 3 1 4 28 5 29 6 90 7 30 8 89 9 31 10 32 11 33 12
REMARK SMILES IDX 83 13 34 14 88 15 82 16 84 17 35 18 87 19 81 20 80 21 36 23
REMARK SMILES IDX 68 24 48 25 67 26 49 27 52 28 66 29 85 30 50 31 51 32 65 34
REMARK SMILES IDX 86 35 53 36 37 37 38 38 46 39 39 40 45 41 47 42 44 43 40 44
REMARK SMILES IDX 41 45 42 46 43 47 69 48 70 49 78 50 71 51 77 52 79 53 76 54
REMARK SMILES IDX 72 55 73 56 74 57 75 58 54 59 55 60 63 61 56 62 62 63 64 64
REMARK SMILES IDX 61 65 57 66 58 67 59 68 60 69 5 70 6 71 7 72 8 73 9 74 10 75
REMARK SMILES IDX 11 76 12 77 13 78 27 79 14 80 26 81 15 82 16 83 17 84 25 85
REMARK SMILES IDX 18 86 21 88 24 89 19 90 20 91 22 92 23 93
REMARK H PARENT 84 22 52 33 17 87 20 94 22 95
REMARK Flexibility Score: inf
ROOT
ATOM      1  C   UNL A   1      33.373  31.757  27.624  1.00  0.00     0.261 C 
ENDROOT
BRANCH   1   2
ATOM      2  O   UNL A   1      34.641  32.265  28.058  1.00  0.00    -0.460 OA
BRANCH   2   3
ATOM      3  C   UNL A   1      35.422  31.806  29.062  1.00  0.00     0.338 C 
ATOM      4  O   UNL A   1      35.016  31.943  30.220  1.00  0.00    -0.246 OA
BRANCH   3   5
ATOM      5  C   UNL A   1      36.728  31.121  28.845  1.00  0.00     0.060 A 
ATOM      6  C   UNL A   1      36.901  29.860  28.283  1.00  0.00     0.016 A 
ATOM      7  C   UNL A   1      37.866  31.792  29.321  1.00  0.00     0.016 A 
ATOM      8  C   UNL A   1      38.066  29.156  28.502  1.00  0.00     0.010 A 
ATOM      9  C   UNL A   1      39.085  31.135  29.418  1.00  0.00     0.010 A 
ATOM     10  C   UNL A   1      39.144  29.777  29.127  1.00  0.00    -0.014 A 
BRANCH  10  11
ATOM     11  C   UNL A   1      40.299  28.931  29.405  1.00  0.00     0.031 A 
ATOM     12  C   UNL A   1      40.681  28.805  30.841  1.00  0.00     0.074 A 
ATOM     13  C   UNL A   1      40.987  28.280  28.449  1.00  0.00     0.049 A 
ATOM     14  N   UNL A   1      41.804  29.110  31.408  1.00  0.00    -0.248 NA
ATOM     15  C   UNL A   1      39.623  28.409  31.784  1.00  0.00     0.031 C 
ATOM     16  C   UNL A   1      40.641  28.099  27.038  1.00  0.00     0.029 A 
ATOM     17  N   UNL A   1      42.115  27.534  28.592  1.00  0.00    -0.354 N 
ATOM     18  C   UNL A   1      41.659  28.783  32.753  1.00  0.00     0.074 A 
ATOM     19  C   UNL A   1      40.264  28.485  32.949  1.00  0.00     0.031 C 
ATOM     20  C   UNL A   1      41.383  27.092  26.530  1.00  0.00     0.029 A 
ATOM     21  C   UNL A   1      42.348  26.675  27.532  1.00  0.00     0.049 A 
ATOM     22  H   UNL A   1      42.710  27.600  29.375  1.00  0.00     0.167 HD
ATOM     23  C   UNL A   1      42.722  28.629  33.591  1.00  0.00     0.034 A 
ATOM     24  C   UNL A   1      43.204  25.625  27.516  1.00  0.00     0.034 A 
ATOM     25  C   UNL A   1      43.892  29.311  33.101  1.00  0.00     0.049 A 
ATOM     26  C   UNL A   1      44.230  25.869  28.557  1.00  0.00     0.074 A 
ATOM     27  C   UNL A   1      44.192  30.632  32.824  1.00  0.00     0.029 A 
ATOM     28  N   UNL A   1      44.888  28.581  32.496  1.00  0.00    -0.354 N 
ATOM     29  N   UNL A   1      45.095  26.844  28.499  1.00  0.00    -0.248 NA
ATOM     30  C   UNL A   1      44.025  25.306  29.883  1.00  0.00     0.031 C 
ATOM     31  C   UNL A   1      45.023  30.589  31.667  1.00  0.00     0.029 A 
ATOM     32  C   UNL A   1      45.215  29.245  31.338  1.00  0.00     0.049 A 
ATOM     33  H   UNL A   1      45.287  27.745  32.828  1.00  0.00     0.167 HD
ATOM     34  C   UNL A   1      45.222  27.295  29.804  1.00  0.00     0.074 A 
ATOM     35  C   UNL A   1      44.630  26.240  30.623  1.00  0.00     0.031 C 
ATOM     36  C   UNL A   1      45.544  28.592  30.085  1.00  0.00     0.034 A 
BRANCH  23  37
ATOM     37  C   UNL A   1      42.759  27.645  34.736  1.00  0.00     0.023 A 
ATOM     38  C   UNL A   1      43.461  26.435  34.563  1.00  0.00     0.031 A 
ATOM     39  C   UNL A   1      41.932  27.717  35.881  1.00  0.00     0.131 A 
ATOM     40  C   UNL A   1      43.287  25.366  35.463  1.00  0.00     0.055 A 
ATOM     41  C   UNL A   1      41.818  26.679  36.809  1.00  0.00     0.041 A 
ATOM     42  F   UNL A   1      41.114  28.751  36.114  1.00  0.00    -0.206 F 
ATOM     43  C   UNL A   1      42.479  25.485  36.591  1.00  0.00     0.022 A 
BRANCH  40  44
ATOM     44  S   UNL A   1      43.994  23.749  35.043  1.00  0.00     0.124 S 
ATOM     45  O   UNL A   1      42.824  23.026  34.556  1.00  0.00    -0.237 OA
ATOM     46  O   UNL A   1      44.992  24.110  34.043  1.00  0.00    -0.237 OA
ATOM     47  O   UNL A   1      44.531  23.274  36.317  1.00  0.00    -0.744 OA
ENDBRANCH  40  44
ENDBRANCH  23  37
BRANCH  24  48
ATOM     48  C   UNL A   1      42.910  24.305  26.908  1.00  0.00     0.023 A 
ATOM     49  C   UNL A   1      43.863  23.589  26.166  1.00  0.00     0.031 A 
ATOM     50  C   UNL A   1      41.709  23.628  27.233  1.00  0.00     0.131 A 
ATOM     51  C   UNL A   1      43.591  22.263  25.762  1.00  0.00     0.055 A 
ATOM     52  C   UNL A   1      41.438  22.326  26.816  1.00  0.00     0.041 A 
ATOM     53  F   UNL A   1      40.789  24.185  28.037  1.00  0.00    -0.206 F 
ATOM     54  C   UNL A   1      42.383  21.634  26.081  1.00  0.00     0.022 A 
BRANCH  51  55
ATOM     55  S   UNL A   1      44.865  21.299  24.895  1.00  0.00     0.124 S 
ATOM     56  O   UNL A   1      44.536  19.932  25.283  1.00  0.00    -0.237 OA
ATOM     57  O   UNL A   1      44.627  21.651  23.499  1.00  0.00    -0.237 OA
ATOM     58  O   UNL A   1      46.117  21.814  25.449  1.00  0.00    -0.744 OA
ENDBRANCH  51  55
ENDBRANCH  24  48
BRANCH  36  59
ATOM     59  C   UNL A   1      46.026  29.482  28.953  1.00  0.00     0.023 A 
ATOM     60  C   UNL A   1      45.209  30.414  28.273  1.00  0.00     0.031 A 
ATOM     61  C   UNL A   1      47.399  29.478  28.649  1.00  0.00     0.131 A 
ATOM     62  C   UNL A   1      45.771  31.286  27.321  1.00  0.00     0.055 A 
ATOM     63  C   UNL A   1      47.956  30.357  27.719  1.00  0.00     0.041 A 
ATOM     64  F   UNL A   1      48.236  28.643  29.287  1.00  0.00    -0.206 F 
ATOM     65  C   UNL A   1      47.142  31.261  27.045  1.00  0.00     0.022 A 
BRANCH  62  66
ATOM     66  S   UNL A   1      44.723  32.470  26.417  1.00  0.00     0.124 S 
ATOM     67  O   UNL A   1      43.700  31.628  25.809  1.00  0.00    -0.237 OA
ATOM     68  O   UNL A   1      44.268  33.364  27.479  1.00  0.00    -0.237 OA
ATOM     69  O   UNL A   1      45.649  33.085  25.464  1.00  0.00    -0.744 OA
ENDBRANCH  62  66
ENDBRANCH  36  59
ENDBRANCH  10  11
ENDBRANCH   3   5
ENDBRANCH   2   3
ENDBRANCH   1   2
BRANCH   1  70
ATOM     70  C   UNL A   1      33.436  30.270  27.239  1.00  0.00     0.202 C 
BRANCH  70  71
ATOM     71  O   UNL A   1      33.228  29.909  25.879  1.00  0.00    -0.374 OA
BRANCH  71  72
ATOM     72  C   UNL A   1      31.894  29.638  25.435  1.00  0.00     0.202 C 
BRANCH  72  73
ATOM     73  C   UNL A   1      31.688  29.000  24.057  1.00  0.00     0.261 C 
BRANCH  73  74
ATOM     74  O   UNL A   1      30.601  28.045  24.043  1.00  0.00    -0.463 OA
BRANCH  74  75
ATOM     75  C   UNL A   1      30.727  27.047  23.135  1.00  0.00     0.309 C 
ATOM     76  O   UNL A   1      30.746  27.219  21.919  1.00  0.00    -0.252 OA
BRANCH  75  77
ATOM     77  C   UNL A   1      30.873  25.653  23.728  1.00  0.00     0.108 C 
ATOM     78  C   UNL A   1      30.928  25.498  25.251  1.00  0.00     0.070 C 
ATOM     79  C   UNL A   1      31.998  24.890  23.014  1.00  0.00     0.070 C 
ATOM     80  C   UNL A   1      32.322  25.544  25.859  1.00  0.00     0.277 C 
ATOM     81  C   UNL A   1      33.368  25.058  23.649  1.00  0.00     0.277 C 
ATOM     82  N   UNL A   1      33.292  24.791  25.072  1.00  0.00    -0.230 N 
ATOM     83  C   UNL A   1      34.289  24.038  25.670  1.00  0.00     0.383 C 
ATOM     84  N   UNL A   1      35.554  24.270  25.446  1.00  0.00    -0.155 N 
ATOM     85  C   UNL A   1      33.897  22.864  26.542  1.00  0.00     0.523 C 
ATOM     86  C   UNL A   1      36.487  23.437  26.023  1.00  0.00     0.414 C 
ATOM     87  H   UNL A   1      35.834  25.024  24.878  1.00  0.00     0.367 HD
ATOM     88  C   UNL A   1      34.975  21.872  26.318  1.00  0.00     0.389 C 
ATOM     89  N   UNL A   1      32.722  22.123  26.021  1.00  0.00     0.003 NA
ATOM     90  Cl  UNL A   1      38.079  24.051  26.124  1.00  0.00     0.028 Cl
ATOM     91  N   UNL A   1      36.266  22.235  26.452  1.00  0.00    -0.155 N 
ATOM     92  N   UNL A   1      34.556  20.746  25.860  1.00  0.00    -0.169 N 
ATOM     93  C   UNL A   1      33.212  20.962  25.694  1.00  0.00     0.532 C 
ATOM     94  H   UNL A   1      36.964  21.653  26.834  1.00  0.00     0.367 HD
ATOM     95  H   UNL A   1      35.074  19.929  25.675  1.00  0.00     0.365 HD
ENDBRANCH  75  77
ENDBRANCH  74  75
ENDBRANCH  73  74
ENDBRANCH  72  73
ENDBRANCH  71  72
ENDBRANCH  70  71
ENDBRANCH   1  70
TORSDOF 17
ENDMDL
