MODEL 1
REMARK VINA RESULT:     -11.6      0.000      0.000
REMARK SMILES Cc1c(Br)c(C)c2c(c1Br)O[C@H](C(F)(F)F)C(C(=O)OCCOCCOC(=O)c1ccc(-c3c4nc(c(-c5cc(S(=O)(=O)[O-])ccc5F)c5ccc([nH]5)c(-c5cc(S(=O)(=O)[O-])ccc5F)c5nc(c(-c6cc(S(=O)(=O)[O-])ccc6F)c6ccc3[nH]6)C=C5)C=C4)cc1)=C2
REMARK SMILES IDX 24 1 23 2 22 3 21 4 20 5 18 6 19 7 17 8 1 9 2 10 3 11 9 12
REMARK SMILES IDX 4 13 5 14 8 15 10 16 6 17 7 18 11 19 92 20 12 21 13 22 14 23
REMARK SMILES IDX 15 24 16 25 25 26 26 27 27 28 28 29 29 30 30 31 91 32 31 33
REMARK SMILES IDX 90 34 32 35 33 36 34 37 84 38 35 39 89 40 83 41 85 42 36 43
REMARK SMILES IDX 88 44 82 45 81 46 37 48 69 49 49 50 68 51 50 52 53 53 67 54
REMARK SMILES IDX 86 55 51 56 52 57 66 59 87 60 54 61 38 62 39 63 47 64 40 65
REMARK SMILES IDX 46 66 48 67 45 68 41 69 42 70 43 71 44 72 70 73 71 74 79 75
REMARK SMILES IDX 72 76 78 77 80 78 77 79 73 80 74 81 75 82 76 83 55 84 56 85
REMARK SMILES IDX 64 86 57 87 63 88 65 89 62 90 58 91 59 92 60 93 61 94
REMARK H PARENT 85 47 53 58
REMARK Flexibility Score: inf
ROOT
ATOM      1  C   UNL A   1      31.123  29.093  24.604  1.00  0.00     0.202 C 
ENDROOT
BRANCH   1   2
ATOM      2  O   UNL A   1      31.781  28.908  23.351  1.00  0.00    -0.374 OA
BRANCH   2   3
ATOM      3  C   UNL A   1      33.132  28.446  23.367  1.00  0.00     0.202 C 
BRANCH   3   4
ATOM      4  C   UNL A   1      33.345  26.931  23.462  1.00  0.00     0.261 C 
BRANCH   4   5
ATOM      5  O   UNL A   1      34.144  26.576  24.601  1.00  0.00    -0.460 OA
BRANCH   5   6
ATOM      6  C   UNL A   1      33.442  26.089  25.648  1.00  0.00     0.338 C 
ATOM      7  O   UNL A   1      32.705  26.713  26.398  1.00  0.00    -0.246 OA
BRANCH   6   8
ATOM      8  C   UNL A   1      33.572  24.620  25.699  1.00  0.00     0.087 C 
ATOM      9  C   UNL A   1      35.500  18.513  24.594  1.00  0.00     0.047 C 
ATOM     10  C   UNL A   1      35.371  19.962  25.001  1.00  0.00    -0.019 A 
ATOM     11  C   UNL A   1      36.501  20.799  25.170  1.00  0.00     0.025 A 
ATOM     12  C   UNL A   1      34.094  20.509  25.256  1.00  0.00     0.064 A 
ATOM     13  Br  UNL A   1      38.258  20.043  25.000  1.00  0.00    -0.050 Br
ATOM     14  C   UNL A   1      36.358  22.175  25.468  1.00  0.00    -0.026 A 
ATOM     15  C   UNL A   1      33.932  21.876  25.533  1.00  0.00     0.142 A 
ATOM     16  Br  UNL A   1      32.531  19.400  25.216  1.00  0.00    -0.046 Br
ATOM     17  C   UNL A   1      37.545  23.097  25.660  1.00  0.00     0.046 C 
ATOM     18  C   UNL A   1      35.051  22.716  25.585  1.00  0.00     0.022 A 
ATOM     19  O   UNL A   1      32.659  22.325  25.773  1.00  0.00    -0.474 OA
ATOM     20  C   UNL A   1      34.826  24.153  25.702  1.00  0.00     0.027 C 
ATOM     21  C   UNL A   1      32.360  23.744  25.709  1.00  0.00     0.316 C 
BRANCH  21  22
ATOM     22  C   UNL A   1      31.430  23.999  24.514  1.00  0.00     0.430 C 
ATOM     23  F   UNL A   1      32.122  24.038  23.352  1.00  0.00    -0.167 F 
ATOM     24  F   UNL A   1      30.500  23.025  24.387  1.00  0.00    -0.167 F 
ATOM     25  F   UNL A   1      30.772  25.175  24.635  1.00  0.00    -0.167 F 
ENDBRANCH  21  22
ENDBRANCH   6   8
ENDBRANCH   5   6
ENDBRANCH   4   5
ENDBRANCH   3   4
ENDBRANCH   2   3
ENDBRANCH   1   2
BRANCH   1  26
ATOM     26  C   UNL A   1      31.402  30.385  25.382  1.00  0.00     0.261 C 
BRANCH  26  27
ATOM     27  O   UNL A   1      32.272  30.179  26.510  1.00  0.00    -0.460 OA
BRANCH  27  28
ATOM     28  C   UNL A   1      32.818  31.310  27.018  1.00  0.00     0.338 C 
ATOM     29  O   UNL A   1      32.278  32.404  27.124  1.00  0.00    -0.246 OA
BRANCH  28  30
ATOM     30  C   UNL A   1      34.127  31.007  27.620  1.00  0.00     0.060 A 
ATOM     31  C   UNL A   1      34.466  29.662  27.807  1.00  0.00     0.016 A 
ATOM     32  C   UNL A   1      34.979  32.024  28.058  1.00  0.00     0.016 A 
ATOM     33  C   UNL A   1      35.650  29.326  28.459  1.00  0.00     0.010 A 
ATOM     34  C   UNL A   1      36.163  31.682  28.723  1.00  0.00     0.010 A 
ATOM     35  C   UNL A   1      36.492  30.334  28.948  1.00  0.00    -0.014 A 
BRANCH  35  36
ATOM     36  C   UNL A   1      37.654  29.968  29.794  1.00  0.00     0.031 A 
ATOM     37  C   UNL A   1      38.738  29.099  29.217  1.00  0.00     0.074 A 
ATOM     38  C   UNL A   1      37.767  30.455  31.044  1.00  0.00     0.049 A 
ATOM     39  N   UNL A   1      39.831  28.657  29.781  1.00  0.00    -0.248 NA
ATOM     40  C   UNL A   1      38.568  28.676  27.817  1.00  0.00     0.031 C 
ATOM     41  C   UNL A   1      36.810  31.354  31.687  1.00  0.00     0.029 A 
ATOM     42  N   UNL A   1      38.744  30.274  31.991  1.00  0.00    -0.354 N 
ATOM     43  C   UNL A   1      40.487  27.916  28.805  1.00  0.00     0.074 A 
ATOM     44  C   UNL A   1      39.648  27.932  27.627  1.00  0.00     0.031 C 
ATOM     45  C   UNL A   1      37.255  31.659  32.918  1.00  0.00     0.029 A 
ATOM     46  C   UNL A   1      38.508  30.947  33.166  1.00  0.00     0.049 A 
ATOM     47  H   UNL A   1      39.540  29.714  31.842  1.00  0.00     0.167 HD
ATOM     48  C   UNL A   1      41.689  27.294  28.882  1.00  0.00     0.034 A 
ATOM     49  C   UNL A   1      39.215  30.977  34.315  1.00  0.00     0.034 A 
ATOM     50  C   UNL A   1      42.514  27.280  30.062  1.00  0.00     0.049 A 
ATOM     51  C   UNL A   1      40.495  30.186  34.411  1.00  0.00     0.074 A 
ATOM     52  C   UNL A   1      43.743  26.668  30.244  1.00  0.00     0.029 A 
ATOM     53  N   UNL A   1      42.198  27.903  31.261  1.00  0.00    -0.354 N 
ATOM     54  N   UNL A   1      41.084  29.459  33.490  1.00  0.00    -0.248 NA
ATOM     55  C   UNL A   1      41.205  30.216  35.698  1.00  0.00     0.031 C 
ATOM     56  C   UNL A   1      44.140  26.870  31.568  1.00  0.00     0.029 A 
ATOM     57  C   UNL A   1      43.195  27.669  32.192  1.00  0.00     0.049 A 
ATOM     58  H   UNL A   1      41.386  28.435  31.424  1.00  0.00     0.167 HD
ATOM     59  C   UNL A   1      42.249  28.972  34.077  1.00  0.00     0.074 A 
ATOM     60  C   UNL A   1      42.279  29.483  35.431  1.00  0.00     0.031 C 
ATOM     61  C   UNL A   1      43.210  28.182  33.540  1.00  0.00     0.034 A 
BRANCH  48  62
ATOM     62  C   UNL A   1      42.176  26.556  27.664  1.00  0.00     0.023 A 
ATOM     63  C   UNL A   1      41.987  25.171  27.525  1.00  0.00     0.031 A 
ATOM     64  C   UNL A   1      42.799  27.251  26.614  1.00  0.00     0.131 A 
ATOM     65  C   UNL A   1      42.446  24.518  26.371  1.00  0.00     0.055 A 
ATOM     66  C   UNL A   1      43.199  26.606  25.444  1.00  0.00     0.041 A 
ATOM     67  F   UNL A   1      43.019  28.572  26.706  1.00  0.00    -0.206 F 
ATOM     68  C   UNL A   1      43.027  25.230  25.319  1.00  0.00     0.022 A 
BRANCH  65  69
ATOM     69  S   UNL A   1      42.329  22.711  26.289  1.00  0.00     0.124 S 
ATOM     70  O   UNL A   1      43.030  22.316  27.508  1.00  0.00    -0.237 OA
ATOM     71  O   UNL A   1      40.887  22.485  26.279  1.00  0.00    -0.237 OA
ATOM     72  O   UNL A   1      43.019  22.379  25.044  1.00  0.00    -0.744 OA
ENDBRANCH  65  69
ENDBRANCH  48  62
BRANCH  49  73
ATOM     73  C   UNL A   1      38.723  31.770  35.475  1.00  0.00     0.023 A 
ATOM     74  C   UNL A   1      38.149  31.139  36.590  1.00  0.00     0.031 A 
ATOM     75  C   UNL A   1      38.803  33.174  35.478  1.00  0.00     0.131 A 
ATOM     76  C   UNL A   1      37.654  31.912  37.652  1.00  0.00     0.055 A 
ATOM     77  C   UNL A   1      38.348  33.937  36.555  1.00  0.00     0.041 A 
ATOM     78  F   UNL A   1      39.344  33.824  34.436  1.00  0.00    -0.206 F 
ATOM     79  C   UNL A   1      37.762  33.305  37.647  1.00  0.00     0.022 A 
BRANCH  76  80
ATOM     80  S   UNL A   1      36.824  31.071  39.028  1.00  0.00     0.124 S 
ATOM     81  O   UNL A   1      35.608  31.864  39.169  1.00  0.00    -0.237 OA
ATOM     82  O   UNL A   1      36.655  29.721  38.501  1.00  0.00    -0.237 OA
ATOM     83  O   UNL A   1      37.780  31.192  40.126  1.00  0.00    -0.744 OA
ENDBRANCH  76  80
ENDBRANCH  49  73
BRANCH  61  84
ATOM     84  C   UNL A   1      44.403  27.845  34.396  1.00  0.00     0.023 A 
ATOM     85  C   UNL A   1      44.416  26.717  35.231  1.00  0.00     0.031 A 
ATOM     86  C   UNL A   1      45.569  28.628  34.313  1.00  0.00     0.131 A 
ATOM     87  C   UNL A   1      45.569  26.409  35.967  1.00  0.00     0.055 A 
ATOM     88  C   UNL A   1      46.727  28.293  35.014  1.00  0.00     0.041 A 
ATOM     89  F   UNL A   1      45.608  29.713  33.524  1.00  0.00    -0.206 F 
ATOM     90  C   UNL A   1      46.731  27.180  35.849  1.00  0.00     0.022 A 
BRANCH  87  91
ATOM     91  S   UNL A   1      45.533  24.993  37.098  1.00  0.00     0.124 S 
ATOM     92  O   UNL A   1      44.596  24.097  36.430  1.00  0.00    -0.237 OA
ATOM     93  O   UNL A   1      46.928  24.561  37.109  1.00  0.00    -0.237 OA
ATOM     94  O   UNL A   1      45.055  25.567  38.354  1.00  0.00    -0.744 OA
ENDBRANCH  87  91
ENDBRANCH  61  84
ENDBRANCH  35  36
ENDBRANCH  28  30
ENDBRANCH  27  28
ENDBRANCH  26  27
ENDBRANCH   1  26
TORSDOF 18
ENDMDL
MODEL 2
REMARK VINA RESULT:     -11.5      5.180     10.328
REMARK SMILES Cc1c(Br)c(C)c2c(c1Br)O[C@H](C(F)(F)F)C(C(=O)OCCOCCOC(=O)c1ccc(-c3c4nc(c(-c5cc(S(=O)(=O)[O-])ccc5F)c5ccc([nH]5)c(-c5cc(S(=O)(=O)[O-])ccc5F)c5nc(c(-c6cc(S(=O)(=O)[O-])ccc6F)c6ccc3[nH]6)C=C5)C=C4)cc1)=C2
REMARK SMILES IDX 24 1 23 2 22 3 21 4 20 5 18 6 19 7 17 8 1 9 2 10 3 11 9 12
REMARK SMILES IDX 4 13 5 14 8 15 10 16 6 17 7 18 11 19 92 20 12 21 13 22 14 23
REMARK SMILES IDX 15 24 16 25 25 26 26 27 27 28 28 29 29 30 30 31 91 32 31 33
REMARK SMILES IDX 90 34 32 35 33 36 34 37 84 38 35 39 89 40 83 41 85 42 36 43
REMARK SMILES IDX 88 44 82 45 81 46 37 48 69 49 49 50 68 51 50 52 53 53 67 54
REMARK SMILES IDX 86 55 51 56 52 57 66 59 87 60 54 61 38 62 39 63 47 64 40 65
REMARK SMILES IDX 46 66 48 67 45 68 41 69 42 70 43 71 44 72 70 73 71 74 79 75
REMARK SMILES IDX 72 76 78 77 80 78 77 79 73 80 74 81 75 82 76 83 55 84 56 85
REMARK SMILES IDX 64 86 57 87 63 88 65 89 62 90 58 91 59 92 60 93 61 94
REMARK H PARENT 85 47 53 58
REMARK Flexibility Score: inf
ROOT
ATOM      1  C   UNL A   1      34.663  20.533  25.024  1.00  0.00     0.202 C 
ENDROOT
BRANCH   1   2
ATOM      2  O   UNL A   1      33.892  20.993  26.134  1.00  0.00    -0.374 OA
BRANCH   2   3
ATOM      3  C   UNL A   1      32.784  21.853  25.869  1.00  0.00     0.202 C 
BRANCH   3   4
ATOM      4  C   UNL A   1      32.860  23.275  26.436  1.00  0.00     0.261 C 
BRANCH   4   5
ATOM      5  O   UNL A   1      33.879  24.053  25.788  1.00  0.00    -0.460 OA
BRANCH   5   6
ATOM      6  C   UNL A   1      33.604  24.380  24.506  1.00  0.00     0.338 C 
ATOM      7  O   UNL A   1      33.656  23.646  23.529  1.00  0.00    -0.246 OA
BRANCH   6   8
ATOM      8  C   UNL A   1      33.080  25.758  24.441  1.00  0.00     0.087 C 
ATOM      9  C   UNL A   1      31.023  31.704  26.068  1.00  0.00     0.047 C 
ATOM     10  C   UNL A   1      31.817  30.451  25.784  1.00  0.00    -0.019 A 
ATOM     11  C   UNL A   1      33.036  30.167  26.447  1.00  0.00     0.025 A 
ATOM     12  C   UNL A   1      31.363  29.538  24.807  1.00  0.00     0.064 A 
ATOM     13  Br  UNL A   1      33.770  31.467  27.654  1.00  0.00    -0.050 Br
ATOM     14  C   UNL A   1      33.723  28.947  26.231  1.00  0.00    -0.026 A 
ATOM     15  C   UNL A   1      32.021  28.315  24.594  1.00  0.00     0.142 A 
ATOM     16  Br  UNL A   1      29.816  29.933  23.746  1.00  0.00    -0.046 Br
ATOM     17  C   UNL A   1      35.030  28.613  26.920  1.00  0.00     0.046 C 
ATOM     18  C   UNL A   1      33.162  27.997  25.340  1.00  0.00     0.022 A 
ATOM     19  O   UNL A   1      31.517  27.488  23.624  1.00  0.00    -0.474 OA
ATOM     20  C   UNL A   1      33.711  26.650  25.213  1.00  0.00     0.027 C 
ATOM     21  C   UNL A   1      31.898  26.088  23.586  1.00  0.00     0.316 C 
BRANCH  21  22
ATOM     22  C   UNL A   1      30.667  25.231  23.913  1.00  0.00     0.430 C 
ATOM     23  F   UNL A   1      30.581  24.982  25.241  1.00  0.00    -0.167 F 
ATOM     24  F   UNL A   1      29.518  25.847  23.552  1.00  0.00    -0.167 F 
ATOM     25  F   UNL A   1      30.705  24.038  23.277  1.00  0.00    -0.167 F 
ENDBRANCH  21  22
ENDBRANCH   6   8
ENDBRANCH   5   6
ENDBRANCH   4   5
ENDBRANCH   3   4
ENDBRANCH   2   3
ENDBRANCH   1   2
BRANCH   1  26
ATOM     26  C   UNL A   1      35.952  21.289  24.678  1.00  0.00     0.261 C 
BRANCH  26  27
ATOM     27  O   UNL A   1      36.707  21.662  25.845  1.00  0.00    -0.460 OA
BRANCH  27  28
ATOM     28  C   UNL A   1      38.045  21.472  25.738  1.00  0.00     0.338 C 
ATOM     29  O   UNL A   1      38.613  20.563  25.147  1.00  0.00    -0.246 OA
BRANCH  28  30
ATOM     30  C   UNL A   1      38.760  22.638  26.283  1.00  0.00     0.060 A 
ATOM     31  C   UNL A   1      38.194  23.903  26.090  1.00  0.00     0.016 A 
ATOM     32  C   UNL A   1      40.001  22.502  26.911  1.00  0.00     0.016 A 
ATOM     33  C   UNL A   1      38.879  25.043  26.502  1.00  0.00     0.010 A 
ATOM     34  C   UNL A   1      40.692  23.650  27.313  1.00  0.00     0.010 A 
ATOM     35  C   UNL A   1      40.147  24.927  27.089  1.00  0.00    -0.014 A 
BRANCH  35  36
ATOM     36  C   UNL A   1      40.942  26.149  27.358  1.00  0.00     0.031 A 
ATOM     37  C   UNL A   1      40.363  27.222  28.240  1.00  0.00     0.074 A 
ATOM     38  C   UNL A   1      42.189  26.273  26.868  1.00  0.00     0.049 A 
ATOM     39  N   UNL A   1      40.883  28.366  28.599  1.00  0.00    -0.248 NA
ATOM     40  C   UNL A   1      39.024  26.968  28.795  1.00  0.00     0.031 C 
ATOM     41  C   UNL A   1      42.876  25.272  26.052  1.00  0.00     0.029 A 
ATOM     42  N   UNL A   1      43.106  27.286  26.997  1.00  0.00    -0.354 N 
ATOM     43  C   UNL A   1      39.943  28.965  29.430  1.00  0.00     0.074 A 
ATOM     44  C   UNL A   1      38.803  28.076  29.489  1.00  0.00     0.031 C 
ATOM     45  C   UNL A   1      44.112  25.715  25.766  1.00  0.00     0.029 A 
ATOM     46  C   UNL A   1      44.292  27.046  26.345  1.00  0.00     0.049 A 
ATOM     47  H   UNL A   1      42.931  28.108  27.510  1.00  0.00     0.167 HD
ATOM     48  C   UNL A   1      40.032  30.141  30.097  1.00  0.00     0.034 A 
ATOM     49  C   UNL A   1      45.393  27.815  26.218  1.00  0.00     0.034 A 
ATOM     50  C   UNL A   1      41.170  31.022  30.028  1.00  0.00     0.049 A 
ATOM     51  C   UNL A   1      45.423  29.170  26.881  1.00  0.00     0.074 A 
ATOM     52  C   UNL A   1      41.351  32.241  30.658  1.00  0.00     0.029 A 
ATOM     53  N   UNL A   1      42.317  30.781  29.287  1.00  0.00    -0.354 N 
ATOM     54  N   UNL A   1      44.511  29.737  27.635  1.00  0.00    -0.248 NA
ATOM     55  C   UNL A   1      46.628  29.988  26.677  1.00  0.00     0.031 C 
ATOM     56  C   UNL A   1      42.580  32.765  30.250  1.00  0.00     0.029 A 
ATOM     57  C   UNL A   1      43.198  31.840  29.424  1.00  0.00     0.049 A 
ATOM     58  H   UNL A   1      42.482  29.976  28.745  1.00  0.00     0.167 HD
ATOM     59  C   UNL A   1      45.045  30.965  28.019  1.00  0.00     0.074 A 
ATOM     60  C   UNL A   1      46.356  31.058  27.413  1.00  0.00     0.031 C 
ATOM     61  C   UNL A   1      44.501  31.922  28.810  1.00  0.00     0.034 A 
BRANCH  48  62
ATOM     62  C   UNL A   1      38.859  30.559  30.943  1.00  0.00     0.023 A 
ATOM     63  C   UNL A   1      37.940  31.521  30.494  1.00  0.00     0.031 A 
ATOM     64  C   UNL A   1      38.636  29.959  32.194  1.00  0.00     0.131 A 
ATOM     65  C   UNL A   1      36.853  31.878  31.306  1.00  0.00     0.055 A 
ATOM     66  C   UNL A   1      37.521  30.275  32.970  1.00  0.00     0.041 A 
ATOM     67  F   UNL A   1      39.495  29.047  32.676  1.00  0.00    -0.206 F 
ATOM     68  C   UNL A   1      36.624  31.243  32.529  1.00  0.00     0.022 A 
BRANCH  65  69
ATOM     69  S   UNL A   1      35.774  33.232  30.769  1.00  0.00     0.124 S 
ATOM     70  O   UNL A   1      36.090  34.266  31.751  1.00  0.00    -0.237 OA
ATOM     71  O   UNL A   1      36.232  33.484  29.407  1.00  0.00    -0.237 OA
ATOM     72  O   UNL A   1      34.432  32.665  30.879  1.00  0.00    -0.744 OA
ENDBRANCH  65  69
ENDBRANCH  48  62
BRANCH  49  73
ATOM     73  C   UNL A   1      46.554  27.335  25.419  1.00  0.00     0.023 A 
ATOM     74  C   UNL A   1      46.780  27.806  24.116  1.00  0.00     0.031 A 
ATOM     75  C   UNL A   1      47.446  26.381  25.940  1.00  0.00     0.131 A 
ATOM     76  C   UNL A   1      47.856  27.305  23.368  1.00  0.00     0.055 A 
ATOM     77  C   UNL A   1      48.541  25.916  25.209  1.00  0.00     0.041 A 
ATOM     78  F   UNL A   1      47.275  25.900  27.182  1.00  0.00    -0.206 F 
ATOM     79  C   UNL A   1      48.745  26.373  23.911  1.00  0.00     0.022 A 
BRANCH  76  80
ATOM     80  S   UNL A   1      48.056  27.857  21.653  1.00  0.00     0.124 S 
ATOM     81  O   UNL A   1      49.201  28.754  21.763  1.00  0.00    -0.237 OA
ATOM     82  O   UNL A   1      48.289  26.599  20.953  1.00  0.00    -0.237 OA
ATOM     83  O   UNL A   1      46.781  28.506  21.353  1.00  0.00    -0.744 OA
ENDBRANCH  76  80
ENDBRANCH  49  73
BRANCH  61  84
ATOM     84  C   UNL A   1      45.331  33.143  29.106  1.00  0.00     0.023 A 
ATOM     85  C   UNL A   1      45.162  34.340  28.392  1.00  0.00     0.031 A 
ATOM     86  C   UNL A   1      46.252  33.125  30.170  1.00  0.00     0.131 A 
ATOM     87  C   UNL A   1      45.916  35.470  28.740  1.00  0.00     0.055 A 
ATOM     88  C   UNL A   1      46.967  34.264  30.539  1.00  0.00     0.041 A 
ATOM     89  F   UNL A   1      46.444  32.007  30.887  1.00  0.00    -0.206 F 
ATOM     90  C   UNL A   1      46.804  35.444  29.821  1.00  0.00     0.022 A 
BRANCH  87  91
ATOM     91  S   UNL A   1      45.736  36.979  27.751  1.00  0.00     0.124 S 
ATOM     92  O   UNL A   1      45.074  37.878  28.691  1.00  0.00    -0.237 OA
ATOM     93  O   UNL A   1      47.120  37.309  27.423  1.00  0.00    -0.237 OA
ATOM     94  O   UNL A   1      44.918  36.554  26.618  1.00  0.00    -0.744 OA
ENDBRANCH  87  91
ENDBRANCH  61  84
ENDBRANCH  35  36
ENDBRANCH  28  30
ENDBRANCH  27  28
ENDBRANCH  26  27
ENDBRANCH   1  26
TORSDOF 18
ENDMDL
MODEL 3
REMARK VINA RESULT:     -11.5      1.044      7.488
REMARK SMILES Cc1c(Br)c(C)c2c(c1Br)O[C@H](C(F)(F)F)C(C(=O)OCCOCCOC(=O)c1ccc(-c3c4nc(c(-c5cc(S(=O)(=O)[O-])ccc5F)c5ccc([nH]5)c(-c5cc(S(=O)(=O)[O-])ccc5F)c5nc(c(-c6cc(S(=O)(=O)[O-])ccc6F)c6ccc3[nH]6)C=C5)C=C4)cc1)=C2
REMARK SMILES IDX 24 1 23 2 22 3 21 4 20 5 18 6 19 7 17 8 1 9 2 10 3 11 9 12
REMARK SMILES IDX 4 13 5 14 8 15 10 16 6 17 7 18 11 19 92 20 12 21 13 22 14 23
REMARK SMILES IDX 15 24 16 25 25 26 26 27 27 28 28 29 29 30 30 31 91 32 31 33
REMARK SMILES IDX 90 34 32 35 33 36 34 37 84 38 35 39 89 40 83 41 85 42 36 43
REMARK SMILES IDX 88 44 82 45 81 46 37 48 69 49 49 50 68 51 50 52 53 53 67 54
REMARK SMILES IDX 86 55 51 56 52 57 66 59 87 60 54 61 38 62 39 63 47 64 40 65
REMARK SMILES IDX 46 66 48 67 45 68 41 69 42 70 43 71 44 72 70 73 71 74 79 75
REMARK SMILES IDX 72 76 78 77 80 78 77 79 73 80 74 81 75 82 76 83 55 84 56 85
REMARK SMILES IDX 64 86 57 87 63 88 65 89 62 90 58 91 59 92 60 93 61 94
REMARK H PARENT 85 47 53 58
REMARK Flexibility Score: inf
ROOT
ATOM      1  C   UNL A   1      31.616  31.288  26.388  1.00  0.00     0.202 C 
ENDROOT
BRANCH   1   2
ATOM      2  O   UNL A   1      32.145  30.334  27.308  1.00  0.00    -0.374 OA
BRANCH   2   3
ATOM      3  C   UNL A   1      31.750  28.970  27.159  1.00  0.00     0.202 C 
BRANCH   3   4
ATOM      4  C   UNL A   1      31.663  28.425  25.730  1.00  0.00     0.261 C 
BRANCH   4   5
ATOM      5  O   UNL A   1      31.864  27.004  25.688  1.00  0.00    -0.460 OA
BRANCH   5   6
ATOM      6  C   UNL A   1      32.893  26.605  24.907  1.00  0.00     0.338 C 
ATOM      7  O   UNL A   1      33.635  27.317  24.245  1.00  0.00    -0.246 OA
BRANCH   6   8
ATOM      8  C   UNL A   1      33.107  25.154  25.060  1.00  0.00     0.087 C 
ATOM      9  C   UNL A   1      35.588  19.162  24.638  1.00  0.00     0.047 C 
ATOM     10  C   UNL A   1      35.297  20.614  24.936  1.00  0.00    -0.019 A 
ATOM     11  C   UNL A   1      36.325  21.538  25.247  1.00  0.00     0.025 A 
ATOM     12  C   UNL A   1      33.963  21.077  24.941  1.00  0.00     0.064 A 
ATOM     13  Br  UNL A   1      38.130  20.907  25.418  1.00  0.00    -0.050 Br
ATOM     14  C   UNL A   1      36.044  22.912  25.440  1.00  0.00    -0.026 A 
ATOM     15  C   UNL A   1      33.667  22.439  25.110  1.00  0.00     0.142 A 
ATOM     16  Br  UNL A   1      32.505  19.855  24.699  1.00  0.00    -0.046 Br
ATOM     17  C   UNL A   1      37.117  23.926  25.777  1.00  0.00     0.046 C 
ATOM     18  C   UNL A   1      34.704  23.360  25.304  1.00  0.00     0.022 A 
ATOM     19  O   UNL A   1      32.346  22.804  25.107  1.00  0.00    -0.474 OA
ATOM     20  C   UNL A   1      34.370  24.781  25.301  1.00  0.00     0.027 C 
ATOM     21  C   UNL A   1      31.971  24.193  24.914  1.00  0.00     0.316 C 
BRANCH  21  22
ATOM     22  C   UNL A   1      31.246  24.326  23.567  1.00  0.00     0.430 C 
ATOM     23  F   UNL A   1      32.111  24.632  22.572  1.00  0.00    -0.167 F 
ATOM     24  F   UNL A   1      30.629  23.175  23.214  1.00  0.00    -0.167 F 
ATOM     25  F   UNL A   1      30.305  25.298  23.600  1.00  0.00    -0.167 F 
ENDBRANCH  21  22
ENDBRANCH   6   8
ENDBRANCH   5   6
ENDBRANCH   4   5
ENDBRANCH   3   4
ENDBRANCH   2   3
ENDBRANCH   1   2
BRANCH   1  26
ATOM     26  C   UNL A   1      31.824  32.777  26.693  1.00  0.00     0.261 C 
BRANCH  26  27
ATOM     27  O   UNL A   1      32.472  32.999  27.958  1.00  0.00    -0.460 OA
BRANCH  27  28
ATOM     28  C   UNL A   1      33.538  33.836  27.908  1.00  0.00     0.338 C 
ATOM     29  O   UNL A   1      33.515  35.045  27.716  1.00  0.00    -0.246 OA
BRANCH  28  30
ATOM     30  C   UNL A   1      34.757  33.117  28.313  1.00  0.00     0.060 A 
ATOM     31  C   UNL A   1      34.618  31.809  28.792  1.00  0.00     0.016 A 
ATOM     32  C   UNL A   1      36.009  33.737  28.289  1.00  0.00     0.016 A 
ATOM     33  C   UNL A   1      35.729  31.123  29.276  1.00  0.00     0.010 A 
ATOM     34  C   UNL A   1      37.121  33.048  28.787  1.00  0.00     0.010 A 
ATOM     35  C   UNL A   1      36.983  31.748  29.305  1.00  0.00    -0.014 A 
BRANCH  35  36
ATOM     36  C   UNL A   1      38.118  31.079  29.985  1.00  0.00     0.031 A 
ATOM     37  C   UNL A   1      38.390  31.384  31.433  1.00  0.00     0.074 A 
ATOM     38  C   UNL A   1      38.860  30.165  29.333  1.00  0.00     0.049 A 
ATOM     39  N   UNL A   1      39.329  30.917  32.213  1.00  0.00    -0.248 NA
ATOM     40  C   UNL A   1      37.480  32.337  32.088  1.00  0.00     0.031 C 
ATOM     41  C   UNL A   1      38.651  29.745  27.947  1.00  0.00     0.029 A 
ATOM     42  N   UNL A   1      39.930  29.415  29.752  1.00  0.00    -0.354 N 
ATOM     43  C   UNL A   1      39.118  31.508  33.454  1.00  0.00     0.074 A 
ATOM     44  C   UNL A   1      37.988  32.400  33.311  1.00  0.00     0.031 C 
ATOM     45  C   UNL A   1      39.555  28.800  27.636  1.00  0.00     0.029 A 
ATOM     46  C   UNL A   1      40.431  28.575  28.785  1.00  0.00     0.049 A 
ATOM     47  H   UNL A   1      40.304  29.473  30.661  1.00  0.00     0.167 HD
ATOM     48  C   UNL A   1      39.796  31.310  34.611  1.00  0.00     0.034 A 
ATOM     49  C   UNL A   1      41.482  27.731  28.818  1.00  0.00     0.034 A 
ATOM     50  C   UNL A   1      40.924  30.424  34.741  1.00  0.00     0.049 A 
ATOM     51  C   UNL A   1      42.289  27.611  30.088  1.00  0.00     0.074 A 
ATOM     52  C   UNL A   1      41.685  30.163  35.868  1.00  0.00     0.029 A 
ATOM     53  N   UNL A   1      41.453  29.654  33.715  1.00  0.00    -0.354 N 
ATOM     54  N   UNL A   1      42.098  28.204  31.243  1.00  0.00    -0.248 NA
ATOM     55  C   UNL A   1      43.451  26.711  30.059  1.00  0.00     0.031 C 
ATOM     56  C   UNL A   1      42.710  29.284  35.508  1.00  0.00     0.029 A 
ATOM     57  C   UNL A   1      42.546  28.940  34.176  1.00  0.00     0.049 A 
ATOM     58  H   UNL A   1      41.103  29.621  32.795  1.00  0.00     0.167 HD
ATOM     59  C   UNL A   1      43.098  27.726  32.086  1.00  0.00     0.074 A 
ATOM     60  C   UNL A   1      43.891  26.797  31.308  1.00  0.00     0.031 C 
ATOM     61  C   UNL A   1      43.330  28.021  33.388  1.00  0.00     0.034 A 
BRANCH  48  62
ATOM     62  C   UNL A   1      39.354  32.082  35.824  1.00  0.00     0.023 A 
ATOM     63  C   UNL A   1      38.520  31.502  36.795  1.00  0.00     0.031 A 
ATOM     64  C   UNL A   1      39.803  33.397  36.032  1.00  0.00     0.131 A 
ATOM     65  C   UNL A   1      38.136  32.250  37.919  1.00  0.00     0.055 A 
ATOM     66  C   UNL A   1      39.465  34.114  37.181  1.00  0.00     0.041 A 
ATOM     67  F   UNL A   1      40.585  34.002  35.125  1.00  0.00    -0.206 F 
ATOM     68  C   UNL A   1      38.624  33.542  38.130  1.00  0.00     0.022 A 
BRANCH  65  69
ATOM     69  S   UNL A   1      36.937  31.532  39.073  1.00  0.00     0.124 S 
ATOM     70  O   UNL A   1      36.749  30.198  38.510  1.00  0.00    -0.237 OA
ATOM     71  O   UNL A   1      37.646  31.592  40.347  1.00  0.00    -0.237 OA
ATOM     72  O   UNL A   1      35.781  32.419  38.961  1.00  0.00    -0.744 OA
ENDBRANCH  65  69
ENDBRANCH  48  62
BRANCH  49  73
ATOM     73  C   UNL A   1      41.848  26.942  27.609  1.00  0.00     0.023 A 
ATOM     74  C   UNL A   1      41.699  25.547  27.584  1.00  0.00     0.031 A 
ATOM     75  C   UNL A   1      42.370  27.572  26.465  1.00  0.00     0.131 A 
ATOM     76  C   UNL A   1      42.093  24.823  26.448  1.00  0.00     0.055 A 
ATOM     77  C   UNL A   1      42.720  26.853  25.322  1.00  0.00     0.041 A 
ATOM     78  F   UNL A   1      42.530  28.905  26.439  1.00  0.00    -0.206 F 
ATOM     79  C   UNL A   1      42.589  25.468  25.312  1.00  0.00     0.022 A 
BRANCH  76  80
ATOM     80  S   UNL A   1      41.985  23.013  26.490  1.00  0.00     0.124 S 
ATOM     81  O   UNL A   1      43.003  22.680  27.480  1.00  0.00    -0.237 OA
ATOM     82  O   UNL A   1      40.601  22.800  26.893  1.00  0.00    -0.237 OA
ATOM     83  O   UNL A   1      42.298  22.622  25.117  1.00  0.00    -0.744 OA
ENDBRANCH  76  80
ENDBRANCH  49  73
BRANCH  61  84
ATOM     84  C   UNL A   1      44.463  27.309  34.079  1.00  0.00     0.023 A 
ATOM     85  C   UNL A   1      44.308  26.017  34.607  1.00  0.00     0.031 A 
ATOM     86  C   UNL A   1      45.735  27.907  34.140  1.00  0.00     0.131 A 
ATOM     87  C   UNL A   1      45.406  25.369  35.191  1.00  0.00     0.055 A 
ATOM     88  C   UNL A   1      46.833  27.241  34.683  1.00  0.00     0.041 A 
ATOM     89  F   UNL A   1      45.934  29.138  33.643  1.00  0.00    -0.206 F 
ATOM     90  C   UNL A   1      46.671  25.965  35.215  1.00  0.00     0.022 A 
BRANCH  87  91
ATOM     91  S   UNL A   1      45.161  23.734  35.936  1.00  0.00     0.124 S 
ATOM     92  O   UNL A   1      46.059  22.903  35.141  1.00  0.00    -0.237 OA
ATOM     93  O   UNL A   1      45.560  23.955  37.323  1.00  0.00    -0.237 OA
ATOM     94  O   UNL A   1      43.737  23.474  35.738  1.00  0.00    -0.744 OA
ENDBRANCH  87  91
ENDBRANCH  61  84
ENDBRANCH  35  36
ENDBRANCH  28  30
ENDBRANCH  27  28
ENDBRANCH  26  27
ENDBRANCH   1  26
TORSDOF 18
ENDMDL
