MODEL 1
REMARK VINA RESULT:     -10.0      0.000      0.000
REMARK SMILES O=C(OCCOCCOC(=O)c1cc(-c2ccn(C(F)F)c(=O)c2)ccc1O)c1ccc(-c2c3nc(c(-c4cc(S(=O)(=O)[O-])ccc4F)c4ccc([nH]4)c(-c4cc(S(=O)(=O)[O-])ccc4F)c4nc(c(-c5cc(S(=O)(=O)[O-])ccc5F)c5ccc2[nH]5)C=C4)C=C3)cc1
REMARK SMILES IDX 5 1 4 2 3 3 2 4 1 5 29 6 30 7 91 8 31 9 90 10 32 11 33 12
REMARK SMILES IDX 34 13 84 14 35 15 89 16 83 17 85 18 36 19 88 20 82 21 81 22
REMARK SMILES IDX 37 24 69 25 49 26 68 27 50 28 53 29 67 30 86 31 51 32 52 33
REMARK SMILES IDX 66 35 87 36 54 37 38 38 39 39 47 40 40 41 46 42 48 43 45 44
REMARK SMILES IDX 41 45 42 46 43 47 44 48 70 49 71 50 79 51 72 52 78 53 80 54
REMARK SMILES IDX 77 55 73 56 74 57 75 58 76 59 55 60 56 61 64 62 57 63 63 64
REMARK SMILES IDX 65 65 62 66 58 67 59 68 60 69 61 70 6 71 7 72 8 73 9 74
REMARK SMILES IDX 10 75 11 76 12 77 13 78 27 79 14 80 26 81 25 82 28 83 15 85
REMARK SMILES IDX 16 86 24 87 17 88 22 89 18 90 23 91 19 92 20 93 21 94
REMARK H PARENT 85 23 53 34 28 84
REMARK Flexibility Score: inf
ROOT
ATOM      1  C   UNL A   1      41.561  19.794  26.379  1.00  0.00     0.202 C 
ENDROOT
BRANCH   1   2
ATOM      2  C   UNL A   1      41.228  21.268  26.132  1.00  0.00     0.261 C 
BRANCH   2   3
ATOM      3  O   UNL A   1      39.897  21.577  26.564  1.00  0.00    -0.460 OA
BRANCH   3   4
ATOM      4  C   UNL A   1      39.197  22.727  26.436  1.00  0.00     0.338 C 
ATOM      5  O   UNL A   1      38.079  22.643  25.923  1.00  0.00    -0.246 OA
BRANCH   4   6
ATOM      6  C   UNL A   1      39.675  24.098  26.833  1.00  0.00     0.060 A 
ATOM      7  C   UNL A   1      39.500  24.442  28.188  1.00  0.00     0.016 A 
ATOM      8  C   UNL A   1      40.210  25.080  25.993  1.00  0.00     0.016 A 
ATOM      9  C   UNL A   1      39.812  25.718  28.668  1.00  0.00     0.010 A 
ATOM     10  C   UNL A   1      40.521  26.356  26.459  1.00  0.00     0.010 A 
ATOM     11  C   UNL A   1      40.317  26.683  27.795  1.00  0.00    -0.014 A 
BRANCH  11  12
ATOM     12  C   UNL A   1      40.772  28.001  28.270  1.00  0.00     0.031 A 
ATOM     13  C   UNL A   1      42.229  28.302  28.425  1.00  0.00     0.074 A 
ATOM     14  C   UNL A   1      39.822  28.862  28.674  1.00  0.00     0.049 A 
ATOM     15  N   UNL A   1      42.796  29.418  28.793  1.00  0.00    -0.248 NA
ATOM     16  C   UNL A   1      43.174  27.208  28.148  1.00  0.00     0.031 C 
ATOM     17  C   UNL A   1      38.385  28.579  28.654  1.00  0.00     0.029 A 
ATOM     18  N   UNL A   1      39.910  30.120  29.204  1.00  0.00    -0.354 N 
ATOM     19  C   UNL A   1      44.165  29.176  28.770  1.00  0.00     0.074 A 
ATOM     20  C   UNL A   1      44.341  27.787  28.408  1.00  0.00     0.031 C 
ATOM     21  C   UNL A   1      37.725  29.633  29.151  1.00  0.00     0.029 A 
ATOM     22  C   UNL A   1      38.689  30.661  29.528  1.00  0.00     0.049 A 
ATOM     23  H   UNL A   1      40.763  30.591  29.340  1.00  0.00     0.167 HD
ATOM     24  C   UNL A   1      45.166  30.055  29.011  1.00  0.00     0.034 A 
ATOM     25  C   UNL A   1      38.384  31.863  30.055  1.00  0.00     0.034 A 
ATOM     26  C   UNL A   1      44.928  31.423  29.397  1.00  0.00     0.049 A 
ATOM     27  C   UNL A   1      39.510  32.836  30.273  1.00  0.00     0.074 A 
ATOM     28  C   UNL A   1      45.851  32.434  29.594  1.00  0.00     0.029 A 
ATOM     29  N   UNL A   1      43.676  31.971  29.656  1.00  0.00    -0.354 N 
ATOM     30  N   UNL A   1      40.799  32.652  30.094  1.00  0.00    -0.248 NA
ATOM     31  C   UNL A   1      39.155  34.186  30.723  1.00  0.00     0.031 C 
ATOM     32  C   UNL A   1      45.168  33.567  30.035  1.00  0.00     0.029 A 
ATOM     33  C   UNL A   1      43.808  33.296  30.038  1.00  0.00     0.049 A 
ATOM     34  H   UNL A   1      42.822  31.489  29.579  1.00  0.00     0.167 HD
ATOM     35  C   UNL A   1      41.406  33.866  30.384  1.00  0.00     0.074 A 
ATOM     36  C   UNL A   1      40.339  34.786  30.726  1.00  0.00     0.031 C 
ATOM     37  C   UNL A   1      42.724  34.192  30.372  1.00  0.00     0.034 A 
BRANCH  24  38
ATOM     38  C   UNL A   1      46.600  29.611  28.827  1.00  0.00     0.023 A 
ATOM     39  C   UNL A   1      47.057  29.176  27.567  1.00  0.00     0.031 A 
ATOM     40  C   UNL A   1      47.461  29.460  29.929  1.00  0.00     0.131 A 
ATOM     41  C   UNL A   1      48.317  28.569  27.452  1.00  0.00     0.055 A 
ATOM     42  C   UNL A   1      48.732  28.895  29.801  1.00  0.00     0.041 A 
ATOM     43  F   UNL A   1      47.074  29.849  31.155  1.00  0.00    -0.206 F 
ATOM     44  C   UNL A   1      49.158  28.433  28.560  1.00  0.00     0.022 A 
BRANCH  41  45
ATOM     45  S   UNL A   1      48.886  27.867  25.877  1.00  0.00     0.124 S 
ATOM     46  O   UNL A   1      47.997  28.520  24.917  1.00  0.00    -0.237 OA
ATOM     47  O   UNL A   1      50.278  28.306  25.834  1.00  0.00    -0.237 OA
ATOM     48  O   UNL A   1      48.678  26.432  26.037  1.00  0.00    -0.744 OA
ENDBRANCH  41  45
ENDBRANCH  24  38
BRANCH  25  49
ATOM     49  C   UNL A   1      36.948  32.207  30.265  1.00  0.00     0.023 A 
ATOM     50  C   UNL A   1      36.201  32.847  29.256  1.00  0.00     0.031 A 
ATOM     51  C   UNL A   1      36.359  32.063  31.532  1.00  0.00     0.131 A 
ATOM     52  C   UNL A   1      34.941  33.381  29.556  1.00  0.00     0.055 A 
ATOM     53  C   UNL A   1      35.075  32.536  31.806  1.00  0.00     0.041 A 
ATOM     54  F   UNL A   1      37.042  31.487  32.532  1.00  0.00    -0.206 F 
ATOM     55  C   UNL A   1      34.368  33.218  30.821  1.00  0.00     0.022 A 
BRANCH  52  56
ATOM     56  S   UNL A   1      34.074  34.447  28.368  1.00  0.00     0.124 S 
ATOM     57  O   UNL A   1      33.780  35.626  29.176  1.00  0.00    -0.237 OA
ATOM     58  O   UNL A   1      35.087  34.629  27.331  1.00  0.00    -0.237 OA
ATOM     59  O   UNL A   1      32.918  33.650  27.970  1.00  0.00    -0.744 OA
ENDBRANCH  52  56
ENDBRANCH  25  49
BRANCH  37  60
ATOM     60  C   UNL A   1      43.110  35.600  30.749  1.00  0.00     0.023 A 
ATOM     61  C   UNL A   1      43.324  36.562  29.742  1.00  0.00     0.031 A 
ATOM     62  C   UNL A   1      43.421  35.941  32.076  1.00  0.00     0.131 A 
ATOM     63  C   UNL A   1      43.877  37.803  30.075  1.00  0.00     0.055 A 
ATOM     64  C   UNL A   1      43.924  37.198  32.409  1.00  0.00     0.041 A 
ATOM     65  F   UNL A   1      43.245  35.052  33.067  1.00  0.00    -0.206 F 
ATOM     66  C   UNL A   1      44.170  38.129  31.404  1.00  0.00     0.022 A 
BRANCH  63  67
ATOM     67  S   UNL A   1      44.330  39.000  28.790  1.00  0.00     0.124 S 
ATOM     68  O   UNL A   1      43.189  39.912  28.812  1.00  0.00    -0.237 OA
ATOM     69  O   UNL A   1      45.579  39.551  29.310  1.00  0.00    -0.237 OA
ATOM     70  O   UNL A   1      44.455  38.191  27.582  1.00  0.00    -0.744 OA
ENDBRANCH  63  67
ENDBRANCH  37  60
ENDBRANCH  11  12
ENDBRANCH   4   6
ENDBRANCH   3   4
ENDBRANCH   2   3
ENDBRANCH   1   2
BRANCH   1  71
ATOM     71  O   UNL A   1      42.325  19.197  25.334  1.00  0.00    -0.374 OA
BRANCH  71  72
ATOM     72  C   UNL A   1      43.576  18.629  25.733  1.00  0.00     0.202 C 
BRANCH  72  73
ATOM     73  C   UNL A   1      44.538  18.580  24.547  1.00  0.00     0.261 C 
BRANCH  73  74
ATOM     74  O   UNL A   1      44.707  19.910  24.037  1.00  0.00    -0.460 OA
BRANCH  74  75
ATOM     75  C   UNL A   1      45.647  20.675  24.647  1.00  0.00     0.342 C 
ATOM     76  O   UNL A   1      46.857  20.521  24.643  1.00  0.00    -0.246 OA
BRANCH  75  77
ATOM     77  C   UNL A   1      44.985  21.913  25.102  1.00  0.00     0.102 A 
ATOM     78  C   UNL A   1      45.107  22.243  26.461  1.00  0.00     0.028 A 
ATOM     79  C   UNL A   1      44.365  22.797  24.215  1.00  0.00     0.130 A 
ATOM     80  C   UNL A   1      44.688  23.496  26.913  1.00  0.00    -0.017 A 
ATOM     81  C   UNL A   1      43.903  24.029  24.673  1.00  0.00     0.048 A 
ATOM     82  C   UNL A   1      44.079  24.381  26.013  1.00  0.00     0.012 A 
BRANCH  79  83
ATOM     83  O   UNL A   1      44.199  22.459  22.904  1.00  0.00    -0.507 OA
ATOM     84  H   UNL A   1      43.380  22.620  22.478  1.00  0.00     0.293 HD
ENDBRANCH  79  83
BRANCH  80  85
ATOM     85  C   UNL A   1      44.905  23.926  28.305  1.00  0.00    -0.011 A 
ATOM     86  C   UNL A   1      43.922  23.722  29.347  1.00  0.00     0.027 A 
ATOM     87  C   UNL A   1      46.026  24.614  28.582  1.00  0.00     0.080 A 
ATOM     88  C   UNL A   1      44.094  24.271  30.556  1.00  0.00     0.095 A 
ATOM     89  C   UNL A   1      46.235  25.224  29.926  1.00  0.00     0.255 A 
ATOM     90  N   UNL A   1      45.217  25.024  30.845  1.00  0.00    -0.258 N 
ATOM     91  O   UNL A   1      47.252  25.884  30.116  1.00  0.00    -0.269 OA
BRANCH  90  92
ATOM     92  C   UNL A   1      45.349  25.681  32.120  1.00  0.00     0.451 C 
ATOM     93  F   UNL A   1      44.265  26.437  32.410  1.00  0.00    -0.185 F 
ATOM     94  F   UNL A   1      45.504  24.769  33.113  1.00  0.00    -0.185 F 
ENDBRANCH  90  92
ENDBRANCH  80  85
ENDBRANCH  75  77
ENDBRANCH  74  75
ENDBRANCH  73  74
ENDBRANCH  72  73
ENDBRANCH  71  72
ENDBRANCH   1  71
TORSDOF 20
ENDMDL
MODEL 2
REMARK VINA RESULT:      -9.9      3.888     10.296
REMARK SMILES O=C(OCCOCCOC(=O)c1cc(-c2ccn(C(F)F)c(=O)c2)ccc1O)c1ccc(-c2c3nc(c(-c4cc(S(=O)(=O)[O-])ccc4F)c4ccc([nH]4)c(-c4cc(S(=O)(=O)[O-])ccc4F)c4nc(c(-c5cc(S(=O)(=O)[O-])ccc5F)c5ccc2[nH]5)C=C4)C=C3)cc1
REMARK SMILES IDX 5 1 4 2 3 3 2 4 1 5 29 6 30 7 91 8 31 9 90 10 32 11 33 12
REMARK SMILES IDX 34 13 84 14 35 15 89 16 83 17 85 18 36 19 88 20 82 21 81 22
REMARK SMILES IDX 37 24 69 25 49 26 68 27 50 28 53 29 67 30 86 31 51 32 52 33
REMARK SMILES IDX 66 35 87 36 54 37 38 38 39 39 47 40 40 41 46 42 48 43 45 44
REMARK SMILES IDX 41 45 42 46 43 47 44 48 70 49 71 50 79 51 72 52 78 53 80 54
REMARK SMILES IDX 77 55 73 56 74 57 75 58 76 59 55 60 56 61 64 62 57 63 63 64
REMARK SMILES IDX 65 65 62 66 58 67 59 68 60 69 61 70 6 71 7 72 8 73 9 74
REMARK SMILES IDX 10 75 11 76 12 77 13 78 27 79 14 80 26 81 25 82 28 83 15 85
REMARK SMILES IDX 16 86 24 87 17 88 22 89 18 90 23 91 19 92 20 93 21 94
REMARK H PARENT 85 23 53 34 28 84
REMARK Flexibility Score: inf
ROOT
ATOM      1  C   UNL A   1      38.446  20.221  24.985  1.00  0.00     0.202 C 
ENDROOT
BRANCH   1   2
ATOM      2  C   UNL A   1      39.136  19.104  25.771  1.00  0.00     0.261 C 
BRANCH   2   3
ATOM      3  O   UNL A   1      40.561  19.198  25.661  1.00  0.00    -0.460 OA
BRANCH   3   4
ATOM      4  C   UNL A   1      41.460  19.701  26.537  1.00  0.00     0.338 C 
ATOM      5  O   UNL A   1      42.033  18.894  27.272  1.00  0.00    -0.246 OA
BRANCH   4   6
ATOM      6  C   UNL A   1      41.794  21.159  26.717  1.00  0.00     0.060 A 
ATOM      7  C   UNL A   1      42.198  21.542  28.012  1.00  0.00     0.016 A 
ATOM      8  C   UNL A   1      41.685  22.172  25.760  1.00  0.00     0.016 A 
ATOM      9  C   UNL A   1      42.444  22.879  28.337  1.00  0.00     0.010 A 
ATOM     10  C   UNL A   1      41.924  23.508  26.075  1.00  0.00     0.010 A 
ATOM     11  C   UNL A   1      42.297  23.869  27.365  1.00  0.00    -0.014 A 
BRANCH  11  12
ATOM     12  C   UNL A   1      42.657  25.274  27.623  1.00  0.00     0.031 A 
ATOM     13  C   UNL A   1      41.655  26.236  28.175  1.00  0.00     0.074 A 
ATOM     14  C   UNL A   1      43.877  25.671  27.221  1.00  0.00     0.049 A 
ATOM     15  N   UNL A   1      41.818  27.491  28.493  1.00  0.00    -0.248 NA
ATOM     16  C   UNL A   1      40.286  25.736  28.383  1.00  0.00     0.031 C 
ATOM     17  C   UNL A   1      44.859  24.800  26.570  1.00  0.00     0.029 A 
ATOM     18  N   UNL A   1      44.488  26.894  27.266  1.00  0.00    -0.354 N 
ATOM     19  C   UNL A   1      40.586  27.929  28.963  1.00  0.00     0.074 A 
ATOM     20  C   UNL A   1      39.666  26.821  28.833  1.00  0.00     0.031 C 
ATOM     21  C   UNL A   1      45.950  25.518  26.274  1.00  0.00     0.029 A 
ATOM     22  C   UNL A   1      45.745  26.896  26.709  1.00  0.00     0.049 A 
ATOM     23  H   UNL A   1      44.070  27.694  27.658  1.00  0.00     0.167 HD
ATOM     24  C   UNL A   1      40.278  29.146  29.473  1.00  0.00     0.034 A 
ATOM     25  C   UNL A   1      46.637  27.896  26.580  1.00  0.00     0.034 A 
ATOM     26  C   UNL A   1      41.232  30.224  29.551  1.00  0.00     0.049 A 
ATOM     27  C   UNL A   1      46.288  29.226  27.193  1.00  0.00     0.074 A 
ATOM     28  C   UNL A   1      41.069  31.476  30.116  1.00  0.00     0.029 A 
ATOM     29  N   UNL A   1      42.525  30.182  29.039  1.00  0.00    -0.354 N 
ATOM     30  N   UNL A   1      45.171  29.587  27.785  1.00  0.00    -0.248 NA
ATOM     31  C   UNL A   1      47.317  30.270  27.164  1.00  0.00     0.031 C 
ATOM     32  C   UNL A   1      42.233  32.210  29.886  1.00  0.00     0.029 A 
ATOM     33  C   UNL A   1      43.158  31.396  29.251  1.00  0.00     0.049 A 
ATOM     34  H   UNL A   1      42.930  29.405  28.592  1.00  0.00     0.167 HD
ATOM     35  C   UNL A   1      45.371  30.891  28.220  1.00  0.00     0.074 A 
ATOM     36  C   UNL A   1      46.726  31.244  27.846  1.00  0.00     0.031 C 
ATOM     37  C   UNL A   1      44.513  31.721  28.868  1.00  0.00     0.034 A 
BRANCH  24  38
ATOM     38  C   UNL A   1      38.893  29.385  30.032  1.00  0.00     0.023 A 
ATOM     39  C   UNL A   1      37.938  30.108  29.290  1.00  0.00     0.031 A 
ATOM     40  C   UNL A   1      38.578  29.046  31.360  1.00  0.00     0.131 A 
ATOM     41  C   UNL A   1      36.738  30.507  29.897  1.00  0.00     0.055 A 
ATOM     42  C   UNL A   1      37.363  29.408  31.946  1.00  0.00     0.041 A 
ATOM     43  F   UNL A   1      39.455  28.366  32.118  1.00  0.00    -0.206 F 
ATOM     44  C   UNL A   1      36.443  30.156  31.217  1.00  0.00     0.022 A 
BRANCH  41  45
ATOM     45  S   UNL A   1      35.544  31.559  29.023  1.00  0.00     0.124 S 
ATOM     46  O   UNL A   1      36.423  32.460  28.279  1.00  0.00    -0.237 OA
ATOM     47  O   UNL A   1      34.819  30.585  28.210  1.00  0.00    -0.237 OA
ATOM     48  O   UNL A   1      34.777  32.185  30.094  1.00  0.00    -0.744 OA
ENDBRANCH  41  45
ENDBRANCH  24  38
BRANCH  25  49
ATOM     49  C   UNL A   1      47.962  27.598  25.964  1.00  0.00     0.023 A 
ATOM     50  C   UNL A   1      48.168  27.753  24.579  1.00  0.00     0.031 A 
ATOM     51  C   UNL A   1      48.976  26.987  26.719  1.00  0.00     0.131 A 
ATOM     52  C   UNL A   1      49.329  27.238  23.986  1.00  0.00     0.055 A 
ATOM     53  C   UNL A   1      50.161  26.537  26.133  1.00  0.00     0.041 A 
ATOM     54  F   UNL A   1      48.813  26.790  28.036  1.00  0.00    -0.206 F 
ATOM     55  C   UNL A   1      50.332  26.642  24.757  1.00  0.00     0.022 A 
BRANCH  52  56
ATOM     56  S   UNL A   1      49.502  27.173  22.179  1.00  0.00     0.124 S 
ATOM     57  O   UNL A   1      49.006  28.485  21.778  1.00  0.00    -0.237 OA
ATOM     58  O   UNL A   1      50.940  26.966  22.022  1.00  0.00    -0.237 OA
ATOM     59  O   UNL A   1      48.669  26.038  21.795  1.00  0.00    -0.744 OA
ENDBRANCH  52  56
ENDBRANCH  25  49
BRANCH  37  60
ATOM     60  C   UNL A   1      44.993  33.108  29.214  1.00  0.00     0.023 A 
ATOM     61  C   UNL A   1      44.954  34.126  28.241  1.00  0.00     0.031 A 
ATOM     62  C   UNL A   1      45.631  33.375  30.437  1.00  0.00     0.131 A 
ATOM     63  C   UNL A   1      45.584  35.350  28.494  1.00  0.00     0.055 A 
ATOM     64  C   UNL A   1      46.211  34.615  30.703  1.00  0.00     0.041 A 
ATOM     65  F   UNL A   1      45.702  32.430  31.389  1.00  0.00    -0.206 F 
ATOM     66  C   UNL A   1      46.204  35.603  29.722  1.00  0.00     0.022 A 
BRANCH  63  67
ATOM     67  S   UNL A   1      45.708  36.621  27.205  1.00  0.00     0.124 S 
ATOM     68  O   UNL A   1      46.775  37.473  27.725  1.00  0.00    -0.237 OA
ATOM     69  O   UNL A   1      46.058  35.831  26.028  1.00  0.00    -0.237 OA
ATOM     70  O   UNL A   1      44.383  37.230  27.181  1.00  0.00    -0.744 OA
ENDBRANCH  63  67
ENDBRANCH  37  60
ENDBRANCH  11  12
ENDBRANCH   4   6
ENDBRANCH   3   4
ENDBRANCH   2   3
ENDBRANCH   1   2
BRANCH   1  71
ATOM     71  O   UNL A   1      38.218  21.402  25.751  1.00  0.00    -0.374 OA
BRANCH  71  72
ATOM     72  C   UNL A   1      36.948  22.029  25.550  1.00  0.00     0.202 C 
BRANCH  72  73
ATOM     73  C   UNL A   1      35.860  20.974  25.356  1.00  0.00     0.261 C 
BRANCH  73  74
ATOM     74  O   UNL A   1      34.600  21.533  25.756  1.00  0.00    -0.460 OA
BRANCH  74  75
ATOM     75  C   UNL A   1      33.924  22.232  24.812  1.00  0.00     0.342 C 
ATOM     76  O   UNL A   1      33.995  22.118  23.599  1.00  0.00    -0.246 OA
BRANCH  75  77
ATOM     77  C   UNL A   1      32.855  22.984  25.496  1.00  0.00     0.102 A 
ATOM     78  C   UNL A   1      33.038  24.369  25.644  1.00  0.00     0.028 A 
ATOM     79  C   UNL A   1      31.650  22.389  25.879  1.00  0.00     0.130 A 
ATOM     80  C   UNL A   1      31.983  25.167  26.091  1.00  0.00    -0.017 A 
ATOM     81  C   UNL A   1      30.611  23.176  26.370  1.00  0.00     0.048 A 
ATOM     82  C   UNL A   1      30.773  24.561  26.459  1.00  0.00     0.012 A 
BRANCH  79  83
ATOM     83  O   UNL A   1      31.485  21.037  25.784  1.00  0.00    -0.507 OA
ATOM     84  H   UNL A   1      30.629  20.677  25.660  1.00  0.00     0.293 HD
ENDBRANCH  79  83
BRANCH  80  85
ATOM     85  C   UNL A   1      32.096  26.633  26.147  1.00  0.00    -0.011 A 
ATOM     86  C   UNL A   1      31.621  27.411  27.271  1.00  0.00     0.027 A 
ATOM     87  C   UNL A   1      32.580  27.269  25.066  1.00  0.00     0.080 A 
ATOM     88  C   UNL A   1      31.598  28.748  27.209  1.00  0.00     0.095 A 
ATOM     89  C   UNL A   1      32.569  28.757  24.985  1.00  0.00     0.255 A 
ATOM     90  N   UNL A   1      32.045  29.417  26.085  1.00  0.00    -0.258 N 
ATOM     91  O   UNL A   1      32.976  29.289  23.957  1.00  0.00    -0.269 OA
BRANCH  90  92
ATOM     92  C   UNL A   1      31.934  30.851  25.995  1.00  0.00     0.451 C 
ATOM     93  F   UNL A   1      30.783  31.230  25.393  1.00  0.00    -0.185 F 
ATOM     94  F   UNL A   1      31.967  31.410  27.231  1.00  0.00    -0.185 F 
ENDBRANCH  90  92
ENDBRANCH  80  85
ENDBRANCH  75  77
ENDBRANCH  74  75
ENDBRANCH  73  74
ENDBRANCH  72  73
ENDBRANCH  71  72
ENDBRANCH   1  71
TORSDOF 20
ENDMDL
MODEL 3
REMARK VINA RESULT:      -9.8      5.972     11.490
REMARK SMILES O=C(OCCOCCOC(=O)c1cc(-c2ccn(C(F)F)c(=O)c2)ccc1O)c1ccc(-c2c3nc(c(-c4cc(S(=O)(=O)[O-])ccc4F)c4ccc([nH]4)c(-c4cc(S(=O)(=O)[O-])ccc4F)c4nc(c(-c5cc(S(=O)(=O)[O-])ccc5F)c5ccc2[nH]5)C=C4)C=C3)cc1
REMARK SMILES IDX 5 1 4 2 3 3 2 4 1 5 29 6 30 7 91 8 31 9 90 10 32 11 33 12
REMARK SMILES IDX 34 13 84 14 35 15 89 16 83 17 85 18 36 19 88 20 82 21 81 22
REMARK SMILES IDX 37 24 69 25 49 26 68 27 50 28 53 29 67 30 86 31 51 32 52 33
REMARK SMILES IDX 66 35 87 36 54 37 38 38 39 39 47 40 40 41 46 42 48 43 45 44
REMARK SMILES IDX 41 45 42 46 43 47 44 48 70 49 71 50 79 51 72 52 78 53 80 54
REMARK SMILES IDX 77 55 73 56 74 57 75 58 76 59 55 60 56 61 64 62 57 63 63 64
REMARK SMILES IDX 65 65 62 66 58 67 59 68 60 69 61 70 6 71 7 72 8 73 9 74
REMARK SMILES IDX 10 75 11 76 12 77 13 78 27 79 14 80 26 81 25 82 28 83 15 85
REMARK SMILES IDX 16 86 24 87 17 88 22 89 18 90 23 91 19 92 20 93 21 94
REMARK H PARENT 85 23 53 34 28 84
REMARK Flexibility Score: inf
ROOT
ATOM      1  C   UNL A   1      30.719  30.122  24.276  1.00  0.00     0.202 C 
ENDROOT
BRANCH   1   2
ATOM      2  C   UNL A   1      31.445  29.517  25.480  1.00  0.00     0.261 C 
BRANCH   2   3
ATOM      3  O   UNL A   1      32.704  30.164  25.702  1.00  0.00    -0.460 OA
BRANCH   3   4
ATOM      4  C   UNL A   1      33.117  30.905  26.757  1.00  0.00     0.338 C 
ATOM      5  O   UNL A   1      32.357  31.795  27.143  1.00  0.00    -0.246 OA
BRANCH   4   6
ATOM      6  C   UNL A   1      34.434  30.759  27.473  1.00  0.00     0.060 A 
ATOM      7  C   UNL A   1      34.782  29.450  27.860  1.00  0.00     0.016 A 
ATOM      8  C   UNL A   1      35.306  31.786  27.848  1.00  0.00     0.016 A 
ATOM      9  C   UNL A   1      35.929  29.189  28.615  1.00  0.00     0.010 A 
ATOM     10  C   UNL A   1      36.450  31.537  28.604  1.00  0.00     0.010 A 
ATOM     11  C   UNL A   1      36.763  30.240  28.997  1.00  0.00    -0.014 A 
BRANCH  11  12
ATOM     12  C   UNL A   1      38.042  30.008  29.689  1.00  0.00     0.031 A 
ATOM     13  C   UNL A   1      38.332  30.653  31.007  1.00  0.00     0.074 A 
ATOM     14  C   UNL A   1      38.973  29.300  29.025  1.00  0.00     0.049 A 
ATOM     15  N   UNL A   1      39.388  30.525  31.763  1.00  0.00    -0.248 NA
ATOM     16  C   UNL A   1      37.318  31.575  31.541  1.00  0.00     0.031 C 
ATOM     17  C   UNL A   1      38.786  28.741  27.683  1.00  0.00     0.029 A 
ATOM     18  N   UNL A   1      40.254  28.957  29.357  1.00  0.00    -0.354 N 
ATOM     19  C   UNL A   1      39.160  31.326  32.875  1.00  0.00     0.074 A 
ATOM     20  C   UNL A   1      37.890  31.985  32.668  1.00  0.00     0.031 C 
ATOM     21  C   UNL A   1      39.914  28.126  27.306  1.00  0.00     0.029 A 
ATOM     22  C   UNL A   1      40.902  28.250  28.373  1.00  0.00     0.049 A 
ATOM     23  H   UNL A   1      40.672  29.193  30.217  1.00  0.00     0.167 HD
ATOM     24  C   UNL A   1      39.945  31.468  33.970  1.00  0.00     0.034 A 
ATOM     25  C   UNL A   1      42.149  27.743  28.345  1.00  0.00     0.034 A 
ATOM     26  C   UNL A   1      41.219  30.805  34.108  1.00  0.00     0.049 A 
ATOM     27  C   UNL A   1      42.985  27.876  29.590  1.00  0.00     0.074 A 
ATOM     28  C   UNL A   1      42.072  30.803  35.196  1.00  0.00     0.029 A 
ATOM     29  N   UNL A   1      41.828  30.037  33.122  1.00  0.00    -0.354 N 
ATOM     30  N   UNL A   1      42.696  28.504  30.708  1.00  0.00    -0.248 NA
ATOM     31  C   UNL A   1      44.291  27.209  29.597  1.00  0.00     0.031 C 
ATOM     32  C   UNL A   1      43.221  30.094  34.846  1.00  0.00     0.029 A 
ATOM     33  C   UNL A   1      43.057  29.581  33.568  1.00  0.00     0.049 A 
ATOM     34  H   UNL A   1      41.443  29.845  32.237  1.00  0.00     0.167 HD
ATOM     35  C   UNL A   1      43.771  28.288  31.560  1.00  0.00     0.074 A 
ATOM     36  C   UNL A   1      44.705  27.448  30.835  1.00  0.00     0.031 C 
ATOM     37  C   UNL A   1      43.970  28.742  32.824  1.00  0.00     0.034 A 
BRANCH  24  38
ATOM     38  C   UNL A   1      39.459  32.314  35.125  1.00  0.00     0.023 A 
ATOM     39  C   UNL A   1      38.828  31.716  36.233  1.00  0.00     0.031 A 
ATOM     40  C   UNL A   1      39.468  33.718  35.050  1.00  0.00     0.131 A 
ATOM     41  C   UNL A   1      38.194  32.517  37.194  1.00  0.00     0.055 A 
ATOM     42  C   UNL A   1      38.873  34.514  36.031  1.00  0.00     0.041 A 
ATOM     43  F   UNL A   1      40.046  34.343  34.011  1.00  0.00    -0.206 F 
ATOM     44  C   UNL A   1      38.218  33.912  37.102  1.00  0.00     0.022 A 
BRANCH  41  45
ATOM     45  S   UNL A   1      37.250  31.785  38.560  1.00  0.00     0.124 S 
ATOM     46  O   UNL A   1      38.175  31.935  39.682  1.00  0.00    -0.237 OA
ATOM     47  O   UNL A   1      36.069  32.643  38.608  1.00  0.00    -0.237 OA
ATOM     48  O   UNL A   1      37.017  30.411  38.130  1.00  0.00    -0.744 OA
ENDBRANCH  41  45
ENDBRANCH  24  38
BRANCH  25  49
ATOM     49  C   UNL A   1      42.580  26.969  27.145  1.00  0.00     0.023 A 
ATOM     50  C   UNL A   1      42.291  25.596  27.026  1.00  0.00     0.031 A 
ATOM     51  C   UNL A   1      43.436  27.549  26.194  1.00  0.00     0.131 A 
ATOM     52  C   UNL A   1      42.910  24.839  26.023  1.00  0.00     0.055 A 
ATOM     53  C   UNL A   1      43.996  26.804  25.156  1.00  0.00     0.041 A 
ATOM     54  F   UNL A   1      43.764  28.847  26.283  1.00  0.00    -0.206 F 
ATOM     55  C   UNL A   1      43.750  25.437  25.079  1.00  0.00     0.022 A 
BRANCH  52  56
ATOM     56  S   UNL A   1      42.779  23.027  26.008  1.00  0.00     0.124 S 
ATOM     57  O   UNL A   1      41.369  22.821  26.321  1.00  0.00    -0.237 OA
ATOM     58  O   UNL A   1      43.175  22.708  24.638  1.00  0.00    -0.237 OA
ATOM     59  O   UNL A   1      43.723  22.606  27.038  1.00  0.00    -0.744 OA
ENDBRANCH  52  56
ENDBRANCH  25  49
BRANCH  37  60
ATOM     60  C   UNL A   1      45.250  28.360  33.522  1.00  0.00     0.023 A 
ATOM     61  C   UNL A   1      45.286  27.219  34.347  1.00  0.00     0.031 A 
ATOM     62  C   UNL A   1      46.373  29.204  33.499  1.00  0.00     0.131 A 
ATOM     63  C   UNL A   1      46.406  26.980  35.152  1.00  0.00     0.055 A 
ATOM     64  C   UNL A   1      47.507  28.933  34.264  1.00  0.00     0.041 A 
ATOM     65  F   UNL A   1      46.379  30.310  32.736  1.00  0.00    -0.206 F 
ATOM     66  C   UNL A   1      47.520  27.825  35.107  1.00  0.00     0.022 A 
BRANCH  63  67
ATOM     67  S   UNL A   1      46.419  25.623  36.355  1.00  0.00     0.124 S 
ATOM     68  O   UNL A   1      45.182  25.863  37.093  1.00  0.00    -0.237 OA
ATOM     69  O   UNL A   1      46.412  24.446  35.491  1.00  0.00    -0.237 OA
ATOM     70  O   UNL A   1      47.647  25.837  37.115  1.00  0.00    -0.744 OA
ENDBRANCH  63  67
ENDBRANCH  37  60
ENDBRANCH  11  12
ENDBRANCH   4   6
ENDBRANCH   3   4
ENDBRANCH   2   3
ENDBRANCH   1   2
BRANCH   1  71
ATOM     71  O   UNL A   1      29.863  29.201  23.604  1.00  0.00    -0.374 OA
BRANCH  71  72
ATOM     72  C   UNL A   1      30.183  27.818  23.786  1.00  0.00     0.202 C 
BRANCH  72  73
ATOM     73  C   UNL A   1      30.781  27.240  22.504  1.00  0.00     0.261 C 
BRANCH  73  74
ATOM     74  O   UNL A   1      32.189  27.516  22.489  1.00  0.00    -0.460 OA
BRANCH  74  75
ATOM     75  C   UNL A   1      33.001  26.489  22.134  1.00  0.00     0.342 C 
ATOM     76  O   UNL A   1      33.569  26.317  21.068  1.00  0.00    -0.246 OA
BRANCH  75  77
ATOM     77  C   UNL A   1      33.321  25.731  23.358  1.00  0.00     0.102 A 
ATOM     78  C   UNL A   1      33.171  24.336  23.308  1.00  0.00     0.028 A 
ATOM     79  C   UNL A   1      33.869  26.340  24.491  1.00  0.00     0.130 A 
ATOM     80  C   UNL A   1      33.652  23.546  24.353  1.00  0.00    -0.017 A 
ATOM     81  C   UNL A   1      34.307  25.557  25.557  1.00  0.00     0.048 A 
ATOM     82  C   UNL A   1      34.213  24.166  25.480  1.00  0.00     0.012 A 
BRANCH  79  83
ATOM     83  O   UNL A   1      33.971  27.699  24.566  1.00  0.00    -0.507 OA
ATOM     84  H   UNL A   1      34.768  28.123  24.317  1.00  0.00     0.293 HD
ENDBRANCH  79  83
BRANCH  80  85
ATOM     85  C   UNL A   1      33.621  22.075  24.286  1.00  0.00    -0.011 A 
ATOM     86  C   UNL A   1      32.409  21.332  24.017  1.00  0.00     0.027 A 
ATOM     87  C   UNL A   1      34.751  21.409  24.578  1.00  0.00     0.080 A 
ATOM     88  C   UNL A   1      32.396  19.997  24.125  1.00  0.00     0.095 A 
ATOM     89  C   UNL A   1      34.754  19.922  24.694  1.00  0.00     0.255 A 
ATOM     90  N   UNL A   1      33.537  19.298  24.473  1.00  0.00    -0.258 N 
ATOM     91  O   UNL A   1      35.799  19.363  25.010  1.00  0.00    -0.269 OA
BRANCH  90  92
ATOM     92  C   UNL A   1      33.488  17.871  24.670  1.00  0.00     0.451 C 
ATOM     93  F   UNL A   1      32.510  17.517  25.536  1.00  0.00    -0.185 F 
ATOM     94  F   UNL A   1      33.260  17.234  23.494  1.00  0.00    -0.185 F 
ENDBRANCH  90  92
ENDBRANCH  80  85
ENDBRANCH  75  77
ENDBRANCH  74  75
ENDBRANCH  73  74
ENDBRANCH  72  73
ENDBRANCH  71  72
ENDBRANCH   1  71
TORSDOF 20
ENDMDL
