MODEL 1
REMARK VINA RESULT:     -11.6      0.000      0.000
REMARK SMILES CCc1ccc(N2C(=O)/C(=C/c3cc(Cl)c(OCC(=O)OCCOCCOC(=O)c4ccc(-c5c6nc(c(-c7cc(S(=O)(=O)[O-])ccc7F)c7ccc([nH]7)c(-c7cc(S(=O)(=O)[O-])ccc7F)c7nc(c(-c8cc(S(=O)(=O)[O-])ccc8F)c8ccc5[nH]8)C=C7)C=C6)cc4)c(Cl)c3)C(=O)NC2=S)cc1
REMARK SMILES IDX 23 1 22 2 21 3 19 4 20 5 18 6 17 7 16 8 12 9 13 10 95 11
REMARK SMILES IDX 14 12 93 13 15 14 94 15 11 16 7 17 8 18 99 19 9 20 10 21
REMARK SMILES IDX 98 22 100 23 96 24 97 26 6 27 3 28 4 29 102 30 5 31 101 32
REMARK SMILES IDX 2 33 1 34 24 35 25 36 26 37 27 38 28 39 29 40 30 41 31 42
REMARK SMILES IDX 92 43 32 44 91 45 33 46 34 47 35 48 85 49 36 50 90 51 84 52
REMARK SMILES IDX 86 53 37 54 89 55 83 56 82 57 38 59 70 60 50 61 69 62 51 63
REMARK SMILES IDX 54 64 68 65 87 66 52 67 53 68 67 70 88 71 55 72 39 73 40 74
REMARK SMILES IDX 48 75 41 76 47 77 49 78 46 79 42 80 43 81 44 82 45 83 71 84
REMARK SMILES IDX 72 85 80 86 73 87 79 88 81 89 78 90 74 91 75 92 76 93 77 94
REMARK SMILES IDX 56 95 57 96 65 97 58 98 64 99 66 100 63 101 59 102 60 103
REMARK SMILES IDX 61 104 62 105
REMARK H PARENT 98 25 86 58 54 69
REMARK Flexibility Score: inf
ROOT
ATOM      1  C   UNL A   1      33.569  35.727  31.784  1.00  0.00     0.202 C 
ENDROOT
BRANCH   1   2
ATOM      2  C   UNL A   1      33.166  35.308  30.362  1.00  0.00     0.261 C 
BRANCH   2   3
ATOM      3  O   UNL A   1      34.242  35.191  29.399  1.00  0.00    -0.461 OA
BRANCH   3   4
ATOM      4  C   UNL A   1      35.079  34.129  29.572  1.00  0.00     0.344 C 
ATOM      5  O   UNL A   1      36.244  34.222  29.946  1.00  0.00    -0.248 OA
BRANCH   4   6
ATOM      6  C   UNL A   1      34.478  32.777  29.128  1.00  0.00     0.352 C 
BRANCH   6   7
ATOM      7  O   UNL A   1      34.096  32.396  27.827  1.00  0.00    -0.479 OA
BRANCH   7   8
ATOM      8  C   UNL A   1      33.827  31.123  27.412  1.00  0.00     0.157 A 
ATOM      9  C   UNL A   1      32.759  28.526  26.878  1.00  0.00    -0.021 A 
ATOM     10  C   UNL A   1      31.964  29.665  26.736  1.00  0.00     0.032 A 
ATOM     11  C   UNL A   1      34.112  28.700  27.176  1.00  0.00     0.032 A 
ATOM     12  C   UNL A   1      32.490  30.938  26.991  1.00  0.00     0.085 A 
ATOM     13  C   UNL A   1      34.651  29.988  27.421  1.00  0.00     0.085 A 
ATOM     14  Cl  UNL A   1      31.402  32.280  26.838  1.00  0.00    -0.080 Cl
ATOM     15  Cl  UNL A   1      36.348  30.033  27.729  1.00  0.00    -0.080 Cl
BRANCH   9  16
ATOM     16  C   UNL A   1      32.126  27.212  26.677  1.00  0.00     0.028 C 
ATOM     17  N   UNL A   1      32.036  24.536  24.444  1.00  0.00    -0.253 N 
ATOM     18  C   UNL A   1      31.456  25.203  25.538  1.00  0.00     0.270 C 
ATOM     19  C   UNL A   1      32.316  25.180  23.226  1.00  0.00     0.187 C 
ATOM     20  O   UNL A   1      30.879  24.696  26.499  1.00  0.00    -0.268 OA
ATOM     21  C   UNL A   1      31.691  26.664  25.522  1.00  0.00     0.106 C 
ATOM     22  N   UNL A   1      32.077  26.538  23.196  1.00  0.00    -0.298 N 
ATOM     23  S   UNL A   1      32.803  24.478  21.780  1.00  0.00    -0.040 S 
ATOM     24  C   UNL A   1      31.641  27.330  24.220  1.00  0.00     0.263 C 
ATOM     25  H   UNL A   1      32.243  26.990  22.336  1.00  0.00     0.172 HD
ATOM     26  O   UNL A   1      31.194  28.459  24.075  1.00  0.00    -0.269 OA
BRANCH  17  27
ATOM     27  C   UNL A   1      32.413  23.170  24.678  1.00  0.00     0.052 A 
ATOM     28  C   UNL A   1      33.376  20.518  24.745  1.00  0.00    -0.048 A 
ATOM     29  C   UNL A   1      34.052  21.539  25.424  1.00  0.00     0.006 A 
ATOM     30  C   UNL A   1      32.191  20.826  24.069  1.00  0.00     0.006 A 
ATOM     31  C   UNL A   1      33.577  22.852  25.388  1.00  0.00     0.027 A 
ATOM     32  C   UNL A   1      31.713  22.139  24.037  1.00  0.00     0.027 A 
BRANCH  28  33
ATOM     33  C   UNL A   1      33.935  19.119  24.702  1.00  0.00     0.032 C 
ATOM     34  C   UNL A   1      35.452  19.088  24.784  1.00  0.00     0.009 C 
ENDBRANCH  28  33
ENDBRANCH  17  27
ENDBRANCH   9  16
ENDBRANCH   7   8
ENDBRANCH   6   7
ENDBRANCH   4   6
ENDBRANCH   3   4
ENDBRANCH   2   3
ENDBRANCH   1   2
BRANCH   1  35
ATOM     35  O   UNL A   1      33.221  34.893  32.875  1.00  0.00    -0.374 OA
BRANCH  35  36
ATOM     36  C   UNL A   1      33.781  33.596  32.959  1.00  0.00     0.202 C 
BRANCH  36  37
ATOM     37  C   UNL A   1      35.287  33.419  33.175  1.00  0.00     0.261 C 
BRANCH  37  38
ATOM     38  O   UNL A   1      35.831  32.123  33.086  1.00  0.00    -0.460 OA
BRANCH  38  39
ATOM     39  C   UNL A   1      36.925  31.890  33.827  1.00  0.00     0.338 C 
ATOM     40  O   UNL A   1      37.107  32.083  35.014  1.00  0.00    -0.246 OA
BRANCH  39  41
ATOM     41  C   UNL A   1      37.868  31.321  32.872  1.00  0.00     0.060 A 
ATOM     42  C   UNL A   1      38.828  30.431  33.349  1.00  0.00     0.016 A 
ATOM     43  C   UNL A   1      37.722  31.604  31.509  1.00  0.00     0.016 A 
ATOM     44  C   UNL A   1      39.704  29.853  32.446  1.00  0.00     0.010 A 
ATOM     45  C   UNL A   1      38.596  31.015  30.606  1.00  0.00     0.010 A 
ATOM     46  C   UNL A   1      39.611  30.170  31.082  1.00  0.00    -0.014 A 
BRANCH  46  47
ATOM     47  C   UNL A   1      40.687  29.730  30.176  1.00  0.00     0.031 A 
ATOM     48  C   UNL A   1      41.836  30.663  29.939  1.00  0.00     0.074 A 
ATOM     49  C   UNL A   1      40.644  28.500  29.640  1.00  0.00     0.049 A 
ATOM     50  N   UNL A   1      42.897  30.498  29.198  1.00  0.00    -0.248 NA
ATOM     51  C   UNL A   1      41.778  31.964  30.629  1.00  0.00     0.031 C 
ATOM     52  C   UNL A   1      39.575  27.523  29.857  1.00  0.00     0.029 A 
ATOM     53  N   UNL A   1      41.524  27.858  28.813  1.00  0.00    -0.354 N 
ATOM     54  C   UNL A   1      43.635  31.668  29.334  1.00  0.00     0.074 A 
ATOM     55  C   UNL A   1      42.875  32.555  30.185  1.00  0.00     0.031 C 
ATOM     56  C   UNL A   1      39.871  26.398  29.188  1.00  0.00     0.029 A 
ATOM     57  C   UNL A   1      41.123  26.591  28.462  1.00  0.00     0.049 A 
ATOM     58  H   UNL A   1      42.364  28.264  28.501  1.00  0.00     0.167 HD
ATOM     59  C   UNL A   1      44.847  31.959  28.805  1.00  0.00     0.034 A 
ATOM     60  C   UNL A   1      41.701  25.705  27.629  1.00  0.00     0.034 A 
ATOM     61  C   UNL A   1      45.568  31.049  27.952  1.00  0.00     0.049 A 
ATOM     62  C   UNL A   1      43.009  26.090  26.983  1.00  0.00     0.074 A 
ATOM     63  C   UNL A   1      46.801  31.222  27.352  1.00  0.00     0.029 A 
ATOM     64  N   UNL A   1      45.110  29.793  27.567  1.00  0.00    -0.354 N 
ATOM     65  N   UNL A   1      43.707  27.196  27.123  1.00  0.00    -0.248 NA
ATOM     66  C   UNL A   1      43.613  25.108  26.076  1.00  0.00     0.031 C 
ATOM     67  C   UNL A   1      47.052  30.108  26.544  1.00  0.00     0.029 A 
ATOM     68  C   UNL A   1      46.020  29.196  26.710  1.00  0.00     0.049 A 
ATOM     69  H   UNL A   1      44.262  29.387  27.861  1.00  0.00     0.167 HD
ATOM     70  C   UNL A   1      44.850  27.026  26.347  1.00  0.00     0.074 A 
ATOM     71  C   UNL A   1      44.753  25.705  25.759  1.00  0.00     0.031 C 
ATOM     72  C   UNL A   1      45.886  27.877  26.134  1.00  0.00     0.034 A 
BRANCH  59  73
ATOM     73  C   UNL A   1      45.425  33.321  29.096  1.00  0.00     0.023 A 
ATOM     74  C   UNL A   1      45.383  34.363  28.152  1.00  0.00     0.031 A 
ATOM     75  C   UNL A   1      46.060  33.574  30.325  1.00  0.00     0.131 A 
ATOM     76  C   UNL A   1      46.020  35.583  28.426  1.00  0.00     0.055 A 
ATOM     77  C   UNL A   1      46.621  34.817  30.623  1.00  0.00     0.041 A 
ATOM     78  F   UNL A   1      46.161  32.609  31.253  1.00  0.00    -0.206 F 
ATOM     79  C   UNL A   1      46.615  35.827  29.666  1.00  0.00     0.022 A 
BRANCH  76  80
ATOM     80  S   UNL A   1      46.188  36.794  27.086  1.00  0.00     0.124 S 
ATOM     81  O   UNL A   1      47.480  37.401  27.399  1.00  0.00    -0.237 OA
ATOM     82  O   UNL A   1      46.146  35.955  25.896  1.00  0.00    -0.237 OA
ATOM     83  O   UNL A   1      45.034  37.673  27.273  1.00  0.00    -0.744 OA
ENDBRANCH  76  80
ENDBRANCH  59  73
BRANCH  60  84
ATOM     84  C   UNL A   1      41.047  24.399  27.335  1.00  0.00     0.023 A 
ATOM     85  C   UNL A   1      39.839  24.337  26.623  1.00  0.00     0.031 A 
ATOM     86  C   UNL A   1      41.592  23.192  27.809  1.00  0.00     0.131 A 
ATOM     87  C   UNL A   1      39.187  23.105  26.456  1.00  0.00     0.055 A 
ATOM     88  C   UNL A   1      40.973  21.961  27.585  1.00  0.00     0.041 A 
ATOM     89  F   UNL A   1      42.745  23.190  28.497  1.00  0.00    -0.206 F 
ATOM     90  C   UNL A   1      39.753  21.915  26.918  1.00  0.00     0.022 A 
BRANCH  87  91
ATOM     91  S   UNL A   1      37.530  23.095  25.719  1.00  0.00     0.124 S 
ATOM     92  O   UNL A   1      36.793  22.262  26.663  1.00  0.00    -0.237 OA
ATOM     93  O   UNL A   1      37.193  24.514  25.716  1.00  0.00    -0.237 OA
ATOM     94  O   UNL A   1      37.748  22.503  24.402  1.00  0.00    -0.744 OA
ENDBRANCH  87  91
ENDBRANCH  60  84
BRANCH  72  95
ATOM     95  C   UNL A   1      47.011  27.375  25.264  1.00  0.00     0.023 A 
ATOM     96  C   UNL A   1      47.184  27.829  23.945  1.00  0.00     0.031 A 
ATOM     97  C   UNL A   1      47.918  26.422  25.761  1.00  0.00     0.131 A 
ATOM     98  C   UNL A   1      48.197  27.281  23.147  1.00  0.00     0.055 A 
ATOM     99  C   UNL A   1      48.970  25.934  24.987  1.00  0.00     0.041 A 
ATOM    100  F   UNL A   1      47.798  25.952  27.014  1.00  0.00    -0.206 F 
ATOM    101  C   UNL A   1      49.104  26.352  23.666  1.00  0.00     0.022 A 
BRANCH  98 102
ATOM    102  S   UNL A   1      48.246  27.716  21.388  1.00  0.00     0.124 S 
ATOM    103  O   UNL A   1      49.320  28.703  21.351  1.00  0.00    -0.237 OA
ATOM    104  O   UNL A   1      48.536  26.433  20.757  1.00  0.00    -0.237 OA
ATOM    105  O   UNL A   1      46.908  28.245  21.129  1.00  0.00    -0.744 OA
ENDBRANCH  98 102
ENDBRANCH  72  95
ENDBRANCH  46  47
ENDBRANCH  39  41
ENDBRANCH  38  39
ENDBRANCH  37  38
ENDBRANCH  36  37
ENDBRANCH  35  36
ENDBRANCH   1  35
TORSDOF 22
ENDMDL
MODEL 2
REMARK VINA RESULT:     -11.1      1.847      2.181
REMARK SMILES CCc1ccc(N2C(=O)/C(=C/c3cc(Cl)c(OCC(=O)OCCOCCOC(=O)c4ccc(-c5c6nc(c(-c7cc(S(=O)(=O)[O-])ccc7F)c7ccc([nH]7)c(-c7cc(S(=O)(=O)[O-])ccc7F)c7nc(c(-c8cc(S(=O)(=O)[O-])ccc8F)c8ccc5[nH]8)C=C7)C=C6)cc4)c(Cl)c3)C(=O)NC2=S)cc1
REMARK SMILES IDX 23 1 22 2 21 3 19 4 20 5 18 6 17 7 16 8 12 9 13 10 95 11
REMARK SMILES IDX 14 12 93 13 15 14 94 15 11 16 7 17 8 18 99 19 9 20 10 21
REMARK SMILES IDX 98 22 100 23 96 24 97 26 6 27 3 28 4 29 102 30 5 31 101 32
REMARK SMILES IDX 2 33 1 34 24 35 25 36 26 37 27 38 28 39 29 40 30 41 31 42
REMARK SMILES IDX 92 43 32 44 91 45 33 46 34 47 35 48 85 49 36 50 90 51 84 52
REMARK SMILES IDX 86 53 37 54 89 55 83 56 82 57 38 59 70 60 50 61 69 62 51 63
REMARK SMILES IDX 54 64 68 65 87 66 52 67 53 68 67 70 88 71 55 72 39 73 40 74
REMARK SMILES IDX 48 75 41 76 47 77 49 78 46 79 42 80 43 81 44 82 45 83 71 84
REMARK SMILES IDX 72 85 80 86 73 87 79 88 81 89 78 90 74 91 75 92 76 93 77 94
REMARK SMILES IDX 56 95 57 96 65 97 58 98 64 99 66 100 63 101 59 102 60 103
REMARK SMILES IDX 61 104 62 105
REMARK H PARENT 98 25 86 58 54 69
REMARK Flexibility Score: inf
ROOT
ATOM      1  C   UNL A   1      34.013  35.688  32.212  1.00  0.00     0.202 C 
ENDROOT
BRANCH   1   2
ATOM      2  C   UNL A   1      33.409  35.314  30.850  1.00  0.00     0.261 C 
BRANCH   2   3
ATOM      3  O   UNL A   1      34.347  35.131  29.762  1.00  0.00    -0.461 OA
BRANCH   3   4
ATOM      4  C   UNL A   1      35.093  33.990  29.808  1.00  0.00     0.344 C 
ATOM      5  O   UNL A   1      36.275  33.952  30.137  1.00  0.00    -0.248 OA
BRANCH   4   6
ATOM      6  C   UNL A   1      34.360  32.739  29.279  1.00  0.00     0.352 C 
BRANCH   6   7
ATOM      7  O   UNL A   1      34.060  32.424  27.939  1.00  0.00    -0.479 OA
BRANCH   7   8
ATOM      8  C   UNL A   1      33.863  31.170  27.435  1.00  0.00     0.157 A 
ATOM      9  C   UNL A   1      32.939  28.564  26.711  1.00  0.00    -0.021 A 
ATOM     10  C   UNL A   1      32.089  29.669  26.630  1.00  0.00     0.032 A 
ATOM     11  C   UNL A   1      34.277  28.786  27.045  1.00  0.00     0.032 A 
ATOM     12  C   UNL A   1      32.545  30.947  26.979  1.00  0.00     0.085 A 
ATOM     13  C   UNL A   1      34.744  30.079  27.384  1.00  0.00     0.085 A 
ATOM     14  Cl  UNL A   1      31.391  32.239  26.894  1.00  0.00    -0.080 Cl
ATOM     15  Cl  UNL A   1      36.432  30.190  27.727  1.00  0.00    -0.080 Cl
BRANCH   9  16
ATOM     16  C   UNL A   1      32.378  27.237  26.410  1.00  0.00     0.028 C 
ATOM     17  N   UNL A   1      32.251  24.829  23.892  1.00  0.00    -0.253 N 
ATOM     18  C   UNL A   1      31.736  25.322  25.104  1.00  0.00     0.270 C 
ATOM     19  C   UNL A   1      32.370  25.625  22.739  1.00  0.00     0.187 C 
ATOM     20  O   UNL A   1      31.288  24.668  26.044  1.00  0.00    -0.268 OA
ATOM     21  C   UNL A   1      31.871  26.790  25.241  1.00  0.00     0.106 C 
ATOM     22  N   UNL A   1      32.040  26.956  22.892  1.00  0.00    -0.298 N 
ATOM     23  S   UNL A   1      32.761  25.130  21.183  1.00  0.00    -0.040 S 
ATOM     24  C   UNL A   1      31.652  27.592  24.037  1.00  0.00     0.263 C 
ATOM     25  H   UNL A   1      32.092  27.513  22.080  1.00  0.00     0.172 HD
ATOM     26  O   UNL A   1      31.120  28.693  24.067  1.00  0.00    -0.269 OA
BRANCH  17  27
ATOM     27  C   UNL A   1      32.739  23.479  23.928  1.00  0.00     0.052 A 
ATOM     28  C   UNL A   1      33.573  20.831  24.434  1.00  0.00    -0.048 A 
ATOM     29  C   UNL A   1      32.316  21.087  23.874  1.00  0.00     0.006 A 
ATOM     30  C   UNL A   1      34.427  21.906  24.698  1.00  0.00     0.006 A 
ATOM     31  C   UNL A   1      31.902  22.398  23.627  1.00  0.00     0.027 A 
ATOM     32  C   UNL A   1      34.015  23.218  24.446  1.00  0.00     0.027 A 
BRANCH  28  33
ATOM     33  C   UNL A   1      33.987  19.425  24.789  1.00  0.00     0.032 C 
ATOM     34  C   UNL A   1      32.801  18.505  25.027  1.00  0.00     0.009 C 
ENDBRANCH  28  33
ENDBRANCH  17  27
ENDBRANCH   9  16
ENDBRANCH   7   8
ENDBRANCH   6   7
ENDBRANCH   4   6
ENDBRANCH   3   4
ENDBRANCH   2   3
ENDBRANCH   1   2
BRANCH   1  35
ATOM     35  O   UNL A   1      33.770  34.851  33.329  1.00  0.00    -0.374 OA
BRANCH  35  36
ATOM     36  C   UNL A   1      34.263  33.524  33.319  1.00  0.00     0.202 C 
BRANCH  36  37
ATOM     37  C   UNL A   1      35.751  33.253  33.559  1.00  0.00     0.261 C 
BRANCH  37  38
ATOM     38  O   UNL A   1      36.156  31.934  33.843  1.00  0.00    -0.460 OA
BRANCH  38  39
ATOM     39  C   UNL A   1      37.325  31.803  34.486  1.00  0.00     0.338 C 
ATOM     40  O   UNL A   1      37.602  32.056  35.643  1.00  0.00    -0.246 OA
BRANCH  39  41
ATOM     41  C   UNL A   1      38.215  31.255  33.469  1.00  0.00     0.060 A 
ATOM     42  C   UNL A   1      39.079  30.227  33.837  1.00  0.00     0.016 A 
ATOM     43  C   UNL A   1      38.107  31.704  32.147  1.00  0.00     0.016 A 
ATOM     44  C   UNL A   1      39.900  29.672  32.870  1.00  0.00     0.010 A 
ATOM     45  C   UNL A   1      38.924  31.138  31.179  1.00  0.00     0.010 A 
ATOM     46  C   UNL A   1      39.848  30.148  31.552  1.00  0.00    -0.014 A 
BRANCH  46  47
ATOM     47  C   UNL A   1      40.881  29.711  30.597  1.00  0.00     0.031 A 
ATOM     48  C   UNL A   1      42.103  30.565  30.438  1.00  0.00     0.074 A 
ATOM     49  C   UNL A   1      40.735  28.545  29.946  1.00  0.00     0.049 A 
ATOM     50  N   UNL A   1      43.144  30.384  29.672  1.00  0.00    -0.248 NA
ATOM     51  C   UNL A   1      42.155  31.794  31.249  1.00  0.00     0.031 C 
ATOM     52  C   UNL A   1      39.589  27.644  30.080  1.00  0.00     0.029 A 
ATOM     53  N   UNL A   1      41.556  27.916  29.052  1.00  0.00    -0.354 N 
ATOM     54  C   UNL A   1      43.977  31.471  29.912  1.00  0.00     0.074 A 
ATOM     55  C   UNL A   1      43.296  32.332  30.852  1.00  0.00     0.031 C 
ATOM     56  C   UNL A   1      39.789  26.567  29.304  1.00  0.00     0.029 A 
ATOM     57  C   UNL A   1      41.050  26.725  28.586  1.00  0.00     0.049 A 
ATOM     58  H   UNL A   1      42.426  28.279  28.771  1.00  0.00     0.167 HD
ATOM     59  C   UNL A   1      45.208  31.710  29.401  1.00  0.00     0.034 A 
ATOM     60  C   UNL A   1      41.551  25.879  27.666  1.00  0.00     0.034 A 
ATOM     61  C   UNL A   1      45.849  30.831  28.457  1.00  0.00     0.049 A 
ATOM     62  C   UNL A   1      42.885  26.215  27.046  1.00  0.00     0.074 A 
ATOM     63  C   UNL A   1      47.090  30.958  27.863  1.00  0.00     0.029 A 
ATOM     64  N   UNL A   1      45.287  29.659  27.959  1.00  0.00    -0.354 N 
ATOM     65  N   UNL A   1      43.672  27.241  27.284  1.00  0.00    -0.248 NA
ATOM     66  C   UNL A   1      43.403  25.279  26.043  1.00  0.00     0.031 C 
ATOM     67  C   UNL A   1      47.246  29.910  26.950  1.00  0.00     0.029 A 
ATOM     68  C   UNL A   1      46.142  29.074  27.039  1.00  0.00     0.049 A 
ATOM     69  H   UNL A   1      44.410  29.298  28.222  1.00  0.00     0.167 HD
ATOM     70  C   UNL A   1      44.795  27.053  26.483  1.00  0.00     0.074 A 
ATOM     71  C   UNL A   1      44.587  25.806  25.773  1.00  0.00     0.031 C 
ATOM     72  C   UNL A   1      45.898  27.832  26.342  1.00  0.00     0.034 A 
BRANCH  59  73
ATOM     73  C   UNL A   1      45.898  32.986  29.814  1.00  0.00     0.023 A 
ATOM     74  C   UNL A   1      46.815  33.022  30.880  1.00  0.00     0.031 A 
ATOM     75  C   UNL A   1      45.611  34.194  29.154  1.00  0.00     0.131 A 
ATOM     76  C   UNL A   1      47.359  34.248  31.295  1.00  0.00     0.055 A 
ATOM     77  C   UNL A   1      46.218  35.396  29.519  1.00  0.00     0.041 A 
ATOM     78  F   UNL A   1      44.720  34.228  28.151  1.00  0.00    -0.206 F 
ATOM     79  C   UNL A   1      47.088  35.431  30.605  1.00  0.00     0.022 A 
BRANCH  76  80
ATOM     80  S   UNL A   1      48.311  34.297  32.838  1.00  0.00     0.124 S 
ATOM     81  O   UNL A   1      47.248  34.246  33.840  1.00  0.00    -0.237 OA
ATOM     82  O   UNL A   1      49.147  33.108  32.731  1.00  0.00    -0.237 OA
ATOM     83  O   UNL A   1      49.023  35.571  32.761  1.00  0.00    -0.744 OA
ENDBRANCH  76  80
ENDBRANCH  59  73
BRANCH  60  84
ATOM     84  C   UNL A   1      40.790  24.665  27.256  1.00  0.00     0.023 A 
ATOM     85  C   UNL A   1      41.394  23.399  27.245  1.00  0.00     0.031 A 
ATOM     86  C   UNL A   1      39.457  24.761  26.814  1.00  0.00     0.131 A 
ATOM     87  C   UNL A   1      40.689  22.291  26.749  1.00  0.00     0.055 A 
ATOM     88  C   UNL A   1      38.739  23.645  26.382  1.00  0.00     0.041 A 
ATOM     89  F   UNL A   1      38.828  25.947  26.803  1.00  0.00    -0.206 F 
ATOM     90  C   UNL A   1      39.361  22.402  26.333  1.00  0.00     0.022 A 
BRANCH  87  91
ATOM     91  S   UNL A   1      41.573  20.719  26.554  1.00  0.00     0.124 S 
ATOM     92  O   UNL A   1      42.067  20.489  27.908  1.00  0.00    -0.237 OA
ATOM     93  O   UNL A   1      40.510  19.830  26.099  1.00  0.00    -0.237 OA
ATOM     94  O   UNL A   1      42.597  21.026  25.559  1.00  0.00    -0.744 OA
ENDBRANCH  87  91
ENDBRANCH  60  84
BRANCH  72  95
ATOM     95  C   UNL A   1      46.975  27.325  25.415  1.00  0.00     0.023 A 
ATOM     96  C   UNL A   1      47.150  27.854  24.125  1.00  0.00     0.031 A 
ATOM     97  C   UNL A   1      47.833  26.290  25.830  1.00  0.00     0.131 A 
ATOM     98  C   UNL A   1      48.114  27.303  23.271  1.00  0.00     0.055 A 
ATOM     99  C   UNL A   1      48.840  25.796  25.001  1.00  0.00     0.041 A 
ATOM    100  F   UNL A   1      47.709  25.746  27.051  1.00  0.00    -0.206 F 
ATOM    101  C   UNL A   1      48.974  26.291  23.708  1.00  0.00     0.022 A 
BRANCH  98 102
ATOM    102  S   UNL A   1      48.156  27.850  21.544  1.00  0.00     0.124 S 
ATOM    103  O   UNL A   1      46.847  28.479  21.394  1.00  0.00    -0.237 OA
ATOM    104  O   UNL A   1      49.302  28.753  21.530  1.00  0.00    -0.237 OA
ATOM    105  O   UNL A   1      48.337  26.609  20.795  1.00  0.00    -0.744 OA
ENDBRANCH  98 102
ENDBRANCH  72  95
ENDBRANCH  46  47
ENDBRANCH  39  41
ENDBRANCH  38  39
ENDBRANCH  37  38
ENDBRANCH  36  37
ENDBRANCH  35  36
ENDBRANCH   1  35
TORSDOF 22
ENDMDL
MODEL 3
REMARK VINA RESULT:     -10.8      4.051     10.317
REMARK SMILES CCc1ccc(N2C(=O)/C(=C/c3cc(Cl)c(OCC(=O)OCCOCCOC(=O)c4ccc(-c5c6nc(c(-c7cc(S(=O)(=O)[O-])ccc7F)c7ccc([nH]7)c(-c7cc(S(=O)(=O)[O-])ccc7F)c7nc(c(-c8cc(S(=O)(=O)[O-])ccc8F)c8ccc5[nH]8)C=C7)C=C6)cc4)c(Cl)c3)C(=O)NC2=S)cc1
REMARK SMILES IDX 23 1 22 2 21 3 19 4 20 5 18 6 17 7 16 8 12 9 13 10 95 11
REMARK SMILES IDX 14 12 93 13 15 14 94 15 11 16 7 17 8 18 99 19 9 20 10 21
REMARK SMILES IDX 98 22 100 23 96 24 97 26 6 27 3 28 4 29 102 30 5 31 101 32
REMARK SMILES IDX 2 33 1 34 24 35 25 36 26 37 27 38 28 39 29 40 30 41 31 42
REMARK SMILES IDX 92 43 32 44 91 45 33 46 34 47 35 48 85 49 36 50 90 51 84 52
REMARK SMILES IDX 86 53 37 54 89 55 83 56 82 57 38 59 70 60 50 61 69 62 51 63
REMARK SMILES IDX 54 64 68 65 87 66 52 67 53 68 67 70 88 71 55 72 39 73 40 74
REMARK SMILES IDX 48 75 41 76 47 77 49 78 46 79 42 80 43 81 44 82 45 83 71 84
REMARK SMILES IDX 72 85 80 86 73 87 79 88 81 89 78 90 74 91 75 92 76 93 77 94
REMARK SMILES IDX 56 95 57 96 65 97 58 98 64 99 66 100 63 101 59 102 60 103
REMARK SMILES IDX 61 104 62 105
REMARK H PARENT 98 25 86 58 54 69
REMARK Flexibility Score: inf
ROOT
ATOM      1  C   UNL A   1      45.839  23.625  27.555  1.00  0.00     0.202 C 
ENDROOT
BRANCH   1   2
ATOM      2  C   UNL A   1      45.088  24.552  28.522  1.00  0.00     0.261 C 
BRANCH   2   3
ATOM      3  O   UNL A   1      43.644  24.439  28.526  1.00  0.00    -0.461 OA
BRANCH   3   4
ATOM      4  C   UNL A   1      43.138  23.319  29.117  1.00  0.00     0.344 C 
ATOM      5  O   UNL A   1      43.455  22.926  30.236  1.00  0.00    -0.248 OA
BRANCH   4   6
ATOM      6  C   UNL A   1      42.209  22.492  28.202  1.00  0.00     0.352 C 
BRANCH   6   7
ATOM      7  O   UNL A   1      40.803  22.416  28.253  1.00  0.00    -0.479 OA
BRANCH   7   8
ATOM      8  C   UNL A   1      39.956  22.537  27.189  1.00  0.00     0.157 A 
ATOM      9  C   UNL A   1      37.815  23.056  25.368  1.00  0.00    -0.021 A 
ATOM     10  C   UNL A   1      38.297  24.065  26.205  1.00  0.00     0.032 A 
ATOM     11  C   UNL A   1      38.480  21.828  25.365  1.00  0.00     0.032 A 
ATOM     12  C   UNL A   1      39.351  23.811  27.093  1.00  0.00     0.085 A 
ATOM     13  C   UNL A   1      39.555  21.573  26.251  1.00  0.00     0.085 A 
ATOM     14  Cl  UNL A   1      39.836  25.117  28.126  1.00  0.00    -0.080 Cl
ATOM     15  Cl  UNL A   1      40.296  20.023  26.089  1.00  0.00    -0.080 Cl
BRANCH   9  16
ATOM     16  C   UNL A   1      36.652  23.361  24.518  1.00  0.00     0.028 C 
ATOM     17  N   UNL A   1      33.254  24.119  24.705  1.00  0.00    -0.253 N 
ATOM     18  C   UNL A   1      34.350  23.719  23.920  1.00  0.00     0.270 C 
ATOM     19  C   UNL A   1      32.884  23.452  25.886  1.00  0.00     0.187 C 
ATOM     20  O   UNL A   1      34.564  24.000  22.742  1.00  0.00    -0.268 OA
ATOM     21  C   UNL A   1      35.370  22.967  24.683  1.00  0.00     0.106 C 
ATOM     22  N   UNL A   1      33.723  22.433  26.288  1.00  0.00    -0.298 N 
ATOM     23  S   UNL A   1      31.495  23.676  26.803  1.00  0.00    -0.040 S 
ATOM     24  C   UNL A   1      34.884  22.028  25.694  1.00  0.00     0.263 C 
ATOM     25  H   UNL A   1      33.453  21.941  27.098  1.00  0.00     0.172 HD
ATOM     26  O   UNL A   1      35.443  20.965  25.928  1.00  0.00    -0.269 OA
BRANCH  17  27
ATOM     27  C   UNL A   1      32.585  25.315  24.275  1.00  0.00     0.052 A 
ATOM     28  C   UNL A   1      30.940  27.537  23.710  1.00  0.00    -0.048 A 
ATOM     29  C   UNL A   1      31.966  27.632  24.658  1.00  0.00     0.006 A 
ATOM     30  C   UNL A   1      30.772  26.335  23.015  1.00  0.00     0.006 A 
ATOM     31  C   UNL A   1      32.778  26.532  24.939  1.00  0.00     0.027 A 
ATOM     32  C   UNL A   1      31.587  25.235  23.293  1.00  0.00     0.027 A 
BRANCH  28  33
ATOM     33  C   UNL A   1      30.002  28.692  23.470  1.00  0.00     0.032 C 
ATOM     34  C   UNL A   1      30.333  29.468  22.206  1.00  0.00     0.009 C 
ENDBRANCH  28  33
ENDBRANCH  17  27
ENDBRANCH   9  16
ENDBRANCH   7   8
ENDBRANCH   6   7
ENDBRANCH   4   6
ENDBRANCH   3   4
ENDBRANCH   2   3
ENDBRANCH   1   2
BRANCH   1  35
ATOM     35  O   UNL A   1      45.797  23.896  26.165  1.00  0.00    -0.374 OA
BRANCH  35  36
ATOM     36  C   UNL A   1      44.751  23.346  25.386  1.00  0.00     0.202 C 
BRANCH  36  37
ATOM     37  C   UNL A   1      43.562  24.216  24.967  1.00  0.00     0.261 C 
BRANCH  37  38
ATOM     38  O   UNL A   1      43.550  25.569  25.355  1.00  0.00    -0.460 OA
BRANCH  38  39
ATOM     39  C   UNL A   1      42.344  26.149  25.439  1.00  0.00     0.338 C 
ATOM     40  O   UNL A   1      41.269  25.754  25.028  1.00  0.00    -0.246 OA
BRANCH  39  41
ATOM     41  C   UNL A   1      42.608  27.383  26.169  1.00  0.00     0.060 A 
ATOM     42  C   UNL A   1      43.562  27.355  27.183  1.00  0.00     0.016 A 
ATOM     43  C   UNL A   1      41.976  28.567  25.769  1.00  0.00     0.016 A 
ATOM     44  C   UNL A   1      43.850  28.530  27.856  1.00  0.00     0.010 A 
ATOM     45  C   UNL A   1      42.275  29.744  26.440  1.00  0.00     0.010 A 
ATOM     46  C   UNL A   1      43.185  29.714  27.509  1.00  0.00    -0.014 A 
BRANCH  46  47
ATOM     47  C   UNL A   1      43.332  30.893  28.381  1.00  0.00     0.031 A 
ATOM     48  C   UNL A   1      44.412  31.881  28.057  1.00  0.00     0.074 A 
ATOM     49  C   UNL A   1      42.471  31.083  29.394  1.00  0.00     0.049 A 
ATOM     50  N   UNL A   1      44.728  32.990  28.666  1.00  0.00    -0.248 NA
ATOM     51  C   UNL A   1      45.255  31.572  26.888  1.00  0.00     0.031 C 
ATOM     52  C   UNL A   1      41.372  30.183  29.746  1.00  0.00     0.029 A 
ATOM     53  N   UNL A   1      42.380  32.099  30.305  1.00  0.00    -0.354 N 
ATOM     54  C   UNL A   1      45.801  33.515  27.955  1.00  0.00     0.074 A 
ATOM     55  C   UNL A   1      46.116  32.576  26.902  1.00  0.00     0.031 C 
ATOM     56  C   UNL A   1      40.706  30.696  30.792  1.00  0.00     0.029 A 
ATOM     57  C   UNL A   1      41.359  31.933  31.211  1.00  0.00     0.049 A 
ATOM     58  H   UNL A   1      42.985  32.874  30.311  1.00  0.00     0.167 HD
ATOM     59  C   UNL A   1      46.447  34.687  28.159  1.00  0.00     0.034 A 
ATOM     60  C   UNL A   1      41.014  32.693  32.268  1.00  0.00     0.034 A 
ATOM     61  C   UNL A   1      46.109  35.592  29.228  1.00  0.00     0.049 A 
ATOM     62  C   UNL A   1      41.809  33.949  32.526  1.00  0.00     0.074 A 
ATOM     63  C   UNL A   1      46.685  36.808  29.545  1.00  0.00     0.029 A 
ATOM     64  N   UNL A   1      45.106  35.371  30.165  1.00  0.00    -0.354 N 
ATOM     65  N   UNL A   1      42.817  34.445  31.843  1.00  0.00    -0.248 NA
ATOM     66  C   UNL A   1      41.415  34.754  33.687  1.00  0.00     0.031 C 
ATOM     67  C   UNL A   1      46.085  37.282  30.715  1.00  0.00     0.029 A 
ATOM     68  C   UNL A   1      45.070  36.410  31.081  1.00  0.00     0.049 A 
ATOM     69  H   UNL A   1      44.507  34.589  30.176  1.00  0.00     0.167 HD
ATOM     70  C   UNL A   1      43.155  35.638  32.476  1.00  0.00     0.074 A 
ATOM     71  C   UNL A   1      42.229  35.792  33.580  1.00  0.00     0.031 C 
ATOM     72  C   UNL A   1      44.137  36.527  32.178  1.00  0.00     0.034 A 
BRANCH  59  73
ATOM     73  C   UNL A   1      47.602  35.015  27.245  1.00  0.00     0.023 A 
ATOM     74  C   UNL A   1      48.896  34.512  27.474  1.00  0.00     0.031 A 
ATOM     75  C   UNL A   1      47.416  35.871  26.146  1.00  0.00     0.131 A 
ATOM     76  C   UNL A   1      49.962  34.921  26.657  1.00  0.00     0.055 A 
ATOM     77  C   UNL A   1      48.464  36.209  25.289  1.00  0.00     0.041 A 
ATOM     78  F   UNL A   1      46.211  36.408  25.896  1.00  0.00    -0.206 F 
ATOM     79  C   UNL A   1      49.750  35.745  25.549  1.00  0.00     0.022 A 
BRANCH  76  80
ATOM     80  S   UNL A   1      51.650  34.480  27.149  1.00  0.00     0.124 S 
ATOM     81  O   UNL A   1      52.317  34.379  25.852  1.00  0.00    -0.237 OA
ATOM     82  O   UNL A   1      52.041  35.609  27.983  1.00  0.00    -0.237 OA
ATOM     83  O   UNL A   1      51.481  33.210  27.854  1.00  0.00    -0.744 OA
ENDBRANCH  76  80
ENDBRANCH  59  73
BRANCH  60  84
ATOM     84  C   UNL A   1      39.901  32.281  33.170  1.00  0.00     0.023 A 
ATOM     85  C   UNL A   1      38.641  32.896  33.095  1.00  0.00     0.031 A 
ATOM     86  C   UNL A   1      40.095  31.301  34.160  1.00  0.00     0.131 A 
ATOM     87  C   UNL A   1      37.645  32.568  34.027  1.00  0.00     0.055 A 
ATOM     88  C   UNL A   1      39.081  30.932  35.045  1.00  0.00     0.041 A 
ATOM     89  F   UNL A   1      41.279  30.680  34.278  1.00  0.00    -0.206 F 
ATOM     90  C   UNL A   1      37.851  31.579  34.991  1.00  0.00     0.022 A 
BRANCH  87  91
ATOM     91  S   UNL A   1      36.110  33.533  34.030  1.00  0.00     0.124 S 
ATOM     92  O   UNL A   1      36.571  34.822  33.527  1.00  0.00    -0.237 OA
ATOM     93  O   UNL A   1      35.265  32.758  33.129  1.00  0.00    -0.237 OA
ATOM     94  O   UNL A   1      35.703  33.519  35.433  1.00  0.00    -0.744 OA
ENDBRANCH  87  91
ENDBRANCH  60  84
BRANCH  72  95
ATOM     95  C   UNL A   1      44.220  37.763  33.039  1.00  0.00     0.023 A 
ATOM     96  C   UNL A   1      43.456  38.909  32.762  1.00  0.00     0.031 A 
ATOM     97  C   UNL A   1      45.083  37.793  34.149  1.00  0.00     0.131 A 
ATOM     98  C   UNL A   1      43.619  40.060  33.544  1.00  0.00     0.055 A 
ATOM     99  C   UNL A   1      45.187  38.917  34.968  1.00  0.00     0.041 A 
ATOM    100  F   UNL A   1      45.838  36.726  34.458  1.00  0.00    -0.206 F 
ATOM    101  C   UNL A   1      44.463  40.065  34.658  1.00  0.00     0.022 A 
BRANCH  98 102
ATOM    102  S   UNL A   1      42.794  41.587  33.021  1.00  0.00     0.124 S 
ATOM    103  O   UNL A   1      41.963  41.895  34.180  1.00  0.00    -0.237 OA
ATOM    104  O   UNL A   1      43.920  42.485  32.786  1.00  0.00    -0.237 OA
ATOM    105  O   UNL A   1      42.062  41.187  31.821  1.00  0.00    -0.744 OA
ENDBRANCH  98 102
ENDBRANCH  72  95
ENDBRANCH  46  47
ENDBRANCH  39  41
ENDBRANCH  38  39
ENDBRANCH  37  38
ENDBRANCH  36  37
ENDBRANCH  35  36
ENDBRANCH   1  35
TORSDOF 22
ENDMDL
