MODEL 1
REMARK VINA RESULT:     -11.7      0.000      0.000
REMARK SMILES Cc1ccc(C(=O)NC2(CC(=O)OCCOCCOC(=O)c3ccc(-c4c5nc(c(-c6cc(S(=O)(=O)[O-])ccc6F)c6ccc([nH]6)c(-c6cc(S(=O)(=O)[O-])ccc6F)c6nc(c(-c7cc(S(=O)(=O)[O-])ccc7F)c7ccc4[nH]7)C=C6)C=C5)cc3)CCC2)cc1
REMARK SMILES IDX 16 1 15 2 14 3 13 4 11 5 12 6 10 7 9 8 85 9 87 10 86 11 8 12
REMARK SMILES IDX 6 13 7 14 5 16 1 17 2 18 3 19 89 20 4 21 88 22 17 23 18 24
REMARK SMILES IDX 19 25 20 26 21 27 22 28 23 29 84 30 24 31 83 32 25 33 26 34
REMARK SMILES IDX 27 35 77 36 28 37 82 38 76 39 78 40 29 41 81 42 75 43 74 44
REMARK SMILES IDX 30 46 62 47 42 48 61 49 43 50 46 51 60 52 79 53 44 54 45 55
REMARK SMILES IDX 59 57 80 58 47 59 31 60 32 61 40 62 33 63 39 64 41 65 38 66
REMARK SMILES IDX 34 67 35 68 36 69 37 70 63 71 64 72 72 73 65 74 71 75 73 76
REMARK SMILES IDX 70 77 66 78 67 79 68 80 69 81 48 82 49 83 57 84 50 85 56 86
REMARK SMILES IDX 58 87 55 88 51 89 52 90 53 91 54 92
REMARK H PARENT 8 15 78 45 46 56
REMARK Flexibility Score: inf
ROOT
ATOM      1  O   UNL A   1      37.497  23.293  24.990  1.00  0.00    -0.374 OA
ENDROOT
BRANCH   1   2
ATOM      2  C   UNL A   1      36.661  23.045  23.884  1.00  0.00     0.202 C 
BRANCH   2   3
ATOM      3  C   UNL A   1      35.294  23.841  24.036  1.00  0.00     0.261 C 
BRANCH   3   4
ATOM      4  O   UNL A   1      34.203  24.939  22.726  1.00  0.00    -0.463 OA
BRANCH   4   5
ATOM      5  C   UNL A   1      33.256  26.020  22.342  1.00  0.00     0.308 C 
ATOM      6  O   UNL A   1      33.380  26.683  21.307  1.00  0.00    -0.252 OA
BRANCH   5   7
ATOM      7  C   UNL A   1      32.031  26.257  23.224  1.00  0.00     0.151 C 
BRANCH   7   8
ATOM      8  C   UNL A   1      32.203  26.676  24.708  1.00  0.00     0.051 C 
ATOM      9  C   UNL A   1      32.186  28.248  24.959  1.00  0.00     0.029 C 
ATOM     10  C   UNL A   1      33.688  26.799  25.222  1.00  0.00     0.029 C 
ATOM     11  C   UNL A   1      33.703  28.257  24.770  1.00  0.00     0.005 C 
BRANCH   8  12
ATOM     12  N   UNL A   1      31.220  26.055  25.666  1.00  0.00    -0.346 N 
ATOM     13  C   UNL A   1      31.022  24.740  26.015  1.00  0.00     0.251 C 
ATOM     14  O   UNL A   1      30.039  24.355  26.639  1.00  0.00    -0.269 OA
ATOM     15  H   UNL A   1      30.622  26.695  26.117  1.00  0.00     0.164 HD
BRANCH  13  16
ATOM     16  C   UNL A   1      31.979  23.767  25.520  1.00  0.00     0.039 A 
ATOM     17  C   UNL A   1      34.158  19.170  24.820  1.00  0.00     0.044 C 
ATOM     18  C   UNL A   1      33.462  20.517  24.877  1.00  0.00    -0.051 A 
ATOM     19  C   UNL A   1      33.778  21.428  26.363  1.00  0.00     0.004 A 
ATOM     20  C   UNL A   1      32.342  21.254  23.734  1.00  0.00     0.004 A 
ATOM     21  C   UNL A   1      33.022  22.992  26.749  1.00  0.00     0.014 A 
ATOM     22  C   UNL A   1      31.660  22.913  23.993  1.00  0.00     0.014 A 
ENDBRANCH  13  16
ENDBRANCH   8  12
ENDBRANCH   7   8
ENDBRANCH   5   7
ENDBRANCH   4   5
ENDBRANCH   3   4
ENDBRANCH   2   3
ENDBRANCH   1   2
BRANCH   1  23
ATOM     23  C   UNL A   1      37.823  22.180  25.777  1.00  0.00     0.202 C 
BRANCH  23  24
ATOM     24  C   UNL A   1      39.165  22.596  26.334  1.00  0.00     0.261 C 
BRANCH  24  25
ATOM     25  O   UNL A   1      39.064  24.030  26.634  1.00  0.00    -0.460 OA
BRANCH  25  26
ATOM     26  C   UNL A   1      39.937  24.553  27.561  1.00  0.00     0.338 C 
ATOM     27  O   UNL A   1      40.852  23.923  28.072  1.00  0.00    -0.246 OA
BRANCH  26  28
ATOM     28  C   UNL A   1      39.566  25.976  27.966  1.00  0.00     0.060 A 
ATOM     29  C   UNL A   1      39.883  27.096  27.157  1.00  0.00     0.016 A 
ATOM     30  C   UNL A   1      39.192  26.236  29.282  1.00  0.00     0.016 A 
ATOM     31  C   UNL A   1      40.011  28.422  27.708  1.00  0.00     0.010 A 
ATOM     32  C   UNL A   1      39.425  27.512  29.840  1.00  0.00     0.010 A 
ATOM     33  C   UNL A   1      39.961  28.609  29.101  1.00  0.00    -0.014 A 
BRANCH  33  34
ATOM     34  C   UNL A   1      40.600  29.768  29.898  1.00  0.00     0.031 A 
ATOM     35  C   UNL A   1      39.528  30.687  30.288  1.00  0.00     0.074 A 
ATOM     36  C   UNL A   1      41.873  30.217  30.235  1.00  0.00     0.049 A 
ATOM     37  N   UNL A   1      39.375  31.846  29.725  1.00  0.00    -0.248 NA
ATOM     38  C   UNL A   1      38.392  30.227  31.096  1.00  0.00     0.031 C 
ATOM     39  C   UNL A   1      42.210  31.106  31.363  1.00  0.00     0.029 A 
ATOM     40  N   UNL A   1      43.178  29.834  29.846  1.00  0.00    -0.354 N 
ATOM     41  C   UNL A   1      38.290  32.360  30.384  1.00  0.00     0.074 A 
ATOM     42  C   UNL A   1      37.531  31.203  30.822  1.00  0.00     0.031 C 
ATOM     43  C   UNL A   1      43.556  31.211  31.516  1.00  0.00     0.029 A 
ATOM     44  C   UNL A   1      44.278  30.517  30.421  1.00  0.00     0.049 A 
ATOM     45  H   UNL A   1      43.318  29.110  29.194  1.00  0.00     0.167 HD
ATOM     46  C   UNL A   1      38.386  33.508  31.116  1.00  0.00     0.034 A 
ATOM     47  C   UNL A   1      45.525  30.863  29.870  1.00  0.00     0.034 A 
ATOM     48  C   UNL A   1      39.783  33.978  31.274  1.00  0.00     0.049 A 
ATOM     49  C   UNL A   1      45.230  32.340  29.486  1.00  0.00     0.074 A 
ATOM     50  C   UNL A   1      40.617  34.140  32.372  1.00  0.00     0.029 A 
ATOM     51  N   UNL A   1      40.640  34.093  30.174  1.00  0.00    -0.354 N 
ATOM     52  N   UNL A   1      44.288  33.054  30.049  1.00  0.00    -0.248 NA
ATOM     53  C   UNL A   1      45.836  33.056  28.369  1.00  0.00     0.031 C 
ATOM     54  C   UNL A   1      41.929  34.471  31.919  1.00  0.00     0.029 A 
ATOM     55  C   UNL A   1      41.916  34.505  30.540  1.00  0.00     0.049 A 
ATOM     56  H   UNL A   1      40.369  33.903  29.247  1.00  0.00     0.167 HD
ATOM     57  C   UNL A   1      43.967  34.119  29.267  1.00  0.00     0.074 A 
ATOM     58  C   UNL A   1      44.986  34.084  28.224  1.00  0.00     0.031 C 
ATOM     59  C   UNL A   1      42.875  34.911  29.512  1.00  0.00     0.034 A 
BRANCH  46  60
ATOM     60  C   UNL A   1      37.223  33.845  32.036  1.00  0.00     0.023 A 
ATOM     61  C   UNL A   1      36.037  34.378  31.525  1.00  0.00     0.031 A 
ATOM     62  C   UNL A   1      37.259  33.687  33.447  1.00  0.00     0.131 A 
ATOM     63  C   UNL A   1      35.030  34.857  32.382  1.00  0.00     0.055 A 
ATOM     64  C   UNL A   1      36.302  34.243  34.302  1.00  0.00     0.041 A 
ATOM     65  F   UNL A   1      38.248  33.000  34.047  1.00  0.00    -0.206 F 
ATOM     66  C   UNL A   1      35.178  34.849  33.766  1.00  0.00     0.022 A 
BRANCH  63  67
ATOM     67  S   UNL A   1      33.477  35.418  31.643  1.00  0.00     0.124 S 
ATOM     68  O   UNL A   1      33.461  34.693  30.377  1.00  0.00    -0.237 OA
ATOM     69  O   UNL A   1      32.495  35.002  32.639  1.00  0.00    -0.237 OA
ATOM     70  O   UNL A   1      33.662  36.864  31.530  1.00  0.00    -0.744 OA
ENDBRANCH  63  67
ENDBRANCH  46  60
BRANCH  47  71
ATOM     71  C   UNL A   1      46.576  29.964  28.985  1.00  0.00     0.023 A 
ATOM     72  C   UNL A   1      46.206  28.963  27.995  1.00  0.00     0.031 A 
ATOM     73  C   UNL A   1      47.956  30.256  28.944  1.00  0.00     0.131 A 
ATOM     74  C   UNL A   1      47.065  28.680  26.840  1.00  0.00     0.055 A 
ATOM     75  C   UNL A   1      48.804  29.926  27.854  1.00  0.00     0.041 A 
ATOM     76  F   UNL A   1      48.517  31.052  29.863  1.00  0.00    -0.206 F 
ATOM     77  C   UNL A   1      48.335  29.229  26.755  1.00  0.00     0.022 A 
BRANCH  74  78
ATOM     78  S   UNL A   1      46.441  28.023  25.175  1.00  0.00     0.124 S 
ATOM     79  O   UNL A   1      47.222  26.807  24.993  1.00  0.00    -0.237 OA
ATOM     80  O   UNL A   1      45.014  27.828  25.401  1.00  0.00    -0.237 OA
ATOM     81  O   UNL A   1      46.776  29.097  24.236  1.00  0.00    -0.744 OA
ENDBRANCH  74  78
ENDBRANCH  47  71
BRANCH  59  82
ATOM     82  C   UNL A   1      42.646  36.212  28.790  1.00  0.00     0.023 A 
ATOM     83  C   UNL A   1      42.972  37.428  29.393  1.00  0.00     0.031 A 
ATOM     84  C   UNL A   1      42.015  36.305  27.530  1.00  0.00     0.131 A 
ATOM     85  C   UNL A   1      42.886  38.631  28.690  1.00  0.00     0.055 A 
ATOM     86  C   UNL A   1      41.815  37.520  26.875  1.00  0.00     0.041 A 
ATOM     87  F   UNL A   1      41.557  35.233  26.871  1.00  0.00    -0.206 F 
ATOM     88  C   UNL A   1      42.293  38.693  27.435  1.00  0.00     0.022 A 
BRANCH  85  89
ATOM     89  S   UNL A   1      43.685  40.070  29.428  1.00  0.00     0.124 S 
ATOM     90  O   UNL A   1      42.966  40.224  30.688  1.00  0.00    -0.237 OA
ATOM     91  O   UNL A   1      45.067  39.609  29.543  1.00  0.00    -0.237 OA
ATOM     92  O   UNL A   1      43.460  41.127  28.445  1.00  0.00    -0.744 OA
ENDBRANCH  85  89
ENDBRANCH  59  82
ENDBRANCH  33  34
ENDBRANCH  26  28
ENDBRANCH  25  26
ENDBRANCH  24  25
ENDBRANCH  23  24
ENDBRANCH   1  23
TORSDOF 20
ENDMDL
MODEL 2
REMARK VINA RESULT:     -11.3      3.247      4.217
REMARK SMILES Cc1ccc(C(=O)NC2(CC(=O)OCCOCCOC(=O)c3ccc(-c4c5nc(c(-c6cc(S(=O)(=O)[O-])ccc6F)c6ccc([nH]6)c(-c6cc(S(=O)(=O)[O-])ccc6F)c6nc(c(-c7cc(S(=O)(=O)[O-])ccc7F)c7ccc4[nH]7)C=C6)C=C5)cc3)CCC2)cc1
REMARK SMILES IDX 16 1 15 2 14 3 13 4 11 5 12 6 10 7 9 8 85 9 87 10 86 11 8 12
REMARK SMILES IDX 6 13 7 14 5 16 1 17 2 18 3 19 89 20 4 21 88 22 17 23 18 24
REMARK SMILES IDX 19 25 20 26 21 27 22 28 23 29 84 30 24 31 83 32 25 33 26 34
REMARK SMILES IDX 27 35 77 36 28 37 82 38 76 39 78 40 29 41 81 42 75 43 74 44
REMARK SMILES IDX 30 46 62 47 42 48 61 49 43 50 46 51 60 52 79 53 44 54 45 55
REMARK SMILES IDX 59 57 80 58 47 59 31 60 32 61 40 62 33 63 39 64 41 65 38 66
REMARK SMILES IDX 34 67 35 68 36 69 37 70 63 71 64 72 72 73 65 74 71 75 73 76
REMARK SMILES IDX 70 77 66 78 67 79 68 80 69 81 48 82 49 83 57 84 50 85 56 86
REMARK SMILES IDX 58 87 55 88 51 89 52 90 53 91 54 92
REMARK H PARENT 8 15 78 45 46 56
REMARK Flexibility Score: inf
ROOT
ATOM      1  O   UNL A   1      37.756  22.878  25.145  1.00  0.00    -0.374 OA
ENDROOT
BRANCH   1   2
ATOM      2  C   UNL A   1      36.755  22.663  24.178  1.00  0.00     0.202 C 
BRANCH   2   3
ATOM      3  C   UNL A   1      35.668  23.821  24.239  1.00  0.00     0.261 C 
BRANCH   3   4
ATOM      4  O   UNL A   1      34.467  24.639  22.826  1.00  0.00    -0.463 OA
BRANCH   4   5
ATOM      5  C   UNL A   1      33.380  25.531  22.341  1.00  0.00     0.308 C 
ATOM      6  O   UNL A   1      33.406  26.077  21.233  1.00  0.00    -0.252 OA
BRANCH   5   7
ATOM      7  C   UNL A   1      32.139  25.704  23.216  1.00  0.00     0.151 C 
BRANCH   7   8
ATOM      8  C   UNL A   1      32.258  26.338  24.627  1.00  0.00     0.051 C 
ATOM      9  C   UNL A   1      32.012  27.910  24.670  1.00  0.00     0.029 C 
ATOM     10  C   UNL A   1      33.713  26.743  25.080  1.00  0.00     0.029 C 
ATOM     11  C   UNL A   1      33.510  28.114  24.440  1.00  0.00     0.005 C 
BRANCH   8  12
ATOM     12  N   UNL A   1      31.384  25.715  25.684  1.00  0.00    -0.346 N 
ATOM     13  C   UNL A   1      31.254  24.404  26.077  1.00  0.00     0.251 C 
ATOM     14  O   UNL A   1      30.343  24.010  26.796  1.00  0.00    -0.269 OA
ATOM     15  H   UNL A   1      30.814  26.351  26.175  1.00  0.00     0.164 HD
BRANCH  13  16
ATOM     16  C   UNL A   1      32.187  23.445  25.515  1.00  0.00     0.039 A 
ATOM     17  C   UNL A   1      34.357  18.873  24.643  1.00  0.00     0.044 C 
ATOM     18  C   UNL A   1      33.654  20.213  24.754  1.00  0.00    -0.051 A 
ATOM     19  C   UNL A   1      34.054  21.114  26.225  1.00  0.00     0.004 A 
ATOM     20  C   UNL A   1      32.460  20.949  23.689  1.00  0.00     0.004 A 
ATOM     21  C   UNL A   1      33.310  22.668  26.672  1.00  0.00     0.014 A 
ATOM     22  C   UNL A   1      31.782  22.600  24.003  1.00  0.00     0.014 A 
ENDBRANCH  13  16
ENDBRANCH   8  12
ENDBRANCH   7   8
ENDBRANCH   5   7
ENDBRANCH   4   5
ENDBRANCH   3   4
ENDBRANCH   2   3
ENDBRANCH   1   2
BRANCH   1  23
ATOM     23  C   UNL A   1      37.960  21.838  26.061  1.00  0.00     0.202 C 
BRANCH  23  24
ATOM     24  C   UNL A   1      39.470  21.798  26.129  1.00  0.00     0.261 C 
BRANCH  24  25
ATOM     25  O   UNL A   1      39.925  23.194  26.092  1.00  0.00    -0.460 OA
BRANCH  25  26
ATOM     26  C   UNL A   1      40.439  23.730  27.250  1.00  0.00     0.338 C 
ATOM     27  O   UNL A   1      41.301  23.192  27.931  1.00  0.00    -0.246 OA
BRANCH  26  28
ATOM     28  C   UNL A   1      39.731  25.020  27.653  1.00  0.00     0.060 A 
ATOM     29  C   UNL A   1      40.113  26.282  27.134  1.00  0.00     0.016 A 
ATOM     30  C   UNL A   1      38.909  25.025  28.778  1.00  0.00     0.016 A 
ATOM     31  C   UNL A   1      39.838  27.511  27.836  1.00  0.00     0.010 A 
ATOM     32  C   UNL A   1      38.736  26.215  29.518  1.00  0.00     0.010 A 
ATOM     33  C   UNL A   1      39.302  27.469  29.136  1.00  0.00    -0.014 A 
BRANCH  33  34
ATOM     34  C   UNL A   1      39.447  28.552  30.228  1.00  0.00     0.031 A 
ATOM     35  C   UNL A   1      38.613  29.693  29.840  1.00  0.00     0.074 A 
ATOM     36  C   UNL A   1      40.209  28.778  31.370  1.00  0.00     0.049 A 
ATOM     37  N   UNL A   1      39.123  30.802  29.401  1.00  0.00    -0.248 NA
ATOM     38  C   UNL A   1      37.170  29.537  29.624  1.00  0.00     0.031 C 
ATOM     39  C   UNL A   1      39.862  29.686  32.480  1.00  0.00     0.029 A 
ATOM     40  N   UNL A   1      41.315  28.116  31.952  1.00  0.00    -0.354 N 
ATOM     41  C   UNL A   1      38.016  31.574  29.174  1.00  0.00     0.074 A 
ATOM     42  C   UNL A   1      36.947  30.630  28.900  1.00  0.00     0.031 C 
ATOM     43  C   UNL A   1      40.729  29.544  33.516  1.00  0.00     0.029 A 
ATOM     44  C   UNL A   1      41.841  28.626  33.165  1.00  0.00     0.049 A 
ATOM     45  H   UNL A   1      41.710  27.322  31.525  1.00  0.00     0.167 HD
ATOM     46  C   UNL A   1      37.820  32.745  29.848  1.00  0.00     0.034 A 
ATOM     47  C   UNL A   1      43.165  28.673  33.636  1.00  0.00     0.034 A 
ATOM     48  C   UNL A   1      38.794  32.950  30.945  1.00  0.00     0.049 A 
ATOM     49  C   UNL A   1      43.518  30.136  33.251  1.00  0.00     0.074 A 
ATOM     50  C   UNL A   1      38.670  33.050  32.325  1.00  0.00     0.029 A 
ATOM     51  N   UNL A   1      40.169  32.795  30.736  1.00  0.00    -0.354 N 
ATOM     52  N   UNL A   1      42.616  31.068  33.066  1.00  0.00    -0.248 NA
ATOM     53  C   UNL A   1      44.849  30.616  32.897  1.00  0.00     0.031 C 
ATOM     54  C   UNL A   1      39.971  33.079  32.911  1.00  0.00     0.029 A 
ATOM     55  C   UNL A   1      40.905  32.986  31.899  1.00  0.00     0.049 A 
ATOM     56  H   UNL A   1      40.568  32.576  29.864  1.00  0.00     0.167 HD
ATOM     57  C   UNL A   1      43.137  32.097  32.345  1.00  0.00     0.074 A 
ATOM     58  C   UNL A   1      44.557  31.771  32.278  1.00  0.00     0.031 C 
ATOM     59  C   UNL A   1      42.361  33.103  31.831  1.00  0.00     0.034 A 
BRANCH  46  60
ATOM     60  C   UNL A   1      36.443  33.383  29.745  1.00  0.00     0.023 A 
ATOM     61  C   UNL A   1      35.747  33.773  30.891  1.00  0.00     0.031 A 
ATOM     62  C   UNL A   1      35.760  33.595  28.518  1.00  0.00     0.131 A 
ATOM     63  C   UNL A   1      34.407  34.195  30.817  1.00  0.00     0.055 A 
ATOM     64  C   UNL A   1      34.403  33.928  28.448  1.00  0.00     0.041 A 
ATOM     65  F   UNL A   1      36.389  33.460  27.337  1.00  0.00    -0.206 F 
ATOM     66  C   UNL A   1      33.711  34.219  29.611  1.00  0.00     0.022 A 
BRANCH  63  67
ATOM     67  S   UNL A   1      33.617  34.797  32.328  1.00  0.00     0.124 S 
ATOM     68  O   UNL A   1      32.377  35.372  31.817  1.00  0.00    -0.237 OA
ATOM     69  O   UNL A   1      33.487  33.575  33.114  1.00  0.00    -0.237 OA
ATOM     70  O   UNL A   1      34.583  35.763  32.850  1.00  0.00    -0.744 OA
ENDBRANCH  63  67
ENDBRANCH  46  60
BRANCH  47  71
ATOM     71  C   UNL A   1      44.324  27.511  33.650  1.00  0.00     0.023 A 
ATOM     72  C   UNL A   1      44.721  26.727  34.811  1.00  0.00     0.031 A 
ATOM     73  C   UNL A   1      44.886  27.003  32.459  1.00  0.00     0.131 A 
ATOM     74  C   UNL A   1      45.231  25.359  34.669  1.00  0.00     0.055 A 
ATOM     75  C   UNL A   1      45.439  25.701  32.335  1.00  0.00     0.041 A 
ATOM     76  F   UNL A   1      44.750  27.661  31.301  1.00  0.00    -0.206 F 
ATOM     77  C   UNL A   1      45.516  24.840  33.415  1.00  0.00     0.022 A 
BRANCH  74  78
ATOM     78  S   UNL A   1      45.082  24.016  35.998  1.00  0.00     0.124 S 
ATOM     79  O   UNL A   1      46.418  23.435  36.024  1.00  0.00    -0.237 OA
ATOM     80  O   UNL A   1      44.695  24.760  37.190  1.00  0.00    -0.237 OA
ATOM     81  O   UNL A   1      44.049  23.121  35.467  1.00  0.00    -0.744 OA
ENDBRANCH  74  78
ENDBRANCH  47  71
BRANCH  59  82
ATOM     82  C   UNL A   1      42.954  34.352  31.233  1.00  0.00     0.023 A 
ATOM     83  C   UNL A   1      43.140  34.462  29.853  1.00  0.00     0.031 A 
ATOM     84  C   UNL A   1      43.441  35.430  32.002  1.00  0.00     0.131 A 
ATOM     85  C   UNL A   1      43.567  35.658  29.273  1.00  0.00     0.055 A 
ATOM     86  C   UNL A   1      43.984  36.580  31.430  1.00  0.00     0.041 A 
ATOM     87  F   UNL A   1      43.424  35.428  33.341  1.00  0.00    -0.206 F 
ATOM     88  C   UNL A   1      44.010  36.720  30.052  1.00  0.00     0.022 A 
BRANCH  85  89
ATOM     89  S   UNL A   1      43.404  35.804  27.483  1.00  0.00     0.124 S 
ATOM     90  O   UNL A   1      41.958  35.819  27.293  1.00  0.00    -0.237 OA
ATOM     91  O   UNL A   1      44.085  37.072  27.232  1.00  0.00    -0.237 OA
ATOM     92  O   UNL A   1      44.090  34.617  26.980  1.00  0.00    -0.744 OA
ENDBRANCH  85  89
ENDBRANCH  59  82
ENDBRANCH  33  34
ENDBRANCH  26  28
ENDBRANCH  25  26
ENDBRANCH  24  25
ENDBRANCH  23  24
ENDBRANCH   1  23
TORSDOF 20
ENDMDL
MODEL 3
REMARK VINA RESULT:     -10.9      4.541     10.314
REMARK SMILES Cc1ccc(C(=O)NC2(CC(=O)OCCOCCOC(=O)c3ccc(-c4c5nc(c(-c6cc(S(=O)(=O)[O-])ccc6F)c6ccc([nH]6)c(-c6cc(S(=O)(=O)[O-])ccc6F)c6nc(c(-c7cc(S(=O)(=O)[O-])ccc7F)c7ccc4[nH]7)C=C6)C=C5)cc3)CCC2)cc1
REMARK SMILES IDX 16 1 15 2 14 3 13 4 11 5 12 6 10 7 9 8 85 9 87 10 86 11 8 12
REMARK SMILES IDX 6 13 7 14 5 16 1 17 2 18 3 19 89 20 4 21 88 22 17 23 18 24
REMARK SMILES IDX 19 25 20 26 21 27 22 28 23 29 84 30 24 31 83 32 25 33 26 34
REMARK SMILES IDX 27 35 77 36 28 37 82 38 76 39 78 40 29 41 81 42 75 43 74 44
REMARK SMILES IDX 30 46 62 47 42 48 61 49 43 50 46 51 60 52 79 53 44 54 45 55
REMARK SMILES IDX 59 57 80 58 47 59 31 60 32 61 40 62 33 63 39 64 41 65 38 66
REMARK SMILES IDX 34 67 35 68 36 69 37 70 63 71 64 72 72 73 65 74 71 75 73 76
REMARK SMILES IDX 70 77 66 78 67 79 68 80 69 81 48 82 49 83 57 84 50 85 56 86
REMARK SMILES IDX 58 87 55 88 51 89 52 90 53 91 54 92
REMARK H PARENT 8 15 78 45 46 56
REMARK Flexibility Score: inf
ROOT
ATOM      1  O   UNL A   1      33.801  32.741  27.761  1.00  0.00    -0.374 OA
ENDROOT
BRANCH   1   2
ATOM      2  C   UNL A   1      33.095  31.565  27.440  1.00  0.00     0.202 C 
BRANCH   2   3
ATOM      3  C   UNL A   1      34.054  30.302  27.532  1.00  0.00     0.261 C 
BRANCH   3   4
ATOM      4  O   UNL A   1      33.868  28.397  26.863  1.00  0.00    -0.463 OA
BRANCH   4   5
ATOM      5  C   UNL A   1      33.476  27.352  25.880  1.00  0.00     0.308 C 
ATOM      6  O   UNL A   1      34.177  27.050  24.909  1.00  0.00    -0.252 OA
BRANCH   5   7
ATOM      7  C   UNL A   1      32.194  26.560  26.136  1.00  0.00     0.151 C 
BRANCH   7   8
ATOM      8  C   UNL A   1      31.938  25.223  25.391  1.00  0.00     0.051 C 
ATOM      9  C   UNL A   1      30.538  24.539  25.719  1.00  0.00     0.029 C 
ATOM     10  C   UNL A   1      32.519  23.929  26.077  1.00  0.00     0.029 C 
ATOM     11  C   UNL A   1      31.217  23.784  26.862  1.00  0.00     0.005 C 
BRANCH   8  12
ATOM     12  N   UNL A   1      32.066  25.292  23.891  1.00  0.00    -0.346 N 
ATOM     13  C   UNL A   1      31.409  26.076  22.973  1.00  0.00     0.251 C 
ATOM     14  O   UNL A   1      31.452  25.870  21.766  1.00  0.00    -0.269 OA
ATOM     15  H   UNL A   1      32.729  24.675  23.505  1.00  0.00     0.164 HD
BRANCH  13  16
ATOM     16  C   UNL A   1      30.546  27.124  23.488  1.00  0.00     0.039 A 
ATOM     17  C   UNL A   1      27.517  31.270  23.384  1.00  0.00     0.044 C 
ATOM     18  C   UNL A   1      28.279  29.959  23.436  1.00  0.00    -0.051 A 
ATOM     19  C   UNL A   1      30.040  30.151  23.436  1.00  0.00     0.004 A 
ATOM     20  C   UNL A   1      27.676  28.304  23.415  1.00  0.00     0.004 A 
ATOM     21  C   UNL A   1      31.188  28.791  23.394  1.00  0.00     0.014 A 
ATOM     22  C   UNL A   1      28.785  26.876  23.531  1.00  0.00     0.014 A 
ENDBRANCH  13  16
ENDBRANCH   8  12
ENDBRANCH   7   8
ENDBRANCH   5   7
ENDBRANCH   4   5
ENDBRANCH   3   4
ENDBRANCH   2   3
ENDBRANCH   1   2
BRANCH   1  23
ATOM     23  C   UNL A   1      33.021  33.877  28.015  1.00  0.00     0.202 C 
BRANCH  23  24
ATOM     24  C   UNL A   1      33.830  34.552  29.099  1.00  0.00     0.261 C 
BRANCH  24  25
ATOM     25  O   UNL A   1      33.822  33.641  30.251  1.00  0.00    -0.460 OA
BRANCH  25  26
ATOM     26  C   UNL A   1      34.972  33.548  31.001  1.00  0.00     0.338 C 
ATOM     27  O   UNL A   1      35.191  34.212  32.004  1.00  0.00    -0.246 OA
BRANCH  26  28
ATOM     28  C   UNL A   1      35.995  32.604  30.377  1.00  0.00     0.060 A 
ATOM     29  C   UNL A   1      36.148  31.264  30.813  1.00  0.00     0.016 A 
ATOM     30  C   UNL A   1      37.015  33.129  29.586  1.00  0.00     0.016 A 
ATOM     31  C   UNL A   1      37.378  30.537  30.625  1.00  0.00     0.010 A 
ATOM     32  C   UNL A   1      38.254  32.457  29.499  1.00  0.00     0.010 A 
ATOM     33  C   UNL A   1      38.514  31.200  30.123  1.00  0.00    -0.014 A 
BRANCH  33  34
ATOM     34  C   UNL A   1      39.989  30.806  30.357  1.00  0.00     0.031 A 
ATOM     35  C   UNL A   1      40.235  29.550  29.642  1.00  0.00     0.074 A 
ATOM     36  C   UNL A   1      41.069  31.237  31.120  1.00  0.00     0.049 A 
ATOM     37  N   UNL A   1      40.375  28.420  30.263  1.00  0.00    -0.248 NA
ATOM     38  C   UNL A   1      40.021  29.449  28.193  1.00  0.00     0.031 C 
ATOM     39  C   UNL A   1      42.491  30.959  30.847  1.00  0.00     0.029 A 
ATOM     40  N   UNL A   1      41.215  32.196  32.149  1.00  0.00    -0.354 N 
ATOM     41  C   UNL A   1      40.591  27.538  29.238  1.00  0.00     0.074 A 
ATOM     42  C   UNL A   1      39.931  28.127  28.087  1.00  0.00     0.031 C 
ATOM     43  C   UNL A   1      43.296  31.667  31.682  1.00  0.00     0.029 A 
ATOM     44  C   UNL A   1      42.504  32.394  32.705  1.00  0.00     0.049 A 
ATOM     45  H   UNL A   1      40.442  32.713  32.471  1.00  0.00     0.167 HD
ATOM     46  C   UNL A   1      41.757  26.833  29.147  1.00  0.00     0.034 A 
ATOM     47  C   UNL A   1      42.891  32.704  34.021  1.00  0.00     0.034 A 
ATOM     48  C   UNL A   1      42.781  27.280  30.121  1.00  0.00     0.049 A 
ATOM     49  C   UNL A   1      43.256  31.278  34.519  1.00  0.00     0.074 A 
ATOM     50  C   UNL A   1      44.038  27.855  29.988  1.00  0.00     0.029 A 
ATOM     51  N   UNL A   1      42.474  27.437  31.477  1.00  0.00    -0.354 N 
ATOM     52  N   UNL A   1      43.580  30.297  33.714  1.00  0.00    -0.248 NA
ATOM     53  C   UNL A   1      43.134  30.810  35.895  1.00  0.00     0.031 C 
ATOM     54  C   UNL A   1      44.518  28.235  31.277  1.00  0.00     0.029 A 
ATOM     55  C   UNL A   1      43.557  27.906  32.212  1.00  0.00     0.049 A 
ATOM     56  H   UNL A   1      41.593  27.238  31.866  1.00  0.00     0.167 HD
ATOM     57  C   UNL A   1      43.435  29.100  34.342  1.00  0.00     0.074 A 
ATOM     58  C   UNL A   1      43.167  29.479  35.724  1.00  0.00     0.031 C 
ATOM     59  C   UNL A   1      43.503  27.904  33.673  1.00  0.00     0.034 A 
BRANCH  46  60
ATOM     60  C   UNL A   1      42.027  26.104  27.840  1.00  0.00     0.023 A 
ATOM     61  C   UNL A   1      41.717  24.750  27.697  1.00  0.00     0.031 A 
ATOM     62  C   UNL A   1      42.633  26.710  26.707  1.00  0.00     0.131 A 
ATOM     63  C   UNL A   1      42.126  24.028  26.562  1.00  0.00     0.055 A 
ATOM     64  C   UNL A   1      43.121  25.979  25.619  1.00  0.00     0.041 A 
ATOM     65  F   UNL A   1      42.794  28.044  26.632  1.00  0.00    -0.206 F 
ATOM     66  C   UNL A   1      42.878  24.618  25.548  1.00  0.00     0.022 A 
BRANCH  63  67
ATOM     67  S   UNL A   1      41.578  22.312  26.398  1.00  0.00     0.124 S 
ATOM     68  O   UNL A   1      40.130  22.461  26.303  1.00  0.00    -0.237 OA
ATOM     69  O   UNL A   1      42.265  21.885  25.184  1.00  0.00    -0.237 OA
ATOM     70  O   UNL A   1      42.061  21.687  27.629  1.00  0.00    -0.744 OA
ENDBRANCH  63  67
ENDBRANCH  46  60
BRANCH  47  71
ATOM     71  C   UNL A   1      42.296  33.825  35.062  1.00  0.00     0.023 A 
ATOM     72  C   UNL A   1      40.965  33.810  35.650  1.00  0.00     0.031 A 
ATOM     73  C   UNL A   1      43.125  34.795  35.666  1.00  0.00     0.131 A 
ATOM     74  C   UNL A   1      40.710  34.389  36.973  1.00  0.00     0.055 A 
ATOM     75  C   UNL A   1      42.847  35.406  36.918  1.00  0.00     0.041 A 
ATOM     76  F   UNL A   1      44.343  35.057  35.178  1.00  0.00    -0.206 F 
ATOM     77  C   UNL A   1      41.690  35.124  37.622  1.00  0.00     0.022 A 
BRANCH  74  78
ATOM     78  S   UNL A   1      39.327  33.826  38.142  1.00  0.00     0.124 S 
ATOM     79  O   UNL A   1      38.168  33.755  37.262  1.00  0.00    -0.237 OA
ATOM     80  O   UNL A   1      39.812  32.549  38.650  1.00  0.00    -0.237 OA
ATOM     81  O   UNL A   1      39.260  34.900  39.136  1.00  0.00    -0.744 OA
ENDBRANCH  74  78
ENDBRANCH  47  71
BRANCH  59  82
ATOM     82  C   UNL A   1      43.569  26.583  34.392  1.00  0.00     0.023 A 
ATOM     83  C   UNL A   1      44.775  25.887  34.496  1.00  0.00     0.031 A 
ATOM     84  C   UNL A   1      42.436  25.922  34.915  1.00  0.00     0.131 A 
ATOM     85  C   UNL A   1      44.879  24.729  35.268  1.00  0.00     0.055 A 
ATOM     86  C   UNL A   1      42.518  24.699  35.582  1.00  0.00     0.041 A 
ATOM     87  F   UNL A   1      41.197  26.416  34.806  1.00  0.00    -0.206 F 
ATOM     88  C   UNL A   1      43.754  24.114  35.802  1.00  0.00     0.022 A 
BRANCH  85  89
ATOM     89  S   UNL A   1      46.542  24.138  35.639  1.00  0.00     0.124 S 
ATOM     90  O   UNL A   1      47.133  25.269  36.347  1.00  0.00    -0.237 OA
ATOM     91  O   UNL A   1      46.258  22.962  36.458  1.00  0.00    -0.237 OA
ATOM     92  O   UNL A   1      47.107  23.859  34.322  1.00  0.00    -0.744 OA
ENDBRANCH  85  89
ENDBRANCH  59  82
ENDBRANCH  33  34
ENDBRANCH  26  28
ENDBRANCH  25  26
ENDBRANCH  24  25
ENDBRANCH  23  24
ENDBRANCH   1  23
TORSDOF 20
ENDMDL
