MODEL 1
REMARK VINA RESULT:      -9.6      0.000      0.000
REMARK SMILES C[C@@H]1CC[N@@H+]1[C@@H](CO)C(=O)OCCOCCOC(=O)c1ccc(-c2c3nc(c(-c4cc(S(=O)(=O)[O-])ccc4F)c4ccc([nH]4)c(-c4cc(S(=O)(=O)[O-])ccc4F)c4nc(c(-c5cc(S(=O)(=O)[O-])ccc5F)c5ccc2[nH]5)C=C4)C=C3)cc1
REMARK SMILES IDX 15 1 14 2 13 3 12 4 11 5 9 6 10 7 6 8 5 9 1 10 2 11 3 12
REMARK SMILES IDX 4 13 7 15 8 16 16 18 17 19 18 20 19 21 20 22 21 23 82 24
REMARK SMILES IDX 22 25 81 26 23 27 24 28 25 29 75 30 26 31 80 32 74 33 76 34
REMARK SMILES IDX 27 35 79 36 73 37 72 38 28 40 60 41 40 42 59 43 41 44 44 45
REMARK SMILES IDX 58 46 77 47 42 48 43 49 57 51 78 52 45 53 29 54 30 55 38 56
REMARK SMILES IDX 31 57 37 58 39 59 36 60 32 61 33 62 34 63 35 64 61 65 62 66
REMARK SMILES IDX 70 67 63 68 69 69 71 70 68 71 64 72 65 73 66 74 67 75 46 76
REMARK SMILES IDX 47 77 55 78 48 79 54 80 56 81 53 82 49 83 50 84 51 85 52 86
REMARK H PARENT 5 14 8 17 76 39 44 50
REMARK Flexibility Score: inf
ROOT
ATOM      1  C   UNL A   1      35.602  20.812  25.340  1.00  0.00     0.202 C 
ENDROOT
BRANCH   1   2
ATOM      2  O   UNL A   1      34.394  20.256  24.821  1.00  0.00    -0.374 OA
BRANCH   2   3
ATOM      3  C   UNL A   1      33.367  21.173  24.447  1.00  0.00     0.202 C 
BRANCH   3   4
ATOM      4  C   UNL A   1      32.118  21.180  25.333  1.00  0.00     0.261 C 
BRANCH   4   5
ATOM      5  O   UNL A   1      31.411  22.432  25.254  1.00  0.00    -0.459 OA
BRANCH   5   6
ATOM      6  C   UNL A   1      31.607  23.306  26.282  1.00  0.00     0.367 C 
ATOM      7  O   UNL A   1      31.438  23.038  27.468  1.00  0.00    -0.245 OA
BRANCH   6   8
ATOM      8  C   UNL A   1      31.996  24.710  25.797  1.00  0.00     0.321 C 
BRANCH   8   9
ATOM      9  N   UNL A   1      30.975  25.711  26.205  1.00  0.00    -0.319 N 
ATOM     10  C   UNL A   1      29.972  25.628  23.820  1.00  0.00     0.075 C 
ATOM     11  C   UNL A   1      30.187  26.366  25.127  1.00  0.00     0.187 C 
ATOM     12  C   UNL A   1      31.162  27.558  25.174  1.00  0.00     0.126 C 
ATOM     13  C   UNL A   1      31.510  27.042  26.582  1.00  0.00     0.269 C 
ATOM     14  H   UNL A   1      30.505  25.108  26.880  1.00  0.00     0.349 HD
ENDBRANCH   8   9
BRANCH   8  15
ATOM     15  C   UNL A   1      33.514  24.852  26.036  1.00  0.00     0.233 C 
BRANCH  15  16
ATOM     16  O   UNL A   1      34.155  23.712  26.595  1.00  0.00    -0.390 OA
ATOM     17  H   UNL A   1      34.223  23.819  27.556  1.00  0.00     0.210 HD
ENDBRANCH  15  16
ENDBRANCH   8  15
ENDBRANCH   6   8
ENDBRANCH   5   6
ENDBRANCH   4   5
ENDBRANCH   3   4
ENDBRANCH   2   3
ENDBRANCH   1   2
BRANCH   1  18
ATOM     18  C   UNL A   1      36.908  20.118  24.936  1.00  0.00     0.261 C 
BRANCH  18  19
ATOM     19  O   UNL A   1      38.035  21.012  24.939  1.00  0.00    -0.460 OA
BRANCH  19  20
ATOM     20  C   UNL A   1      39.016  20.676  25.811  1.00  0.00     0.338 C 
ATOM     21  O   UNL A   1      39.512  19.568  25.965  1.00  0.00    -0.246 OA
BRANCH  20  22
ATOM     22  C   UNL A   1      39.566  21.883  26.458  1.00  0.00     0.060 A 
ATOM     23  C   UNL A   1      38.958  23.107  26.151  1.00  0.00     0.016 A 
ATOM     24  C   UNL A   1      40.693  21.840  27.284  1.00  0.00     0.016 A 
ATOM     25  C   UNL A   1      39.509  24.297  26.619  1.00  0.00     0.010 A 
ATOM     26  C   UNL A   1      41.248  23.040  27.750  1.00  0.00     0.010 A 
ATOM     27  C   UNL A   1      40.680  24.275  27.387  1.00  0.00    -0.014 A 
BRANCH  27  28
ATOM     28  C   UNL A   1      41.378  25.556  27.669  1.00  0.00     0.031 A 
ATOM     29  C   UNL A   1      40.654  26.630  28.439  1.00  0.00     0.074 A 
ATOM     30  C   UNL A   1      42.661  25.734  27.304  1.00  0.00     0.049 A 
ATOM     31  N   UNL A   1      41.079  27.804  28.828  1.00  0.00    -0.248 NA
ATOM     32  C   UNL A   1      39.264  26.336  28.818  1.00  0.00     0.031 C 
ATOM     33  C   UNL A   1      43.475  24.755  26.586  1.00  0.00     0.029 A 
ATOM     34  N   UNL A   1      43.504  26.799  27.493  1.00  0.00    -0.354 N 
ATOM     35  C   UNL A   1      40.010  28.390  29.500  1.00  0.00     0.074 A 
ATOM     36  C   UNL A   1      38.906  27.458  29.423  1.00  0.00     0.031 C 
ATOM     37  C   UNL A   1      44.703  25.265  26.395  1.00  0.00     0.029 A 
ATOM     38  C   UNL A   1      44.755  26.616  26.950  1.00  0.00     0.049 A 
ATOM     39  H   UNL A   1      43.240  27.618  27.972  1.00  0.00     0.167 HD
ATOM     40  C   UNL A   1      39.960  29.590  30.133  1.00  0.00     0.034 A 
ATOM     41  C   UNL A   1      45.814  27.449  26.896  1.00  0.00     0.034 A 
ATOM     42  C   UNL A   1      41.066  30.516  30.191  1.00  0.00     0.049 A 
ATOM     43  C   UNL A   1      45.713  28.806  27.548  1.00  0.00     0.074 A 
ATOM     44  C   UNL A   1      41.128  31.749  30.816  1.00  0.00     0.029 A 
ATOM     45  N   UNL A   1      42.303  30.317  29.589  1.00  0.00    -0.354 N 
ATOM     46  N   UNL A   1      44.702  29.341  28.197  1.00  0.00    -0.248 NA
ATOM     47  C   UNL A   1      46.901  29.664  27.473  1.00  0.00     0.031 C 
ATOM     48  C   UNL A   1      42.372  32.325  30.533  1.00  0.00     0.029 A 
ATOM     49  C   UNL A   1      43.121  31.418  29.799  1.00  0.00     0.049 A 
ATOM     50  H   UNL A   1      42.563  29.512  29.086  1.00  0.00     0.167 HD
ATOM     51  C   UNL A   1      45.147  30.588  28.631  1.00  0.00     0.074 A 
ATOM     52  C   UNL A   1      46.522  30.712  28.190  1.00  0.00     0.031 C 
ATOM     53  C   UNL A   1      44.484  31.542  29.334  1.00  0.00     0.034 A 
BRANCH  40  54
ATOM     54  C   UNL A   1      38.645  29.983  30.765  1.00  0.00     0.023 A 
ATOM     55  C   UNL A   1      37.657  30.685  30.051  1.00  0.00     0.031 A 
ATOM     56  C   UNL A   1      38.389  29.682  32.115  1.00  0.00     0.131 A 
ATOM     57  C   UNL A   1      36.496  31.124  30.707  1.00  0.00     0.055 A 
ATOM     58  C   UNL A   1      37.197  30.052  32.740  1.00  0.00     0.041 A 
ATOM     59  F   UNL A   1      39.303  29.034  32.855  1.00  0.00    -0.206 F 
ATOM     60  C   UNL A   1      36.248  30.790  32.040  1.00  0.00     0.022 A 
BRANCH  57  61
ATOM     61  S   UNL A   1      35.383  32.260  29.836  1.00  0.00     0.124 S 
ATOM     62  O   UNL A   1      36.297  33.332  29.450  1.00  0.00    -0.237 OA
ATOM     63  O   UNL A   1      34.873  31.432  28.749  1.00  0.00    -0.237 OA
ATOM     64  O   UNL A   1      34.401  32.626  30.855  1.00  0.00    -0.744 OA
ENDBRANCH  57  61
ENDBRANCH  40  54
BRANCH  41  65
ATOM     65  C   UNL A   1      47.054  27.045  26.173  1.00  0.00     0.023 A 
ATOM     66  C   UNL A   1      48.096  26.370  26.828  1.00  0.00     0.031 A 
ATOM     67  C   UNL A   1      47.236  27.383  24.819  1.00  0.00     0.131 A 
ATOM     68  C   UNL A   1      49.291  26.095  26.143  1.00  0.00     0.055 A 
ATOM     69  C   UNL A   1      48.406  27.061  24.129  1.00  0.00     0.041 A 
ATOM     70  F   UNL A   1      46.272  28.029  24.145  1.00  0.00    -0.206 F 
ATOM     71  C   UNL A   1      49.447  26.424  24.795  1.00  0.00     0.022 A 
BRANCH  68  72
ATOM     72  S   UNL A   1      50.674  25.371  27.065  1.00  0.00     0.124 S 
ATOM     73  O   UNL A   1      50.016  24.290  27.790  1.00  0.00    -0.237 OA
ATOM     74  O   UNL A   1      51.576  24.968  25.991  1.00  0.00    -0.237 OA
ATOM     75  O   UNL A   1      51.150  26.480  27.891  1.00  0.00    -0.744 OA
ENDBRANCH  68  72
ENDBRANCH  41  65
BRANCH  53  76
ATOM     76  C   UNL A   1      45.260  32.787  29.698  1.00  0.00     0.023 A 
ATOM     77  C   UNL A   1      45.260  33.926  28.872  1.00  0.00     0.031 A 
ATOM     78  C   UNL A   1      46.038  32.822  30.869  1.00  0.00     0.131 A 
ATOM     79  C   UNL A   1      46.081  35.021  29.190  1.00  0.00     0.055 A 
ATOM     80  C   UNL A   1      46.798  33.941  31.215  1.00  0.00     0.041 A 
ATOM     81  F   UNL A   1      46.078  31.765  31.696  1.00  0.00    -0.206 F 
ATOM     82  C   UNL A   1      46.835  35.042  30.364  1.00  0.00     0.022 A 
BRANCH  79  83
ATOM     83  S   UNL A   1      46.240  36.366  27.983  1.00  0.00     0.124 S 
ATOM     84  O   UNL A   1      45.330  35.937  26.927  1.00  0.00    -0.237 OA
ATOM     85  O   UNL A   1      45.817  37.529  28.756  1.00  0.00    -0.237 OA
ATOM     86  O   UNL A   1      47.658  36.341  27.628  1.00  0.00    -0.744 OA
ENDBRANCH  79  83
ENDBRANCH  53  76
ENDBRANCH  27  28
ENDBRANCH  20  22
ENDBRANCH  19  20
ENDBRANCH  18  19
ENDBRANCH   1  18
TORSDOF 20
ENDMDL
MODEL 2
REMARK VINA RESULT:      -9.5      1.800      8.339
REMARK SMILES C[C@@H]1CC[N@@H+]1[C@@H](CO)C(=O)OCCOCCOC(=O)c1ccc(-c2c3nc(c(-c4cc(S(=O)(=O)[O-])ccc4F)c4ccc([nH]4)c(-c4cc(S(=O)(=O)[O-])ccc4F)c4nc(c(-c5cc(S(=O)(=O)[O-])ccc5F)c5ccc2[nH]5)C=C4)C=C3)cc1
REMARK SMILES IDX 15 1 14 2 13 3 12 4 11 5 9 6 10 7 6 8 5 9 1 10 2 11 3 12
REMARK SMILES IDX 4 13 7 15 8 16 16 18 17 19 18 20 19 21 20 22 21 23 82 24
REMARK SMILES IDX 22 25 81 26 23 27 24 28 25 29 75 30 26 31 80 32 74 33 76 34
REMARK SMILES IDX 27 35 79 36 73 37 72 38 28 40 60 41 40 42 59 43 41 44 44 45
REMARK SMILES IDX 58 46 77 47 42 48 43 49 57 51 78 52 45 53 29 54 30 55 38 56
REMARK SMILES IDX 31 57 37 58 39 59 36 60 32 61 33 62 34 63 35 64 61 65 62 66
REMARK SMILES IDX 70 67 63 68 69 69 71 70 68 71 64 72 65 73 66 74 67 75 46 76
REMARK SMILES IDX 47 77 55 78 48 79 54 80 56 81 53 82 49 83 50 84 51 85 52 86
REMARK H PARENT 5 14 8 17 76 39 44 50
REMARK Flexibility Score: inf
ROOT
ATOM      1  C   UNL A   1      36.214  20.541  25.196  1.00  0.00     0.202 C 
ENDROOT
BRANCH   1   2
ATOM      2  O   UNL A   1      36.081  21.820  25.815  1.00  0.00    -0.374 OA
BRANCH   2   3
ATOM      3  C   UNL A   1      34.806  22.455  25.724  1.00  0.00     0.202 C 
BRANCH   3   4
ATOM      4  C   UNL A   1      34.152  22.455  24.339  1.00  0.00     0.261 C 
BRANCH   4   5
ATOM      5  O   UNL A   1      34.183  23.759  23.732  1.00  0.00    -0.459 OA
BRANCH   5   6
ATOM      6  C   UNL A   1      33.492  23.904  22.565  1.00  0.00     0.367 C 
ATOM      7  O   UNL A   1      33.762  23.322  21.518  1.00  0.00    -0.245 OA
BRANCH   6   8
ATOM      8  C   UNL A   1      32.366  24.942  22.671  1.00  0.00     0.321 C 
BRANCH   8   9
ATOM      9  N   UNL A   1      32.438  25.668  23.966  1.00  0.00    -0.319 N 
ATOM     10  C   UNL A   1      30.772  23.970  24.985  1.00  0.00     0.075 C 
ATOM     11  C   UNL A   1      31.410  25.344  24.991  1.00  0.00     0.187 C 
ATOM     12  C   UNL A   1      30.594  26.564  24.520  1.00  0.00     0.126 C 
ATOM     13  C   UNL A   1      31.930  27.061  23.939  1.00  0.00     0.269 C 
ATOM     14  H   UNL A   1      33.419  25.456  24.148  1.00  0.00     0.349 HD
ENDBRANCH   8   9
BRANCH   8  15
ATOM     15  C   UNL A   1      32.261  25.617  21.286  1.00  0.00     0.233 C 
BRANCH  15  16
ATOM     16  O   UNL A   1      33.412  26.342  20.870  1.00  0.00    -0.390 OA
ATOM     17  H   UNL A   1      33.869  26.696  21.649  1.00  0.00     0.210 HD
ENDBRANCH  15  16
ENDBRANCH   8  15
ENDBRANCH   6   8
ENDBRANCH   5   6
ENDBRANCH   4   5
ENDBRANCH   3   4
ENDBRANCH   2   3
ENDBRANCH   1   2
BRANCH   1  18
ATOM     18  C   UNL A   1      37.642  20.036  24.960  1.00  0.00     0.261 C 
BRANCH  18  19
ATOM     19  O   UNL A   1      38.631  21.066  25.139  1.00  0.00    -0.460 OA
BRANCH  19  20
ATOM     20  C   UNL A   1      39.537  20.811  26.112  1.00  0.00     0.338 C 
ATOM     21  O   UNL A   1      40.074  19.738  26.352  1.00  0.00    -0.246 OA
BRANCH  20  22
ATOM     22  C   UNL A   1      39.954  22.065  26.769  1.00  0.00     0.060 A 
ATOM     23  C   UNL A   1      39.362  23.252  26.317  1.00  0.00     0.016 A 
ATOM     24  C   UNL A   1      40.951  22.101  27.747  1.00  0.00     0.016 A 
ATOM     25  C   UNL A   1      39.806  24.481  26.797  1.00  0.00     0.010 A 
ATOM     26  C   UNL A   1      41.399  23.340  28.226  1.00  0.00     0.010 A 
ATOM     27  C   UNL A   1      40.855  24.536  27.724  1.00  0.00    -0.014 A 
BRANCH  27  28
ATOM     28  C   UNL A   1      41.468  25.853  28.037  1.00  0.00     0.031 A 
ATOM     29  C   UNL A   1      42.867  26.141  27.558  1.00  0.00     0.074 A 
ATOM     30  C   UNL A   1      40.763  26.802  28.680  1.00  0.00     0.049 A 
ATOM     31  N   UNL A   1      43.581  27.230  27.685  1.00  0.00    -0.248 NA
ATOM     32  C   UNL A   1      43.548  25.053  26.842  1.00  0.00     0.031 C 
ATOM     33  C   UNL A   1      39.391  26.651  29.161  1.00  0.00     0.029 A 
ATOM     34  N   UNL A   1      41.105  28.083  29.033  1.00  0.00    -0.354 N 
ATOM     35  C   UNL A   1      44.796  26.961  27.063  1.00  0.00     0.074 A 
ATOM     36  C   UNL A   1      44.735  25.590  26.602  1.00  0.00     0.031 C 
ATOM     37  C   UNL A   1      39.006  27.797  29.747  1.00  0.00     0.029 A 
ATOM     38  C   UNL A   1      40.112  28.752  29.710  1.00  0.00     0.049 A 
ATOM     39  H   UNL A   1      41.978  28.485  28.823  1.00  0.00     0.167 HD
ATOM     40  C   UNL A   1      45.859  27.785  26.883  1.00  0.00     0.034 A 
ATOM     41  C   UNL A   1      40.102  29.988  30.249  1.00  0.00     0.034 A 
ATOM     42  C   UNL A   1      45.911  29.147  27.360  1.00  0.00     0.049 A 
ATOM     43  C   UNL A   1      41.322  30.864  30.095  1.00  0.00     0.074 A 
ATOM     44  C   UNL A   1      46.931  30.072  27.220  1.00  0.00     0.029 A 
ATOM     45  N   UNL A   1      44.905  29.776  28.083  1.00  0.00    -0.354 N 
ATOM     46  N   UNL A   1      42.458  30.604  29.488  1.00  0.00    -0.248 NA
ATOM     47  C   UNL A   1      41.249  32.205  30.686  1.00  0.00     0.031 C 
ATOM     48  C   UNL A   1      46.572  31.232  27.917  1.00  0.00     0.029 A 
ATOM     49  C   UNL A   1      45.293  31.064  28.423  1.00  0.00     0.049 A 
ATOM     50  H   UNL A   1      44.040  29.368  28.318  1.00  0.00     0.167 HD
ATOM     51  C   UNL A   1      43.223  31.762  29.602  1.00  0.00     0.074 A 
ATOM     52  C   UNL A   1      42.409  32.726  30.314  1.00  0.00     0.031 C 
ATOM     53  C   UNL A   1      44.482  32.010  29.155  1.00  0.00     0.034 A 
BRANCH  40  54
ATOM     54  C   UNL A   1      47.069  27.210  26.184  1.00  0.00     0.023 A 
ATOM     55  C   UNL A   1      48.048  26.473  26.876  1.00  0.00     0.031 A 
ATOM     56  C   UNL A   1      47.266  27.431  24.809  1.00  0.00     0.131 A 
ATOM     57  C   UNL A   1      49.208  26.049  26.210  1.00  0.00     0.055 A 
ATOM     58  C   UNL A   1      48.384  26.936  24.135  1.00  0.00     0.041 A 
ATOM     59  F   UNL A   1      46.378  28.145  24.099  1.00  0.00    -0.206 F 
ATOM     60  C   UNL A   1      49.371  26.254  24.839  1.00  0.00     0.022 A 
BRANCH  57  61
ATOM     61  S   UNL A   1      50.567  25.354  27.190  1.00  0.00     0.124 S 
ATOM     62  O   UNL A   1      51.529  24.995  26.150  1.00  0.00    -0.237 OA
ATOM     63  O   UNL A   1      50.942  26.471  28.049  1.00  0.00    -0.237 OA
ATOM     64  O   UNL A   1      49.951  24.219  27.875  1.00  0.00    -0.744 OA
ENDBRANCH  57  61
ENDBRANCH  40  54
BRANCH  41  65
ATOM     65  C   UNL A   1      38.915  30.468  31.013  1.00  0.00     0.023 A 
ATOM     66  C   UNL A   1      37.983  31.348  30.440  1.00  0.00     0.031 A 
ATOM     67  C   UNL A   1      38.728  30.093  32.357  1.00  0.00     0.131 A 
ATOM     68  C   UNL A   1      36.933  31.859  31.220  1.00  0.00     0.055 A 
ATOM     69  C   UNL A   1      37.653  30.563  33.112  1.00  0.00     0.041 A 
ATOM     70  F   UNL A   1      39.590  29.254  32.953  1.00  0.00    -0.206 F 
ATOM     71  C   UNL A   1      36.755  31.463  32.547  1.00  0.00     0.022 A 
BRANCH  68  72
ATOM     72  S   UNL A   1      35.846  33.118  30.497  1.00  0.00     0.124 S 
ATOM     73  O   UNL A   1      36.510  33.391  29.227  1.00  0.00    -0.237 OA
ATOM     74  O   UNL A   1      34.573  32.409  30.417  1.00  0.00    -0.237 OA
ATOM     75  O   UNL A   1      35.890  34.207  31.472  1.00  0.00    -0.744 OA
ENDBRANCH  68  72
ENDBRANCH  41  65
BRANCH  53  76
ATOM     76  C   UNL A   1      45.032  33.397  29.397  1.00  0.00     0.023 A 
ATOM     77  C   UNL A   1      45.775  33.707  30.550  1.00  0.00     0.031 A 
ATOM     78  C   UNL A   1      44.780  34.431  28.477  1.00  0.00     0.131 A 
ATOM     79  C   UNL A   1      46.175  35.033  30.790  1.00  0.00     0.055 A 
ATOM     80  C   UNL A   1      45.240  35.732  28.689  1.00  0.00     0.041 A 
ATOM     81  F   UNL A   1      44.076  34.196  27.359  1.00  0.00    -0.206 F 
ATOM     82  C   UNL A   1      45.926  36.042  29.859  1.00  0.00     0.022 A 
BRANCH  79  83
ATOM     83  S   UNL A   1      46.917  35.439  32.395  1.00  0.00     0.124 S 
ATOM     84  O   UNL A   1      46.346  36.753  32.670  1.00  0.00    -0.237 OA
ATOM     85  O   UNL A   1      46.445  34.349  33.241  1.00  0.00    -0.237 OA
ATOM     86  O   UNL A   1      48.352  35.432  32.120  1.00  0.00    -0.744 OA
ENDBRANCH  79  83
ENDBRANCH  53  76
ENDBRANCH  27  28
ENDBRANCH  20  22
ENDBRANCH  19  20
ENDBRANCH  18  19
ENDBRANCH   1  18
TORSDOF 20
ENDMDL
MODEL 3
REMARK VINA RESULT:      -9.4      2.094      2.541
REMARK SMILES C[C@@H]1CC[N@@H+]1[C@@H](CO)C(=O)OCCOCCOC(=O)c1ccc(-c2c3nc(c(-c4cc(S(=O)(=O)[O-])ccc4F)c4ccc([nH]4)c(-c4cc(S(=O)(=O)[O-])ccc4F)c4nc(c(-c5cc(S(=O)(=O)[O-])ccc5F)c5ccc2[nH]5)C=C4)C=C3)cc1
REMARK SMILES IDX 15 1 14 2 13 3 12 4 11 5 9 6 10 7 6 8 5 9 1 10 2 11 3 12
REMARK SMILES IDX 4 13 7 15 8 16 16 18 17 19 18 20 19 21 20 22 21 23 82 24
REMARK SMILES IDX 22 25 81 26 23 27 24 28 25 29 75 30 26 31 80 32 74 33 76 34
REMARK SMILES IDX 27 35 79 36 73 37 72 38 28 40 60 41 40 42 59 43 41 44 44 45
REMARK SMILES IDX 58 46 77 47 42 48 43 49 57 51 78 52 45 53 29 54 30 55 38 56
REMARK SMILES IDX 31 57 37 58 39 59 36 60 32 61 33 62 34 63 35 64 61 65 62 66
REMARK SMILES IDX 70 67 63 68 69 69 71 70 68 71 64 72 65 73 66 74 67 75 46 76
REMARK SMILES IDX 47 77 55 78 48 79 54 80 56 81 53 82 49 83 50 84 51 85 52 86
REMARK H PARENT 5 14 8 17 76 39 44 50
REMARK Flexibility Score: inf
ROOT
ATOM      1  C   UNL A   1      35.483  20.877  24.893  1.00  0.00     0.202 C 
ENDROOT
BRANCH   1   2
ATOM      2  O   UNL A   1      34.399  19.970  25.085  1.00  0.00    -0.374 OA
BRANCH   2   3
ATOM      3  C   UNL A   1      33.099  20.537  25.245  1.00  0.00     0.202 C 
BRANCH   3   4
ATOM      4  C   UNL A   1      32.702  21.605  24.221  1.00  0.00     0.261 C 
BRANCH   4   5
ATOM      5  O   UNL A   1      32.744  22.929  24.785  1.00  0.00    -0.459 OA
BRANCH   5   6
ATOM      6  C   UNL A   1      31.549  23.467  25.163  1.00  0.00     0.367 C 
ATOM      7  O   UNL A   1      30.561  22.814  25.485  1.00  0.00    -0.245 OA
BRANCH   6   8
ATOM      8  C   UNL A   1      31.537  25.000  25.075  1.00  0.00     0.321 C 
BRANCH   8   9
ATOM      9  N   UNL A   1      32.483  25.475  24.029  1.00  0.00    -0.319 N 
ATOM     10  C   UNL A   1      33.822  26.740  25.847  1.00  0.00     0.075 C 
ATOM     11  C   UNL A   1      33.414  26.574  24.397  1.00  0.00     0.187 C 
ATOM     12  C   UNL A   1      32.436  27.581  23.762  1.00  0.00     0.126 C 
ATOM     13  C   UNL A   1      31.890  26.361  22.998  1.00  0.00     0.269 C 
ATOM     14  H   UNL A   1      32.852  24.553  23.799  1.00  0.00     0.349 HD
ENDBRANCH   8   9
BRANCH   8  15
ATOM     15  C   UNL A   1      30.061  25.435  25.192  1.00  0.00     0.233 C 
BRANCH  15  16
ATOM     16  O   UNL A   1      29.449  25.189  26.452  1.00  0.00    -0.390 OA
ATOM     17  H   UNL A   1      28.518  24.953  26.318  1.00  0.00     0.210 HD
ENDBRANCH  15  16
ENDBRANCH   8  15
ENDBRANCH   6   8
ENDBRANCH   5   6
ENDBRANCH   4   5
ENDBRANCH   3   4
ENDBRANCH   2   3
ENDBRANCH   1   2
BRANCH   1  18
ATOM     18  C   UNL A   1      36.897  20.298  25.027  1.00  0.00     0.261 C 
BRANCH  18  19
ATOM     19  O   UNL A   1      37.911  21.317  25.074  1.00  0.00    -0.460 OA
BRANCH  19  20
ATOM     20  C   UNL A   1      38.971  21.019  25.863  1.00  0.00     0.338 C 
ATOM     21  O   UNL A   1      39.526  19.933  25.966  1.00  0.00    -0.246 OA
BRANCH  20  22
ATOM     22  C   UNL A   1      39.514  22.244  26.481  1.00  0.00     0.060 A 
ATOM     23  C   UNL A   1      38.905  23.458  26.138  1.00  0.00     0.016 A 
ATOM     24  C   UNL A   1      40.636  22.227  27.314  1.00  0.00     0.016 A 
ATOM     25  C   UNL A   1      39.450  24.661  26.576  1.00  0.00     0.010 A 
ATOM     26  C   UNL A   1      41.185  23.440  27.751  1.00  0.00     0.010 A 
ATOM     27  C   UNL A   1      40.617  24.664  27.351  1.00  0.00    -0.014 A 
BRANCH  27  28
ATOM     28  C   UNL A   1      41.310  25.954  27.603  1.00  0.00     0.031 A 
ATOM     29  C   UNL A   1      40.595  27.029  28.379  1.00  0.00     0.074 A 
ATOM     30  C   UNL A   1      42.582  26.138  27.206  1.00  0.00     0.049 A 
ATOM     31  N   UNL A   1      41.018  28.212  28.744  1.00  0.00    -0.248 NA
ATOM     32  C   UNL A   1      39.217  26.727  28.794  1.00  0.00     0.031 C 
ATOM     33  C   UNL A   1      43.387  25.158  26.479  1.00  0.00     0.029 A 
ATOM     34  N   UNL A   1      43.420  27.212  27.364  1.00  0.00    -0.354 N 
ATOM     35  C   UNL A   1      39.961  28.796  29.436  1.00  0.00     0.074 A 
ATOM     36  C   UNL A   1      38.864  27.853  29.395  1.00  0.00     0.031 C 
ATOM     37  C   UNL A   1      44.606  25.677  26.254  1.00  0.00     0.029 A 
ATOM     38  C   UNL A   1      44.659  27.034  26.793  1.00  0.00     0.049 A 
ATOM     39  H   UNL A   1      43.160  28.034  27.839  1.00  0.00     0.167 HD
ATOM     40  C   UNL A   1      39.915  30.002  30.056  1.00  0.00     0.034 A 
ATOM     41  C   UNL A   1      45.709  27.875  26.704  1.00  0.00     0.034 A 
ATOM     42  C   UNL A   1      41.014  30.937  30.078  1.00  0.00     0.049 A 
ATOM     43  C   UNL A   1      45.612  29.239  27.344  1.00  0.00     0.074 A 
ATOM     44  C   UNL A   1      41.080  32.178  30.688  1.00  0.00     0.029 A 
ATOM     45  N   UNL A   1      42.238  30.743  29.449  1.00  0.00    -0.354 N 
ATOM     46  N   UNL A   1      44.612  29.772  28.011  1.00  0.00    -0.248 NA
ATOM     47  C   UNL A   1      46.790  30.106  27.232  1.00  0.00     0.031 C 
ATOM     48  C   UNL A   1      42.312  32.762  30.369  1.00  0.00     0.029 A 
ATOM     49  C   UNL A   1      43.051  31.853  29.628  1.00  0.00     0.049 A 
ATOM     50  H   UNL A   1      42.493  29.934  28.949  1.00  0.00     0.167 HD
ATOM     51  C   UNL A   1      45.056  31.028  28.421  1.00  0.00     0.074 A 
ATOM     52  C   UNL A   1      46.419  31.159  27.946  1.00  0.00     0.031 C 
ATOM     53  C   UNL A   1      44.401  31.983  29.130  1.00  0.00     0.034 A 
BRANCH  40  54
ATOM     54  C   UNL A   1      38.612  30.391  30.715  1.00  0.00     0.023 A 
ATOM     55  C   UNL A   1      37.581  31.032  30.004  1.00  0.00     0.031 A 
ATOM     56  C   UNL A   1      38.411  30.148  32.086  1.00  0.00     0.131 A 
ATOM     57  C   UNL A   1      36.432  31.471  30.680  1.00  0.00     0.055 A 
ATOM     58  C   UNL A   1      37.231  30.517  32.735  1.00  0.00     0.041 A 
ATOM     59  F   UNL A   1      39.367  29.561  32.823  1.00  0.00    -0.206 F 
ATOM     60  C   UNL A   1      36.239  31.196  32.035  1.00  0.00     0.022 A 
BRANCH  57  61
ATOM     61  S   UNL A   1      35.258  32.535  29.795  1.00  0.00     0.124 S 
ATOM     62  O   UNL A   1      34.721  31.615  28.794  1.00  0.00    -0.237 OA
ATOM     63  O   UNL A   1      34.338  32.938  30.852  1.00  0.00    -0.237 OA
ATOM     64  O   UNL A   1      36.101  33.603  29.259  1.00  0.00    -0.744 OA
ENDBRANCH  57  61
ENDBRANCH  40  54
BRANCH  41  65
ATOM     65  C   UNL A   1      46.936  27.475  25.956  1.00  0.00     0.023 A 
ATOM     66  C   UNL A   1      47.114  27.819  24.608  1.00  0.00     0.031 A 
ATOM     67  C   UNL A   1      47.926  26.688  26.573  1.00  0.00     0.131 A 
ATOM     68  C   UNL A   1      48.233  27.339  23.906  1.00  0.00     0.055 A 
ATOM     69  C   UNL A   1      49.061  26.257  25.885  1.00  0.00     0.041 A 
ATOM     70  F   UNL A   1      47.804  26.330  27.861  1.00  0.00    -0.206 F 
ATOM     71  C   UNL A   1      49.213  26.572  24.539  1.00  0.00     0.022 A 
BRANCH  68  72
ATOM     72  S   UNL A   1      48.347  27.666  22.125  1.00  0.00     0.124 S 
ATOM     73  O   UNL A   1      47.038  28.245  21.843  1.00  0.00    -0.237 OA
ATOM     74  O   UNL A   1      49.482  28.581  22.058  1.00  0.00    -0.237 OA
ATOM     75  O   UNL A   1      48.583  26.342  21.551  1.00  0.00    -0.744 OA
ENDBRANCH  68  72
ENDBRANCH  41  65
BRANCH  53  76
ATOM     76  C   UNL A   1      45.175  33.239  29.461  1.00  0.00     0.023 A 
ATOM     77  C   UNL A   1      45.933  33.352  30.641  1.00  0.00     0.031 A 
ATOM     78  C   UNL A   1      45.124  34.351  28.602  1.00  0.00     0.131 A 
ATOM     79  C   UNL A   1      46.547  34.573  30.964  1.00  0.00     0.055 A 
ATOM     80  C   UNL A   1      45.793  35.540  28.897  1.00  0.00     0.041 A 
ATOM     81  F   UNL A   1      44.415  34.304  27.462  1.00  0.00    -0.206 F 
ATOM     82  C   UNL A   1      46.496  35.661  30.092  1.00  0.00     0.022 A 
BRANCH  79  83
ATOM     83  S   UNL A   1      47.311  34.754  32.600  1.00  0.00     0.124 S 
ATOM     84  O   UNL A   1      47.263  36.198  32.799  1.00  0.00    -0.237 OA
ATOM     85  O   UNL A   1      46.424  33.965  33.447  1.00  0.00    -0.237 OA
ATOM     86  O   UNL A   1      48.650  34.197  32.416  1.00  0.00    -0.744 OA
ENDBRANCH  79  83
ENDBRANCH  53  76
ENDBRANCH  27  28
ENDBRANCH  20  22
ENDBRANCH  19  20
ENDBRANCH  18  19
ENDBRANCH   1  18
TORSDOF 20
ENDMDL
