MODEL 1
REMARK VINA RESULT:     -12.5      0.000      0.000
REMARK SMILES O=C(OCCOCCOC(=O)[C@H]1[C@H]2CC[C@H](C2)[C@@H]1C(=O)N[C@H]1CCCc2ccccc21)c1ccc(-c2c3nc(c(-c4cc(S(=O)(=O)[O-])ccc4F)c4ccc([nH]4)c(-c4cc(S(=O)(=O)[O-])ccc4F)c4nc(c(-c5cc(S(=O)(=O)[O-])ccc5F)c5ccc2[nH]5)C=C4)C=C3)cc1
REMARK SMILES IDX 5 1 4 2 3 3 2 4 1 5 32 6 33 7 94 8 34 9 93 10 35 11 36 12
REMARK SMILES IDX 37 13 87 14 38 15 92 16 86 17 88 18 39 19 91 20 85 21 84 22
REMARK SMILES IDX 40 24 72 25 52 26 71 27 53 28 56 29 70 30 89 31 54 32 55 33
REMARK SMILES IDX 69 35 90 36 57 37 41 38 42 39 50 40 43 41 49 42 51 43 48 44
REMARK SMILES IDX 44 45 45 46 46 47 47 48 73 49 74 50 82 51 75 52 81 53 83 54
REMARK SMILES IDX 80 55 76 56 77 57 78 58 79 59 58 60 59 61 67 62 60 63 66 64
REMARK SMILES IDX 68 65 65 66 61 67 62 68 63 69 64 70 6 71 7 72 8 73 9 74
REMARK SMILES IDX 10 75 11 76 12 77 13 78 18 79 14 80 17 81 16 82 15 83 19 84
REMARK SMILES IDX 20 85 21 86 22 88 23 89 31 90 24 91 26 92 30 93 25 94 27 95
REMARK SMILES IDX 29 96 28 97
REMARK H PARENT 88 23 56 34 21 87
REMARK Flexibility Score: inf
ROOT
ATOM      1  C   UNL A   1      37.881  20.268  24.917  1.00  0.00     0.202 C 
ENDROOT
BRANCH   1   2
ATOM      2  C   UNL A   1      38.876  19.392  25.687  1.00  0.00     0.261 C 
BRANCH   2   3
ATOM      3  O   UNL A   1      40.164  20.024  25.754  1.00  0.00    -0.460 OA
BRANCH   3   4
ATOM      4  C   UNL A   1      40.846  20.415  26.857  1.00  0.00     0.338 C 
ATOM      5  O   UNL A   1      41.245  19.544  27.631  1.00  0.00    -0.246 OA
BRANCH   4   6
ATOM      6  C   UNL A   1      41.137  21.842  27.198  1.00  0.00     0.060 A 
ATOM      7  C   UNL A   1      40.676  22.949  26.486  1.00  0.00     0.016 A 
ATOM      8  C   UNL A   1      41.869  22.082  28.373  1.00  0.00     0.016 A 
ATOM      9  C   UNL A   1      40.929  24.240  26.891  1.00  0.00     0.010 A 
ATOM     10  C   UNL A   1      42.131  23.387  28.801  1.00  0.00     0.010 A 
ATOM     11  C   UNL A   1      41.663  24.464  28.043  1.00  0.00    -0.014 A 
BRANCH  11  12
ATOM     12  C   UNL A   1      42.064  25.855  28.272  1.00  0.00     0.031 A 
ATOM     13  C   UNL A   1      43.329  26.316  27.621  1.00  0.00     0.074 A 
ATOM     14  C   UNL A   1      41.184  26.702  28.835  1.00  0.00     0.049 A 
ATOM     15  N   UNL A   1      43.889  27.491  27.638  1.00  0.00    -0.248 NA
ATOM     16  C   UNL A   1      44.048  25.312  26.816  1.00  0.00     0.031 C 
ATOM     17  C   UNL A   1      39.842  26.332  29.301  1.00  0.00     0.029 A 
ATOM     18  N   UNL A   1      41.252  28.047  29.054  1.00  0.00    -0.354 N 
ATOM     19  C   UNL A   1      45.047  27.359  26.881  1.00  0.00     0.074 A 
ATOM     20  C   UNL A   1      45.109  25.992  26.420  1.00  0.00     0.031 C 
ATOM     21  C   UNL A   1      39.207  27.435  29.727  1.00  0.00     0.029 A 
ATOM     22  C   UNL A   1      40.123  28.566  29.642  1.00  0.00     0.049 A 
ATOM     23  H   UNL A   1      42.036  28.593  28.815  1.00  0.00     0.167 HD
ATOM     24  C   UNL A   1      45.974  28.309  26.619  1.00  0.00     0.034 A 
ATOM     25  C   UNL A   1      39.891  29.812  30.094  1.00  0.00     0.034 A 
ATOM     26  C   UNL A   1      45.854  29.655  27.122  1.00  0.00     0.049 A 
ATOM     27  C   UNL A   1      41.003  30.815  29.915  1.00  0.00     0.074 A 
ATOM     28  C   UNL A   1      46.747  30.702  27.023  1.00  0.00     0.029 A 
ATOM     29  N   UNL A   1      44.755  30.129  27.836  1.00  0.00    -0.354 N 
ATOM     30  N   UNL A   1      42.157  30.667  29.299  1.00  0.00    -0.248 NA
ATOM     31  C   UNL A   1      40.793  32.143  30.495  1.00  0.00     0.031 C 
ATOM     32  C   UNL A   1      46.225  31.782  27.745  1.00  0.00     0.029 A 
ATOM     33  C   UNL A   1      44.962  31.444  28.212  1.00  0.00     0.049 A 
ATOM     34  H   UNL A   1      43.948  29.604  28.042  1.00  0.00     0.167 HD
ATOM     35  C   UNL A   1      42.798  31.898  29.390  1.00  0.00     0.074 A 
ATOM     36  C   UNL A   1      41.890  32.775  30.105  1.00  0.00     0.031 C 
ATOM     37  C   UNL A   1      44.021  32.276  28.931  1.00  0.00     0.034 A 
BRANCH  24  38
ATOM     38  C   UNL A   1      47.219  27.863  25.892  1.00  0.00     0.023 A 
ATOM     39  C   UNL A   1      47.428  28.122  24.525  1.00  0.00     0.031 A 
ATOM     40  C   UNL A   1      48.153  27.047  26.556  1.00  0.00     0.131 A 
ATOM     41  C   UNL A   1      48.485  27.492  23.849  1.00  0.00     0.055 A 
ATOM     42  C   UNL A   1      49.254  26.499  25.897  1.00  0.00     0.041 A 
ATOM     43  F   UNL A   1      47.985  26.729  27.849  1.00  0.00    -0.206 F 
ATOM     44  C   UNL A   1      49.415  26.704  24.530  1.00  0.00     0.022 A 
BRANCH  41  45
ATOM     45  S   UNL A   1      48.519  27.558  22.034  1.00  0.00     0.124 S 
ATOM     46  O   UNL A   1      47.196  28.100  21.734  1.00  0.00    -0.237 OA
ATOM     47  O   UNL A   1      49.647  28.444  21.770  1.00  0.00    -0.237 OA
ATOM     48  O   UNL A   1      48.716  26.164  21.642  1.00  0.00    -0.744 OA
ENDBRANCH  41  45
ENDBRANCH  24  38
BRANCH  25  49
ATOM     49  C   UNL A   1      38.626  30.154  30.809  1.00  0.00     0.023 A 
ATOM     50  C   UNL A   1      37.602  30.879  30.179  1.00  0.00     0.031 A 
ATOM     51  C   UNL A   1      38.448  29.816  32.165  1.00  0.00     0.131 A 
ATOM     52  C   UNL A   1      36.474  31.283  30.914  1.00  0.00     0.055 A 
ATOM     53  C   UNL A   1      37.296  30.165  32.873  1.00  0.00     0.041 A 
ATOM     54  F   UNL A   1      39.395  29.133  32.829  1.00  0.00    -0.206 F 
ATOM     55  C   UNL A   1      36.307  30.917  32.251  1.00  0.00     0.022 A 
BRANCH  52  56
ATOM     56  S   UNL A   1      35.275  32.394  30.126  1.00  0.00     0.124 S 
ATOM     57  O   UNL A   1      34.330  32.627  31.211  1.00  0.00    -0.237 OA
ATOM     58  O   UNL A   1      36.114  33.528  29.751  1.00  0.00    -0.237 OA
ATOM     59  O   UNL A   1      34.761  31.604  29.009  1.00  0.00    -0.744 OA
ENDBRANCH  52  56
ENDBRANCH  25  49
BRANCH  37  60
ATOM     60  C   UNL A   1      44.397  33.719  29.144  1.00  0.00     0.023 A 
ATOM     61  C   UNL A   1      43.837  34.751  28.375  1.00  0.00     0.031 A 
ATOM     62  C   UNL A   1      45.344  34.057  30.127  1.00  0.00     0.131 A 
ATOM     63  C   UNL A   1      44.283  36.067  28.553  1.00  0.00     0.055 A 
ATOM     64  C   UNL A   1      45.724  35.377  30.352  1.00  0.00     0.041 A 
ATOM     65  F   UNL A   1      45.912  33.106  30.886  1.00  0.00    -0.206 F 
ATOM     66  C   UNL A   1      45.206  36.391  29.551  1.00  0.00     0.022 A 
BRANCH  63  67
ATOM     67  S   UNL A   1      43.733  37.331  27.376  1.00  0.00     0.124 S 
ATOM     68  O   UNL A   1      45.000  37.799  26.821  1.00  0.00    -0.237 OA
ATOM     69  O   UNL A   1      42.885  36.565  26.469  1.00  0.00    -0.237 OA
ATOM     70  O   UNL A   1      43.029  38.297  28.216  1.00  0.00    -0.744 OA
ENDBRANCH  63  67
ENDBRANCH  37  60
ENDBRANCH  11  12
ENDBRANCH   4   6
ENDBRANCH   3   4
ENDBRANCH   2   3
ENDBRANCH   1   2
BRANCH   1  71
ATOM     71  O   UNL A   1      38.081  21.678  25.035  1.00  0.00    -0.374 OA
BRANCH  71  72
ATOM     72  C   UNL A   1      36.970  22.510  24.692  1.00  0.00     0.202 C 
BRANCH  72  73
ATOM     73  C   UNL A   1      36.747  23.547  25.782  1.00  0.00     0.261 C 
BRANCH  73  74
ATOM     74  O   UNL A   1      35.506  24.189  25.478  1.00  0.00    -0.463 OA
BRANCH  74  75
ATOM     75  C   UNL A   1      34.395  23.603  25.997  1.00  0.00     0.310 C 
ATOM     76  O   UNL A   1      34.359  22.930  27.020  1.00  0.00    -0.252 OA
BRANCH  75  77
ATOM     77  C   UNL A   1      33.169  24.009  25.201  1.00  0.00     0.115 C 
ATOM     78  C   UNL A   1      33.259  23.712  23.673  1.00  0.00     0.004 C 
ATOM     79  C   UNL A   1      31.937  23.215  25.650  1.00  0.00     0.096 C 
ATOM     80  C   UNL A   1      33.703  22.266  23.407  1.00  0.00     0.005 C 
ATOM     81  C   UNL A   1      31.802  23.566  23.237  1.00  0.00     0.009 C 
ATOM     82  C   UNL A   1      31.470  22.556  24.329  1.00  0.00     0.002 C 
ATOM     83  C   UNL A   1      32.514  21.457  23.962  1.00  0.00     0.005 C 
BRANCH  79  84
ATOM     84  C   UNL A   1      30.943  23.976  26.556  1.00  0.00     0.224 C 
ATOM     85  O   UNL A   1      30.302  23.336  27.399  1.00  0.00    -0.275 OA
ATOM     86  N   UNL A   1      30.705  25.316  26.538  1.00  0.00    -0.349 N 
ATOM     87  H   UNL A   1      30.325  25.677  27.373  1.00  0.00     0.164 HD
BRANCH  86  88
ATOM     88  C   UNL A   1      30.915  26.295  25.498  1.00  0.00     0.112 C 
ATOM     89  C   UNL A   1      29.724  26.284  24.532  1.00  0.00     0.030 C 
ATOM     90  C   UNL A   1      31.294  27.696  25.932  1.00  0.00    -0.022 A 
ATOM     91  C   UNL A   1      29.992  27.206  23.349  1.00  0.00     0.007 C 
ATOM     92  C   UNL A   1      31.122  28.765  25.020  1.00  0.00    -0.043 A 
ATOM     93  C   UNL A   1      32.038  27.916  27.101  1.00  0.00     0.006 A 
ATOM     94  C   UNL A   1      30.225  28.640  23.810  1.00  0.00     0.036 C 
ATOM     95  C   UNL A   1      31.751  29.994  25.264  1.00  0.00     0.004 A 
ATOM     96  C   UNL A   1      32.648  29.150  27.334  1.00  0.00     0.000 A 
ATOM     97  C   UNL A   1      32.530  30.177  26.403  1.00  0.00     0.000 A 
ENDBRANCH  86  88
ENDBRANCH  79  84
ENDBRANCH  75  77
ENDBRANCH  74  75
ENDBRANCH  73  74
ENDBRANCH  72  73
ENDBRANCH  71  72
ENDBRANCH   1  71
TORSDOF 19
ENDMDL
MODEL 2
REMARK VINA RESULT:     -12.4      1.627      1.876
REMARK SMILES O=C(OCCOCCOC(=O)[C@H]1[C@H]2CC[C@H](C2)[C@@H]1C(=O)N[C@H]1CCCc2ccccc21)c1ccc(-c2c3nc(c(-c4cc(S(=O)(=O)[O-])ccc4F)c4ccc([nH]4)c(-c4cc(S(=O)(=O)[O-])ccc4F)c4nc(c(-c5cc(S(=O)(=O)[O-])ccc5F)c5ccc2[nH]5)C=C4)C=C3)cc1
REMARK SMILES IDX 5 1 4 2 3 3 2 4 1 5 32 6 33 7 94 8 34 9 93 10 35 11 36 12
REMARK SMILES IDX 37 13 87 14 38 15 92 16 86 17 88 18 39 19 91 20 85 21 84 22
REMARK SMILES IDX 40 24 72 25 52 26 71 27 53 28 56 29 70 30 89 31 54 32 55 33
REMARK SMILES IDX 69 35 90 36 57 37 41 38 42 39 50 40 43 41 49 42 51 43 48 44
REMARK SMILES IDX 44 45 45 46 46 47 47 48 73 49 74 50 82 51 75 52 81 53 83 54
REMARK SMILES IDX 80 55 76 56 77 57 78 58 79 59 58 60 59 61 67 62 60 63 66 64
REMARK SMILES IDX 68 65 65 66 61 67 62 68 63 69 64 70 6 71 7 72 8 73 9 74
REMARK SMILES IDX 10 75 11 76 12 77 13 78 18 79 14 80 17 81 16 82 15 83 19 84
REMARK SMILES IDX 20 85 21 86 22 88 23 89 31 90 24 91 26 92 30 93 25 94 27 95
REMARK SMILES IDX 29 96 28 97
REMARK H PARENT 88 23 56 34 21 87
REMARK Flexibility Score: inf
ROOT
ATOM      1  C   UNL A   1      38.151  20.333  25.005  1.00  0.00     0.202 C 
ENDROOT
BRANCH   1   2
ATOM      2  C   UNL A   1      38.900  19.199  25.714  1.00  0.00     0.261 C 
BRANCH   2   3
ATOM      3  O   UNL A   1      40.302  19.242  25.403  1.00  0.00    -0.460 OA
BRANCH   3   4
ATOM      4  C   UNL A   1      41.323  19.635  26.200  1.00  0.00     0.338 C 
ATOM      5  O   UNL A   1      42.071  18.768  26.653  1.00  0.00    -0.246 OA
BRANCH   4   6
ATOM      6  C   UNL A   1      41.592  21.057  26.574  1.00  0.00     0.060 A 
ATOM      7  C   UNL A   1      41.393  22.160  25.743  1.00  0.00     0.016 A 
ATOM      8  C   UNL A   1      42.007  21.304  27.894  1.00  0.00     0.016 A 
ATOM      9  C   UNL A   1      41.602  23.451  26.172  1.00  0.00     0.010 A 
ATOM     10  C   UNL A   1      42.221  22.610  28.347  1.00  0.00     0.010 A 
ATOM     11  C   UNL A   1      42.024  23.680  27.471  1.00  0.00    -0.014 A 
BRANCH  11  12
ATOM     12  C   UNL A   1      42.427  25.058  27.766  1.00  0.00     0.031 A 
ATOM     13  C   UNL A   1      43.738  25.518  27.212  1.00  0.00     0.074 A 
ATOM     14  C   UNL A   1      41.523  25.902  28.295  1.00  0.00     0.049 A 
ATOM     15  N   UNL A   1      44.310  26.684  27.300  1.00  0.00    -0.248 NA
ATOM     16  C   UNL A   1      44.494  24.527  26.427  1.00  0.00     0.031 C 
ATOM     17  C   UNL A   1      40.149  25.538  28.662  1.00  0.00     0.029 A 
ATOM     18  N   UNL A   1      41.594  27.239  28.558  1.00  0.00    -0.354 N 
ATOM     19  C   UNL A   1      45.514  26.557  26.616  1.00  0.00     0.074 A 
ATOM     20  C   UNL A   1      45.589  25.202  26.120  1.00  0.00     0.031 C 
ATOM     21  C   UNL A   1      39.502  26.639  29.078  1.00  0.00     0.029 A 
ATOM     22  C   UNL A   1      40.436  27.757  29.086  1.00  0.00     0.049 A 
ATOM     23  H   UNL A   1      42.399  27.780  28.386  1.00  0.00     0.167 HD
ATOM     24  C   UNL A   1      46.468  27.500  26.443  1.00  0.00     0.034 A 
ATOM     25  C   UNL A   1      40.191  28.994  29.558  1.00  0.00     0.034 A 
ATOM     26  C   UNL A   1      46.333  28.832  26.977  1.00  0.00     0.049 A 
ATOM     27  C   UNL A   1      41.325  29.985  29.481  1.00  0.00     0.074 A 
ATOM     28  C   UNL A   1      47.244  29.868  26.967  1.00  0.00     0.029 A 
ATOM     29  N   UNL A   1      45.196  29.302  27.631  1.00  0.00    -0.354 N 
ATOM     30  N   UNL A   1      42.515  29.838  28.937  1.00  0.00    -0.248 NA
ATOM     31  C   UNL A   1      41.095  31.298  30.085  1.00  0.00     0.031 C 
ATOM     32  C   UNL A   1      46.690  30.935  27.684  1.00  0.00     0.029 A 
ATOM     33  C   UNL A   1      45.395  30.603  28.058  1.00  0.00     0.049 A 
ATOM     34  H   UNL A   1      44.370  28.784  27.768  1.00  0.00     0.167 HD
ATOM     35  C   UNL A   1      43.165  31.055  29.105  1.00  0.00     0.074 A 
ATOM     36  C   UNL A   1      42.223  31.926  29.786  1.00  0.00     0.031 C 
ATOM     37  C   UNL A   1      44.419  31.428  28.738  1.00  0.00     0.034 A 
BRANCH  24  38
ATOM     38  C   UNL A   1      47.752  27.056  25.786  1.00  0.00     0.023 A 
ATOM     39  C   UNL A   1      48.790  26.432  26.503  1.00  0.00     0.031 A 
ATOM     40  C   UNL A   1      47.990  27.384  24.439  1.00  0.00     0.131 A 
ATOM     41  C   UNL A   1      50.044  26.248  25.898  1.00  0.00     0.055 A 
ATOM     42  C   UNL A   1      49.210  27.114  23.818  1.00  0.00     0.041 A 
ATOM     43  F   UNL A   1      47.055  28.018  23.715  1.00  0.00    -0.206 F 
ATOM     44  C   UNL A   1      50.253  26.560  24.553  1.00  0.00     0.022 A 
BRANCH  41  45
ATOM     45  S   UNL A   1      51.453  25.777  26.943  1.00  0.00     0.124 S 
ATOM     46  O   UNL A   1      50.780  25.287  28.144  1.00  0.00    -0.237 OA
ATOM     47  O   UNL A   1      52.126  24.769  26.133  1.00  0.00    -0.237 OA
ATOM     48  O   UNL A   1      52.187  27.028  27.117  1.00  0.00    -0.744 OA
ENDBRANCH  41  45
ENDBRANCH  24  38
BRANCH  25  49
ATOM     49  C   UNL A   1      38.887  29.334  30.199  1.00  0.00     0.023 A 
ATOM     50  C   UNL A   1      37.930  30.122  29.539  1.00  0.00     0.031 A 
ATOM     51  C   UNL A   1      38.601  28.929  31.518  1.00  0.00     0.131 A 
ATOM     52  C   UNL A   1      36.763  30.519  30.213  1.00  0.00     0.055 A 
ATOM     53  C   UNL A   1      37.410  29.273  32.160  1.00  0.00     0.041 A 
ATOM     54  F   UNL A   1      39.480  28.184  32.208  1.00  0.00    -0.206 F 
ATOM     55  C   UNL A   1      36.489  30.087  31.512  1.00  0.00     0.022 A 
BRANCH  52  56
ATOM     56  S   UNL A   1      35.653  31.705  29.404  1.00  0.00     0.124 S 
ATOM     57  O   UNL A   1      36.597  32.692  28.893  1.00  0.00    -0.237 OA
ATOM     58  O   UNL A   1      34.993  30.871  28.406  1.00  0.00    -0.237 OA
ATOM     59  O   UNL A   1      34.796  32.168  30.495  1.00  0.00    -0.744 OA
ENDBRANCH  52  56
ENDBRANCH  25  49
BRANCH  37  60
ATOM     60  C   UNL A   1      44.800  32.858  29.018  1.00  0.00     0.023 A 
ATOM     61  C   UNL A   1      44.471  33.898  28.133  1.00  0.00     0.031 A 
ATOM     62  C   UNL A   1      45.516  33.177  30.186  1.00  0.00     0.131 A 
ATOM     63  C   UNL A   1      44.922  35.198  28.395  1.00  0.00     0.055 A 
ATOM     64  C   UNL A   1      45.892  34.485  30.478  1.00  0.00     0.041 A 
ATOM     65  F   UNL A   1      45.858  32.218  31.061  1.00  0.00    -0.206 F 
ATOM     66  C   UNL A   1      45.610  35.503  29.572  1.00  0.00     0.022 A 
BRANCH  63  67
ATOM     67  S   UNL A   1      44.705  36.461  27.113  1.00  0.00     0.124 S 
ATOM     68  O   UNL A   1      44.671  37.689  27.902  1.00  0.00    -0.237 OA
ATOM     69  O   UNL A   1      45.889  36.270  26.283  1.00  0.00    -0.237 OA
ATOM     70  O   UNL A   1      43.438  36.093  26.482  1.00  0.00    -0.744 OA
ENDBRANCH  63  67
ENDBRANCH  37  60
ENDBRANCH  11  12
ENDBRANCH   4   6
ENDBRANCH   3   4
ENDBRANCH   2   3
ENDBRANCH   1   2
BRANCH   1  71
ATOM     71  O   UNL A   1      38.015  21.544  25.752  1.00  0.00    -0.374 OA
BRANCH  71  72
ATOM     72  C   UNL A   1      37.399  22.643  25.077  1.00  0.00     0.202 C 
BRANCH  72  73
ATOM     73  C   UNL A   1      36.941  23.679  26.091  1.00  0.00     0.261 C 
BRANCH  73  74
ATOM     74  O   UNL A   1      35.642  24.107  25.671  1.00  0.00    -0.463 OA
BRANCH  74  75
ATOM     75  C   UNL A   1      34.594  23.462  26.248  1.00  0.00     0.310 C 
ATOM     76  O   UNL A   1      34.615  22.905  27.340  1.00  0.00    -0.252 OA
BRANCH  75  77
ATOM     77  C   UNL A   1      33.344  23.641  25.407  1.00  0.00     0.115 C 
ATOM     78  C   UNL A   1      33.470  23.131  23.939  1.00  0.00     0.004 C 
ATOM     79  C   UNL A   1      32.180  22.821  25.975  1.00  0.00     0.096 C 
ATOM     80  C   UNL A   1      34.036  21.704  23.887  1.00  0.00     0.005 C 
ATOM     81  C   UNL A   1      32.034  22.800  23.538  1.00  0.00     0.009 C 
ATOM     82  C   UNL A   1      31.780  21.937  24.769  1.00  0.00     0.002 C 
ATOM     83  C   UNL A   1      32.916  20.888  24.562  1.00  0.00     0.005 C 
BRANCH  79  84
ATOM     84  C   UNL A   1      31.118  23.619  26.764  1.00  0.00     0.224 C 
ATOM     85  O   UNL A   1      30.450  23.028  27.622  1.00  0.00    -0.275 OA
ATOM     86  N   UNL A   1      30.846  24.946  26.627  1.00  0.00    -0.349 N 
ATOM     87  H   UNL A   1      30.413  25.360  27.409  1.00  0.00     0.164 HD
BRANCH  86  88
ATOM     88  C   UNL A   1      31.087  25.846  25.524  1.00  0.00     0.112 C 
ATOM     89  C   UNL A   1      30.053  25.595  24.420  1.00  0.00     0.030 C 
ATOM     90  C   UNL A   1      31.237  27.318  25.851  1.00  0.00    -0.022 A 
ATOM     91  C   UNL A   1      30.377  26.433  23.190  1.00  0.00     0.007 C 
ATOM     92  C   UNL A   1      31.073  28.269  24.815  1.00  0.00    -0.043 A 
ATOM     93  C   UNL A   1      31.779  27.736  27.075  1.00  0.00     0.006 A 
ATOM     94  C   UNL A   1      30.375  27.921  23.520  1.00  0.00     0.036 C 
ATOM     95  C   UNL A   1      31.515  29.586  25.005  1.00  0.00     0.004 A 
ATOM     96  C   UNL A   1      32.204  29.054  27.252  1.00  0.00     0.000 A 
ATOM     97  C   UNL A   1      32.101  29.969  26.209  1.00  0.00     0.000 A 
ENDBRANCH  86  88
ENDBRANCH  79  84
ENDBRANCH  75  77
ENDBRANCH  74  75
ENDBRANCH  73  74
ENDBRANCH  72  73
ENDBRANCH  71  72
ENDBRANCH   1  71
TORSDOF 19
ENDMDL
MODEL 3
REMARK VINA RESULT:     -12.3      4.852     10.638
REMARK SMILES O=C(OCCOCCOC(=O)[C@H]1[C@H]2CC[C@H](C2)[C@@H]1C(=O)N[C@H]1CCCc2ccccc21)c1ccc(-c2c3nc(c(-c4cc(S(=O)(=O)[O-])ccc4F)c4ccc([nH]4)c(-c4cc(S(=O)(=O)[O-])ccc4F)c4nc(c(-c5cc(S(=O)(=O)[O-])ccc5F)c5ccc2[nH]5)C=C4)C=C3)cc1
REMARK SMILES IDX 5 1 4 2 3 3 2 4 1 5 32 6 33 7 94 8 34 9 93 10 35 11 36 12
REMARK SMILES IDX 37 13 87 14 38 15 92 16 86 17 88 18 39 19 91 20 85 21 84 22
REMARK SMILES IDX 40 24 72 25 52 26 71 27 53 28 56 29 70 30 89 31 54 32 55 33
REMARK SMILES IDX 69 35 90 36 57 37 41 38 42 39 50 40 43 41 49 42 51 43 48 44
REMARK SMILES IDX 44 45 45 46 46 47 47 48 73 49 74 50 82 51 75 52 81 53 83 54
REMARK SMILES IDX 80 55 76 56 77 57 78 58 79 59 58 60 59 61 67 62 60 63 66 64
REMARK SMILES IDX 68 65 65 66 61 67 62 68 63 69 64 70 6 71 7 72 8 73 9 74
REMARK SMILES IDX 10 75 11 76 12 77 13 78 18 79 14 80 17 81 16 82 15 83 19 84
REMARK SMILES IDX 20 85 21 86 22 88 23 89 31 90 24 91 26 92 30 93 25 94 27 95
REMARK SMILES IDX 29 96 28 97
REMARK H PARENT 88 23 56 34 21 87
REMARK Flexibility Score: inf
ROOT
ATOM      1  C   UNL A   1      31.521  31.575  26.777  1.00  0.00     0.202 C 
ENDROOT
BRANCH   1   2
ATOM      2  C   UNL A   1      31.962  33.031  26.592  1.00  0.00     0.261 C 
BRANCH   2   3
ATOM      3  O   UNL A   1      32.074  33.694  27.860  1.00  0.00    -0.460 OA
BRANCH   3   4
ATOM      4  C   UNL A   1      33.160  34.307  28.390  1.00  0.00     0.338 C 
ATOM      5  O   UNL A   1      33.158  35.536  28.455  1.00  0.00    -0.246 OA
BRANCH   4   6
ATOM      6  C   UNL A   1      34.367  33.581  28.891  1.00  0.00     0.060 A 
ATOM      7  C   UNL A   1      34.350  32.358  29.562  1.00  0.00     0.016 A 
ATOM      8  C   UNL A   1      35.621  34.143  28.593  1.00  0.00     0.016 A 
ATOM      9  C   UNL A   1      35.505  31.712  29.942  1.00  0.00     0.010 A 
ATOM     10  C   UNL A   1      36.804  33.498  28.969  1.00  0.00     0.010 A 
ATOM     11  C   UNL A   1      36.734  32.283  29.655  1.00  0.00    -0.014 A 
BRANCH  11  12
ATOM     12  C   UNL A   1      37.889  31.637  30.286  1.00  0.00     0.031 A 
ATOM     13  C   UNL A   1      38.119  31.920  31.736  1.00  0.00     0.074 A 
ATOM     14  C   UNL A   1      38.530  30.658  29.624  1.00  0.00     0.049 A 
ATOM     15  N   UNL A   1      39.040  31.461  32.533  1.00  0.00    -0.248 NA
ATOM     16  C   UNL A   1      37.156  32.830  32.381  1.00  0.00     0.031 C 
ATOM     17  C   UNL A   1      38.197  30.204  28.268  1.00  0.00     0.029 A 
ATOM     18  N   UNL A   1      39.541  29.829  30.013  1.00  0.00    -0.354 N 
ATOM     19  C   UNL A   1      38.794  32.056  33.764  1.00  0.00     0.074 A 
ATOM     20  C   UNL A   1      37.638  32.909  33.609  1.00  0.00     0.031 C 
ATOM     21  C   UNL A   1      38.979  29.159  27.952  1.00  0.00     0.029 A 
ATOM     22  C   UNL A   1      39.915  28.927  29.045  1.00  0.00     0.049 A 
ATOM     23  H   UNL A   1      39.962  29.873  30.902  1.00  0.00     0.167 HD
ATOM     24  C   UNL A   1      39.495  31.903  34.911  1.00  0.00     0.034 A 
ATOM     25  C   UNL A   1      40.934  28.048  29.045  1.00  0.00     0.034 A 
ATOM     26  C   UNL A   1      40.649  31.042  34.992  1.00  0.00     0.049 A 
ATOM     27  C   UNL A   1      41.788  28.001  30.287  1.00  0.00     0.074 A 
ATOM     28  C   UNL A   1      41.516  30.849  36.048  1.00  0.00     0.029 A 
ATOM     29  N   UNL A   1      41.096  30.230  33.951  1.00  0.00    -0.354 N 
ATOM     30  N   UNL A   1      41.631  28.650  31.422  1.00  0.00    -0.248 NA
ATOM     31  C   UNL A   1      42.956  27.120  30.251  1.00  0.00     0.031 C 
ATOM     32  C   UNL A   1      42.531  29.986  35.619  1.00  0.00     0.029 A 
ATOM     33  C   UNL A   1      42.245  29.560  34.328  1.00  0.00     0.049 A 
ATOM     34  H   UNL A   1      40.656  30.145  33.074  1.00  0.00     0.167 HD
ATOM     35  C   UNL A   1      42.666  28.228  32.249  1.00  0.00     0.074 A 
ATOM     36  C   UNL A   1      43.425  27.256  31.483  1.00  0.00     0.031 C 
ATOM     37  C   UNL A   1      42.969  28.601  33.521  1.00  0.00     0.034 A 
BRANCH  24  38
ATOM     38  C   UNL A   1      39.104  32.784  36.071  1.00  0.00     0.023 A 
ATOM     39  C   UNL A   1      39.574  34.103  36.209  1.00  0.00     0.031 A 
ATOM     40  C   UNL A   1      38.349  32.243  37.128  1.00  0.00     0.131 A 
ATOM     41  C   UNL A   1      39.366  34.796  37.413  1.00  0.00     0.055 A 
ATOM     42  C   UNL A   1      38.068  32.971  38.284  1.00  0.00     0.041 A 
ATOM     43  F   UNL A   1      37.909  30.976  37.074  1.00  0.00    -0.206 F 
ATOM     44  C   UNL A   1      38.595  34.250  38.441  1.00  0.00     0.022 A 
BRANCH  41  45
ATOM     45  S   UNL A   1      40.280  36.340  37.696  1.00  0.00     0.124 S 
ATOM     46  O   UNL A   1      40.448  36.838  36.333  1.00  0.00    -0.237 OA
ATOM     47  O   UNL A   1      39.367  37.098  38.543  1.00  0.00    -0.237 OA
ATOM     48  O   UNL A   1      41.512  35.898  38.345  1.00  0.00    -0.744 OA
ENDBRANCH  41  45
ENDBRANCH  24  38
BRANCH  25  49
ATOM     49  C   UNL A   1      41.246  27.223  27.841  1.00  0.00     0.023 A 
ATOM     50  C   UNL A   1      40.997  25.842  27.814  1.00  0.00     0.031 A 
ATOM     51  C   UNL A   1      41.865  27.797  26.712  1.00  0.00     0.131 A 
ATOM     52  C   UNL A   1      41.407  25.076  26.710  1.00  0.00     0.055 A 
ATOM     53  C   UNL A   1      42.212  27.041  25.590  1.00  0.00     0.041 A 
ATOM     54  F   UNL A   1      42.142  29.110  26.679  1.00  0.00    -0.206 F 
ATOM     55  C   UNL A   1      41.998  25.668  25.592  1.00  0.00     0.022 A 
BRANCH  52  56
ATOM     56  S   UNL A   1      41.258  23.270  26.801  1.00  0.00     0.124 S 
ATOM     57  O   UNL A   1      39.813  23.087  26.728  1.00  0.00    -0.237 OA
ATOM     58  O   UNL A   1      42.019  22.844  25.631  1.00  0.00    -0.237 OA
ATOM     59  O   UNL A   1      41.864  22.943  28.091  1.00  0.00    -0.744 OA
ENDBRANCH  52  56
ENDBRANCH  25  49
BRANCH  37  60
ATOM     60  C   UNL A   1      44.136  27.899  34.163  1.00  0.00     0.023 A 
ATOM     61  C   UNL A   1      43.975  26.709  34.890  1.00  0.00     0.031 A 
ATOM     62  C   UNL A   1      45.428  28.444  34.051  1.00  0.00     0.131 A 
ATOM     63  C   UNL A   1      45.078  26.141  35.541  1.00  0.00     0.055 A 
ATOM     64  C   UNL A   1      46.533  27.830  34.635  1.00  0.00     0.041 A 
ATOM     65  F   UNL A   1      45.634  29.583  33.370  1.00  0.00    -0.206 F 
ATOM     66  C   UNL A   1      46.360  26.680  35.400  1.00  0.00     0.022 A 
BRANCH  63  67
ATOM     67  S   UNL A   1      44.791  24.758  36.677  1.00  0.00     0.124 S 
ATOM     68  O   UNL A   1      45.808  24.991  37.699  1.00  0.00    -0.237 OA
ATOM     69  O   UNL A   1      43.410  24.977  37.092  1.00  0.00    -0.237 OA
ATOM     70  O   UNL A   1      45.010  23.579  35.842  1.00  0.00    -0.744 OA
ENDBRANCH  63  67
ENDBRANCH  37  60
ENDBRANCH  11  12
ENDBRANCH   4   6
ENDBRANCH   3   4
ENDBRANCH   2   3
ENDBRANCH   1   2
BRANCH   1  71
ATOM     71  O   UNL A   1      32.533  30.679  27.244  1.00  0.00    -0.374 OA
BRANCH  71  72
ATOM     72  C   UNL A   1      32.523  29.362  26.687  1.00  0.00     0.202 C 
BRANCH  72  73
ATOM     73  C   UNL A   1      33.579  29.255  25.599  1.00  0.00     0.261 C 
BRANCH  73  74
ATOM     74  O   UNL A   1      33.664  27.869  25.256  1.00  0.00    -0.463 OA
BRANCH  74  75
ATOM     75  C   UNL A   1      33.059  27.511  24.093  1.00  0.00     0.310 C 
ATOM     76  O   UNL A   1      32.944  28.224  23.102  1.00  0.00    -0.252 OA
BRANCH  75  77
ATOM     77  C   UNL A   1      32.655  26.049  24.141  1.00  0.00     0.115 C 
ATOM     78  C   UNL A   1      31.616  25.699  25.250  1.00  0.00     0.004 C 
ATOM     79  C   UNL A   1      31.953  25.631  22.844  1.00  0.00     0.096 C 
ATOM     80  C   UNL A   1      30.416  26.657  25.218  1.00  0.00     0.005 C 
ATOM     81  C   UNL A   1      30.905  24.458  24.712  1.00  0.00     0.009 C 
ATOM     82  C   UNL A   1      30.596  25.095  23.361  1.00  0.00     0.002 C 
ATOM     83  C   UNL A   1      29.770  26.320  23.860  1.00  0.00     0.005 C 
BRANCH  79  84
ATOM     84  C   UNL A   1      32.809  24.811  21.853  1.00  0.00     0.224 C 
ATOM     85  O   UNL A   1      32.829  25.153  20.664  1.00  0.00    -0.275 OA
ATOM     86  N   UNL A   1      33.580  23.732  22.161  1.00  0.00    -0.349 N 
ATOM     87  H   UNL A   1      34.303  23.547  21.518  1.00  0.00     0.164 HD
BRANCH  86  88
ATOM     88  C   UNL A   1      33.512  22.814  23.274  1.00  0.00     0.112 C 
ATOM     89  C   UNL A   1      32.472  21.726  22.981  1.00  0.00     0.030 C 
ATOM     90  C   UNL A   1      34.820  22.240  23.779  1.00  0.00    -0.022 A 
ATOM     91  C   UNL A   1      32.282  20.833  24.199  1.00  0.00     0.007 C 
ATOM     92  C   UNL A   1      34.793  21.067  24.569  1.00  0.00    -0.043 A 
ATOM     93  C   UNL A   1      36.012  22.976  23.700  1.00  0.00     0.006 A 
ATOM     94  C   UNL A   1      33.588  20.154  24.595  1.00  0.00     0.036 C 
ATOM     95  C   UNL A   1      35.926  20.700  25.309  1.00  0.00     0.004 A 
ATOM     96  C   UNL A   1      37.135  22.592  24.434  1.00  0.00     0.000 A 
ATOM     97  C   UNL A   1      37.083  21.474  25.260  1.00  0.00     0.000 A 
ENDBRANCH  86  88
ENDBRANCH  79  84
ENDBRANCH  75  77
ENDBRANCH  74  75
ENDBRANCH  73  74
ENDBRANCH  72  73
ENDBRANCH  71  72
ENDBRANCH   1  71
TORSDOF 19
ENDMDL
