MODEL 1
REMARK VINA RESULT:     -12.0      0.000      0.000
REMARK SMILES CC[C@@H]1CC[C@](C[C@@H]2CCCc3ccccc32)(C(=O)OCCOCCOC(=O)c2ccc(-c3c4nc(c(-c5cc(S(=O)(=O)[O-])ccc5F)c5ccc([nH]5)c(-c5cc(S(=O)(=O)[O-])ccc5F)c5nc(c(-c6cc(S(=O)(=O)[O-])ccc6F)c6ccc3[nH]6)C=C5)C=C4)cc2)C1
REMARK SMILES IDX 24 1 23 2 22 3 21 4 20 5 18 6 19 7 6 8 3 9 4 10 92 11 5 12
REMARK SMILES IDX 2 13 1 14 7 15 8 16 9 17 17 18 10 19 12 20 16 21 11 22 13 23
REMARK SMILES IDX 15 24 14 25 25 26 26 27 27 28 28 29 29 30 30 31 91 32 31 33
REMARK SMILES IDX 90 34 32 35 33 36 34 37 84 38 35 39 89 40 83 41 85 42 36 43
REMARK SMILES IDX 88 44 82 45 81 46 37 48 69 49 49 50 68 51 50 52 53 53 67 54
REMARK SMILES IDX 86 55 51 56 52 57 66 59 87 60 54 61 38 62 39 63 47 64 40 65
REMARK SMILES IDX 46 66 48 67 45 68 41 69 42 70 43 71 44 72 70 73 71 74 79 75
REMARK SMILES IDX 72 76 78 77 80 78 77 79 73 80 74 81 75 82 76 83 55 84 56 85
REMARK SMILES IDX 64 86 57 87 63 88 65 89 62 90 58 91 59 92 60 93 61 94
REMARK H PARENT 85 47 53 58
REMARK Flexibility Score: inf
ROOT
ATOM      1  C   UNL A   1      36.022  21.474  25.623  1.00  0.00     0.202 C 
ENDROOT
BRANCH   1   2
ATOM      2  O   UNL A   1      34.783  21.135  25.010  1.00  0.00    -0.374 OA
BRANCH   2   3
ATOM      3  C   UNL A   1      33.654  20.969  25.860  1.00  0.00     0.202 C 
BRANCH   3   4
ATOM      4  C   UNL A   1      33.689  21.567  27.273  1.00  0.00     0.261 C 
BRANCH   4   5
ATOM      5  O   UNL A   1      33.809  23.005  27.337  1.00  0.00    -0.463 OA
BRANCH   5   6
ATOM      6  C   UNL A   1      32.695  23.669  26.917  1.00  0.00     0.312 C 
ATOM      7  O   UNL A   1      31.582  23.450  27.390  1.00  0.00    -0.252 OA
BRANCH   6   8
ATOM      8  C   UNL A   1      32.949  24.720  25.793  1.00  0.00     0.069 C 
ATOM      9  C   UNL A   1      33.232  24.704  23.375  1.00  0.00    -0.010 C 
ATOM     10  C   UNL A   1      34.597  24.416  23.971  1.00  0.00     0.005 C 
ATOM     11  C   UNL A   1      32.280  24.245  24.474  1.00  0.00     0.022 C 
ATOM     12  C   UNL A   1      34.449  24.845  25.436  1.00  0.00     0.019 C 
BRANCH   9  13
ATOM     13  C   UNL A   1      32.998  24.143  21.978  1.00  0.00     0.000 C 
ATOM     14  C   UNL A   1      32.701  25.255  20.976  1.00  0.00     0.004 C 
ENDBRANCH   9  13
BRANCH   8  15
ATOM     15  C   UNL A   1      32.309  26.043  26.362  1.00  0.00     0.027 C 
BRANCH  15  16
ATOM     16  C   UNL A   1      32.499  27.508  25.868  1.00  0.00     0.020 C 
ATOM     17  C   UNL A   1      33.110  28.476  26.896  1.00  0.00     0.009 C 
ATOM     18  C   UNL A   1      31.443  28.120  24.947  1.00  0.00    -0.042 A 
ATOM     19  C   UNL A   1      32.210  29.660  27.235  1.00  0.00     0.005 C 
ATOM     20  C   UNL A   1      31.157  29.502  24.986  1.00  0.00    -0.045 A 
ATOM     21  C   UNL A   1      30.844  27.355  23.928  1.00  0.00     0.004 A 
ATOM     22  C   UNL A   1      31.829  30.415  25.977  1.00  0.00     0.036 C 
ATOM     23  C   UNL A   1      30.293  30.075  24.038  1.00  0.00     0.004 A 
ATOM     24  C   UNL A   1      29.983  27.935  22.992  1.00  0.00     0.000 A 
ATOM     25  C   UNL A   1      29.708  29.294  23.046  1.00  0.00     0.000 A 
ENDBRANCH  15  16
ENDBRANCH   8  15
ENDBRANCH   6   8
ENDBRANCH   5   6
ENDBRANCH   4   5
ENDBRANCH   3   4
ENDBRANCH   2   3
ENDBRANCH   1   2
BRANCH   1  26
ATOM     26  C   UNL A   1      37.256  20.617  25.302  1.00  0.00     0.261 C 
BRANCH  26  27
ATOM     27  O   UNL A   1      38.458  21.390  25.132  1.00  0.00    -0.460 OA
BRANCH  27  28
ATOM     28  C   UNL A   1      39.404  21.165  26.078  1.00  0.00     0.338 C 
ATOM     29  O   UNL A   1      40.004  20.117  26.279  1.00  0.00    -0.246 OA
BRANCH  28  30
ATOM     30  C   UNL A   1      39.789  22.429  26.734  1.00  0.00     0.060 A 
ATOM     31  C   UNL A   1      39.139  23.596  26.311  1.00  0.00     0.016 A 
ATOM     32  C   UNL A   1      40.819  22.491  27.675  1.00  0.00     0.016 A 
ATOM     33  C   UNL A   1      39.550  24.838  26.788  1.00  0.00     0.010 A 
ATOM     34  C   UNL A   1      41.240  23.743  28.143  1.00  0.00     0.010 A 
ATOM     35  C   UNL A   1      40.633  24.922  27.671  1.00  0.00    -0.014 A 
BRANCH  35  36
ATOM     36  C   UNL A   1      41.233  26.252  27.947  1.00  0.00     0.031 A 
ATOM     37  C   UNL A   1      42.610  26.548  27.417  1.00  0.00     0.074 A 
ATOM     38  C   UNL A   1      40.540  27.198  28.606  1.00  0.00     0.049 A 
ATOM     39  N   UNL A   1      43.334  27.630  27.538  1.00  0.00    -0.248 NA
ATOM     40  C   UNL A   1      43.255  25.474  26.646  1.00  0.00     0.031 C 
ATOM     41  C   UNL A   1      39.179  27.043  29.117  1.00  0.00     0.029 A 
ATOM     42  N   UNL A   1      40.888  28.478  28.956  1.00  0.00    -0.354 N 
ATOM     43  C   UNL A   1      44.520  27.370  26.859  1.00  0.00     0.074 A 
ATOM     44  C   UNL A   1      44.433  26.012  26.367  1.00  0.00     0.031 C 
ATOM     45  C   UNL A   1      38.809  28.186  29.721  1.00  0.00     0.029 A 
ATOM     46  C   UNL A   1      39.917  29.139  29.672  1.00  0.00     0.049 A 
ATOM     47  H   UNL A   1      41.750  28.887  28.715  1.00  0.00     0.167 HD
ATOM     48  C   UNL A   1      45.580  28.192  26.657  1.00  0.00     0.034 A 
ATOM     49  C   UNL A   1      39.932  30.360  30.243  1.00  0.00     0.034 A 
ATOM     50  C   UNL A   1      45.656  29.539  27.167  1.00  0.00     0.049 A 
ATOM     51  C   UNL A   1      41.162  31.223  30.088  1.00  0.00     0.074 A 
ATOM     52  C   UNL A   1      46.673  30.464  27.013  1.00  0.00     0.029 A 
ATOM     53  N   UNL A   1      44.679  30.152  27.943  1.00  0.00    -0.354 N 
ATOM     54  N   UNL A   1      42.276  30.969  29.440  1.00  0.00    -0.248 NA
ATOM     55  C   UNL A   1      41.133  32.540  30.738  1.00  0.00     0.031 C 
ATOM     56  C   UNL A   1      46.347  31.604  27.757  1.00  0.00     0.029 A 
ATOM     57  C   UNL A   1      45.088  31.425  28.309  1.00  0.00     0.049 A 
ATOM     58  H   UNL A   1      43.821  29.741  28.196  1.00  0.00     0.167 HD
ATOM     59  C   UNL A   1      43.067  32.105  29.582  1.00  0.00     0.074 A 
ATOM     60  C   UNL A   1      42.297  33.051  30.363  1.00  0.00     0.031 C 
ATOM     61  C   UNL A   1      44.316  32.350  29.105  1.00  0.00     0.034 A 
BRANCH  48  62
ATOM     62  C   UNL A   1      46.760  27.627  25.902  1.00  0.00     0.023 A 
ATOM     63  C   UNL A   1      47.043  28.003  24.577  1.00  0.00     0.031 A 
ATOM     64  C   UNL A   1      47.593  26.668  26.506  1.00  0.00     0.131 A 
ATOM     65  C   UNL A   1      48.083  27.371  23.877  1.00  0.00     0.055 A 
ATOM     66  C   UNL A   1      48.676  26.102  25.830  1.00  0.00     0.041 A 
ATOM     67  F   UNL A   1      47.359  26.252  27.760  1.00  0.00    -0.206 F 
ATOM     68  C   UNL A   1      48.916  26.441  24.502  1.00  0.00     0.022 A 
BRANCH  65  69
ATOM     69  S   UNL A   1      48.238  27.674  22.094  1.00  0.00     0.124 S 
ATOM     70  O   UNL A   1      48.501  26.329  21.589  1.00  0.00    -0.237 OA
ATOM     71  O   UNL A   1      46.939  28.242  21.757  1.00  0.00    -0.237 OA
ATOM     72  O   UNL A   1      49.367  28.597  22.001  1.00  0.00    -0.744 OA
ENDBRANCH  65  69
ENDBRANCH  48  62
BRANCH  49  73
ATOM     73  C   UNL A   1      38.771  30.830  31.052  1.00  0.00     0.023 A 
ATOM     74  C   UNL A   1      37.624  31.364  30.444  1.00  0.00     0.031 A 
ATOM     75  C   UNL A   1      38.817  30.798  32.459  1.00  0.00     0.131 A 
ATOM     76  C   UNL A   1      36.589  31.883  31.238  1.00  0.00     0.055 A 
ATOM     77  C   UNL A   1      37.762  31.268  33.243  1.00  0.00     0.041 A 
ATOM     78  F   UNL A   1      39.891  30.301  33.092  1.00  0.00    -0.206 F 
ATOM     79  C   UNL A   1      36.645  31.827  32.633  1.00  0.00     0.022 A 
BRANCH  76  80
ATOM     80  S   UNL A   1      35.197  32.711  30.420  1.00  0.00     0.124 S 
ATOM     81  O   UNL A   1      34.948  31.827  29.289  1.00  0.00    -0.237 OA
ATOM     82  O   UNL A   1      34.186  32.710  31.472  1.00  0.00    -0.237 OA
ATOM     83  O   UNL A   1      35.736  34.026  30.081  1.00  0.00    -0.744 OA
ENDBRANCH  76  80
ENDBRANCH  49  73
BRANCH  61  84
ATOM     84  C   UNL A   1      44.904  33.711  29.390  1.00  0.00     0.023 A 
ATOM     85  C   UNL A   1      44.698  34.802  28.528  1.00  0.00     0.031 A 
ATOM     86  C   UNL A   1      45.691  33.916  30.538  1.00  0.00     0.131 A 
ATOM     87  C   UNL A   1      45.316  36.034  28.798  1.00  0.00     0.055 A 
ATOM     88  C   UNL A   1      46.252  35.158  30.833  1.00  0.00     0.041 A 
ATOM     89  F   UNL A   1      45.923  32.909  31.395  1.00  0.00    -0.206 F 
ATOM     90  C   UNL A   1      46.077  36.223  29.954  1.00  0.00     0.022 A 
BRANCH  87  91
ATOM     91  S   UNL A   1      45.186  37.362  27.570  1.00  0.00     0.124 S 
ATOM     92  O   UNL A   1      46.086  36.894  26.521  1.00  0.00    -0.237 OA
ATOM     93  O   UNL A   1      43.764  37.347  27.243  1.00  0.00    -0.237 OA
ATOM     94  O   UNL A   1      45.641  38.546  28.295  1.00  0.00    -0.744 OA
ENDBRANCH  87  91
ENDBRANCH  61  84
ENDBRANCH  35  36
ENDBRANCH  28  30
ENDBRANCH  27  28
ENDBRANCH  26  27
ENDBRANCH   1  26
TORSDOF 20
ENDMDL
MODEL 2
REMARK VINA RESULT:     -12.0      1.467      2.049
REMARK SMILES CC[C@@H]1CC[C@](C[C@@H]2CCCc3ccccc32)(C(=O)OCCOCCOC(=O)c2ccc(-c3c4nc(c(-c5cc(S(=O)(=O)[O-])ccc5F)c5ccc([nH]5)c(-c5cc(S(=O)(=O)[O-])ccc5F)c5nc(c(-c6cc(S(=O)(=O)[O-])ccc6F)c6ccc3[nH]6)C=C5)C=C4)cc2)C1
REMARK SMILES IDX 24 1 23 2 22 3 21 4 20 5 18 6 19 7 6 8 3 9 4 10 92 11 5 12
REMARK SMILES IDX 2 13 1 14 7 15 8 16 9 17 17 18 10 19 12 20 16 21 11 22 13 23
REMARK SMILES IDX 15 24 14 25 25 26 26 27 27 28 28 29 29 30 30 31 91 32 31 33
REMARK SMILES IDX 90 34 32 35 33 36 34 37 84 38 35 39 89 40 83 41 85 42 36 43
REMARK SMILES IDX 88 44 82 45 81 46 37 48 69 49 49 50 68 51 50 52 53 53 67 54
REMARK SMILES IDX 86 55 51 56 52 57 66 59 87 60 54 61 38 62 39 63 47 64 40 65
REMARK SMILES IDX 46 66 48 67 45 68 41 69 42 70 43 71 44 72 70 73 71 74 79 75
REMARK SMILES IDX 72 76 78 77 80 78 77 79 73 80 74 81 75 82 76 83 55 84 56 85
REMARK SMILES IDX 64 86 57 87 63 88 65 89 62 90 58 91 59 92 60 93 61 94
REMARK H PARENT 85 47 53 58
REMARK Flexibility Score: inf
ROOT
ATOM      1  C   UNL A   1      36.198  19.739  24.991  1.00  0.00     0.202 C 
ENDROOT
BRANCH   1   2
ATOM      2  O   UNL A   1      35.379  20.892  25.158  1.00  0.00    -0.374 OA
BRANCH   2   3
ATOM      3  C   UNL A   1      33.995  20.763  24.851  1.00  0.00     0.202 C 
BRANCH   3   4
ATOM      4  C   UNL A   1      32.962  20.929  25.975  1.00  0.00     0.261 C 
BRANCH   4   5
ATOM      5  O   UNL A   1      31.849  21.798  25.672  1.00  0.00    -0.463 OA
BRANCH   5   6
ATOM      6  C   UNL A   1      31.832  22.946  26.406  1.00  0.00     0.312 C 
ATOM      7  O   UNL A   1      31.709  22.943  27.629  1.00  0.00    -0.252 OA
BRANCH   6   8
ATOM      8  C   UNL A   1      31.980  24.254  25.570  1.00  0.00     0.069 C 
ATOM      9  C   UNL A   1      32.882  24.883  23.398  1.00  0.00    -0.010 C 
ATOM     10  C   UNL A   1      34.048  24.894  24.368  1.00  0.00     0.005 C 
ATOM     11  C   UNL A   1      31.904  23.916  24.056  1.00  0.00     0.022 C 
ATOM     12  C   UNL A   1      33.371  24.908  25.745  1.00  0.00     0.019 C 
BRANCH   9  13
ATOM     13  C   UNL A   1      33.246  24.617  21.943  1.00  0.00     0.000 C 
ATOM     14  C   UNL A   1      32.525  25.579  21.005  1.00  0.00     0.004 C 
ENDBRANCH   9  13
BRANCH   8  15
ATOM     15  C   UNL A   1      30.779  25.151  26.057  1.00  0.00     0.027 C 
BRANCH  15  16
ATOM     16  C   UNL A   1      30.376  26.579  25.586  1.00  0.00     0.020 C 
ATOM     17  C   UNL A   1      29.685  26.650  24.213  1.00  0.00     0.009 C 
ATOM     18  C   UNL A   1      31.303  27.753  25.907  1.00  0.00    -0.042 A 
ATOM     19  C   UNL A   1      30.433  27.501  23.192  1.00  0.00     0.005 C 
ATOM     20  C   UNL A   1      31.404  28.859  25.037  1.00  0.00    -0.045 A 
ATOM     21  C   UNL A   1      31.956  27.836  27.152  1.00  0.00     0.004 A 
ATOM     22  C   UNL A   1      30.658  28.900  23.729  1.00  0.00     0.036 C 
ATOM     23  C   UNL A   1      32.144  29.992  25.413  1.00  0.00     0.004 A 
ATOM     24  C   UNL A   1      32.692  28.967  27.515  1.00  0.00     0.000 A 
ATOM     25  C   UNL A   1      32.787  30.045  26.645  1.00  0.00     0.000 A 
ENDBRANCH  15  16
ENDBRANCH   8  15
ENDBRANCH   6   8
ENDBRANCH   5   6
ENDBRANCH   4   5
ENDBRANCH   3   4
ENDBRANCH   2   3
ENDBRANCH   1   2
BRANCH   1  26
ATOM     26  C   UNL A   1      37.713  19.934  24.837  1.00  0.00     0.261 C 
BRANCH  26  27
ATOM     27  O   UNL A   1      38.201  21.133  25.467  1.00  0.00    -0.460 OA
BRANCH  27  28
ATOM     28  C   UNL A   1      39.372  20.975  26.133  1.00  0.00     0.338 C 
ATOM     29  O   UNL A   1      40.109  19.999  26.098  1.00  0.00    -0.246 OA
BRANCH  28  30
ATOM     30  C   UNL A   1      39.776  22.241  26.774  1.00  0.00     0.060 A 
ATOM     31  C   UNL A   1      39.091  23.403  26.390  1.00  0.00     0.016 A 
ATOM     32  C   UNL A   1      40.851  22.313  27.662  1.00  0.00     0.016 A 
ATOM     33  C   UNL A   1      39.512  24.647  26.850  1.00  0.00     0.010 A 
ATOM     34  C   UNL A   1      41.280  23.567  28.113  1.00  0.00     0.010 A 
ATOM     35  C   UNL A   1      40.637  24.741  27.677  1.00  0.00    -0.014 A 
BRANCH  35  36
ATOM     36  C   UNL A   1      41.235  26.077  27.928  1.00  0.00     0.031 A 
ATOM     37  C   UNL A   1      42.625  26.353  27.422  1.00  0.00     0.074 A 
ATOM     38  C   UNL A   1      40.530  27.044  28.542  1.00  0.00     0.049 A 
ATOM     39  N   UNL A   1      43.350  27.436  27.528  1.00  0.00    -0.248 NA
ATOM     40  C   UNL A   1      43.285  25.255  26.700  1.00  0.00     0.031 C 
ATOM     41  C   UNL A   1      39.156  26.909  29.024  1.00  0.00     0.029 A 
ATOM     42  N   UNL A   1      40.873  28.334  28.861  1.00  0.00    -0.354 N 
ATOM     43  C   UNL A   1      44.551  27.153  26.887  1.00  0.00     0.074 A 
ATOM     44  C   UNL A   1      44.470  25.781  26.433  1.00  0.00     0.031 C 
ATOM     45  C   UNL A   1      38.775  28.070  29.585  1.00  0.00     0.029 A 
ATOM     46  C   UNL A   1      39.888  29.018  29.534  1.00  0.00     0.049 A 
ATOM     47  H   UNL A   1      41.743  28.732  28.630  1.00  0.00     0.167 HD
ATOM     48  C   UNL A   1      45.618  27.966  26.685  1.00  0.00     0.034 A 
ATOM     49  C   UNL A   1      39.893  30.255  30.069  1.00  0.00     0.034 A 
ATOM     50  C   UNL A   1      45.686  29.327  27.156  1.00  0.00     0.049 A 
ATOM     51  C   UNL A   1      41.130  31.110  29.918  1.00  0.00     0.074 A 
ATOM     52  C   UNL A   1      46.711  30.245  27.000  1.00  0.00     0.029 A 
ATOM     53  N   UNL A   1      44.694  29.965  27.890  1.00  0.00    -0.354 N 
ATOM     54  N   UNL A   1      42.258  30.833  29.304  1.00  0.00    -0.248 NA
ATOM     55  C   UNL A   1      41.090  32.446  30.527  1.00  0.00     0.031 C 
ATOM     56  C   UNL A   1      46.371  31.407  27.701  1.00  0.00     0.029 A 
ATOM     57  C   UNL A   1      45.099  31.248  28.227  1.00  0.00     0.049 A 
ATOM     58  H   UNL A   1      43.828  29.565  28.135  1.00  0.00     0.167 HD
ATOM     59  C   UNL A   1      43.050  31.972  29.431  1.00  0.00     0.074 A 
ATOM     60  C   UNL A   1      42.265  32.942  30.165  1.00  0.00     0.031 C 
ATOM     61  C   UNL A   1      44.310  32.199  28.977  1.00  0.00     0.034 A 
BRANCH  48  62
ATOM     62  C   UNL A   1      46.814  27.375  25.976  1.00  0.00     0.023 A 
ATOM     63  C   UNL A   1      47.827  26.691  26.671  1.00  0.00     0.031 A 
ATOM     64  C   UNL A   1      46.960  27.532  24.586  1.00  0.00     0.131 A 
ATOM     65  C   UNL A   1      48.973  26.255  25.987  1.00  0.00     0.055 A 
ATOM     66  C   UNL A   1      48.066  27.026  23.899  1.00  0.00     0.041 A 
ATOM     67  F   UNL A   1      46.038  28.197  23.872  1.00  0.00    -0.206 F 
ATOM     68  C   UNL A   1      49.088  26.397  24.603  1.00  0.00     0.022 A 
BRANCH  65  69
ATOM     69  S   UNL A   1      50.377  25.633  26.955  1.00  0.00     0.124 S 
ATOM     70  O   UNL A   1      51.355  25.351  25.908  1.00  0.00    -0.237 OA
ATOM     71  O   UNL A   1      50.681  26.760  27.828  1.00  0.00    -0.237 OA
ATOM     72  O   UNL A   1      49.834  24.453  27.625  1.00  0.00    -0.744 OA
ENDBRANCH  65  69
ENDBRANCH  48  62
BRANCH  49  73
ATOM     73  C   UNL A   1      38.715  30.753  30.835  1.00  0.00     0.023 A 
ATOM     74  C   UNL A   1      37.627  31.361  30.191  1.00  0.00     0.031 A 
ATOM     75  C   UNL A   1      38.687  30.671  32.240  1.00  0.00     0.131 A 
ATOM     76  C   UNL A   1      36.577  31.902  30.950  1.00  0.00     0.055 A 
ATOM     77  C   UNL A   1      37.616  31.164  32.988  1.00  0.00     0.041 A 
ATOM     78  F   UNL A   1      39.703  30.102  32.908  1.00  0.00    -0.206 F 
ATOM     79  C   UNL A   1      36.558  31.795  32.343  1.00  0.00     0.022 A 
BRANCH  76  80
ATOM     80  S   UNL A   1      35.269  32.823  30.094  1.00  0.00     0.124 S 
ATOM     81  O   UNL A   1      34.756  31.820  29.170  1.00  0.00    -0.237 OA
ATOM     82  O   UNL A   1      34.388  33.191  31.198  1.00  0.00    -0.237 OA
ATOM     83  O   UNL A   1      35.986  33.936  29.477  1.00  0.00    -0.744 OA
ENDBRANCH  76  80
ENDBRANCH  49  73
BRANCH  61  84
ATOM     84  C   UNL A   1      44.897  33.566  29.235  1.00  0.00     0.023 A 
ATOM     85  C   UNL A   1      44.685  34.640  28.355  1.00  0.00     0.031 A 
ATOM     86  C   UNL A   1      45.687  33.793  30.376  1.00  0.00     0.131 A 
ATOM     87  C   UNL A   1      45.300  35.878  28.600  1.00  0.00     0.055 A 
ATOM     88  C   UNL A   1      46.246  35.042  30.648  1.00  0.00     0.041 A 
ATOM     89  F   UNL A   1      45.925  32.802  31.251  1.00  0.00    -0.206 F 
ATOM     90  C   UNL A   1      46.065  36.090  29.750  1.00  0.00     0.022 A 
BRANCH  87  91
ATOM     91  S   UNL A   1      45.162  37.185  27.349  1.00  0.00     0.124 S 
ATOM     92  O   UNL A   1      45.449  38.384  28.131  1.00  0.00    -0.237 OA
ATOM     93  O   UNL A   1      46.181  36.797  26.379  1.00  0.00    -0.237 OA
ATOM     94  O   UNL A   1      43.783  37.067  26.880  1.00  0.00    -0.744 OA
ENDBRANCH  87  91
ENDBRANCH  61  84
ENDBRANCH  35  36
ENDBRANCH  28  30
ENDBRANCH  27  28
ENDBRANCH  26  27
ENDBRANCH   1  26
TORSDOF 20
ENDMDL
MODEL 3
REMARK VINA RESULT:     -12.0      4.769     10.281
REMARK SMILES CC[C@@H]1CC[C@](C[C@@H]2CCCc3ccccc32)(C(=O)OCCOCCOC(=O)c2ccc(-c3c4nc(c(-c5cc(S(=O)(=O)[O-])ccc5F)c5ccc([nH]5)c(-c5cc(S(=O)(=O)[O-])ccc5F)c5nc(c(-c6cc(S(=O)(=O)[O-])ccc6F)c6ccc3[nH]6)C=C5)C=C4)cc2)C1
REMARK SMILES IDX 24 1 23 2 22 3 21 4 20 5 18 6 19 7 6 8 3 9 4 10 92 11 5 12
REMARK SMILES IDX 2 13 1 14 7 15 8 16 9 17 17 18 10 19 12 20 16 21 11 22 13 23
REMARK SMILES IDX 15 24 14 25 25 26 26 27 27 28 28 29 29 30 30 31 91 32 31 33
REMARK SMILES IDX 90 34 32 35 33 36 34 37 84 38 35 39 89 40 83 41 85 42 36 43
REMARK SMILES IDX 88 44 82 45 81 46 37 48 69 49 49 50 68 51 50 52 53 53 67 54
REMARK SMILES IDX 86 55 51 56 52 57 66 59 87 60 54 61 38 62 39 63 47 64 40 65
REMARK SMILES IDX 46 66 48 67 45 68 41 69 42 70 43 71 44 72 70 73 71 74 79 75
REMARK SMILES IDX 72 76 78 77 80 78 77 79 73 80 74 81 75 82 76 83 55 84 56 85
REMARK SMILES IDX 64 86 57 87 63 88 65 89 62 90 58 91 59 92 60 93 61 94
REMARK H PARENT 85 47 53 58
REMARK Flexibility Score: inf
ROOT
ATOM      1  C   UNL A   1      31.031  30.707  25.611  1.00  0.00     0.202 C 
ENDROOT
BRANCH   1   2
ATOM      2  O   UNL A   1      31.964  29.873  24.934  1.00  0.00    -0.374 OA
BRANCH   2   3
ATOM      3  C   UNL A   1      31.448  28.948  23.983  1.00  0.00     0.202 C 
BRANCH   3   4
ATOM      4  C   UNL A   1      32.327  28.528  22.796  1.00  0.00     0.261 C 
BRANCH   4   5
ATOM      5  O   UNL A   1      33.583  27.906  23.143  1.00  0.00    -0.463 OA
BRANCH   5   6
ATOM      6  C   UNL A   1      33.639  26.577  22.846  1.00  0.00     0.312 C 
ATOM      7  O   UNL A   1      33.742  26.164  21.694  1.00  0.00    -0.252 OA
BRANCH   6   8
ATOM      8  C   UNL A   1      33.558  25.632  24.085  1.00  0.00     0.069 C 
ATOM      9  C   UNL A   1      31.903  25.053  25.774  1.00  0.00    -0.010 C 
ATOM     10  C   UNL A   1      32.606  26.302  26.269  1.00  0.00     0.005 C 
ATOM     11  C   UNL A   1      32.098  25.132  24.263  1.00  0.00     0.022 C 
ATOM     12  C   UNL A   1      33.873  26.369  25.407  1.00  0.00     0.019 C 
BRANCH   9  13
ATOM     13  C   UNL A   1      30.479  24.861  26.279  1.00  0.00     0.000 C 
ATOM     14  C   UNL A   1      30.207  23.403  26.636  1.00  0.00     0.004 C 
ENDBRANCH   9  13
BRANCH   8  15
ATOM     15  C   UNL A   1      34.564  24.469  23.738  1.00  0.00     0.027 C 
BRANCH  15  16
ATOM     16  C   UNL A   1      35.062  23.308  24.648  1.00  0.00     0.020 C 
ATOM     17  C   UNL A   1      36.576  23.288  24.921  1.00  0.00     0.009 C 
ATOM     18  C   UNL A   1      34.407  21.932  24.517  1.00  0.00    -0.042 A 
ATOM     19  C   UNL A   1      37.268  22.013  24.449  1.00  0.00     0.005 C 
ATOM     20  C   UNL A   1      35.144  20.751  24.748  1.00  0.00    -0.045 A 
ATOM     21  C   UNL A   1      33.019  21.811  24.318  1.00  0.00     0.004 A 
ATOM     22  C   UNL A   1      36.615  20.793  25.069  1.00  0.00     0.036 C 
ATOM     23  C   UNL A   1      34.498  19.504  24.767  1.00  0.00     0.004 A 
ATOM     24  C   UNL A   1      32.386  20.565  24.335  1.00  0.00     0.000 A 
ATOM     25  C   UNL A   1      33.125  19.411  24.560  1.00  0.00     0.000 A 
ENDBRANCH  15  16
ENDBRANCH   8  15
ENDBRANCH   6   8
ENDBRANCH   5   6
ENDBRANCH   4   5
ENDBRANCH   3   4
ENDBRANCH   2   3
ENDBRANCH   1   2
BRANCH   1  26
ATOM     26  C   UNL A   1      31.564  31.910  26.403  1.00  0.00     0.261 C 
BRANCH  26  27
ATOM     27  O   UNL A   1      32.614  31.565  27.326  1.00  0.00    -0.460 OA
BRANCH  27  28
ATOM     28  C   UNL A   1      33.488  32.570  27.577  1.00  0.00     0.338 C 
ATOM     29  O   UNL A   1      33.225  33.762  27.680  1.00  0.00    -0.246 OA
BRANCH  28  30
ATOM     30  C   UNL A   1      34.814  32.026  27.926  1.00  0.00     0.060 A 
ATOM     31  C   UNL A   1      34.915  30.639  28.098  1.00  0.00     0.016 A 
ATOM     32  C   UNL A   1      35.915  32.852  28.164  1.00  0.00     0.016 A 
ATOM     33  C   UNL A   1      36.100  30.075  28.562  1.00  0.00     0.010 A 
ATOM     34  C   UNL A   1      37.103  32.284  28.643  1.00  0.00     0.010 A 
ATOM     35  C   UNL A   1      37.186  30.899  28.881  1.00  0.00    -0.014 A 
BRANCH  35  36
ATOM     36  C   UNL A   1      38.331  30.321  29.630  1.00  0.00     0.031 A 
ATOM     37  C   UNL A   1      38.563  30.764  31.049  1.00  0.00     0.074 A 
ATOM     38  C   UNL A   1      39.111  29.376  29.076  1.00  0.00     0.049 A 
ATOM     39  N   UNL A   1      39.497  30.404  31.891  1.00  0.00    -0.248 NA
ATOM     40  C   UNL A   1      37.611  31.747  31.588  1.00  0.00     0.031 C 
ATOM     41  C   UNL A   1      38.946  28.830  27.730  1.00  0.00     0.029 A 
ATOM     42  N   UNL A   1      40.197  28.706  29.581  1.00  0.00    -0.354 N 
ATOM     43  C   UNL A   1      39.247  31.115  33.060  1.00  0.00     0.074 A 
ATOM     44  C   UNL A   1      38.098  31.958  32.801  1.00  0.00     0.031 C 
ATOM     45  C   UNL A   1      39.904  27.910  27.513  1.00  0.00     0.029 A 
ATOM     46  C   UNL A   1      40.769  27.829  28.688  1.00  0.00     0.049 A 
ATOM     47  H   UNL A   1      40.535  28.840  30.495  1.00  0.00     0.167 HD
ATOM     48  C   UNL A   1      39.907  31.063  34.244  1.00  0.00     0.034 A 
ATOM     49  C   UNL A   1      41.877  27.069  28.800  1.00  0.00     0.034 A 
ATOM     50  C   UNL A   1      41.058  30.226  34.480  1.00  0.00     0.049 A 
ATOM     51  C   UNL A   1      42.655  27.099  30.095  1.00  0.00     0.074 A 
ATOM     52  C   UNL A   1      41.798  30.083  35.641  1.00  0.00     0.029 A 
ATOM     53  N   UNL A   1      41.648  29.398  33.532  1.00  0.00    -0.354 N 
ATOM     54  N   UNL A   1      42.406  27.771  31.195  1.00  0.00    -0.248 NA
ATOM     55  C   UNL A   1      43.861  26.262  30.162  1.00  0.00     0.031 C 
ATOM     56  C   UNL A   1      42.875  29.231  35.374  1.00  0.00     0.029 A 
ATOM     57  C   UNL A   1      42.764  28.775  34.070  1.00  0.00     0.049 A 
ATOM     58  H   UNL A   1      41.321  29.272  32.612  1.00  0.00     0.167 HD
ATOM     59  C   UNL A   1      43.409  27.416  32.094  1.00  0.00     0.074 A 
ATOM     60  C   UNL A   1      44.255  26.459  31.412  1.00  0.00     0.031 C 
ATOM     61  C   UNL A   1      43.610  27.836  33.370  1.00  0.00     0.034 A 
BRANCH  48  62
ATOM     62  C   UNL A   1      39.430  31.980  35.344  1.00  0.00     0.023 A 
ATOM     63  C   UNL A   1      39.872  33.311  35.447  1.00  0.00     0.031 A 
ATOM     64  C   UNL A   1      38.546  31.503  36.329  1.00  0.00     0.131 A 
ATOM     65  C   UNL A   1      39.489  34.093  36.548  1.00  0.00     0.055 A 
ATOM     66  C   UNL A   1      38.105  32.313  37.378  1.00  0.00     0.041 A 
ATOM     67  F   UNL A   1      38.107  30.235  36.298  1.00  0.00    -0.206 F 
ATOM     68  C   UNL A   1      38.590  33.611  37.501  1.00  0.00     0.022 A 
BRANCH  65  69
ATOM     69  S   UNL A   1      40.299  35.699  36.796  1.00  0.00     0.124 S 
ATOM     70  O   UNL A   1      39.628  36.525  35.795  1.00  0.00    -0.237 OA
ATOM     71  O   UNL A   1      39.986  35.998  38.187  1.00  0.00    -0.237 OA
ATOM     72  O   UNL A   1      41.706  35.417  36.519  1.00  0.00    -0.744 OA
ENDBRANCH  65  69
ENDBRANCH  48  62
BRANCH  49  73
ATOM     73  C   UNL A   1      42.350  26.250  27.648  1.00  0.00     0.023 A 
ATOM     74  C   UNL A   1      41.955  24.913  27.490  1.00  0.00     0.031 A 
ATOM     75  C   UNL A   1      43.254  26.785  26.710  1.00  0.00     0.131 A 
ATOM     76  C   UNL A   1      42.492  24.142  26.447  1.00  0.00     0.055 A 
ATOM     77  C   UNL A   1      43.746  26.029  25.644  1.00  0.00     0.041 A 
ATOM     78  F   UNL A   1      43.667  28.057  26.816  1.00  0.00    -0.206 F 
ATOM     79  C   UNL A   1      43.375  24.695  25.515  1.00  0.00     0.022 A 
BRANCH  76  80
ATOM     80  S   UNL A   1      42.085  22.375  26.369  1.00  0.00     0.124 S 
ATOM     81  O   UNL A   1      42.918  21.927  25.260  1.00  0.00    -0.237 OA
ATOM     82  O   UNL A   1      42.480  21.917  27.697  1.00  0.00    -0.237 OA
ATOM     83  O   UNL A   1      40.646  22.370  26.114  1.00  0.00    -0.744 OA
ENDBRANCH  76  80
ENDBRANCH  49  73
BRANCH  61  84
ATOM     84  C   UNL A   1      44.774  27.231  34.117  1.00  0.00     0.023 A 
ATOM     85  C   UNL A   1      44.657  26.012  34.806  1.00  0.00     0.031 A 
ATOM     86  C   UNL A   1      46.017  27.889  34.145  1.00  0.00     0.131 A 
ATOM     87  C   UNL A   1      45.746  25.515  35.540  1.00  0.00     0.055 A 
ATOM     88  C   UNL A   1      47.114  27.361  34.825  1.00  0.00     0.041 A 
ATOM     89  F   UNL A   1      46.185  29.058  33.506  1.00  0.00    -0.206 F 
ATOM     90  C   UNL A   1      46.979  26.174  35.539  1.00  0.00     0.022 A 
BRANCH  87  91
ATOM     91  S   UNL A   1      45.506  24.042  36.571  1.00  0.00     0.124 S 
ATOM     92  O   UNL A   1      46.826  23.422  36.525  1.00  0.00    -0.237 OA
ATOM     93  O   UNL A   1      45.117  24.619  37.853  1.00  0.00    -0.237 OA
ATOM     94  O   UNL A   1      44.451  23.306  35.878  1.00  0.00    -0.744 OA
ENDBRANCH  87  91
ENDBRANCH  61  84
ENDBRANCH  35  36
ENDBRANCH  28  30
ENDBRANCH  27  28
ENDBRANCH  26  27
ENDBRANCH   1  26
TORSDOF 20
ENDMDL
