MODEL 1
REMARK VINA RESULT:     -10.7      0.000      0.000
REMARK SMILES COc1ccc(-c2nc(SCC(=O)OCCOCCOC(=O)c3ccc(-c4c5nc(c(-c6cc(S(=O)(=O)[O-])ccc6F)c6ccc([nH]6)c(-c6cc(S(=O)(=O)[O-])ccc6F)c6nc(c(-c7cc(S(=O)(=O)[O-])ccc7F)c7ccc4[nH]7)C=C6)C=C5)cc3)cc(-c3ccncc3)n2)cc1
REMARK SMILES IDX 16 1 15 2 14 3 12 4 13 5 11 6 10 7 9 8 7 9 8 10 94 11 87 12
REMARK SMILES IDX 86 13 6 14 3 15 4 16 96 17 5 18 95 19 2 20 1 21 88 22 89 23
REMARK SMILES IDX 93 24 90 25 92 26 91 27 17 28 18 29 19 30 20 31 21 32 22 33
REMARK SMILES IDX 23 34 24 35 85 36 25 37 84 38 26 39 27 40 28 41 78 42 29 43
REMARK SMILES IDX 83 44 77 45 79 46 30 47 82 48 76 49 75 50 31 52 63 53 43 54
REMARK SMILES IDX 62 55 44 56 47 57 61 58 80 59 45 60 46 61 60 63 81 64 48 65
REMARK SMILES IDX 32 66 33 67 41 68 34 69 40 70 42 71 39 72 35 73 36 74 37 75
REMARK SMILES IDX 38 76 64 77 65 78 73 79 66 80 72 81 74 82 71 83 67 84 68 85
REMARK SMILES IDX 69 86 70 87 49 88 50 89 58 90 51 91 57 92 59 93 56 94 52 95
REMARK SMILES IDX 53 96 54 97 55 98
REMARK H PARENT 79 51 47 62
REMARK Flexibility Score: inf
ROOT
ATOM      1  C   UNL A   1      33.460  25.646  25.304  1.00  0.00     0.202 C 
ENDROOT
BRANCH   1   2
ATOM      2  C   UNL A   1      33.965  25.738  23.854  1.00  0.00     0.261 C 
BRANCH   2   3
ATOM      3  O   UNL A   1      32.917  25.898  22.867  1.00  0.00    -0.463 OA
BRANCH   3   4
ATOM      4  C   UNL A   1      33.031  25.133  21.746  1.00  0.00     0.316 C 
ATOM      5  O   UNL A   1      32.878  25.565  20.605  1.00  0.00    -0.251 OA
BRANCH   4   6
ATOM      6  C   UNL A   1      33.397  23.673  21.953  1.00  0.00     0.199 C 
BRANCH   6   7
ATOM      7  S   UNL A   1      32.182  22.565  22.718  1.00  0.00    -0.094 SA
BRANCH   7   8
ATOM      8  C   UNL A   1      33.026  21.481  23.869  1.00  0.00     0.101 A 
ATOM      9  C   UNL A   1      35.066  21.259  24.933  1.00  0.00     0.161 A 
ATOM     10  N   UNL A   1      34.168  22.043  24.314  1.00  0.00    -0.222 NA
ATOM     11  N   UNL A   1      34.904  19.944  25.156  1.00  0.00    -0.228 NA
ATOM     12  C   UNL A   1      33.726  19.408  24.779  1.00  0.00     0.076 A 
ATOM     13  C   UNL A   1      32.724  20.162  24.161  1.00  0.00     0.064 A 
BRANCH   9  14
ATOM     14  C   UNL A   1      36.326  21.884  25.354  1.00  0.00     0.019 A 
ATOM     15  C   UNL A   1      38.736  23.101  26.213  1.00  0.00     0.118 A 
ATOM     16  C   UNL A   1      37.539  23.816  26.219  1.00  0.00     0.047 A 
ATOM     17  C   UNL A   1      38.738  21.778  25.775  1.00  0.00     0.047 A 
ATOM     18  C   UNL A   1      36.352  23.222  25.775  1.00  0.00     0.016 A 
ATOM     19  C   UNL A   1      37.541  21.174  25.356  1.00  0.00     0.016 A 
BRANCH  15  20
ATOM     20  O   UNL A   1      39.817  23.767  26.721  1.00  0.00    -0.497 OA
ATOM     21  C   UNL A   1      39.813  25.180  26.532  1.00  0.00     0.278 C 
ENDBRANCH  15  20
ENDBRANCH   9  14
BRANCH  12  22
ATOM     22  C   UNL A   1      33.641  17.940  24.921  1.00  0.00     0.003 A 
ATOM     23  C   UNL A   1      34.737  17.109  24.653  1.00  0.00     0.030 A 
ATOM     24  C   UNL A   1      32.475  17.309  25.347  1.00  0.00     0.030 A 
ATOM     25  C   UNL A   1      34.600  15.731  24.669  1.00  0.00     0.111 A 
ATOM     26  C   UNL A   1      32.440  15.919  25.389  1.00  0.00     0.111 A 
ATOM     27  N   UNL A   1      33.460  15.116  25.021  1.00  0.00    -0.265 NA
ENDBRANCH  12  22
ENDBRANCH   7   8
ENDBRANCH   6   7
ENDBRANCH   4   6
ENDBRANCH   3   4
ENDBRANCH   2   3
ENDBRANCH   1   2
BRANCH   1  28
ATOM     28  O   UNL A   1      33.343  26.859  26.042  1.00  0.00    -0.374 OA
BRANCH  28  29
ATOM     29  C   UNL A   1      32.206  27.659  25.781  1.00  0.00     0.202 C 
BRANCH  29  30
ATOM     30  C   UNL A   1      32.382  29.169  25.619  1.00  0.00     0.261 C 
BRANCH  30  31
ATOM     31  O   UNL A   1      33.644  29.659  26.005  1.00  0.00    -0.460 OA
BRANCH  31  32
ATOM     32  C   UNL A   1      33.552  30.755  26.784  1.00  0.00     0.338 C 
ATOM     33  O   UNL A   1      32.659  31.584  26.844  1.00  0.00    -0.246 OA
BRANCH  32  34
ATOM     34  C   UNL A   1      34.687  30.687  27.680  1.00  0.00     0.060 A 
ATOM     35  C   UNL A   1      35.401  31.865  27.889  1.00  0.00     0.016 A 
ATOM     36  C   UNL A   1      34.995  29.484  28.320  1.00  0.00     0.016 A 
ATOM     37  C   UNL A   1      36.496  31.830  28.726  1.00  0.00     0.010 A 
ATOM     38  C   UNL A   1      36.088  29.454  29.166  1.00  0.00     0.010 A 
ATOM     39  C   UNL A   1      36.856  30.619  29.333  1.00  0.00    -0.014 A 
BRANCH  39  40
ATOM     40  C   UNL A   1      38.147  30.539  30.025  1.00  0.00     0.031 A 
ATOM     41  C   UNL A   1      39.263  29.810  29.346  1.00  0.00     0.074 A 
ATOM     42  C   UNL A   1      38.288  31.135  31.217  1.00  0.00     0.049 A 
ATOM     43  N   UNL A   1      40.475  29.581  29.768  1.00  0.00    -0.248 NA
ATOM     44  C   UNL A   1      38.967  29.252  28.016  1.00  0.00     0.031 C 
ATOM     45  C   UNL A   1      37.236  31.879  31.914  1.00  0.00     0.029 A 
ATOM     46  N   UNL A   1      39.366  31.206  32.050  1.00  0.00    -0.354 N 
ATOM     47  C   UNL A   1      41.086  28.843  28.762  1.00  0.00     0.074 A 
ATOM     48  C   UNL A   1      40.094  28.621  27.733  1.00  0.00     0.031 C 
ATOM     49  C   UNL A   1      37.725  32.324  33.082  1.00  0.00     0.029 A 
ATOM     50  C   UNL A   1      39.099  31.857  33.228  1.00  0.00     0.049 A 
ATOM     51  H   UNL A   1      40.247  30.826  31.829  1.00  0.00     0.167 HD
ATOM     52  C   UNL A   1      42.365  28.402  28.713  1.00  0.00     0.034 A 
ATOM     53  C   UNL A   1      39.879  32.019  34.313  1.00  0.00     0.034 A 
ATOM     54  C   UNL A   1      43.308  28.636  29.778  1.00  0.00     0.049 A 
ATOM     55  C   UNL A   1      41.281  31.468  34.262  1.00  0.00     0.074 A 
ATOM     56  C   UNL A   1      44.638  28.270  29.848  1.00  0.00     0.029 A 
ATOM     57  N   UNL A   1      43.007  29.283  30.974  1.00  0.00    -0.354 N 
ATOM     58  N   UNL A   1      41.869  30.796  33.297  1.00  0.00    -0.248 NA
ATOM     59  C   UNL A   1      42.126  31.708  35.434  1.00  0.00     0.031 C 
ATOM     60  C   UNL A   1      45.115  28.616  31.117  1.00  0.00     0.029 A 
ATOM     61  C   UNL A   1      44.115  29.289  31.804  1.00  0.00     0.049 A 
ATOM     62  H   UNL A   1      42.134  29.680  31.196  1.00  0.00     0.167 HD
ATOM     63  C   UNL A   1      43.167  30.556  33.736  1.00  0.00     0.074 A 
ATOM     64  C   UNL A   1      43.274  31.170  35.046  1.00  0.00     0.031 C 
ATOM     65  C   UNL A   1      44.182  29.897  33.115  1.00  0.00     0.034 A 
BRANCH  52  66
ATOM     66  C   UNL A   1      42.767  27.577  27.514  1.00  0.00     0.023 A 
ATOM     67  C   UNL A   1      42.959  26.185  27.595  1.00  0.00     0.031 A 
ATOM     68  C   UNL A   1      43.028  28.203  26.283  1.00  0.00     0.131 A 
ATOM     69  C   UNL A   1      43.482  25.484  26.497  1.00  0.00     0.055 A 
ATOM     70  C   UNL A   1      43.459  27.484  25.167  1.00  0.00     0.041 A 
ATOM     71  F   UNL A   1      42.897  29.532  26.150  1.00  0.00    -0.206 F 
ATOM     72  C   UNL A   1      43.707  26.120  25.273  1.00  0.00     0.022 A 
BRANCH  69  73
ATOM     73  S   UNL A   1      44.031  23.773  26.742  1.00  0.00     0.124 S 
ATOM     74  O   UNL A   1      44.162  23.710  28.197  1.00  0.00    -0.237 OA
ATOM     75  O   UNL A   1      42.935  23.004  26.166  1.00  0.00    -0.237 OA
ATOM     76  O   UNL A   1      45.294  23.708  26.009  1.00  0.00    -0.744 OA
ENDBRANCH  69  73
ENDBRANCH  52  66
BRANCH  53  77
ATOM     77  C   UNL A   1      39.335  32.687  35.525  1.00  0.00     0.023 A 
ATOM     78  C   UNL A   1      38.682  31.960  36.531  1.00  0.00     0.031 A 
ATOM     79  C   UNL A   1      39.463  34.078  35.694  1.00  0.00     0.131 A 
ATOM     80  C   UNL A   1      38.151  32.631  37.643  1.00  0.00     0.055 A 
ATOM     81  C   UNL A   1      38.981  34.734  36.827  1.00  0.00     0.041 A 
ATOM     82  F   UNL A   1      40.086  34.821  34.764  1.00  0.00    -0.206 F 
ATOM     83  C   UNL A   1      38.309  34.010  37.805  1.00  0.00     0.022 A 
BRANCH  80  84
ATOM     84  S   UNL A   1      37.182  31.683  38.847  1.00  0.00     0.124 S 
ATOM     85  O   UNL A   1      35.924  32.421  38.863  1.00  0.00    -0.237 OA
ATOM     86  O   UNL A   1      37.142  30.361  38.230  1.00  0.00    -0.237 OA
ATOM     87  O   UNL A   1      37.975  31.774  40.070  1.00  0.00    -0.744 OA
ENDBRANCH  80  84
ENDBRANCH  53  77
BRANCH  65  88
ATOM     88  C   UNL A   1      45.504  29.852  33.839  1.00  0.00     0.023 A 
ATOM     89  C   UNL A   1      45.799  28.855  34.785  1.00  0.00     0.031 A 
ATOM     90  C   UNL A   1      46.485  30.825  33.573  1.00  0.00     0.131 A 
ATOM     91  C   UNL A   1      47.020  28.890  35.475  1.00  0.00     0.055 A 
ATOM     92  C   UNL A   1      47.726  30.810  34.208  1.00  0.00     0.041 A 
ATOM     93  F   UNL A   1      46.254  31.802  32.682  1.00  0.00    -0.206 F 
ATOM     94  C   UNL A   1      47.994  29.847  35.177  1.00  0.00     0.022 A 
BRANCH  91  95
ATOM     95  S   UNL A   1      47.276  27.731  36.845  1.00  0.00     0.124 S 
ATOM     96  O   UNL A   1      48.707  27.461  36.749  1.00  0.00    -0.237 OA
ATOM     97  O   UNL A   1      46.852  28.514  38.001  1.00  0.00    -0.237 OA
ATOM     98  O   UNL A   1      46.408  26.605  36.508  1.00  0.00    -0.744 OA
ENDBRANCH  91  95
ENDBRANCH  65  88
ENDBRANCH  39  40
ENDBRANCH  32  34
ENDBRANCH  31  32
ENDBRANCH  30  31
ENDBRANCH  29  30
ENDBRANCH  28  29
ENDBRANCH   1  28
TORSDOF 22
ENDMDL
MODEL 2
REMARK VINA RESULT:     -10.6      0.712      7.293
REMARK SMILES COc1ccc(-c2nc(SCC(=O)OCCOCCOC(=O)c3ccc(-c4c5nc(c(-c6cc(S(=O)(=O)[O-])ccc6F)c6ccc([nH]6)c(-c6cc(S(=O)(=O)[O-])ccc6F)c6nc(c(-c7cc(S(=O)(=O)[O-])ccc7F)c7ccc4[nH]7)C=C6)C=C5)cc3)cc(-c3ccncc3)n2)cc1
REMARK SMILES IDX 16 1 15 2 14 3 12 4 13 5 11 6 10 7 9 8 7 9 8 10 94 11 87 12
REMARK SMILES IDX 86 13 6 14 3 15 4 16 96 17 5 18 95 19 2 20 1 21 88 22 89 23
REMARK SMILES IDX 93 24 90 25 92 26 91 27 17 28 18 29 19 30 20 31 21 32 22 33
REMARK SMILES IDX 23 34 24 35 85 36 25 37 84 38 26 39 27 40 28 41 78 42 29 43
REMARK SMILES IDX 83 44 77 45 79 46 30 47 82 48 76 49 75 50 31 52 63 53 43 54
REMARK SMILES IDX 62 55 44 56 47 57 61 58 80 59 45 60 46 61 60 63 81 64 48 65
REMARK SMILES IDX 32 66 33 67 41 68 34 69 40 70 42 71 39 72 35 73 36 74 37 75
REMARK SMILES IDX 38 76 64 77 65 78 73 79 66 80 72 81 74 82 71 83 67 84 68 85
REMARK SMILES IDX 69 86 70 87 49 88 50 89 58 90 51 91 57 92 59 93 56 94 52 95
REMARK SMILES IDX 53 96 54 97 55 98
REMARK H PARENT 79 51 47 62
REMARK Flexibility Score: inf
ROOT
ATOM      1  C   UNL A   1      33.013  26.039  25.581  1.00  0.00     0.202 C 
ENDROOT
BRANCH   1   2
ATOM      2  C   UNL A   1      33.726  26.042  24.219  1.00  0.00     0.261 C 
BRANCH   2   3
ATOM      3  O   UNL A   1      32.908  26.511  23.118  1.00  0.00    -0.463 OA
BRANCH   3   4
ATOM      4  C   UNL A   1      32.630  25.596  22.149  1.00  0.00     0.316 C 
ATOM      5  O   UNL A   1      31.973  25.846  21.140  1.00  0.00    -0.251 OA
BRANCH   4   6
ATOM      6  C   UNL A   1      33.207  24.203  22.342  1.00  0.00     0.199 C 
BRANCH   6   7
ATOM      7  S   UNL A   1      32.095  22.854  22.825  1.00  0.00    -0.094 SA
BRANCH   7   8
ATOM      8  C   UNL A   1      32.973  21.740  23.921  1.00  0.00     0.101 A 
ATOM      9  C   UNL A   1      35.038  21.499  24.932  1.00  0.00     0.161 A 
ATOM     10  N   UNL A   1      34.121  22.296  24.358  1.00  0.00    -0.222 NA
ATOM     11  N   UNL A   1      34.890  20.177  25.115  1.00  0.00    -0.228 NA
ATOM     12  C   UNL A   1      33.709  19.644  24.747  1.00  0.00     0.076 A 
ATOM     13  C   UNL A   1      32.688  20.410  24.176  1.00  0.00     0.064 A 
BRANCH   9  14
ATOM     14  C   UNL A   1      36.302  22.121  25.344  1.00  0.00     0.019 A 
ATOM     15  C   UNL A   1      38.721  23.331  26.188  1.00  0.00     0.118 A 
ATOM     16  C   UNL A   1      37.527  24.050  26.201  1.00  0.00     0.047 A 
ATOM     17  C   UNL A   1      38.717  22.008  25.751  1.00  0.00     0.047 A 
ATOM     18  C   UNL A   1      36.336  23.459  25.764  1.00  0.00     0.016 A 
ATOM     19  C   UNL A   1      37.515  21.407  25.339  1.00  0.00     0.016 A 
BRANCH  15  20
ATOM     20  O   UNL A   1      39.808  23.994  26.690  1.00  0.00    -0.497 OA
ATOM     21  C   UNL A   1      39.672  24.475  28.024  1.00  0.00     0.278 C 
ENDBRANCH  15  20
ENDBRANCH   9  14
BRANCH  12  22
ATOM     22  C   UNL A   1      33.637  18.172  24.843  1.00  0.00     0.003 A 
ATOM     23  C   UNL A   1      34.730  17.358  24.513  1.00  0.00     0.030 A 
ATOM     24  C   UNL A   1      32.489  17.518  25.283  1.00  0.00     0.030 A 
ATOM     25  C   UNL A   1      34.603  15.979  24.488  1.00  0.00     0.111 A 
ATOM     26  C   UNL A   1      32.464  16.127  25.280  1.00  0.00     0.111 A 
ATOM     27  N   UNL A   1      33.478  15.345  24.855  1.00  0.00    -0.265 NA
ENDBRANCH  12  22
ENDBRANCH   7   8
ENDBRANCH   6   7
ENDBRANCH   4   6
ENDBRANCH   3   4
ENDBRANCH   2   3
ENDBRANCH   1   2
BRANCH   1  28
ATOM     28  O   UNL A   1      32.979  27.261  26.313  1.00  0.00    -0.374 OA
BRANCH  28  29
ATOM     29  C   UNL A   1      31.958  28.181  25.977  1.00  0.00     0.202 C 
BRANCH  29  30
ATOM     30  C   UNL A   1      32.290  29.672  25.926  1.00  0.00     0.261 C 
BRANCH  30  31
ATOM     31  O   UNL A   1      33.630  29.987  26.218  1.00  0.00    -0.460 OA
BRANCH  31  32
ATOM     32  C   UNL A   1      33.741  31.079  27.001  1.00  0.00     0.338 C 
ATOM     33  O   UNL A   1      32.987  32.032  27.103  1.00  0.00    -0.246 OA
BRANCH  32  34
ATOM     34  C   UNL A   1      34.893  30.834  27.843  1.00  0.00     0.060 A 
ATOM     35  C   UNL A   1      35.787  31.888  28.016  1.00  0.00     0.016 A 
ATOM     36  C   UNL A   1      35.044  29.595  28.471  1.00  0.00     0.016 A 
ATOM     37  C   UNL A   1      36.902  31.682  28.800  1.00  0.00     0.010 A 
ATOM     38  C   UNL A   1      36.158  29.395  29.264  1.00  0.00     0.010 A 
ATOM     39  C   UNL A   1      37.102  30.428  29.392  1.00  0.00    -0.014 A 
BRANCH  39  40
ATOM     40  C   UNL A   1      38.396  30.148  30.022  1.00  0.00     0.031 A 
ATOM     41  C   UNL A   1      38.644  30.702  31.390  1.00  0.00     0.074 A 
ATOM     42  C   UNL A   1      39.292  29.394  29.370  1.00  0.00     0.049 A 
ATOM     43  N   UNL A   1      39.713  30.617  32.132  1.00  0.00    -0.248 NA
ATOM     44  C   UNL A   1      37.543  31.469  31.995  1.00  0.00     0.031 C 
ATOM     45  C   UNL A   1      39.090  28.809  28.043  1.00  0.00     0.029 A 
ATOM     46  N   UNL A   1      40.546  28.996  29.733  1.00  0.00    -0.354 N 
ATOM     47  C   UNL A   1      39.419  31.327  33.289  1.00  0.00     0.074 A 
ATOM     48  C   UNL A   1      38.091  31.878  33.128  1.00  0.00     0.031 C 
ATOM     49  C   UNL A   1      40.196  28.131  27.698  1.00  0.00     0.029 A 
ATOM     50  C   UNL A   1      41.189  28.277  28.757  1.00  0.00     0.049 A 
ATOM     51  H   UNL A   1      40.949  29.205  30.606  1.00  0.00     0.167 HD
ATOM     52  C   UNL A   1      40.197  31.491  34.385  1.00  0.00     0.034 A 
ATOM     53  C   UNL A   1      42.454  27.822  28.723  1.00  0.00     0.034 A 
ATOM     54  C   UNL A   1      41.522  30.935  34.486  1.00  0.00     0.049 A 
ATOM     55  C   UNL A   1      43.325  28.067  29.929  1.00  0.00     0.074 A 
ATOM     56  C   UNL A   1      42.408  31.000  35.545  1.00  0.00     0.029 A 
ATOM     57  N   UNL A   1      42.162  30.223  33.473  1.00  0.00    -0.354 N 
ATOM     58  N   UNL A   1      43.036  28.712  31.038  1.00  0.00    -0.248 NA
ATOM     59  C   UNL A   1      44.680  27.511  29.888  1.00  0.00     0.031 C 
ATOM     60  C   UNL A   1      43.610  30.408  35.141  1.00  0.00     0.029 A 
ATOM     61  C   UNL A   1      43.445  29.882  33.867  1.00  0.00     0.049 A 
ATOM     62  H   UNL A   1      41.760  29.996  32.604  1.00  0.00     0.167 HD
ATOM     63  C   UNL A   1      44.169  28.617  31.840  1.00  0.00     0.074 A 
ATOM     64  C   UNL A   1      45.136  27.839  31.088  1.00  0.00     0.031 C 
ATOM     65  C   UNL A   1      44.391  29.118  33.084  1.00  0.00     0.034 A 
BRANCH  52  66
ATOM     66  C   UNL A   1      39.652  32.353  35.498  1.00  0.00     0.023 A 
ATOM     67  C   UNL A   1      38.984  31.805  36.609  1.00  0.00     0.031 A 
ATOM     68  C   UNL A   1      39.743  33.754  35.415  1.00  0.00     0.131 A 
ATOM     69  C   UNL A   1      38.360  32.651  37.540  1.00  0.00     0.055 A 
ATOM     70  C   UNL A   1      39.201  34.587  36.394  1.00  0.00     0.041 A 
ATOM     71  F   UNL A   1      40.338  34.339  34.364  1.00  0.00    -0.206 F 
ATOM     72  C   UNL A   1      38.488  34.039  37.455  1.00  0.00     0.022 A 
BRANCH  69  73
ATOM     73  S   UNL A   1      37.232  31.918  38.758  1.00  0.00     0.124 S 
ATOM     74  O   UNL A   1      37.106  30.550  38.258  1.00  0.00    -0.237 OA
ATOM     75  O   UNL A   1      37.969  32.078  40.006  1.00  0.00    -0.237 OA
ATOM     76  O   UNL A   1      36.022  32.730  38.637  1.00  0.00    -0.744 OA
ENDBRANCH  69  73
ENDBRANCH  52  66
BRANCH  53  77
ATOM     77  C   UNL A   1      42.966  27.140  27.504  1.00  0.00     0.023 A 
ATOM     78  C   UNL A   1      42.958  25.743  27.388  1.00  0.00     0.031 A 
ATOM     79  C   UNL A   1      43.475  27.889  26.426  1.00  0.00     0.131 A 
ATOM     80  C   UNL A   1      43.481  25.136  26.237  1.00  0.00     0.055 A 
ATOM     81  C   UNL A   1      43.945  27.283  25.261  1.00  0.00     0.041 A 
ATOM     82  F   UNL A   1      43.498  29.231  26.482  1.00  0.00    -0.206 F 
ATOM     83  C   UNL A   1      43.960  25.896  25.166  1.00  0.00     0.022 A 
BRANCH  80  84
ATOM     84  S   UNL A   1      43.595  23.327  26.185  1.00  0.00     0.124 S 
ATOM     85  O   UNL A   1      42.578  22.993  25.194  1.00  0.00    -0.237 OA
ATOM     86  O   UNL A   1      44.981  23.123  25.776  1.00  0.00    -0.237 OA
ATOM     87  O   UNL A   1      43.287  22.927  27.556  1.00  0.00    -0.744 OA
ENDBRANCH  80  84
ENDBRANCH  53  77
BRANCH  65  88
ATOM     88  C   UNL A   1      45.721  28.794  33.718  1.00  0.00     0.023 A 
ATOM     89  C   UNL A   1      45.886  27.693  34.576  1.00  0.00     0.031 A 
ATOM     90  C   UNL A   1      46.841  29.603  33.454  1.00  0.00     0.131 A 
ATOM     91  C   UNL A   1      47.128  27.467  35.187  1.00  0.00     0.055 A 
ATOM     92  C   UNL A   1      48.092  29.329  34.007  1.00  0.00     0.041 A 
ATOM     93  F   UNL A   1      46.739  30.670  32.646  1.00  0.00    -0.206 F 
ATOM     94  C   UNL A   1      48.237  28.264  34.890  1.00  0.00     0.022 A 
BRANCH  91  95
ATOM     95  S   UNL A   1      47.249  26.181  36.458  1.00  0.00     0.124 S 
ATOM     96  O   UNL A   1      47.767  25.050  35.696  1.00  0.00    -0.237 OA
ATOM     97  O   UNL A   1      48.171  26.777  37.421  1.00  0.00    -0.237 OA
ATOM     98  O   UNL A   1      45.873  26.034  36.929  1.00  0.00    -0.744 OA
ENDBRANCH  91  95
ENDBRANCH  65  88
ENDBRANCH  39  40
ENDBRANCH  32  34
ENDBRANCH  31  32
ENDBRANCH  30  31
ENDBRANCH  29  30
ENDBRANCH  28  29
ENDBRANCH   1  28
TORSDOF 22
ENDMDL
MODEL 3
REMARK VINA RESULT:     -10.4      1.790      7.509
REMARK SMILES COc1ccc(-c2nc(SCC(=O)OCCOCCOC(=O)c3ccc(-c4c5nc(c(-c6cc(S(=O)(=O)[O-])ccc6F)c6ccc([nH]6)c(-c6cc(S(=O)(=O)[O-])ccc6F)c6nc(c(-c7cc(S(=O)(=O)[O-])ccc7F)c7ccc4[nH]7)C=C6)C=C5)cc3)cc(-c3ccncc3)n2)cc1
REMARK SMILES IDX 16 1 15 2 14 3 12 4 13 5 11 6 10 7 9 8 7 9 8 10 94 11 87 12
REMARK SMILES IDX 86 13 6 14 3 15 4 16 96 17 5 18 95 19 2 20 1 21 88 22 89 23
REMARK SMILES IDX 93 24 90 25 92 26 91 27 17 28 18 29 19 30 20 31 21 32 22 33
REMARK SMILES IDX 23 34 24 35 85 36 25 37 84 38 26 39 27 40 28 41 78 42 29 43
REMARK SMILES IDX 83 44 77 45 79 46 30 47 82 48 76 49 75 50 31 52 63 53 43 54
REMARK SMILES IDX 62 55 44 56 47 57 61 58 80 59 45 60 46 61 60 63 81 64 48 65
REMARK SMILES IDX 32 66 33 67 41 68 34 69 40 70 42 71 39 72 35 73 36 74 37 75
REMARK SMILES IDX 38 76 64 77 65 78 73 79 66 80 72 81 74 82 71 83 67 84 68 85
REMARK SMILES IDX 69 86 70 87 49 88 50 89 58 90 51 91 57 92 59 93 56 94 52 95
REMARK SMILES IDX 53 96 54 97 55 98
REMARK H PARENT 79 51 47 62
REMARK Flexibility Score: inf
ROOT
ATOM      1  C   UNL A   1      33.280  26.441  25.830  1.00  0.00     0.202 C 
ENDROOT
BRANCH   1   2
ATOM      2  C   UNL A   1      33.729  26.173  24.384  1.00  0.00     0.261 C 
BRANCH   2   3
ATOM      3  O   UNL A   1      32.882  25.248  23.657  1.00  0.00    -0.463 OA
BRANCH   3   4
ATOM      4  C   UNL A   1      33.237  25.003  22.366  1.00  0.00     0.316 C 
ATOM      5  O   UNL A   1      33.648  25.868  21.594  1.00  0.00    -0.251 OA
BRANCH   4   6
ATOM      6  C   UNL A   1      33.136  23.562  21.893  1.00  0.00     0.199 C 
BRANCH   6   7
ATOM      7  S   UNL A   1      31.979  22.445  22.732  1.00  0.00    -0.094 SA
BRANCH   7   8
ATOM      8  C   UNL A   1      32.896  21.401  23.864  1.00  0.00     0.101 A 
ATOM      9  C   UNL A   1      34.965  21.273  24.886  1.00  0.00     0.161 A 
ATOM     10  N   UNL A   1      34.020  22.015  24.286  1.00  0.00    -0.222 NA
ATOM     11  N   UNL A   1      34.868  19.953  25.111  1.00  0.00    -0.228 NA
ATOM     12  C   UNL A   1      33.709  19.363  24.758  1.00  0.00     0.076 A 
ATOM     13  C   UNL A   1      32.661  20.070  24.161  1.00  0.00     0.064 A 
BRANCH   9  14
ATOM     14  C   UNL A   1      36.203  21.956  25.282  1.00  0.00     0.019 A 
ATOM     15  C   UNL A   1      38.570  23.288  26.090  1.00  0.00     0.118 A 
ATOM     16  C   UNL A   1      37.361  23.976  26.011  1.00  0.00     0.047 A 
ATOM     17  C   UNL A   1      38.607  21.933  25.762  1.00  0.00     0.047 A 
ATOM     18  C   UNL A   1      36.196  23.324  25.591  1.00  0.00     0.016 A 
ATOM     19  C   UNL A   1      37.431  21.273  25.368  1.00  0.00     0.016 A 
BRANCH  15  20
ATOM     20  O   UNL A   1      39.627  24.014  26.566  1.00  0.00    -0.497 OA
ATOM     21  C   UNL A   1      39.621  24.261  27.969  1.00  0.00     0.278 C 
ENDBRANCH  15  20
ENDBRANCH   9  14
BRANCH  12  22
ATOM     22  C   UNL A   1      33.695  17.893  24.900  1.00  0.00     0.003 A 
ATOM     23  C   UNL A   1      32.569  17.210  25.381  1.00  0.00     0.030 A 
ATOM     24  C   UNL A   1      34.790  17.108  24.546  1.00  0.00     0.030 A 
ATOM     25  C   UNL A   1      32.620  15.847  25.626  1.00  0.00     0.111 A 
ATOM     26  C   UNL A   1      34.737  15.737  24.774  1.00  0.00     0.111 A 
ATOM     27  N   UNL A   1      33.695  15.096  25.343  1.00  0.00    -0.265 NA
ENDBRANCH  12  22
ENDBRANCH   7   8
ENDBRANCH   6   7
ENDBRANCH   4   6
ENDBRANCH   3   4
ENDBRANCH   2   3
ENDBRANCH   1   2
BRANCH   1  28
ATOM     28  O   UNL A   1      33.535  27.734  26.373  1.00  0.00    -0.374 OA
BRANCH  28  29
ATOM     29  C   UNL A   1      32.972  28.838  25.691  1.00  0.00     0.202 C 
BRANCH  29  30
ATOM     30  C   UNL A   1      33.069  30.227  26.321  1.00  0.00     0.261 C 
BRANCH  30  31
ATOM     31  O   UNL A   1      33.801  30.279  27.521  1.00  0.00    -0.460 OA
BRANCH  31  32
ATOM     32  C   UNL A   1      34.468  31.442  27.666  1.00  0.00     0.338 C 
ATOM     33  O   UNL A   1      34.114  32.572  27.374  1.00  0.00    -0.246 OA
BRANCH  32  34
ATOM     34  C   UNL A   1      35.671  31.109  28.398  1.00  0.00     0.060 A 
ATOM     35  C   UNL A   1      36.712  32.034  28.361  1.00  0.00     0.016 A 
ATOM     36  C   UNL A   1      35.733  29.921  29.130  1.00  0.00     0.016 A 
ATOM     37  C   UNL A   1      37.878  31.740  29.036  1.00  0.00     0.010 A 
ATOM     38  C   UNL A   1      36.899  29.632  29.813  1.00  0.00     0.010 A 
ATOM     39  C   UNL A   1      37.980  30.526  29.729  1.00  0.00    -0.014 A 
BRANCH  39  40
ATOM     40  C   UNL A   1      39.293  30.120  30.240  1.00  0.00     0.031 A 
ATOM     41  C   UNL A   1      39.758  30.714  31.532  1.00  0.00     0.074 A 
ATOM     42  C   UNL A   1      40.012  29.221  29.554  1.00  0.00     0.049 A 
ATOM     43  N   UNL A   1      40.884  30.535  32.164  1.00  0.00    -0.248 NA
ATOM     44  C   UNL A   1      38.832  31.649  32.193  1.00  0.00     0.031 C 
ATOM     45  C   UNL A   1      39.594  28.592  28.298  1.00  0.00     0.029 A 
ATOM     46  N   UNL A   1      41.242  28.687  29.811  1.00  0.00    -0.354 N 
ATOM     47  C   UNL A   1      40.810  31.342  33.292  1.00  0.00     0.074 A 
ATOM     48  C   UNL A   1      39.549  32.048  33.231  1.00  0.00     0.031 C 
ATOM     49  C   UNL A   1      40.565  27.760  27.889  1.00  0.00     0.029 A 
ATOM     50  C   UNL A   1      41.680  27.837  28.827  1.00  0.00     0.049 A 
ATOM     51  H   UNL A   1      41.762  28.892  30.621  1.00  0.00     0.167 HD
ATOM     52  C   UNL A   1      41.720  31.467  34.287  1.00  0.00     0.034 A 
ATOM     53  C   UNL A   1      42.869  27.223  28.694  1.00  0.00     0.034 A 
ATOM     54  C   UNL A   1      42.971  30.753  34.289  1.00  0.00     0.049 A 
ATOM     55  C   UNL A   1      43.892  27.422  29.783  1.00  0.00     0.074 A 
ATOM     56  C   UNL A   1      43.971  30.764  35.243  1.00  0.00     0.029 A 
ATOM     57  N   UNL A   1      43.403  29.908  33.268  1.00  0.00    -0.354 N 
ATOM     58  N   UNL A   1      43.809  28.161  30.867  1.00  0.00    -0.248 NA
ATOM     59  C   UNL A   1      45.157  26.697  29.640  1.00  0.00     0.031 C 
ATOM     60  C   UNL A   1      45.039  30.001  34.759  1.00  0.00     0.029 A 
ATOM     61  C   UNL A   1      44.671  29.429  33.549  1.00  0.00     0.049 A 
ATOM     62  H   UNL A   1      42.882  29.685  32.463  1.00  0.00     0.167 HD
ATOM     63  C   UNL A   1      45.005  27.968  31.552  1.00  0.00     0.074 A 
ATOM     64  C   UNL A   1      45.780  27.031  30.761  1.00  0.00     0.031 C 
ATOM     65  C   UNL A   1      45.424  28.507  32.728  1.00  0.00     0.034 A 
BRANCH  52  66
ATOM     66  C   UNL A   1      41.411  32.453  35.387  1.00  0.00     0.023 A 
ATOM     67  C   UNL A   1      40.579  32.125  36.474  1.00  0.00     0.031 A 
ATOM     68  C   UNL A   1      41.904  33.769  35.314  1.00  0.00     0.131 A 
ATOM     69  C   UNL A   1      40.196  33.119  37.389  1.00  0.00     0.055 A 
ATOM     70  C   UNL A   1      41.593  34.727  36.280  1.00  0.00     0.041 A 
ATOM     71  F   UNL A   1      42.675  34.154  34.285  1.00  0.00    -0.206 F 
ATOM     72  C   UNL A   1      40.720  34.411  37.316  1.00  0.00     0.022 A 
BRANCH  69  73
ATOM     73  S   UNL A   1      38.867  32.746  38.567  1.00  0.00     0.124 S 
ATOM     74  O   UNL A   1      38.156  34.022  38.623  1.00  0.00    -0.237 OA
ATOM     75  O   UNL A   1      38.164  31.650  37.913  1.00  0.00    -0.237 OA
ATOM     76  O   UNL A   1      39.583  32.389  39.790  1.00  0.00    -0.744 OA
ENDBRANCH  69  73
ENDBRANCH  52  66
BRANCH  53  77
ATOM     77  C   UNL A   1      43.155  26.413  27.479  1.00  0.00     0.023 A 
ATOM     78  C   UNL A   1      43.032  25.017  27.485  1.00  0.00     0.031 A 
ATOM     79  C   UNL A   1      43.559  27.036  26.283  1.00  0.00     0.131 A 
ATOM     80  C   UNL A   1      43.344  24.285  26.329  1.00  0.00     0.055 A 
ATOM     81  C   UNL A   1      43.817  26.308  25.121  1.00  0.00     0.041 A 
ATOM     82  F   UNL A   1      43.685  28.372  26.221  1.00  0.00    -0.206 F 
ATOM     83  C   UNL A   1      43.721  24.922  25.143  1.00  0.00     0.022 A 
BRANCH  80  84
ATOM     84  S   UNL A   1      43.322  22.474  26.416  1.00  0.00     0.124 S 
ATOM     85  O   UNL A   1      44.747  22.158  26.395  1.00  0.00    -0.237 OA
ATOM     86  O   UNL A   1      42.632  22.241  27.681  1.00  0.00    -0.237 OA
ATOM     87  O   UNL A   1      42.578  22.084  25.221  1.00  0.00    -0.744 OA
ENDBRANCH  80  84
ENDBRANCH  53  77
BRANCH  65  88
ATOM     88  C   UNL A   1      46.768  28.052  33.242  1.00  0.00     0.023 A 
ATOM     89  C   UNL A   1      47.965  28.659  32.828  1.00  0.00     0.031 A 
ATOM     90  C   UNL A   1      46.845  26.991  34.163  1.00  0.00     0.131 A 
ATOM     91  C   UNL A   1      49.193  28.162  33.289  1.00  0.00     0.055 A 
ATOM     92  C   UNL A   1      48.065  26.550  34.674  1.00  0.00     0.041 A 
ATOM     93  F   UNL A   1      45.732  26.371  34.588  1.00  0.00    -0.206 F 
ATOM     94  C   UNL A   1      49.250  27.127  34.226  1.00  0.00     0.022 A 
BRANCH  91  95
ATOM     95  S   UNL A   1      50.721  28.815  32.565  1.00  0.00     0.124 S 
ATOM     96  O   UNL A   1      51.573  27.631  32.537  1.00  0.00    -0.237 OA
ATOM     97  O   UNL A   1      50.268  29.305  31.266  1.00  0.00    -0.237 OA
ATOM     98  O   UNL A   1      51.131  29.853  33.509  1.00  0.00    -0.744 OA
ENDBRANCH  91  95
ENDBRANCH  65  88
ENDBRANCH  39  40
ENDBRANCH  32  34
ENDBRANCH  31  32
ENDBRANCH  30  31
ENDBRANCH  29  30
ENDBRANCH  28  29
ENDBRANCH   1  28
TORSDOF 22
ENDMDL
