MODEL 1
REMARK VINA RESULT:     -11.5      0.000      0.000
REMARK SMILES O=C(OCCOCCOC(=O)[C@@H]1CCCC[C@@H]1C(=O)Nc1cccc(Br)c1)c1ccc(-c2c3nc(c(-c4cc(S(=O)(=O)[O-])ccc4F)c4ccc([nH]4)c(-c4cc(S(=O)(=O)[O-])ccc4F)c4nc(c(-c5cc(S(=O)(=O)[O-])ccc5F)c5ccc2[nH]5)C=C4)C=C3)cc1
REMARK SMILES IDX 5 1 4 2 3 3 2 4 1 5 28 6 29 7 90 8 30 9 89 10 31 11 32 12
REMARK SMILES IDX 33 13 83 14 34 15 88 16 82 17 84 18 35 19 87 20 81 21 80 22
REMARK SMILES IDX 36 24 68 25 48 26 67 27 49 28 52 29 66 30 85 31 50 32 51 33
REMARK SMILES IDX 65 35 86 36 53 37 37 38 38 39 46 40 39 41 45 42 47 43 44 44
REMARK SMILES IDX 40 45 41 46 42 47 43 48 69 49 70 50 78 51 71 52 77 53 79 54
REMARK SMILES IDX 76 55 72 56 73 57 74 58 75 59 54 60 55 61 63 62 56 63 62 64
REMARK SMILES IDX 64 65 61 66 57 67 58 68 59 69 60 70 6 71 7 72 8 73 9 74
REMARK SMILES IDX 10 75 11 76 12 77 13 78 17 79 14 80 16 81 15 82 18 83 19 84
REMARK SMILES IDX 20 85 21 87 22 88 27 89 23 90 25 91 24 92 26 93
REMARK H PARENT 84 23 52 34 20 86
REMARK Flexibility Score: inf
ROOT
ATOM      1  C   UNL A   1      31.655  30.758  26.912  1.00  0.00     0.202 C 
ENDROOT
BRANCH   1   2
ATOM      2  C   UNL A   1      31.383  32.239  26.598  1.00  0.00     0.261 C 
BRANCH   2   3
ATOM      3  O   UNL A   1      32.577  33.039  26.679  1.00  0.00    -0.460 OA
BRANCH   3   4
ATOM      4  C   UNL A   1      33.195  33.445  27.818  1.00  0.00     0.338 C 
ATOM      5  O   UNL A   1      32.669  34.308  28.518  1.00  0.00    -0.246 OA
BRANCH   4   6
ATOM      6  C   UNL A   1      34.488  32.852  28.260  1.00  0.00     0.060 A 
ATOM      7  C   UNL A   1      34.598  31.551  28.730  1.00  0.00     0.016 A 
ATOM      8  C   UNL A   1      35.659  33.614  28.177  1.00  0.00     0.016 A 
ATOM      9  C   UNL A   1      35.755  31.043  29.248  1.00  0.00     0.010 A 
ATOM     10  C   UNL A   1      36.878  33.075  28.610  1.00  0.00     0.010 A 
ATOM     11  C   UNL A   1      36.912  31.791  29.170  1.00  0.00    -0.014 A 
BRANCH  11  12
ATOM     12  C   UNL A   1      38.060  31.193  29.859  1.00  0.00     0.031 A 
ATOM     13  C   UNL A   1      38.210  31.484  31.317  1.00  0.00     0.074 A 
ATOM     14  C   UNL A   1      38.742  30.210  29.241  1.00  0.00     0.049 A 
ATOM     15  N   UNL A   1      39.134  31.091  32.143  1.00  0.00    -0.248 NA
ATOM     16  C   UNL A   1      37.163  32.320  31.929  1.00  0.00     0.031 C 
ATOM     17  C   UNL A   1      38.472  29.720  27.879  1.00  0.00     0.029 A 
ATOM     18  N   UNL A   1      39.737  29.390  29.689  1.00  0.00    -0.354 N 
ATOM     19  C   UNL A   1      38.820  31.686  33.359  1.00  0.00     0.074 A 
ATOM     20  C   UNL A   1      37.613  32.455  33.164  1.00  0.00     0.031 C 
ATOM     21  C   UNL A   1      39.247  28.655  27.632  1.00  0.00     0.029 A 
ATOM     22  C   UNL A   1      40.148  28.465  28.757  1.00  0.00     0.049 A 
ATOM     23  H   UNL A   1      40.123  29.454  30.592  1.00  0.00     0.167 HD
ATOM     24  C   UNL A   1      39.511  31.600  34.518  1.00  0.00     0.034 A 
ATOM     25  C   UNL A   1      41.182  27.605  28.803  1.00  0.00     0.034 A 
ATOM     26  C   UNL A   1      40.705  30.801  34.636  1.00  0.00     0.049 A 
ATOM     27  C   UNL A   1      42.013  27.625  30.059  1.00  0.00     0.074 A 
ATOM     28  C   UNL A   1      41.575  30.688  35.702  1.00  0.00     0.029 A 
ATOM     29  N   UNL A   1      41.191  29.967  33.630  1.00  0.00    -0.354 N 
ATOM     30  N   UNL A   1      41.815  28.307  31.168  1.00  0.00    -0.248 NA
ATOM     31  C   UNL A   1      43.209  26.782  30.071  1.00  0.00     0.031 C 
ATOM     32  C   UNL A   1      42.622  29.844  35.314  1.00  0.00     0.029 A 
ATOM     33  C   UNL A   1      42.362  29.355  34.041  1.00  0.00     0.049 A 
ATOM     34  H   UNL A   1      40.763  29.831  32.754  1.00  0.00     0.167 HD
ATOM     35  C   UNL A   1      42.852  27.955  32.021  1.00  0.00     0.074 A 
ATOM     36  C   UNL A   1      43.655  26.982  31.302  1.00  0.00     0.031 C 
ATOM     37  C   UNL A   1      43.125  28.391  33.280  1.00  0.00     0.034 A 
BRANCH  24  38
ATOM     38  C   UNL A   1      39.063  32.498  35.644  1.00  0.00     0.023 A 
ATOM     39  C   UNL A   1      39.481  33.835  35.757  1.00  0.00     0.031 A 
ATOM     40  C   UNL A   1      38.306  31.955  36.699  1.00  0.00     0.131 A 
ATOM     41  C   UNL A   1      39.220  34.552  36.937  1.00  0.00     0.055 A 
ATOM     42  C   UNL A   1      37.973  32.702  37.829  1.00  0.00     0.041 A 
ATOM     43  F   UNL A   1      37.913  30.672  36.668  1.00  0.00    -0.206 F 
ATOM     44  C   UNL A   1      38.447  34.003  37.963  1.00  0.00     0.022 A 
BRANCH  41  45
ATOM     45  S   UNL A   1      40.060  36.142  37.194  1.00  0.00     0.124 S 
ATOM     46  O   UNL A   1      41.427  35.709  37.477  1.00  0.00    -0.237 OA
ATOM     47  O   UNL A   1      39.856  36.817  35.919  1.00  0.00    -0.237 OA
ATOM     48  O   UNL A   1      39.351  36.724  38.331  1.00  0.00    -0.744 OA
ENDBRANCH  41  45
ENDBRANCH  24  38
BRANCH  25  49
ATOM     49  C   UNL A   1      41.541  26.760  27.625  1.00  0.00     0.023 A 
ATOM     50  C   UNL A   1      41.237  25.391  27.586  1.00  0.00     0.031 A 
ATOM     51  C   UNL A   1      42.253  27.300  26.535  1.00  0.00     0.131 A 
ATOM     52  C   UNL A   1      41.679  24.604  26.509  1.00  0.00     0.055 A 
ATOM     53  C   UNL A   1      42.634  26.527  25.438  1.00  0.00     0.041 A 
ATOM     54  F   UNL A   1      42.587  28.600  26.515  1.00  0.00    -0.206 F 
ATOM     55  C   UNL A   1      42.361  25.164  25.428  1.00  0.00     0.022 A 
BRANCH  52  56
ATOM     56  S   UNL A   1      41.442  22.806  26.589  1.00  0.00     0.124 S 
ATOM     57  O   UNL A   1      42.122  22.363  25.377  1.00  0.00    -0.237 OA
ATOM     58  O   UNL A   1      42.093  22.471  27.851  1.00  0.00    -0.237 OA
ATOM     59  O   UNL A   1      39.989  22.654  26.581  1.00  0.00    -0.744 OA
ENDBRANCH  52  56
ENDBRANCH  25  49
BRANCH  37  60
ATOM     60  C   UNL A   1      44.310  27.757  33.957  1.00  0.00     0.023 A 
ATOM     61  C   UNL A   1      44.177  26.611  34.757  1.00  0.00     0.031 A 
ATOM     62  C   UNL A   1      45.586  28.327  33.810  1.00  0.00     0.131 A 
ATOM     63  C   UNL A   1      45.293  26.113  35.443  1.00  0.00     0.055 A 
ATOM     64  C   UNL A   1      46.706  27.781  34.432  1.00  0.00     0.041 A 
ATOM     65  F   UNL A   1      45.762  29.425  33.058  1.00  0.00    -0.206 F 
ATOM     66  C   UNL A   1      46.559  26.677  35.268  1.00  0.00     0.022 A 
BRANCH  63  67
ATOM     67  S   UNL A   1      45.040  24.795  36.660  1.00  0.00     0.124 S 
ATOM     68  O   UNL A   1      43.820  25.234  37.331  1.00  0.00    -0.237 OA
ATOM     69  O   UNL A   1      44.913  23.611  35.817  1.00  0.00    -0.237 OA
ATOM     70  O   UNL A   1      46.251  24.849  37.478  1.00  0.00    -0.744 OA
ENDBRANCH  63  67
ENDBRANCH  37  60
ENDBRANCH  11  12
ENDBRANCH   4   6
ENDBRANCH   3   4
ENDBRANCH   2   3
ENDBRANCH   1   2
BRANCH   1  71
ATOM     71  O   UNL A   1      32.711  30.087  26.222  1.00  0.00    -0.374 OA
BRANCH  71  72
ATOM     72  C   UNL A   1      32.947  28.732  26.584  1.00  0.00     0.202 C 
BRANCH  72  73
ATOM     73  C   UNL A   1      31.699  28.129  27.217  1.00  0.00     0.261 C 
BRANCH  73  74
ATOM     74  O   UNL A   1      31.724  26.705  27.001  1.00  0.00    -0.463 OA
BRANCH  74  75
ATOM     75  C   UNL A   1      30.827  26.230  26.096  1.00  0.00     0.309 C 
ATOM     76  O   UNL A   1      29.798  25.629  26.382  1.00  0.00    -0.252 OA
BRANCH  75  77
ATOM     77  C   UNL A   1      31.304  26.462  24.672  1.00  0.00     0.111 C 
ATOM     78  C   UNL A   1      30.275  27.081  23.711  1.00  0.00     0.016 C 
ATOM     79  C   UNL A   1      31.990  25.205  24.092  1.00  0.00     0.093 C 
ATOM     80  C   UNL A   1      30.896  27.397  22.359  1.00  0.00     0.001 C 
ATOM     81  C   UNL A   1      32.609  25.551  22.726  1.00  0.00     0.014 C 
ATOM     82  C   UNL A   1      31.610  26.191  21.757  1.00  0.00     0.001 C 
BRANCH  79  83
ATOM     83  C   UNL A   1      31.100  23.963  23.892  1.00  0.00     0.228 C 
ATOM     84  O   UNL A   1      30.164  23.972  23.087  1.00  0.00    -0.274 OA
ATOM     85  N   UNL A   1      31.469  22.747  24.406  1.00  0.00    -0.326 N 
ATOM     86  H   UNL A   1      30.965  21.974  24.063  1.00  0.00     0.169 HD
BRANCH  85  87
ATOM     87  C   UNL A   1      32.460  22.445  25.347  1.00  0.00     0.042 A 
ATOM     88  C   UNL A   1      32.320  22.753  26.700  1.00  0.00     0.026 A 
ATOM     89  C   UNL A   1      33.615  21.802  24.901  1.00  0.00     0.041 A 
ATOM     90  C   UNL A   1      33.371  22.531  27.588  1.00  0.00     0.003 A 
ATOM     91  C   UNL A   1      34.676  21.610  25.785  1.00  0.00     0.020 A 
ATOM     92  C   UNL A   1      34.566  21.986  27.124  1.00  0.00     0.016 A 
ATOM     93  Br  UNL A   1      36.302  20.883  25.150  1.00  0.00    -0.051 Br
ENDBRANCH  85  87
ENDBRANCH  79  83
ENDBRANCH  75  77
ENDBRANCH  74  75
ENDBRANCH  73  74
ENDBRANCH  72  73
ENDBRANCH  71  72
ENDBRANCH   1  71
TORSDOF 19
ENDMDL
MODEL 2
REMARK VINA RESULT:     -11.3      1.868      2.979
REMARK SMILES O=C(OCCOCCOC(=O)[C@@H]1CCCC[C@@H]1C(=O)Nc1cccc(Br)c1)c1ccc(-c2c3nc(c(-c4cc(S(=O)(=O)[O-])ccc4F)c4ccc([nH]4)c(-c4cc(S(=O)(=O)[O-])ccc4F)c4nc(c(-c5cc(S(=O)(=O)[O-])ccc5F)c5ccc2[nH]5)C=C4)C=C3)cc1
REMARK SMILES IDX 5 1 4 2 3 3 2 4 1 5 28 6 29 7 90 8 30 9 89 10 31 11 32 12
REMARK SMILES IDX 33 13 83 14 34 15 88 16 82 17 84 18 35 19 87 20 81 21 80 22
REMARK SMILES IDX 36 24 68 25 48 26 67 27 49 28 52 29 66 30 85 31 50 32 51 33
REMARK SMILES IDX 65 35 86 36 53 37 37 38 38 39 46 40 39 41 45 42 47 43 44 44
REMARK SMILES IDX 40 45 41 46 42 47 43 48 69 49 70 50 78 51 71 52 77 53 79 54
REMARK SMILES IDX 76 55 72 56 73 57 74 58 75 59 54 60 55 61 63 62 56 63 62 64
REMARK SMILES IDX 64 65 61 66 57 67 58 68 59 69 60 70 6 71 7 72 8 73 9 74
REMARK SMILES IDX 10 75 11 76 12 77 13 78 17 79 14 80 16 81 15 82 18 83 19 84
REMARK SMILES IDX 20 85 21 87 22 88 27 89 23 90 25 91 24 92 26 93
REMARK H PARENT 84 23 52 34 20 86
REMARK Flexibility Score: inf
ROOT
ATOM      1  C   UNL A   1      32.245  30.984  26.596  1.00  0.00     0.202 C 
ENDROOT
BRANCH   1   2
ATOM      2  C   UNL A   1      31.501  32.292  26.915  1.00  0.00     0.261 C 
BRANCH   2   3
ATOM      3  O   UNL A   1      32.392  33.419  26.988  1.00  0.00    -0.460 OA
BRANCH   3   4
ATOM      4  C   UNL A   1      33.065  33.841  28.090  1.00  0.00     0.338 C 
ATOM      5  O   UNL A   1      32.599  34.749  28.774  1.00  0.00    -0.246 OA
BRANCH   4   6
ATOM      6  C   UNL A   1      34.347  33.211  28.511  1.00  0.00     0.060 A 
ATOM      7  C   UNL A   1      34.428  31.908  28.980  1.00  0.00     0.016 A 
ATOM      8  C   UNL A   1      35.538  33.938  28.408  1.00  0.00     0.016 A 
ATOM      9  C   UNL A   1      35.578  31.366  29.479  1.00  0.00     0.010 A 
ATOM     10  C   UNL A   1      36.749  33.365  28.821  1.00  0.00     0.010 A 
ATOM     11  C   UNL A   1      36.755  32.080  29.381  1.00  0.00    -0.014 A 
BRANCH  11  12
ATOM     12  C   UNL A   1      37.896  31.450  30.052  1.00  0.00     0.031 A 
ATOM     13  C   UNL A   1      38.059  31.708  31.514  1.00  0.00     0.074 A 
ATOM     14  C   UNL A   1      38.559  30.468  29.410  1.00  0.00     0.049 A 
ATOM     15  N   UNL A   1      38.980  31.283  32.327  1.00  0.00    -0.248 NA
ATOM     16  C   UNL A   1      37.029  32.548  32.149  1.00  0.00     0.031 C 
ATOM     17  C   UNL A   1      38.274  30.011  28.039  1.00  0.00     0.029 A 
ATOM     18  N   UNL A   1      39.543  29.623  29.835  1.00  0.00    -0.354 N 
ATOM     19  C   UNL A   1      38.682  31.858  33.557  1.00  0.00     0.074 A 
ATOM     20  C   UNL A   1      37.487  32.650  33.385  1.00  0.00     0.031 C 
ATOM     21  C   UNL A   1      39.030  28.939  27.766  1.00  0.00     0.029 A 
ATOM     22  C   UNL A   1      39.934  28.712  28.882  1.00  0.00     0.049 A 
ATOM     23  H   UNL A   1      39.935  29.663  30.737  1.00  0.00     0.167 HD
ATOM     24  C   UNL A   1      39.378  31.736  34.710  1.00  0.00     0.034 A 
ATOM     25  C   UNL A   1      40.953  27.834  28.905  1.00  0.00     0.034 A 
ATOM     26  C   UNL A   1      40.559  30.916  34.805  1.00  0.00     0.049 A 
ATOM     27  C   UNL A   1      41.791  27.814  30.157  1.00  0.00     0.074 A 
ATOM     28  C   UNL A   1      41.433  30.767  35.864  1.00  0.00     0.029 A 
ATOM     29  N   UNL A   1      41.026  30.094  33.779  1.00  0.00    -0.354 N 
ATOM     30  N   UNL A   1      41.610  28.476  31.280  1.00  0.00    -0.248 NA
ATOM     31  C   UNL A   1      42.974  26.952  30.144  1.00  0.00     0.031 C 
ATOM     32  C   UNL A   1      42.464  29.914  35.453  1.00  0.00     0.029 A 
ATOM     33  C   UNL A   1      42.189  29.456  34.171  1.00  0.00     0.049 A 
ATOM     34  H   UNL A   1      40.591  29.984  32.903  1.00  0.00     0.167 HD
ATOM     35  C   UNL A   1      42.646  28.090  32.120  1.00  0.00     0.074 A 
ATOM     36  C   UNL A   1      43.429  27.120  31.376  1.00  0.00     0.031 C 
ATOM     37  C   UNL A   1      42.933  28.495  33.386  1.00  0.00     0.034 A 
BRANCH  24  38
ATOM     38  C   UNL A   1      38.950  32.617  35.857  1.00  0.00     0.023 A 
ATOM     39  C   UNL A   1      39.380  33.950  35.987  1.00  0.00     0.031 A 
ATOM     40  C   UNL A   1      38.202  32.063  36.912  1.00  0.00     0.131 A 
ATOM     41  C   UNL A   1      39.139  34.648  37.183  1.00  0.00     0.055 A 
ATOM     42  C   UNL A   1      37.889  32.792  38.059  1.00  0.00     0.041 A 
ATOM     43  F   UNL A   1      37.800  30.783  36.864  1.00  0.00    -0.206 F 
ATOM     44  C   UNL A   1      38.374  34.087  38.208  1.00  0.00     0.022 A 
BRANCH  41  45
ATOM     45  S   UNL A   1      39.993  36.227  37.457  1.00  0.00     0.124 S 
ATOM     46  O   UNL A   1      39.918  36.835  36.130  1.00  0.00    -0.237 OA
ATOM     47  O   UNL A   1      39.178  36.852  38.491  1.00  0.00    -0.237 OA
ATOM     48  O   UNL A   1      41.334  35.824  37.875  1.00  0.00    -0.744 OA
ENDBRANCH  41  45
ENDBRANCH  24  38
BRANCH  25  49
ATOM     49  C   UNL A   1      41.293  27.008  27.708  1.00  0.00     0.023 A 
ATOM     50  C   UNL A   1      41.051  25.626  27.679  1.00  0.00     0.031 A 
ATOM     51  C   UNL A   1      41.924  27.581  26.585  1.00  0.00     0.131 A 
ATOM     52  C   UNL A   1      41.475  24.861  26.579  1.00  0.00     0.055 A 
ATOM     53  C   UNL A   1      42.286  26.828  25.468  1.00  0.00     0.041 A 
ATOM     54  F   UNL A   1      42.196  28.895  26.554  1.00  0.00    -0.206 F 
ATOM     55  C   UNL A   1      42.077  25.454  25.468  1.00  0.00     0.022 A 
BRANCH  52  56
ATOM     56  S   UNL A   1      41.326  23.054  26.665  1.00  0.00     0.124 S 
ATOM     57  O   UNL A   1      39.902  22.863  26.416  1.00  0.00    -0.237 OA
ATOM     58  O   UNL A   1      42.228  22.625  25.602  1.00  0.00    -0.237 OA
ATOM     59  O   UNL A   1      41.771  22.741  28.021  1.00  0.00    -0.744 OA
ENDBRANCH  52  56
ENDBRANCH  25  49
BRANCH  37  60
ATOM     60  C   UNL A   1      44.110  27.828  34.044  1.00  0.00     0.023 A 
ATOM     61  C   UNL A   1      43.975  26.626  34.757  1.00  0.00     0.031 A 
ATOM     62  C   UNL A   1      45.381  28.422  33.967  1.00  0.00     0.131 A 
ATOM     63  C   UNL A   1      45.082  26.094  35.431  1.00  0.00     0.055 A 
ATOM     64  C   UNL A   1      46.494  27.846  34.575  1.00  0.00     0.041 A 
ATOM     65  F   UNL A   1      45.560  29.573  33.299  1.00  0.00    -0.206 F 
ATOM     66  C   UNL A   1      46.344  26.684  35.327  1.00  0.00     0.022 A 
BRANCH  63  67
ATOM     67  S   UNL A   1      44.818  24.690  36.545  1.00  0.00     0.124 S 
ATOM     68  O   UNL A   1      43.931  23.841  35.757  1.00  0.00    -0.237 OA
ATOM     69  O   UNL A   1      46.175  24.188  36.741  1.00  0.00    -0.237 OA
ATOM     70  O   UNL A   1      44.206  25.301  37.725  1.00  0.00    -0.744 OA
ENDBRANCH  63  67
ENDBRANCH  37  60
ENDBRANCH  11  12
ENDBRANCH   4   6
ENDBRANCH   3   4
ENDBRANCH   2   3
ENDBRANCH   1   2
BRANCH   1  71
ATOM     71  O   UNL A   1      31.503  29.766  26.522  1.00  0.00    -0.374 OA
BRANCH  71  72
ATOM     72  C   UNL A   1      32.109  28.616  27.097  1.00  0.00     0.202 C 
BRANCH  72  73
ATOM     73  C   UNL A   1      31.408  27.352  26.614  1.00  0.00     0.261 C 
BRANCH  73  74
ATOM     74  O   UNL A   1      32.387  26.299  26.515  1.00  0.00    -0.463 OA
BRANCH  74  75
ATOM     75  C   UNL A   1      33.238  26.383  25.458  1.00  0.00     0.309 C 
ATOM     76  O   UNL A   1      33.878  27.384  25.154  1.00  0.00    -0.252 OA
BRANCH  75  77
ATOM     77  C   UNL A   1      33.235  25.101  24.643  1.00  0.00     0.111 C 
ATOM     78  C   UNL A   1      34.617  24.511  24.313  1.00  0.00     0.016 C 
ATOM     79  C   UNL A   1      32.320  25.220  23.404  1.00  0.00     0.093 C 
ATOM     80  C   UNL A   1      34.495  23.163  23.619  1.00  0.00     0.001 C 
ATOM     81  C   UNL A   1      32.213  23.845  22.721  1.00  0.00     0.014 C 
ATOM     82  C   UNL A   1      33.577  23.223  22.402  1.00  0.00     0.001 C 
BRANCH  79  83
ATOM     83  C   UNL A   1      32.743  26.237  22.327  1.00  0.00     0.228 C 
ATOM     84  O   UNL A   1      33.790  26.093  21.690  1.00  0.00    -0.274 OA
ATOM     85  N   UNL A   1      31.861  27.182  21.871  1.00  0.00    -0.326 N 
ATOM     86  H   UNL A   1      32.133  27.651  21.049  1.00  0.00     0.169 HD
BRANCH  85  87
ATOM     87  C   UNL A   1      30.629  27.577  22.405  1.00  0.00     0.042 A 
ATOM     88  C   UNL A   1      29.862  26.734  23.209  1.00  0.00     0.026 A 
ATOM     89  C   UNL A   1      30.175  28.866  22.126  1.00  0.00     0.041 A 
ATOM     90  C   UNL A   1      28.595  27.125  23.636  1.00  0.00     0.003 A 
ATOM     91  C   UNL A   1      28.894  29.243  22.528  1.00  0.00     0.020 A 
ATOM     92  C   UNL A   1      28.095  28.372  23.268  1.00  0.00     0.016 A 
ATOM     93  Br  UNL A   1      28.213  30.930  22.017  1.00  0.00    -0.051 Br
ENDBRANCH  85  87
ENDBRANCH  79  83
ENDBRANCH  75  77
ENDBRANCH  74  75
ENDBRANCH  73  74
ENDBRANCH  72  73
ENDBRANCH  71  72
ENDBRANCH   1  71
TORSDOF 19
ENDMDL
MODEL 3
REMARK VINA RESULT:     -11.3      2.157      8.163
REMARK SMILES O=C(OCCOCCOC(=O)[C@@H]1CCCC[C@@H]1C(=O)Nc1cccc(Br)c1)c1ccc(-c2c3nc(c(-c4cc(S(=O)(=O)[O-])ccc4F)c4ccc([nH]4)c(-c4cc(S(=O)(=O)[O-])ccc4F)c4nc(c(-c5cc(S(=O)(=O)[O-])ccc5F)c5ccc2[nH]5)C=C4)C=C3)cc1
REMARK SMILES IDX 5 1 4 2 3 3 2 4 1 5 28 6 29 7 90 8 30 9 89 10 31 11 32 12
REMARK SMILES IDX 33 13 83 14 34 15 88 16 82 17 84 18 35 19 87 20 81 21 80 22
REMARK SMILES IDX 36 24 68 25 48 26 67 27 49 28 52 29 66 30 85 31 50 32 51 33
REMARK SMILES IDX 65 35 86 36 53 37 37 38 38 39 46 40 39 41 45 42 47 43 44 44
REMARK SMILES IDX 40 45 41 46 42 47 43 48 69 49 70 50 78 51 71 52 77 53 79 54
REMARK SMILES IDX 76 55 72 56 73 57 74 58 75 59 54 60 55 61 63 62 56 63 62 64
REMARK SMILES IDX 64 65 61 66 57 67 58 68 59 69 60 70 6 71 7 72 8 73 9 74
REMARK SMILES IDX 10 75 11 76 12 77 13 78 17 79 14 80 16 81 15 82 18 83 19 84
REMARK SMILES IDX 20 85 21 87 22 88 27 89 23 90 25 91 24 92 26 93
REMARK H PARENT 84 23 52 34 20 86
REMARK Flexibility Score: inf
ROOT
ATOM      1  C   UNL A   1      32.336  28.855  26.807  1.00  0.00     0.202 C 
ENDROOT
BRANCH   1   2
ATOM      2  C   UNL A   1      31.847  30.312  26.880  1.00  0.00     0.261 C 
BRANCH   2   3
ATOM      3  O   UNL A   1      32.891  31.250  26.561  1.00  0.00    -0.460 OA
BRANCH   3   4
ATOM      4  C   UNL A   1      33.602  31.993  27.449  1.00  0.00     0.338 C 
ATOM      5  O   UNL A   1      33.170  33.086  27.807  1.00  0.00    -0.246 OA
BRANCH   4   6
ATOM      6  C   UNL A   1      34.885  31.504  28.026  1.00  0.00     0.060 A 
ATOM      7  C   UNL A   1      35.069  30.197  28.453  1.00  0.00     0.016 A 
ATOM      8  C   UNL A   1      35.973  32.378  28.122  1.00  0.00     0.016 A 
ATOM      9  C   UNL A   1      36.200  29.776  29.092  1.00  0.00     0.010 A 
ATOM     10  C   UNL A   1      37.180  31.937  28.683  1.00  0.00     0.010 A 
ATOM     11  C   UNL A   1      37.276  30.634  29.190  1.00  0.00    -0.014 A 
BRANCH  11  12
ATOM     12  C   UNL A   1      38.387  30.114  29.994  1.00  0.00     0.031 A 
ATOM     13  C   UNL A   1      39.406  29.277  29.293  1.00  0.00     0.074 A 
ATOM     14  C   UNL A   1      38.592  30.631  31.221  1.00  0.00     0.049 A 
ATOM     15  N   UNL A   1      40.465  28.695  29.773  1.00  0.00    -0.248 NA
ATOM     16  C   UNL A   1      39.212  29.086  27.845  1.00  0.00     0.031 C 
ATOM     17  C   UNL A   1      37.740  31.646  31.864  1.00  0.00     0.029 A 
ATOM     18  N   UNL A   1      39.610  30.450  32.113  1.00  0.00    -0.354 N 
ATOM     19  C   UNL A   1      41.029  28.011  28.703  1.00  0.00     0.074 A 
ATOM     20  C   UNL A   1      40.202  28.263  27.546  1.00  0.00     0.031 C 
ATOM     21  C   UNL A   1      38.305  32.028  33.018  1.00  0.00     0.029 A 
ATOM     22  C   UNL A   1      39.479  31.204  33.255  1.00  0.00     0.049 A 
ATOM     23  H   UNL A   1      40.363  29.838  31.952  1.00  0.00     0.167 HD
ATOM     24  C   UNL A   1      42.132  27.228  28.719  1.00  0.00     0.034 A 
ATOM     25  C   UNL A   1      40.208  31.177  34.386  1.00  0.00     0.034 A 
ATOM     26  C   UNL A   1      42.912  27.034  29.914  1.00  0.00     0.049 A 
ATOM     27  C   UNL A   1      41.353  30.199  34.421  1.00  0.00     0.074 A 
ATOM     28  C   UNL A   1      43.990  26.197  30.125  1.00  0.00     0.029 A 
ATOM     29  N   UNL A   1      42.686  27.708  31.115  1.00  0.00    -0.354 N 
ATOM     30  N   UNL A   1      41.804  29.424  33.457  1.00  0.00    -0.248 NA
ATOM     31  C   UNL A   1      42.076  30.075  35.687  1.00  0.00     0.031 C 
ATOM     32  C   UNL A   1      44.367  26.312  31.468  1.00  0.00     0.029 A 
ATOM     33  C   UNL A   1      43.587  27.287  32.076  1.00  0.00     0.049 A 
ATOM     34  H   UNL A   1      41.986  28.385  31.257  1.00  0.00     0.167 HD
ATOM     35  C   UNL A   1      42.882  28.734  33.996  1.00  0.00     0.074 A 
ATOM     36  C   UNL A   1      43.023  29.209  35.361  1.00  0.00     0.031 C 
ATOM     37  C   UNL A   1      43.683  27.795  33.427  1.00  0.00     0.034 A 
BRANCH  24  38
ATOM     38  C   UNL A   1      42.424  26.443  27.465  1.00  0.00     0.023 A 
ATOM     39  C   UNL A   1      41.978  25.123  27.278  1.00  0.00     0.031 A 
ATOM     40  C   UNL A   1      43.284  26.989  26.494  1.00  0.00     0.131 A 
ATOM     41  C   UNL A   1      42.468  24.366  26.200  1.00  0.00     0.055 A 
ATOM     42  C   UNL A   1      43.694  26.261  25.377  1.00  0.00     0.041 A 
ATOM     43  F   UNL A   1      43.776  28.230  26.638  1.00  0.00    -0.206 F 
ATOM     44  C   UNL A   1      43.302  24.934  25.235  1.00  0.00     0.022 A 
BRANCH  41  45
ATOM     45  S   UNL A   1      42.151  22.577  26.177  1.00  0.00     0.124 S 
ATOM     46  O   UNL A   1      42.906  22.131  27.345  1.00  0.00    -0.237 OA
ATOM     47  O   UNL A   1      40.699  22.512  26.292  1.00  0.00    -0.237 OA
ATOM     48  O   UNL A   1      42.696  22.149  24.891  1.00  0.00    -0.744 OA
ENDBRANCH  41  45
ENDBRANCH  24  38
BRANCH  25  49
ATOM     49  C   UNL A   1      39.827  31.997  35.575  1.00  0.00     0.023 A 
ATOM     50  C   UNL A   1      38.943  31.509  36.548  1.00  0.00     0.031 A 
ATOM     51  C   UNL A   1      40.301  33.316  35.729  1.00  0.00     0.131 A 
ATOM     52  C   UNL A   1      38.525  32.343  37.600  1.00  0.00     0.055 A 
ATOM     53  C   UNL A   1      39.933  34.118  36.810  1.00  0.00     0.041 A 
ATOM     54  F   UNL A   1      41.140  33.849  34.827  1.00  0.00    -0.206 F 
ATOM     55  C   UNL A   1      39.026  33.637  37.746  1.00  0.00     0.022 A 
BRANCH  52  56
ATOM     56  S   UNL A   1      37.230  31.746  38.722  1.00  0.00     0.124 S 
ATOM     57  O   UNL A   1      36.150  32.689  38.455  1.00  0.00    -0.237 OA
ATOM     58  O   UNL A   1      37.025  30.381  38.249  1.00  0.00    -0.237 OA
ATOM     59  O   UNL A   1      37.846  31.860  40.043  1.00  0.00    -0.744 OA
ENDBRANCH  52  56
ENDBRANCH  25  49
BRANCH  37  60
ATOM     60  C   UNL A   1      44.812  27.283  34.280  1.00  0.00     0.023 A 
ATOM     61  C   UNL A   1      44.685  26.115  35.048  1.00  0.00     0.031 A 
ATOM     62  C   UNL A   1      46.023  27.993  34.334  1.00  0.00     0.131 A 
ATOM     63  C   UNL A   1      45.730  25.730  35.899  1.00  0.00     0.055 A 
ATOM     64  C   UNL A   1      47.087  27.562  35.123  1.00  0.00     0.041 A 
ATOM     65  F   UNL A   1      46.191  29.117  33.620  1.00  0.00    -0.206 F 
ATOM     66  C   UNL A   1      46.937  26.433  35.925  1.00  0.00     0.022 A 
BRANCH  63  67
ATOM     67  S   UNL A   1      45.439  24.370  37.061  1.00  0.00     0.124 S 
ATOM     68  O   UNL A   1      44.653  23.444  36.252  1.00  0.00    -0.237 OA
ATOM     69  O   UNL A   1      46.796  23.941  37.385  1.00  0.00    -0.237 OA
ATOM     70  O   UNL A   1      44.711  25.008  38.157  1.00  0.00    -0.744 OA
ENDBRANCH  63  67
ENDBRANCH  37  60
ENDBRANCH  11  12
ENDBRANCH   4   6
ENDBRANCH   3   4
ENDBRANCH   2   3
ENDBRANCH   1   2
BRANCH   1  71
ATOM     71  O   UNL A   1      31.525  27.823  27.372  1.00  0.00    -0.374 OA
BRANCH  71  72
ATOM     72  C   UNL A   1      31.025  26.842  26.473  1.00  0.00     0.202 C 
BRANCH  72  73
ATOM     73  C   UNL A   1      31.965  25.644  26.423  1.00  0.00     0.261 C 
BRANCH  73  74
ATOM     74  O   UNL A   1      32.976  25.901  25.429  1.00  0.00    -0.463 OA
BRANCH  74  75
ATOM     75  C   UNL A   1      33.816  24.866  25.161  1.00  0.00     0.309 C 
ATOM     76  O   UNL A   1      35.038  24.920  25.240  1.00  0.00    -0.252 OA
BRANCH  75  77
ATOM     77  C   UNL A   1      33.054  23.648  24.664  1.00  0.00     0.111 C 
ATOM     78  C   UNL A   1      33.852  22.335  24.604  1.00  0.00     0.016 C 
ATOM     79  C   UNL A   1      32.293  23.952  23.355  1.00  0.00     0.093 C 
ATOM     80  C   UNL A   1      32.962  21.159  24.229  1.00  0.00     0.001 C 
ATOM     81  C   UNL A   1      31.401  22.749  22.998  1.00  0.00     0.014 C 
ATOM     82  C   UNL A   1      32.167  21.424  22.954  1.00  0.00     0.001 C 
BRANCH  79  83
ATOM     83  C   UNL A   1      33.150  24.272  22.115  1.00  0.00     0.228 C 
ATOM     84  O   UNL A   1      33.684  23.372  21.459  1.00  0.00    -0.274 OA
ATOM     85  N   UNL A   1      33.141  25.526  21.562  1.00  0.00    -0.326 N 
ATOM     86  H   UNL A   1      33.543  25.594  20.666  1.00  0.00     0.169 HD
BRANCH  85  87
ATOM     87  C   UNL A   1      32.642  26.723  22.087  1.00  0.00     0.042 A 
ATOM     88  C   UNL A   1      33.478  27.764  22.491  1.00  0.00     0.026 A 
ATOM     89  C   UNL A   1      31.259  26.869  22.189  1.00  0.00     0.041 A 
ATOM     90  C   UNL A   1      32.948  28.898  23.104  1.00  0.00     0.003 A 
ATOM     91  C   UNL A   1      30.734  27.990  22.830  1.00  0.00     0.020 A 
ATOM     92  C   UNL A   1      31.573  28.999  23.304  1.00  0.00     0.016 A 
ATOM     93  Br  UNL A   1      28.869  28.118  23.112  1.00  0.00    -0.051 Br
ENDBRANCH  85  87
ENDBRANCH  79  83
ENDBRANCH  75  77
ENDBRANCH  74  75
ENDBRANCH  73  74
ENDBRANCH  72  73
ENDBRANCH  71  72
ENDBRANCH   1  71
TORSDOF 19
ENDMDL
