MODEL 1
REMARK VINA RESULT:     -10.7      0.000      0.000
REMARK SMILES C[C@@H](C(=O)OCCOCCOC(=O)c1ccc(-c2c3nc(c(-c4cc(S(=O)(=O)[O-])ccc4F)c4ccc([nH]4)c(-c4cc(S(=O)(=O)[O-])ccc4F)c4nc(c(-c5cc(S(=O)(=O)[O-])ccc5F)c5ccc2[nH]5)C=C4)C=C3)cc1)c1ccc(-c2cccc(OC(=O)NCCC3CCCCC3)c2)c(F)c1
REMARK SMILES IDX 6 1 5 2 3 3 4 4 2 5 1 6 77 7 78 8 101 9 79 10 99 11 80 12
REMARK SMILES IDX 100 13 81 14 82 15 98 16 83 17 85 18 84 19 86 20 87 21 88 22
REMARK SMILES IDX 89 23 90 25 91 26 92 27 93 28 97 29 94 30 96 31 95 32 7 33
REMARK SMILES IDX 8 34 9 35 10 36 11 37 12 38 13 39 14 40 15 41 76 42 16 43
REMARK SMILES IDX 75 44 17 45 18 46 19 47 69 48 20 49 74 50 68 51 70 52 21 53
REMARK SMILES IDX 73 54 67 55 66 56 22 58 54 59 34 60 53 61 35 62 38 63 52 64
REMARK SMILES IDX 71 65 36 66 37 67 51 69 72 70 39 71 23 72 24 73 32 74 25 75
REMARK SMILES IDX 31 76 33 77 30 78 26 79 27 80 28 81 29 82 55 83 56 84 64 85
REMARK SMILES IDX 57 86 63 87 65 88 62 89 58 90 59 91 60 92 61 93 40 94 41 95
REMARK SMILES IDX 49 96 42 97 48 98 50 99 47 100 43 101 44 102 45 103 46 104
REMARK H PARENT 89 24 70 57 38 68
REMARK Flexibility Score: inf
ROOT
ATOM      1  C   UNL A   1      41.796  19.738  26.398  1.00  0.00     0.261 C 
ENDROOT
BRANCH   1   2
ATOM      2  O   UNL A   1      42.432  20.968  26.799  1.00  0.00    -0.463 OA
BRANCH   2   3
ATOM      3  C   UNL A   1      42.012  22.091  26.153  1.00  0.00     0.313 C 
ATOM      4  O   UNL A   1      42.289  22.361  24.989  1.00  0.00    -0.252 OA
BRANCH   3   5
ATOM      5  C   UNL A   1      41.136  22.995  27.035  1.00  0.00     0.126 C 
ATOM      6  C   UNL A   1      41.330  22.843  28.546  1.00  0.00     0.025 C 
BRANCH   5   7
ATOM      7  C   UNL A   1      39.668  22.864  26.625  1.00  0.00    -0.031 A 
ATOM      8  C   UNL A   1      39.144  21.696  26.048  1.00  0.00     0.005 A 
ATOM      9  C   UNL A   1      38.835  23.984  26.708  1.00  0.00     0.044 A 
ATOM     10  C   UNL A   1      37.853  21.673  25.499  1.00  0.00     0.012 A 
ATOM     11  C   UNL A   1      37.546  23.947  26.182  1.00  0.00     0.131 A 
ATOM     12  C   UNL A   1      37.036  22.811  25.533  1.00  0.00     0.018 A 
ATOM     13  F   UNL A   1      36.799  25.059  26.282  1.00  0.00    -0.206 F 
BRANCH  12  14
ATOM     14  C   UNL A   1      35.742  22.842  24.830  1.00  0.00    -0.012 A 
ATOM     15  C   UNL A   1      35.641  23.003  23.440  1.00  0.00     0.009 A 
ATOM     16  C   UNL A   1      34.552  22.745  25.573  1.00  0.00     0.056 A 
ATOM     17  C   UNL A   1      34.391  23.045  22.813  1.00  0.00     0.004 A 
ATOM     18  C   UNL A   1      33.306  22.805  24.955  1.00  0.00     0.133 A 
ATOM     19  C   UNL A   1      33.222  22.944  23.570  1.00  0.00     0.047 A 
BRANCH  18  20
ATOM     20  O   UNL A   1      32.073  22.725  25.648  1.00  0.00    -0.410 OA
BRANCH  20  21
ATOM     21  C   UNL A   1      31.844  23.254  26.915  1.00  0.00     0.412 C 
ATOM     22  O   UNL A   1      32.205  22.780  27.989  1.00  0.00    -0.224 OA
ATOM     23  N   UNL A   1      31.163  24.435  26.913  1.00  0.00    -0.321 N 
ATOM     24  H   UNL A   1      31.016  24.849  27.793  1.00  0.00     0.167 HD
BRANCH  23  25
ATOM     25  C   UNL A   1      30.630  25.155  25.779  1.00  0.00     0.119 C 
BRANCH  25  26
ATOM     26  C   UNL A   1      31.314  26.513  25.613  1.00  0.00     0.025 C 
BRANCH  26  27
ATOM     27  C   UNL A   1      31.754  26.839  24.168  1.00  0.00    -0.009 C 
ATOM     28  C   UNL A   1      33.276  26.717  23.987  1.00  0.00     0.003 C 
ATOM     29  C   UNL A   1      31.013  25.927  23.177  1.00  0.00     0.003 C 
ATOM     30  C   UNL A   1      33.704  26.950  22.538  1.00  0.00     0.000 C 
ATOM     31  C   UNL A   1      31.446  26.187  21.736  1.00  0.00     0.000 C 
ATOM     32  C   UNL A   1      32.953  26.041  21.573  1.00  0.00     0.000 C 
ENDBRANCH  26  27
ENDBRANCH  25  26
ENDBRANCH  23  25
ENDBRANCH  20  21
ENDBRANCH  18  20
ENDBRANCH  12  14
ENDBRANCH   5   7
ENDBRANCH   3   5
ENDBRANCH   2   3
ENDBRANCH   1   2
BRANCH   1  33
ATOM     33  C   UNL A   1      42.731  18.536  26.570  1.00  0.00     0.202 C 
BRANCH  33  34
ATOM     34  O   UNL A   1      43.395  18.037  25.408  1.00  0.00    -0.374 OA
BRANCH  34  35
ATOM     35  C   UNL A   1      44.629  18.643  25.044  1.00  0.00     0.202 C 
BRANCH  35  36
ATOM     36  C   UNL A   1      44.697  19.441  23.734  1.00  0.00     0.261 C 
BRANCH  36  37
ATOM     37  O   UNL A   1      44.829  20.856  23.936  1.00  0.00    -0.460 OA
BRANCH  37  38
ATOM     38  C   UNL A   1      45.863  21.196  24.748  1.00  0.00     0.338 C 
ATOM     39  O   UNL A   1      46.942  20.634  24.834  1.00  0.00    -0.246 OA
BRANCH  38  40
ATOM     40  C   UNL A   1      45.591  22.492  25.398  1.00  0.00     0.060 A 
ATOM     41  C   UNL A   1      45.311  23.579  24.559  1.00  0.00     0.016 A 
ATOM     42  C   UNL A   1      45.683  22.662  26.780  1.00  0.00     0.016 A 
ATOM     43  C   UNL A   1      45.172  24.855  25.096  1.00  0.00     0.010 A 
ATOM     44  C   UNL A   1      45.552  23.947  27.316  1.00  0.00     0.010 A 
ATOM     45  C   UNL A   1      45.334  25.054  26.472  1.00  0.00    -0.014 A 
BRANCH  45  46
ATOM     46  C   UNL A   1      45.431  26.439  26.995  1.00  0.00     0.031 A 
ATOM     47  C   UNL A   1      44.203  27.083  27.579  1.00  0.00     0.074 A 
ATOM     48  C   UNL A   1      46.608  27.089  26.998  1.00  0.00     0.049 A 
ATOM     49  N   UNL A   1      44.047  28.287  28.063  1.00  0.00    -0.248 NA
ATOM     50  C   UNL A   1      42.988  26.255  27.618  1.00  0.00     0.031 C 
ATOM     51  C   UNL A   1      47.875  26.539  26.515  1.00  0.00     0.029 A 
ATOM     52  N   UNL A   1      46.930  28.353  27.422  1.00  0.00    -0.354 N 
ATOM     53  C   UNL A   1      42.714  28.368  28.454  1.00  0.00     0.074 A 
ATOM     54  C   UNL A   1      42.100  27.102  28.116  1.00  0.00     0.031 C 
ATOM     55  C   UNL A   1      48.838  27.463  26.672  1.00  0.00     0.029 A 
ATOM     56  C   UNL A   1      48.249  28.684  27.217  1.00  0.00     0.049 A 
ATOM     57  H   UNL A   1      46.279  28.965  27.834  1.00  0.00     0.167 HD
ATOM     58  C   UNL A   1      42.068  29.402  29.048  1.00  0.00     0.034 A 
ATOM     59  C   UNL A   1      48.898  29.849  27.420  1.00  0.00     0.034 A 
ATOM     60  C   UNL A   1      42.700  30.659  29.372  1.00  0.00     0.049 A 
ATOM     61  C   UNL A   1      48.132  31.020  27.990  1.00  0.00     0.074 A 
ATOM     62  C   UNL A   1      42.146  31.765  29.991  1.00  0.00     0.029 A 
ATOM     63  N   UNL A   1      44.022  30.981  29.092  1.00  0.00    -0.354 N 
ATOM     64  N   UNL A   1      46.873  31.084  28.361  1.00  0.00    -0.248 NA
ATOM     65  C   UNL A   1      48.877  32.271  28.176  1.00  0.00     0.031 C 
ATOM     66  C   UNL A   1      43.104  32.785  30.003  1.00  0.00     0.029 A 
ATOM     67  C   UNL A   1      44.287  32.285  29.484  1.00  0.00     0.049 A 
ATOM     68  H   UNL A   1      44.675  30.374  28.675  1.00  0.00     0.167 HD
ATOM     69  C   UNL A   1      46.688  32.373  28.858  1.00  0.00     0.074 A 
ATOM     70  C   UNL A   1      47.967  33.044  28.752  1.00  0.00     0.031 C 
ATOM     71  C   UNL A   1      45.566  32.947  29.364  1.00  0.00     0.034 A 
BRANCH  58  72
ATOM     72  C   UNL A   1      40.591  29.239  29.323  1.00  0.00     0.023 A 
ATOM     73  C   UNL A   1      40.079  29.159  30.630  1.00  0.00     0.031 A 
ATOM     74  C   UNL A   1      39.682  29.141  28.254  1.00  0.00     0.131 A 
ATOM     75  C   UNL A   1      38.710  28.921  30.832  1.00  0.00     0.055 A 
ATOM     76  C   UNL A   1      38.310  28.989  28.463  1.00  0.00     0.041 A 
ATOM     77  F   UNL A   1      40.113  29.182  26.984  1.00  0.00    -0.206 F 
ATOM     78  C   UNL A   1      37.819  28.864  29.758  1.00  0.00     0.022 A 
BRANCH  75  79
ATOM     79  S   UNL A   1      38.133  28.539  32.509  1.00  0.00     0.124 S 
ATOM     80  O   UNL A   1      36.780  29.089  32.487  1.00  0.00    -0.237 OA
ATOM     81  O   UNL A   1      38.231  27.085  32.553  1.00  0.00    -0.237 OA
ATOM     82  O   UNL A   1      39.074  29.255  33.367  1.00  0.00    -0.744 OA
ENDBRANCH  75  79
ENDBRANCH  58  72
BRANCH  59  83
ATOM     83  C   UNL A   1      50.336  29.990  27.048  1.00  0.00     0.023 A 
ATOM     84  C   UNL A   1      50.716  30.539  25.813  1.00  0.00     0.031 A 
ATOM     85  C   UNL A   1      51.353  29.519  27.898  1.00  0.00     0.131 A 
ATOM     86  C   UNL A   1      52.069  30.553  25.440  1.00  0.00     0.055 A 
ATOM     87  C   UNL A   1      52.703  29.595  27.549  1.00  0.00     0.041 A 
ATOM     88  F   UNL A   1      51.049  28.979  29.089  1.00  0.00    -0.206 F 
ATOM     89  C   UNL A   1      53.066  30.101  26.306  1.00  0.00     0.022 A 
BRANCH  86  90
ATOM     90  S   UNL A   1      52.498  31.076  23.756  1.00  0.00     0.124 S 
ATOM     91  O   UNL A   1      53.955  31.010  23.790  1.00  0.00    -0.237 OA
ATOM     92  O   UNL A   1      51.827  30.066  22.946  1.00  0.00    -0.237 OA
ATOM     93  O   UNL A   1      51.936  32.422  23.665  1.00  0.00    -0.744 OA
ENDBRANCH  86  90
ENDBRANCH  59  83
BRANCH  71  94
ATOM     94  C   UNL A   1      45.690  34.358  29.892  1.00  0.00     0.023 A 
ATOM     95  C   UNL A   1      45.334  35.478  29.119  1.00  0.00     0.031 A 
ATOM     96  C   UNL A   1      46.180  34.583  31.191  1.00  0.00     0.131 A 
ATOM     97  C   UNL A   1      45.531  36.770  29.629  1.00  0.00     0.055 A 
ATOM     98  C   UNL A   1      46.307  35.869  31.719  1.00  0.00     0.041 A 
ATOM     99  F   UNL A   1      46.541  33.554  31.975  1.00  0.00    -0.206 F 
ATOM    100  C   UNL A   1      45.995  36.973  30.931  1.00  0.00     0.022 A 
BRANCH  97 101
ATOM    101  S   UNL A   1      45.275  38.189  28.528  1.00  0.00     0.124 S 
ATOM    102  O   UNL A   1      44.850  37.540  27.292  1.00  0.00    -0.237 OA
ATOM    103  O   UNL A   1      44.248  38.950  29.232  1.00  0.00    -0.237 OA
ATOM    104  O   UNL A   1      46.589  38.824  28.475  1.00  0.00    -0.744 OA
ENDBRANCH  97 101
ENDBRANCH  71  94
ENDBRANCH  45  46
ENDBRANCH  38  40
ENDBRANCH  37  38
ENDBRANCH  36  37
ENDBRANCH  35  36
ENDBRANCH  34  35
ENDBRANCH  33  34
ENDBRANCH   1  33
TORSDOF 24
ENDMDL
MODEL 2
REMARK VINA RESULT:     -10.7      3.329     10.694
REMARK SMILES C[C@@H](C(=O)OCCOCCOC(=O)c1ccc(-c2c3nc(c(-c4cc(S(=O)(=O)[O-])ccc4F)c4ccc([nH]4)c(-c4cc(S(=O)(=O)[O-])ccc4F)c4nc(c(-c5cc(S(=O)(=O)[O-])ccc5F)c5ccc2[nH]5)C=C4)C=C3)cc1)c1ccc(-c2cccc(OC(=O)NCCC3CCCCC3)c2)c(F)c1
REMARK SMILES IDX 6 1 5 2 3 3 4 4 2 5 1 6 77 7 78 8 101 9 79 10 99 11 80 12
REMARK SMILES IDX 100 13 81 14 82 15 98 16 83 17 85 18 84 19 86 20 87 21 88 22
REMARK SMILES IDX 89 23 90 25 91 26 92 27 93 28 97 29 94 30 96 31 95 32 7 33
REMARK SMILES IDX 8 34 9 35 10 36 11 37 12 38 13 39 14 40 15 41 76 42 16 43
REMARK SMILES IDX 75 44 17 45 18 46 19 47 69 48 20 49 74 50 68 51 70 52 21 53
REMARK SMILES IDX 73 54 67 55 66 56 22 58 54 59 34 60 53 61 35 62 38 63 52 64
REMARK SMILES IDX 71 65 36 66 37 67 51 69 72 70 39 71 23 72 24 73 32 74 25 75
REMARK SMILES IDX 31 76 33 77 30 78 26 79 27 80 28 81 29 82 55 83 56 84 64 85
REMARK SMILES IDX 57 86 63 87 65 88 62 89 58 90 59 91 60 92 61 93 40 94 41 95
REMARK SMILES IDX 49 96 42 97 48 98 50 99 47 100 43 101 44 102 45 103 46 104
REMARK H PARENT 89 24 70 57 38 68
REMARK Flexibility Score: inf
ROOT
ATOM      1  C   UNL A   1      33.474  35.478  30.222  1.00  0.00     0.261 C 
ENDROOT
BRANCH   1   2
ATOM      2  O   UNL A   1      33.452  34.152  29.659  1.00  0.00    -0.463 OA
BRANCH   2   3
ATOM      3  C   UNL A   1      34.142  33.989  28.496  1.00  0.00     0.313 C 
ATOM      4  O   UNL A   1      34.011  34.708  27.511  1.00  0.00    -0.252 OA
BRANCH   3   5
ATOM      5  C   UNL A   1      35.121  32.805  28.544  1.00  0.00     0.126 C 
ATOM      6  C   UNL A   1      36.545  33.098  28.062  1.00  0.00     0.025 C 
BRANCH   5   7
ATOM      7  C   UNL A   1      34.511  31.592  27.841  1.00  0.00    -0.031 A 
ATOM      8  C   UNL A   1      33.161  31.537  27.457  1.00  0.00     0.005 A 
ATOM      9  C   UNL A   1      35.284  30.439  27.679  1.00  0.00     0.044 A 
ATOM     10  C   UNL A   1      32.583  30.344  27.000  1.00  0.00     0.012 A 
ATOM     11  C   UNL A   1      34.709  29.263  27.201  1.00  0.00     0.131 A 
ATOM     12  C   UNL A   1      33.344  29.173  26.888  1.00  0.00     0.018 A 
ATOM     13  F   UNL A   1      35.502  28.186  27.079  1.00  0.00    -0.206 F 
BRANCH  12  14
ATOM     14  C   UNL A   1      32.715  27.884  26.553  1.00  0.00    -0.012 A 
ATOM     15  C   UNL A   1      31.327  27.685  26.600  1.00  0.00     0.009 A 
ATOM     16  C   UNL A   1      33.528  26.790  26.206  1.00  0.00     0.056 A 
ATOM     17  C   UNL A   1      30.771  26.439  26.291  1.00  0.00     0.004 A 
ATOM     18  C   UNL A   1      32.980  25.543  25.916  1.00  0.00     0.133 A 
ATOM     19  C   UNL A   1      31.597  25.367  25.946  1.00  0.00     0.047 A 
BRANCH  18  20
ATOM     20  O   UNL A   1      33.745  24.402  25.572  1.00  0.00    -0.410 OA
BRANCH  20  21
ATOM     21  C   UNL A   1      33.216  23.226  25.046  1.00  0.00     0.412 C 
ATOM     22  O   UNL A   1      32.758  22.277  25.676  1.00  0.00    -0.224 OA
ATOM     23  N   UNL A   1      33.207  23.179  23.684  1.00  0.00    -0.321 N 
ATOM     24  H   UNL A   1      32.808  22.374  23.284  1.00  0.00     0.167 HD
BRANCH  23  25
ATOM     25  C   UNL A   1      33.709  24.164  22.754  1.00  0.00     0.119 C 
BRANCH  25  26
ATOM     26  C   UNL A   1      32.578  24.763  21.917  1.00  0.00     0.025 C 
BRANCH  26  27
ATOM     27  C   UNL A   1      32.546  26.308  21.890  1.00  0.00    -0.009 C 
ATOM     28  C   UNL A   1      31.311  26.871  22.612  1.00  0.00     0.003 C 
ATOM     29  C   UNL A   1      33.839  26.869  22.505  1.00  0.00     0.003 C 
ATOM     30  C   UNL A   1      31.323  28.398  22.667  1.00  0.00     0.000 C 
ATOM     31  C   UNL A   1      33.835  28.395  22.538  1.00  0.00     0.000 C 
ATOM     32  C   UNL A   1      32.614  28.932  23.274  1.00  0.00     0.000 C 
ENDBRANCH  26  27
ENDBRANCH  25  26
ENDBRANCH  23  25
ENDBRANCH  20  21
ENDBRANCH  18  20
ENDBRANCH  12  14
ENDBRANCH   5   7
ENDBRANCH   3   5
ENDBRANCH   2   3
ENDBRANCH   1   2
BRANCH   1  33
ATOM     33  C   UNL A   1      33.286  35.451  31.744  1.00  0.00     0.202 C 
BRANCH  33  34
ATOM     34  O   UNL A   1      33.349  34.184  32.400  1.00  0.00    -0.374 OA
BRANCH  34  35
ATOM     35  C   UNL A   1      34.565  33.840  33.051  1.00  0.00     0.202 C 
BRANCH  35  36
ATOM     36  C   UNL A   1      35.635  34.926  33.231  1.00  0.00     0.261 C 
BRANCH  36  37
ATOM     37  O   UNL A   1      36.971  34.404  33.287  1.00  0.00    -0.460 OA
BRANCH  37  38
ATOM     38  C   UNL A   1      37.036  33.118  33.718  1.00  0.00     0.338 C 
ATOM     39  O   UNL A   1      36.403  32.621  34.634  1.00  0.00    -0.246 OA
BRANCH  38  40
ATOM     40  C   UNL A   1      37.849  32.313  32.788  1.00  0.00     0.060 A 
ATOM     41  C   UNL A   1      38.801  31.455  33.352  1.00  0.00     0.016 A 
ATOM     42  C   UNL A   1      37.740  32.446  31.403  1.00  0.00     0.016 A 
ATOM     43  C   UNL A   1      39.688  30.763  32.532  1.00  0.00     0.010 A 
ATOM     44  C   UNL A   1      38.638  31.757  30.581  1.00  0.00     0.010 A 
ATOM     45  C   UNL A   1      39.640  30.943  31.145  1.00  0.00    -0.014 A 
BRANCH  45  46
ATOM     46  C   UNL A   1      40.738  30.401  30.308  1.00  0.00     0.031 A 
ATOM     47  C   UNL A   1      41.971  31.237  30.098  1.00  0.00     0.074 A 
ATOM     48  C   UNL A   1      40.658  29.163  29.789  1.00  0.00     0.049 A 
ATOM     49  N   UNL A   1      43.036  30.983  29.384  1.00  0.00    -0.248 NA
ATOM     50  C   UNL A   1      42.003  32.538  30.785  1.00  0.00     0.031 C 
ATOM     51  C   UNL A   1      39.539  28.240  29.980  1.00  0.00     0.029 A 
ATOM     52  N   UNL A   1      41.536  28.466  28.998  1.00  0.00    -0.354 N 
ATOM     53  C   UNL A   1      43.861  32.094  29.525  1.00  0.00     0.074 A 
ATOM     54  C   UNL A   1      43.154  33.038  30.364  1.00  0.00     0.031 C 
ATOM     55  C   UNL A   1      39.799  27.098  29.322  1.00  0.00     0.029 A 
ATOM     56  C   UNL A   1      41.076  27.226  28.624  1.00  0.00     0.049 A 
ATOM     57  H   UNL A   1      42.412  28.822  28.723  1.00  0.00     0.167 HD
ATOM     58  C   UNL A   1      45.098  32.301  29.007  1.00  0.00     0.034 A 
ATOM     59  C   UNL A   1      41.614  26.310  27.792  1.00  0.00     0.034 A 
ATOM     60  C   UNL A   1      45.782  31.346  28.168  1.00  0.00     0.049 A 
ATOM     61  C   UNL A   1      42.947  26.606  27.147  1.00  0.00     0.074 A 
ATOM     62  C   UNL A   1      47.043  31.444  27.606  1.00  0.00     0.029 A 
ATOM     63  N   UNL A   1      45.260  30.126  27.759  1.00  0.00    -0.354 N 
ATOM     64  N   UNL A   1      43.721  27.659  27.291  1.00  0.00    -0.248 NA
ATOM     65  C   UNL A   1      43.483  25.588  26.235  1.00  0.00     0.031 C 
ATOM     66  C   UNL A   1      47.245  30.328  26.787  1.00  0.00     0.029 A 
ATOM     67  C   UNL A   1      46.154  29.484  26.916  1.00  0.00     0.049 A 
ATOM     68  H   UNL A   1      44.382  29.769  28.028  1.00  0.00     0.167 HD
ATOM     69  C   UNL A   1      44.852  27.409  26.514  1.00  0.00     0.074 A 
ATOM     70  C   UNL A   1      44.662  26.102  25.918  1.00  0.00     0.031 C 
ATOM     71  C   UNL A   1      45.950  28.183  26.318  1.00  0.00     0.034 A 
BRANCH  58  72
ATOM     72  C   UNL A   1      45.757  33.633  29.281  1.00  0.00     0.023 A 
ATOM     73  C   UNL A   1      45.582  34.741  28.433  1.00  0.00     0.031 A 
ATOM     74  C   UNL A   1      46.592  33.789  30.402  1.00  0.00     0.131 A 
ATOM     75  C   UNL A   1      46.284  35.931  28.683  1.00  0.00     0.055 A 
ATOM     76  C   UNL A   1      47.220  35.001  30.692  1.00  0.00     0.041 A 
ATOM     77  F   UNL A   1      46.820  32.760  31.232  1.00  0.00    -0.206 F 
ATOM     78  C   UNL A   1      47.079  36.077  29.822  1.00  0.00     0.022 A 
BRANCH  75  79
ATOM     79  S   UNL A   1      46.260  37.234  27.421  1.00  0.00     0.124 S 
ATOM     80  O   UNL A   1      46.693  36.501  26.233  1.00  0.00    -0.237 OA
ATOM     81  O   UNL A   1      44.866  37.662  27.435  1.00  0.00    -0.237 OA
ATOM     82  O   UNL A   1      47.220  38.215  27.922  1.00  0.00    -0.744 OA
ENDBRANCH  75  79
ENDBRANCH  58  72
BRANCH  59  83
ATOM     83  C   UNL A   1      40.883  25.047  27.481  1.00  0.00     0.023 A 
ATOM     84  C   UNL A   1      41.500  23.795  27.631  1.00  0.00     0.031 A 
ATOM     85  C   UNL A   1      39.574  25.077  26.966  1.00  0.00     0.131 A 
ATOM     86  C   UNL A   1      40.831  22.631  27.221  1.00  0.00     0.055 A 
ATOM     87  C   UNL A   1      38.889  23.911  26.620  1.00  0.00     0.041 A 
ATOM     88  F   UNL A   1      38.937  26.246  26.794  1.00  0.00    -0.206 F 
ATOM     89  C   UNL A   1      39.524  22.679  26.733  1.00  0.00     0.022 A 
BRANCH  86  90
ATOM     90  S   UNL A   1      41.737  21.059  27.238  1.00  0.00     0.124 S 
ATOM     91  O   UNL A   1      42.070  20.898  25.827  1.00  0.00    -0.237 OA
ATOM     92  O   UNL A   1      42.849  21.361  28.131  1.00  0.00    -0.237 OA
ATOM     93  O   UNL A   1      40.758  20.109  27.761  1.00  0.00    -0.744 OA
ENDBRANCH  86  90
ENDBRANCH  59  83
BRANCH  71  94
ATOM     94  C   UNL A   1      47.056  27.610  25.463  1.00  0.00     0.023 A 
ATOM     95  C   UNL A   1      47.231  27.987  24.120  1.00  0.00     0.031 A 
ATOM     96  C   UNL A   1      47.947  26.665  26.004  1.00  0.00     0.131 A 
ATOM     97  C   UNL A   1      48.231  27.376  23.347  1.00  0.00     0.055 A 
ATOM     98  C   UNL A   1      48.984  26.114  25.250  1.00  0.00     0.041 A 
ATOM     99  F   UNL A   1      47.827  26.262  27.280  1.00  0.00    -0.206 F 
ATOM    100  C   UNL A   1      49.122  26.458  23.909  1.00  0.00     0.022 A 
BRANCH  97 101
ATOM    101  S   UNL A   1      48.286  27.717  21.566  1.00  0.00     0.124 S 
ATOM    102  O   UNL A   1      46.958  28.271  21.323  1.00  0.00    -0.237 OA
ATOM    103  O   UNL A   1      49.396  28.658  21.462  1.00  0.00    -0.237 OA
ATOM    104  O   UNL A   1      48.529  26.404  20.973  1.00  0.00    -0.744 OA
ENDBRANCH  97 101
ENDBRANCH  71  94
ENDBRANCH  45  46
ENDBRANCH  38  40
ENDBRANCH  37  38
ENDBRANCH  36  37
ENDBRANCH  35  36
ENDBRANCH  34  35
ENDBRANCH  33  34
ENDBRANCH   1  33
TORSDOF 24
ENDMDL
MODEL 3
REMARK VINA RESULT:     -10.5      3.391     10.656
REMARK SMILES C[C@@H](C(=O)OCCOCCOC(=O)c1ccc(-c2c3nc(c(-c4cc(S(=O)(=O)[O-])ccc4F)c4ccc([nH]4)c(-c4cc(S(=O)(=O)[O-])ccc4F)c4nc(c(-c5cc(S(=O)(=O)[O-])ccc5F)c5ccc2[nH]5)C=C4)C=C3)cc1)c1ccc(-c2cccc(OC(=O)NCCC3CCCCC3)c2)c(F)c1
REMARK SMILES IDX 6 1 5 2 3 3 4 4 2 5 1 6 77 7 78 8 101 9 79 10 99 11 80 12
REMARK SMILES IDX 100 13 81 14 82 15 98 16 83 17 85 18 84 19 86 20 87 21 88 22
REMARK SMILES IDX 89 23 90 25 91 26 92 27 93 28 97 29 94 30 96 31 95 32 7 33
REMARK SMILES IDX 8 34 9 35 10 36 11 37 12 38 13 39 14 40 15 41 76 42 16 43
REMARK SMILES IDX 75 44 17 45 18 46 19 47 69 48 20 49 74 50 68 51 70 52 21 53
REMARK SMILES IDX 73 54 67 55 66 56 22 58 54 59 34 60 53 61 35 62 38 63 52 64
REMARK SMILES IDX 71 65 36 66 37 67 51 69 72 70 39 71 23 72 24 73 32 74 25 75
REMARK SMILES IDX 31 76 33 77 30 78 26 79 27 80 28 81 29 82 55 83 56 84 64 85
REMARK SMILES IDX 57 86 63 87 65 88 62 89 58 90 59 91 60 92 61 93 40 94 41 95
REMARK SMILES IDX 49 96 42 97 48 98 50 99 47 100 43 101 44 102 45 103 46 104
REMARK H PARENT 89 24 70 57 38 68
REMARK Flexibility Score: inf
ROOT
ATOM      1  C   UNL A   1      35.106  34.449  30.319  1.00  0.00     0.261 C 
ENDROOT
BRANCH   1   2
ATOM      2  O   UNL A   1      34.332  33.439  29.641  1.00  0.00    -0.463 OA
BRANCH   2   3
ATOM      3  C   UNL A   1      34.792  33.062  28.417  1.00  0.00     0.313 C 
ATOM      4  O   UNL A   1      34.753  33.771  27.417  1.00  0.00    -0.252 OA
BRANCH   3   5
ATOM      5  C   UNL A   1      35.383  31.642  28.412  1.00  0.00     0.126 C 
ATOM      6  C   UNL A   1      36.806  31.514  27.861  1.00  0.00     0.025 C 
BRANCH   5   7
ATOM      7  C   UNL A   1      34.412  30.673  27.737  1.00  0.00    -0.031 A 
ATOM      8  C   UNL A   1      34.747  29.340  27.450  1.00  0.00     0.005 A 
ATOM      9  C   UNL A   1      33.185  31.154  27.271  1.00  0.00     0.044 A 
ATOM     10  C   UNL A   1      33.918  28.537  26.654  1.00  0.00     0.012 A 
ATOM     11  C   UNL A   1      32.354  30.343  26.501  1.00  0.00     0.131 A 
ATOM     12  C   UNL A   1      32.712  29.034  26.141  1.00  0.00     0.018 A 
ATOM     13  F   UNL A   1      31.193  30.867  26.073  1.00  0.00    -0.206 F 
BRANCH  12  14
ATOM     14  C   UNL A   1      31.909  28.252  25.185  1.00  0.00    -0.012 A 
ATOM     15  C   UNL A   1      31.617  28.710  23.892  1.00  0.00     0.009 A 
ATOM     16  C   UNL A   1      31.379  27.012  25.584  1.00  0.00     0.056 A 
ATOM     17  C   UNL A   1      30.835  27.943  23.020  1.00  0.00     0.004 A 
ATOM     18  C   UNL A   1      30.585  26.255  24.726  1.00  0.00     0.133 A 
ATOM     19  C   UNL A   1      30.321  26.713  23.437  1.00  0.00     0.047 A 
BRANCH  18  20
ATOM     20  O   UNL A   1      30.013  25.006  25.072  1.00  0.00    -0.410 OA
BRANCH  20  21
ATOM     21  C   UNL A   1      29.500  24.693  26.328  1.00  0.00     0.412 C 
ATOM     22  O   UNL A   1      28.728  25.372  27.000  1.00  0.00    -0.224 OA
ATOM     23  N   UNL A   1      29.909  23.487  26.813  1.00  0.00    -0.321 N 
ATOM     24  H   UNL A   1      29.536  23.225  27.685  1.00  0.00     0.167 HD
BRANCH  23  25
ATOM     25  C   UNL A   1      30.822  22.544  26.208  1.00  0.00     0.119 C 
BRANCH  25  26
ATOM     26  C   UNL A   1      32.241  22.719  26.751  1.00  0.00     0.025 C 
BRANCH  26  27
ATOM     27  C   UNL A   1      33.264  23.248  25.721  1.00  0.00    -0.009 C 
ATOM     28  C   UNL A   1      32.761  23.090  24.276  1.00  0.00     0.003 C 
ATOM     29  C   UNL A   1      33.599  24.718  26.023  1.00  0.00     0.003 C 
ATOM     30  C   UNL A   1      33.729  23.695  23.261  1.00  0.00     0.000 C 
ATOM     31  C   UNL A   1      34.578  25.297  25.005  1.00  0.00     0.000 C 
ATOM     32  C   UNL A   1      34.053  25.149  23.583  1.00  0.00     0.000 C 
ENDBRANCH  26  27
ENDBRANCH  25  26
ENDBRANCH  23  25
ENDBRANCH  20  21
ENDBRANCH  18  20
ENDBRANCH  12  14
ENDBRANCH   5   7
ENDBRANCH   3   5
ENDBRANCH   2   3
ENDBRANCH   1   2
BRANCH   1  33
ATOM     33  C   UNL A   1      34.308  35.109  31.450  1.00  0.00     0.202 C 
BRANCH  33  34
ATOM     34  O   UNL A   1      33.178  34.406  31.966  1.00  0.00    -0.374 OA
BRANCH  34  35
ATOM     35  C   UNL A   1      33.368  33.625  33.139  1.00  0.00     0.202 C 
BRANCH  35  36
ATOM     36  C   UNL A   1      34.790  33.477  33.701  1.00  0.00     0.261 C 
BRANCH  36  37
ATOM     37  O   UNL A   1      35.497  32.348  33.167  1.00  0.00    -0.460 OA
BRANCH  37  38
ATOM     38  C   UNL A   1      36.689  32.116  33.776  1.00  0.00     0.338 C 
ATOM     39  O   UNL A   1      36.969  32.328  34.943  1.00  0.00    -0.246 OA
BRANCH  38  40
ATOM     40  C   UNL A   1      37.581  31.365  32.871  1.00  0.00     0.060 A 
ATOM     41  C   UNL A   1      38.566  30.566  33.466  1.00  0.00     0.016 A 
ATOM     42  C   UNL A   1      37.509  31.496  31.484  1.00  0.00     0.016 A 
ATOM     43  C   UNL A   1      39.519  29.933  32.675  1.00  0.00     0.010 A 
ATOM     44  C   UNL A   1      38.475  30.866  30.692  1.00  0.00     0.010 A 
ATOM     45  C   UNL A   1      39.506  30.114  31.288  1.00  0.00    -0.014 A 
BRANCH  45  46
ATOM     46  C   UNL A   1      40.663  29.644  30.486  1.00  0.00     0.031 A 
ATOM     47  C   UNL A   1      41.851  30.553  30.324  1.00  0.00     0.074 A 
ATOM     48  C   UNL A   1      40.675  28.407  29.959  1.00  0.00     0.049 A 
ATOM     49  N   UNL A   1      42.953  30.367  29.646  1.00  0.00    -0.248 NA
ATOM     50  C   UNL A   1      41.782  31.848  31.019  1.00  0.00     0.031 C 
ATOM     51  C   UNL A   1      39.606  27.419  30.106  1.00  0.00     0.029 A 
ATOM     52  N   UNL A   1      41.619  27.770  29.195  1.00  0.00    -0.354 N 
ATOM     53  C   UNL A   1      43.705  31.524  29.822  1.00  0.00     0.074 A 
ATOM     54  C   UNL A   1      42.915  32.419  30.641  1.00  0.00     0.031 C 
ATOM     55  C   UNL A   1      39.956  26.299  29.451  1.00  0.00     0.029 A 
ATOM     56  C   UNL A   1      41.246  26.507  28.799  1.00  0.00     0.049 A 
ATOM     57  H   UNL A   1      42.481  28.178  28.953  1.00  0.00     0.167 HD
ATOM     58  C   UNL A   1      44.945  31.807  29.348  1.00  0.00     0.034 A 
ATOM     59  C   UNL A   1      41.866  25.630  27.981  1.00  0.00     0.034 A 
ATOM     60  C   UNL A   1      45.713  30.901  28.529  1.00  0.00     0.049 A 
ATOM     61  C   UNL A   1      43.201  26.009  27.385  1.00  0.00     0.074 A 
ATOM     62  C   UNL A   1      46.984  31.077  28.012  1.00  0.00     0.029 A 
ATOM     63  N   UNL A   1      45.278  29.655  28.095  1.00  0.00    -0.354 N 
ATOM     64  N   UNL A   1      43.906  27.105  27.561  1.00  0.00    -0.248 NA
ATOM     65  C   UNL A   1      43.827  25.031  26.486  1.00  0.00     0.031 C 
ATOM     66  C   UNL A   1      47.280  29.981  27.195  1.00  0.00     0.029 A 
ATOM     67  C   UNL A   1      46.237  29.073  27.281  1.00  0.00     0.049 A 
ATOM     68  H   UNL A   1      44.415  29.245  28.331  1.00  0.00     0.167 HD
ATOM     69  C   UNL A   1      45.075  26.927  26.823  1.00  0.00     0.074 A 
ATOM     70  C   UNL A   1      44.983  25.616  26.214  1.00  0.00     0.031 C 
ATOM     71  C   UNL A   1      46.131  27.767  26.670  1.00  0.00     0.034 A 
BRANCH  58  72
ATOM     72  C   UNL A   1      45.514  33.174  29.652  1.00  0.00     0.023 A 
ATOM     73  C   UNL A   1      45.299  34.277  28.807  1.00  0.00     0.031 A 
ATOM     74  C   UNL A   1      46.303  33.370  30.799  1.00  0.00     0.131 A 
ATOM     75  C   UNL A   1      45.920  35.505  29.087  1.00  0.00     0.055 A 
ATOM     76  C   UNL A   1      46.848  34.615  31.117  1.00  0.00     0.041 A 
ATOM     77  F   UNL A   1      46.567  32.349  31.630  1.00  0.00    -0.206 F 
ATOM     78  C   UNL A   1      46.670  35.688  30.251  1.00  0.00     0.022 A 
BRANCH  75  79
ATOM     79  S   UNL A   1      45.857  36.815  27.835  1.00  0.00     0.124 S 
ATOM     80  O   UNL A   1      47.262  36.918  27.445  1.00  0.00    -0.237 OA
ATOM     81  O   UNL A   1      44.957  36.254  26.835  1.00  0.00    -0.237 OA
ATOM     82  O   UNL A   1      45.337  37.966  28.568  1.00  0.00    -0.744 OA
ENDBRANCH  75  79
ENDBRANCH  58  72
BRANCH  59  83
ATOM     83  C   UNL A   1      41.222  24.329  27.638  1.00  0.00     0.023 A 
ATOM     84  C   UNL A   1      40.078  24.277  26.825  1.00  0.00     0.031 A 
ATOM     85  C   UNL A   1      41.704  23.120  28.172  1.00  0.00     0.131 A 
ATOM     86  C   UNL A   1      39.426  23.053  26.613  1.00  0.00     0.055 A 
ATOM     87  C   UNL A   1      41.088  21.896  27.905  1.00  0.00     0.041 A 
ATOM     88  F   UNL A   1      42.790  23.110  28.961  1.00  0.00    -0.206 F 
ATOM     89  C   UNL A   1      39.931  21.860  27.133  1.00  0.00     0.022 A 
BRANCH  86  90
ATOM     90  S   UNL A   1      37.839  23.057  25.731  1.00  0.00     0.124 S 
ATOM     91  O   UNL A   1      36.912  23.420  26.797  1.00  0.00    -0.237 OA
ATOM     92  O   UNL A   1      38.067  24.069  24.705  1.00  0.00    -0.237 OA
ATOM     93  O   UNL A   1      37.721  21.687  25.239  1.00  0.00    -0.744 OA
ENDBRANCH  86  90
ENDBRANCH  59  83
BRANCH  71  94
ATOM     94  C   UNL A   1      47.299  27.266  25.851  1.00  0.00     0.023 A 
ATOM     95  C   UNL A   1      48.396  26.612  26.439  1.00  0.00     0.031 A 
ATOM     96  C   UNL A   1      47.314  27.455  24.457  1.00  0.00     0.131 A 
ATOM     97  C   UNL A   1      49.487  26.226  25.645  1.00  0.00     0.055 A 
ATOM     98  C   UNL A   1      48.371  27.006  23.664  1.00  0.00     0.041 A 
ATOM     99  F   UNL A   1      46.298  28.079  23.839  1.00  0.00    -0.206 F 
ATOM    100  C   UNL A   1      49.472  26.400  24.259  1.00  0.00     0.022 A 
BRANCH  97 101
ATOM    101  S   UNL A   1      50.976  25.590  26.462  1.00  0.00     0.124 S 
ATOM    102  O   UNL A   1      51.818  25.235  25.324  1.00  0.00    -0.237 OA
ATOM    103  O   UNL A   1      51.417  26.739  27.246  1.00  0.00    -0.237 OA
ATOM    104  O   UNL A   1      50.483  24.459  27.245  1.00  0.00    -0.744 OA
ENDBRANCH  97 101
ENDBRANCH  71  94
ENDBRANCH  45  46
ENDBRANCH  38  40
ENDBRANCH  37  38
ENDBRANCH  36  37
ENDBRANCH  35  36
ENDBRANCH  34  35
ENDBRANCH  33  34
ENDBRANCH   1  33
TORSDOF 24
ENDMDL
