MODEL 1
REMARK VINA RESULT:     -12.1      0.000      0.000
REMARK SMILES Cc1cc2c(c(C)c1Cl)C=C(C(=O)OCCOCCOC(=O)c1ccc(-c3c4nc(c(-c5cc(S(=O)(=O)[O-])ccc5F)c5ccc([nH]5)c(-c5cc(S(=O)(=O)[O-])ccc5F)c5nc(c(-c6cc(S(=O)(=O)[O-])ccc6F)c6ccc3[nH]6)C=C5)C=C4)cc1)[C@H](C(F)(F)F)O2
REMARK SMILES IDX 18 1 17 2 16 3 15 4 14 5 12 6 13 7 11 8 1 9 2 10 3 11 8 12
REMARK SMILES IDX 4 13 6 14 9 15 5 16 91 17 7 18 10 19 86 20 87 21 88 22 89 23
REMARK SMILES IDX 90 24 19 25 20 26 21 27 22 28 23 29 24 30 85 31 25 32 84 33
REMARK SMILES IDX 26 34 27 35 28 36 78 37 29 38 83 39 77 40 79 41 30 42 82 43
REMARK SMILES IDX 76 44 75 45 31 47 63 48 43 49 62 50 44 51 47 52 61 53 80 54
REMARK SMILES IDX 45 55 46 56 60 58 81 59 48 60 32 61 33 62 41 63 34 64 40 65
REMARK SMILES IDX 42 66 39 67 35 68 36 69 37 70 38 71 64 72 65 73 73 74 66 75
REMARK SMILES IDX 72 76 74 77 71 78 67 79 68 80 69 81 70 82 49 83 50 84 58 85
REMARK SMILES IDX 51 86 57 87 59 88 56 89 52 90 53 91 54 92 55 93
REMARK H PARENT 79 46 47 57
REMARK Flexibility Score: inf
ROOT
ATOM      1  C   UNL A   1      32.564  29.519  24.958  1.00  0.00     0.202 C 
ENDROOT
BRANCH   1   2
ATOM      2  O   UNL A   1      31.646  29.341  23.876  1.00  0.00    -0.374 OA
BRANCH   2   3
ATOM      3  C   UNL A   1      32.082  28.528  22.785  1.00  0.00     0.202 C 
BRANCH   3   4
ATOM      4  C   UNL A   1      33.368  27.734  23.029  1.00  0.00     0.261 C 
BRANCH   4   5
ATOM      5  O   UNL A   1      33.598  26.804  21.956  1.00  0.00    -0.460 OA
BRANCH   5   6
ATOM      6  C   UNL A   1      32.555  26.002  21.668  1.00  0.00     0.338 C 
ATOM      7  O   UNL A   1      31.842  26.065  20.677  1.00  0.00    -0.246 OA
BRANCH   6   8
ATOM      8  C   UNL A   1      32.448  24.924  22.667  1.00  0.00     0.087 C 
ATOM      9  C   UNL A   1      33.089  19.164  25.553  1.00  0.00     0.046 C 
ATOM     10  C   UNL A   1      33.282  20.542  24.977  1.00  0.00    -0.028 A 
ATOM     11  C   UNL A   1      32.149  21.316  24.694  1.00  0.00     0.052 A 
ATOM     12  C   UNL A   1      34.558  21.044  24.647  1.00  0.00     0.047 A 
ATOM     13  C   UNL A   1      32.271  22.550  24.063  1.00  0.00     0.128 A 
ATOM     14  C   UNL A   1      34.703  22.307  24.032  1.00  0.00    -0.021 A 
ATOM     15  Cl  UNL A   1      35.951  20.051  24.958  1.00  0.00    -0.084 Cl
ATOM     16  C   UNL A   1      33.535  23.037  23.704  1.00  0.00     0.022 A 
ATOM     17  O   UNL A   1      31.093  23.178  23.747  1.00  0.00    -0.475 OA
ATOM     18  C   UNL A   1      36.060  22.875  23.680  1.00  0.00     0.047 C 
ATOM     19  C   UNL A   1      33.578  24.231  22.867  1.00  0.00     0.027 C 
ATOM     20  C   UNL A   1      31.152  24.578  23.342  1.00  0.00     0.316 C 
BRANCH  20  21
ATOM     21  C   UNL A   1      30.798  25.473  24.547  1.00  0.00     0.430 C 
ATOM     22  F   UNL A   1      30.137  24.792  25.514  1.00  0.00    -0.167 F 
ATOM     23  F   UNL A   1      31.892  26.025  25.116  1.00  0.00    -0.167 F 
ATOM     24  F   UNL A   1      30.001  26.505  24.173  1.00  0.00    -0.167 F 
ENDBRANCH  20  21
ENDBRANCH   6   8
ENDBRANCH   5   6
ENDBRANCH   4   5
ENDBRANCH   3   4
ENDBRANCH   2   3
ENDBRANCH   1   2
BRANCH   1  25
ATOM     25  C   UNL A   1      32.074  30.356  26.146  1.00  0.00     0.261 C 
BRANCH  25  26
ATOM     26  O   UNL A   1      32.977  30.261  27.262  1.00  0.00    -0.460 OA
BRANCH  26  27
ATOM     27  C   UNL A   1      33.704  31.379  27.497  1.00  0.00     0.338 C 
ATOM     28  O   UNL A   1      33.277  32.520  27.603  1.00  0.00    -0.246 OA
BRANCH  27  29
ATOM     29  C   UNL A   1      35.096  31.020  27.830  1.00  0.00     0.060 A 
ATOM     30  C   UNL A   1      35.382  29.657  27.989  1.00  0.00     0.016 A 
ATOM     31  C   UNL A   1      36.079  31.983  28.062  1.00  0.00     0.016 A 
ATOM     32  C   UNL A   1      36.630  29.254  28.454  1.00  0.00     0.010 A 
ATOM     33  C   UNL A   1      37.329  31.579  28.547  1.00  0.00     0.010 A 
ATOM     34  C   UNL A   1      37.589  30.218  28.791  1.00  0.00    -0.014 A 
BRANCH  34  35
ATOM     35  C   UNL A   1      38.756  29.813  29.611  1.00  0.00     0.031 A 
ATOM     36  C   UNL A   1      39.706  28.794  29.040  1.00  0.00     0.074 A 
ATOM     37  C   UNL A   1      39.011  30.385  30.801  1.00  0.00     0.049 A 
ATOM     38  N   UNL A   1      40.751  28.232  29.587  1.00  0.00    -0.248 NA
ATOM     39  C   UNL A   1      39.443  28.356  27.659  1.00  0.00     0.031 C 
ATOM     40  C   UNL A   1      38.220  31.451  31.414  1.00  0.00     0.029 A 
ATOM     41  N   UNL A   1      40.018  30.151  31.702  1.00  0.00    -0.354 N 
ATOM     42  C   UNL A   1      41.269  27.375  28.623  1.00  0.00     0.074 A 
ATOM     43  C   UNL A   1      40.407  27.471  27.464  1.00  0.00     0.031 C 
ATOM     44  C   UNL A   1      38.774  31.779  32.595  1.00  0.00     0.029 A 
ATOM     45  C   UNL A   1      39.929  30.917  32.840  1.00  0.00     0.049 A 
ATOM     46  H   UNL A   1      40.737  29.497  31.549  1.00  0.00     0.167 HD
ATOM     47  C   UNL A   1      42.366  26.584  28.693  1.00  0.00     0.034 A 
ATOM     48  C   UNL A   1      40.678  30.902  33.961  1.00  0.00     0.034 A 
ATOM     49  C   UNL A   1      43.212  26.489  29.854  1.00  0.00     0.049 A 
ATOM     50  C   UNL A   1      41.821  29.922  34.065  1.00  0.00     0.074 A 
ATOM     51  C   UNL A   1      44.332  25.698  30.042  1.00  0.00     0.029 A 
ATOM     52  N   UNL A   1      43.031  27.207  31.028  1.00  0.00    -0.354 N 
ATOM     53  N   UNL A   1      42.258  29.062  33.174  1.00  0.00    -0.248 NA
ATOM     54  C   UNL A   1      42.563  29.905  35.333  1.00  0.00     0.031 C 
ATOM     55  C   UNL A   1      44.792  25.894  31.348  1.00  0.00     0.029 A 
ATOM     56  C   UNL A   1      44.000  26.856  31.955  1.00  0.00     0.049 A 
ATOM     57  H   UNL A   1      42.318  27.868  31.180  1.00  0.00     0.167 HD
ATOM     58  C   UNL A   1      43.332  28.409  33.773  1.00  0.00     0.074 A 
ATOM     59  C   UNL A   1      43.488  28.988  35.091  1.00  0.00     0.031 C 
ATOM     60  C   UNL A   1      44.119  27.419  33.278  1.00  0.00     0.034 A 
BRANCH  47  61
ATOM     61  C   UNL A   1      42.676  25.723  27.497  1.00  0.00     0.023 A 
ATOM     62  C   UNL A   1      42.226  24.395  27.408  1.00  0.00     0.031 A 
ATOM     63  C   UNL A   1      43.437  26.240  26.435  1.00  0.00     0.131 A 
ATOM     64  C   UNL A   1      42.577  23.613  26.297  1.00  0.00     0.055 A 
ATOM     65  C   UNL A   1      43.732  25.476  25.304  1.00  0.00     0.041 A 
ATOM     66  F   UNL A   1      43.911  27.495  26.481  1.00  0.00    -0.206 F 
ATOM     67  C   UNL A   1      43.307  24.152  25.234  1.00  0.00     0.022 A 
BRANCH  64  68
ATOM     68  S   UNL A   1      42.135  21.854  26.290  1.00  0.00     0.124 S 
ATOM     69  O   UNL A   1      40.710  21.912  25.974  1.00  0.00    -0.237 OA
ATOM     70  O   UNL A   1      42.999  21.313  25.247  1.00  0.00    -0.237 OA
ATOM     71  O   UNL A   1      42.449  21.417  27.649  1.00  0.00    -0.744 OA
ENDBRANCH  64  68
ENDBRANCH  47  61
BRANCH  48  72
ATOM     72  C   UNL A   1      40.341  31.797  35.101  1.00  0.00     0.023 A 
ATOM     73  C   UNL A   1      39.328  31.461  36.013  1.00  0.00     0.031 A 
ATOM     74  C   UNL A   1      41.010  33.023  35.275  1.00  0.00     0.131 A 
ATOM     75  C   UNL A   1      38.996  32.353  37.045  1.00  0.00     0.055 A 
ATOM     76  C   UNL A   1      40.702  33.888  36.326  1.00  0.00     0.041 A 
ATOM     77  F   UNL A   1      41.985  33.389  34.428  1.00  0.00    -0.206 F 
ATOM     78  C   UNL A   1      39.684  33.556  37.215  1.00  0.00     0.022 A 
BRANCH  75  79
ATOM     79  S   UNL A   1      37.624  31.931  38.154  1.00  0.00     0.124 S 
ATOM     80  O   UNL A   1      36.605  32.890  37.743  1.00  0.00    -0.237 OA
ATOM     81  O   UNL A   1      37.369  30.536  37.809  1.00  0.00    -0.237 OA
ATOM     82  O   UNL A   1      38.185  32.146  39.486  1.00  0.00    -0.744 OA
ENDBRANCH  75  79
ENDBRANCH  48  72
BRANCH  60  83
ATOM     83  C   UNL A   1      45.221  26.907  34.171  1.00  0.00     0.023 A 
ATOM     84  C   UNL A   1      45.018  25.812  35.027  1.00  0.00     0.031 A 
ATOM     85  C   UNL A   1      46.487  27.519  34.164  1.00  0.00     0.131 A 
ATOM     86  C   UNL A   1      46.049  25.391  35.878  1.00  0.00     0.055 A 
ATOM     87  C   UNL A   1      47.527  27.061  34.973  1.00  0.00     0.041 A 
ATOM     88  F   UNL A   1      46.734  28.569  33.365  1.00  0.00    -0.206 F 
ATOM     89  C   UNL A   1      47.308  25.998  35.845  1.00  0.00     0.022 A 
BRANCH  86  90
ATOM     90  S   UNL A   1      45.702  24.083  37.085  1.00  0.00     0.124 S 
ATOM     91  O   UNL A   1      45.098  23.051  36.248  1.00  0.00    -0.237 OA
ATOM     92  O   UNL A   1      47.030  23.781  37.611  1.00  0.00    -0.237 OA
ATOM     93  O   UNL A   1      44.793  24.724  38.034  1.00  0.00    -0.744 OA
ENDBRANCH  86  90
ENDBRANCH  60  83
ENDBRANCH  34  35
ENDBRANCH  27  29
ENDBRANCH  26  27
ENDBRANCH  25  26
ENDBRANCH   1  25
TORSDOF 18
ENDMDL
MODEL 2
REMARK VINA RESULT:     -12.1      5.181     10.030
REMARK SMILES Cc1cc2c(c(C)c1Cl)C=C(C(=O)OCCOCCOC(=O)c1ccc(-c3c4nc(c(-c5cc(S(=O)(=O)[O-])ccc5F)c5ccc([nH]5)c(-c5cc(S(=O)(=O)[O-])ccc5F)c5nc(c(-c6cc(S(=O)(=O)[O-])ccc6F)c6ccc3[nH]6)C=C5)C=C4)cc1)[C@H](C(F)(F)F)O2
REMARK SMILES IDX 18 1 17 2 16 3 15 4 14 5 12 6 13 7 11 8 1 9 2 10 3 11 8 12
REMARK SMILES IDX 4 13 6 14 9 15 5 16 91 17 7 18 10 19 86 20 87 21 88 22 89 23
REMARK SMILES IDX 90 24 19 25 20 26 21 27 22 28 23 29 24 30 85 31 25 32 84 33
REMARK SMILES IDX 26 34 27 35 28 36 78 37 29 38 83 39 77 40 79 41 30 42 82 43
REMARK SMILES IDX 76 44 75 45 31 47 63 48 43 49 62 50 44 51 47 52 61 53 80 54
REMARK SMILES IDX 45 55 46 56 60 58 81 59 48 60 32 61 33 62 41 63 34 64 40 65
REMARK SMILES IDX 42 66 39 67 35 68 36 69 37 70 38 71 64 72 65 73 73 74 66 75
REMARK SMILES IDX 72 76 74 77 71 78 67 79 68 80 69 81 70 82 49 83 50 84 58 85
REMARK SMILES IDX 51 86 57 87 59 88 56 89 52 90 53 91 54 92 55 93
REMARK H PARENT 79 46 47 57
REMARK Flexibility Score: inf
ROOT
ATOM      1  C   UNL A   1      35.824  19.832  25.006  1.00  0.00     0.202 C 
ENDROOT
BRANCH   1   2
ATOM      2  O   UNL A   1      34.865  20.871  24.789  1.00  0.00    -0.374 OA
BRANCH   2   3
ATOM      3  C   UNL A   1      33.877  21.061  25.803  1.00  0.00     0.202 C 
BRANCH   3   4
ATOM      4  C   UNL A   1      34.319  21.901  27.003  1.00  0.00     0.261 C 
BRANCH   4   5
ATOM      5  O   UNL A   1      33.949  23.279  26.818  1.00  0.00    -0.460 OA
BRANCH   5   6
ATOM      6  C   UNL A   1      32.624  23.518  26.844  1.00  0.00     0.338 C 
ATOM      7  O   UNL A   1      31.809  23.012  27.602  1.00  0.00    -0.246 OA
BRANCH   6   8
ATOM      8  C   UNL A   1      32.278  24.594  25.898  1.00  0.00     0.087 C 
ATOM      9  C   UNL A   1      29.800  30.069  23.489  1.00  0.00     0.046 C 
ATOM     10  C   UNL A   1      30.613  29.018  24.198  1.00  0.00    -0.028 A 
ATOM     11  C   UNL A   1      30.504  27.686  23.776  1.00  0.00     0.052 A 
ATOM     12  C   UNL A   1      31.420  29.321  25.315  1.00  0.00     0.047 A 
ATOM     13  C   UNL A   1      31.151  26.667  24.467  1.00  0.00     0.128 A 
ATOM     14  C   UNL A   1      32.108  28.303  26.011  1.00  0.00    -0.021 A 
ATOM     15  Cl  UNL A   1      31.506  30.971  25.857  1.00  0.00    -0.084 Cl
ATOM     16  C   UNL A   1      31.926  26.961  25.596  1.00  0.00     0.022 A 
ATOM     17  O   UNL A   1      30.897  25.393  24.026  1.00  0.00    -0.475 OA
ATOM     18  C   UNL A   1      32.989  28.602  27.203  1.00  0.00     0.047 C 
ATOM     19  C   UNL A   1      32.405  25.834  26.390  1.00  0.00     0.027 C 
ATOM     20  C   UNL A   1      31.747  24.316  24.521  1.00  0.00     0.316 C 
BRANCH  20  21
ATOM     21  C   UNL A   1      32.829  23.995  23.470  1.00  0.00     0.430 C 
ATOM     22  F   UNL A   1      32.594  24.615  22.288  1.00  0.00    -0.167 F 
ATOM     23  F   UNL A   1      34.065  24.355  23.877  1.00  0.00    -0.167 F 
ATOM     24  F   UNL A   1      32.884  22.663  23.215  1.00  0.00    -0.167 F 
ENDBRANCH  20  21
ENDBRANCH   6   8
ENDBRANCH   5   6
ENDBRANCH   4   5
ENDBRANCH   3   4
ENDBRANCH   2   3
ENDBRANCH   1   2
BRANCH   1  25
ATOM     25  C   UNL A   1      37.273  20.139  24.610  1.00  0.00     0.261 C 
BRANCH  25  26
ATOM     26  O   UNL A   1      37.809  21.225  25.389  1.00  0.00    -0.460 OA
BRANCH  26  27
ATOM     27  C   UNL A   1      39.027  20.985  25.929  1.00  0.00     0.338 C 
ATOM     28  O   UNL A   1      39.730  20.002  25.741  1.00  0.00    -0.246 OA
BRANCH  27  29
ATOM     29  C   UNL A   1      39.516  22.186  26.632  1.00  0.00     0.060 A 
ATOM     30  C   UNL A   1      38.958  23.416  26.258  1.00  0.00     0.016 A 
ATOM     31  C   UNL A   1      40.547  22.131  27.572  1.00  0.00     0.016 A 
ATOM     32  C   UNL A   1      39.479  24.603  26.763  1.00  0.00     0.010 A 
ATOM     33  C   UNL A   1      41.082  23.326  28.067  1.00  0.00     0.010 A 
ATOM     34  C   UNL A   1      40.582  24.565  27.625  1.00  0.00    -0.014 A 
BRANCH  34  35
ATOM     35  C   UNL A   1      41.347  25.812  27.868  1.00  0.00     0.031 A 
ATOM     36  C   UNL A   1      40.672  26.922  28.630  1.00  0.00     0.074 A 
ATOM     37  C   UNL A   1      42.631  25.934  27.488  1.00  0.00     0.049 A 
ATOM     38  N   UNL A   1      41.104  28.124  28.905  1.00  0.00    -0.248 NA
ATOM     39  C   UNL A   1      39.329  26.630  29.159  1.00  0.00     0.031 C 
ATOM     40  C   UNL A   1      43.421  24.894  26.831  1.00  0.00     0.029 A 
ATOM     41  N   UNL A   1      43.498  26.989  27.611  1.00  0.00    -0.354 N 
ATOM     42  C   UNL A   1      40.090  28.733  29.636  1.00  0.00     0.074 A 
ATOM     43  C   UNL A   1      39.009  27.775  29.739  1.00  0.00     0.031 C 
ATOM     44  C   UNL A   1      44.661  25.366  26.608  1.00  0.00     0.029 A 
ATOM     45  C   UNL A   1      44.737  26.753  27.064  1.00  0.00     0.049 A 
ATOM     46  H   UNL A   1      43.256  27.837  28.049  1.00  0.00     0.167 HD
ATOM     47  C   UNL A   1      40.062  29.973  30.177  1.00  0.00     0.034 A 
ATOM     48  C   UNL A   1      45.798  27.572  26.925  1.00  0.00     0.034 A 
ATOM     49  C   UNL A   1      41.140  30.922  30.062  1.00  0.00     0.049 A 
ATOM     50  C   UNL A   1      45.698  28.992  27.425  1.00  0.00     0.074 A 
ATOM     51  C   UNL A   1      41.205  32.216  30.548  1.00  0.00     0.029 A 
ATOM     52  N   UNL A   1      42.342  30.681  29.411  1.00  0.00    -0.354 N 
ATOM     53  N   UNL A   1      44.705  29.582  28.051  1.00  0.00    -0.248 NA
ATOM     54  C   UNL A   1      46.862  29.859  27.190  1.00  0.00     0.031 C 
ATOM     55  C   UNL A   1      42.420  32.775  30.141  1.00  0.00     0.029 A 
ATOM     56  C   UNL A   1      43.144  31.811  29.458  1.00  0.00     0.049 A 
ATOM     57  H   UNL A   1      42.589  29.831  28.980  1.00  0.00     0.167 HD
ATOM     58  C   UNL A   1      45.129  30.886  28.290  1.00  0.00     0.074 A 
ATOM     59  C   UNL A   1      46.474  30.990  27.760  1.00  0.00     0.031 C 
ATOM     60  C   UNL A   1      44.468  31.907  28.893  1.00  0.00     0.034 A 
BRANCH  47  61
ATOM     61  C   UNL A   1      38.805  30.388  30.895  1.00  0.00     0.023 A 
ATOM     62  C   UNL A   1      37.756  31.042  30.228  1.00  0.00     0.031 A 
ATOM     63  C   UNL A   1      38.660  30.128  32.269  1.00  0.00     0.131 A 
ATOM     64  C   UNL A   1      36.622  31.452  30.946  1.00  0.00     0.055 A 
ATOM     65  C   UNL A   1      37.504  30.484  32.965  1.00  0.00     0.041 A 
ATOM     66  F   UNL A   1      39.643  29.528  32.958  1.00  0.00    -0.206 F 
ATOM     67  C   UNL A   1      36.480  31.157  32.304  1.00  0.00     0.022 A 
BRANCH  64  68
ATOM     68  S   UNL A   1      35.365  32.448  30.100  1.00  0.00     0.124 S 
ATOM     69  O   UNL A   1      34.950  31.547  29.028  1.00  0.00    -0.237 OA
ATOM     70  O   UNL A   1      34.384  32.683  31.153  1.00  0.00    -0.237 OA
ATOM     71  O   UNL A   1      36.103  33.631  29.661  1.00  0.00    -0.744 OA
ENDBRANCH  64  68
ENDBRANCH  47  61
BRANCH  48  72
ATOM     72  C   UNL A   1      47.026  27.098  26.230  1.00  0.00     0.023 A 
ATOM     73  C   UNL A   1      48.059  26.462  26.937  1.00  0.00     0.031 A 
ATOM     74  C   UNL A   1      47.198  27.307  24.850  1.00  0.00     0.131 A 
ATOM     75  C   UNL A   1      49.229  26.077  26.264  1.00  0.00     0.055 A 
ATOM     76  C   UNL A   1      48.347  26.887  24.178  1.00  0.00     0.041 A 
ATOM     77  F   UNL A   1      46.239  27.912  24.131  1.00  0.00    -0.206 F 
ATOM     78  C   UNL A   1      49.375  26.274  24.889  1.00  0.00     0.022 A 
BRANCH  75  79
ATOM     79  S   UNL A   1      50.582  25.337  27.220  1.00  0.00     0.124 S 
ATOM     80  O   UNL A   1      50.977  26.446  28.082  1.00  0.00    -0.237 OA
ATOM     81  O   UNL A   1      49.915  24.218  27.877  1.00  0.00    -0.237 OA
ATOM     82  O   UNL A   1      51.556  24.963  26.196  1.00  0.00    -0.744 OA
ENDBRANCH  75  79
ENDBRANCH  48  72
BRANCH  60  83
ATOM     83  C   UNL A   1      45.197  33.221  29.012  1.00  0.00     0.023 A 
ATOM     84  C   UNL A   1      45.356  34.072  27.905  1.00  0.00     0.031 A 
ATOM     85  C   UNL A   1      45.735  33.629  30.246  1.00  0.00     0.131 A 
ATOM     86  C   UNL A   1      46.079  35.265  28.040  1.00  0.00     0.055 A 
ATOM     87  C   UNL A   1      46.406  34.844  30.387  1.00  0.00     0.041 A 
ATOM     88  F   UNL A   1      45.610  32.855  31.335  1.00  0.00    -0.206 F 
ATOM     89  C   UNL A   1      46.591  35.665  29.278  1.00  0.00     0.022 A 
BRANCH  86  90
ATOM     90  S   UNL A   1      46.407  36.256  26.557  1.00  0.00     0.124 S 
ATOM     91  O   UNL A   1      45.782  35.451  25.511  1.00  0.00    -0.237 OA
ATOM     92  O   UNL A   1      45.744  37.518  26.870  1.00  0.00    -0.237 OA
ATOM     93  O   UNL A   1      47.866  36.320  26.503  1.00  0.00    -0.744 OA
ENDBRANCH  86  90
ENDBRANCH  60  83
ENDBRANCH  34  35
ENDBRANCH  27  29
ENDBRANCH  26  27
ENDBRANCH  25  26
ENDBRANCH   1  25
TORSDOF 18
ENDMDL
MODEL 3
REMARK VINA RESULT:     -12.0      5.148     10.099
REMARK SMILES Cc1cc2c(c(C)c1Cl)C=C(C(=O)OCCOCCOC(=O)c1ccc(-c3c4nc(c(-c5cc(S(=O)(=O)[O-])ccc5F)c5ccc([nH]5)c(-c5cc(S(=O)(=O)[O-])ccc5F)c5nc(c(-c6cc(S(=O)(=O)[O-])ccc6F)c6ccc3[nH]6)C=C5)C=C4)cc1)[C@H](C(F)(F)F)O2
REMARK SMILES IDX 18 1 17 2 16 3 15 4 14 5 12 6 13 7 11 8 1 9 2 10 3 11 8 12
REMARK SMILES IDX 4 13 6 14 9 15 5 16 91 17 7 18 10 19 86 20 87 21 88 22 89 23
REMARK SMILES IDX 90 24 19 25 20 26 21 27 22 28 23 29 24 30 85 31 25 32 84 33
REMARK SMILES IDX 26 34 27 35 28 36 78 37 29 38 83 39 77 40 79 41 30 42 82 43
REMARK SMILES IDX 76 44 75 45 31 47 63 48 43 49 62 50 44 51 47 52 61 53 80 54
REMARK SMILES IDX 45 55 46 56 60 58 81 59 48 60 32 61 33 62 41 63 34 64 40 65
REMARK SMILES IDX 42 66 39 67 35 68 36 69 37 70 38 71 64 72 65 73 73 74 66 75
REMARK SMILES IDX 72 76 74 77 71 78 67 79 68 80 69 81 70 82 49 83 50 84 58 85
REMARK SMILES IDX 51 86 57 87 59 88 56 89 52 90 53 91 54 92 55 93
REMARK H PARENT 79 46 47 57
REMARK Flexibility Score: inf
ROOT
ATOM      1  C   UNL A   1      35.817  20.626  25.049  1.00  0.00     0.202 C 
ENDROOT
BRANCH   1   2
ATOM      2  O   UNL A   1      35.443  21.799  24.319  1.00  0.00    -0.374 OA
BRANCH   2   3
ATOM      3  C   UNL A   1      34.346  22.558  24.832  1.00  0.00     0.202 C 
BRANCH   3   4
ATOM      4  C   UNL A   1      34.721  23.687  25.796  1.00  0.00     0.261 C 
BRANCH   4   5
ATOM      5  O   UNL A   1      34.174  24.938  25.342  1.00  0.00    -0.460 OA
BRANCH   5   6
ATOM      6  C   UNL A   1      32.895  25.160  25.700  1.00  0.00     0.338 C 
ATOM      7  O   UNL A   1      32.362  24.816  26.745  1.00  0.00    -0.246 OA
BRANCH   6   8
ATOM      8  C   UNL A   1      32.222  26.005  24.698  1.00  0.00     0.087 C 
ATOM      9  C   UNL A   1      28.143  30.261  22.020  1.00  0.00     0.046 C 
ATOM     10  C   UNL A   1      29.250  29.566  22.768  1.00  0.00    -0.028 A 
ATOM     11  C   UNL A   1      29.552  28.238  22.440  1.00  0.00     0.052 A 
ATOM     12  C   UNL A   1      29.938  30.183  23.834  1.00  0.00     0.047 A 
ATOM     13  C   UNL A   1      30.491  27.520  23.173  1.00  0.00     0.128 A 
ATOM     14  C   UNL A   1      30.915  29.480  24.571  1.00  0.00    -0.021 A 
ATOM     15  Cl  UNL A   1      29.517  31.816  24.262  1.00  0.00    -0.084 Cl
ATOM     16  C   UNL A   1      31.152  28.120  24.252  1.00  0.00     0.022 A 
ATOM     17  O   UNL A   1      30.638  26.201  22.826  1.00  0.00    -0.475 OA
ATOM     18  C   UNL A   1      31.676  30.122  25.709  1.00  0.00     0.047 C 
ATOM     19  C   UNL A   1      31.966  27.257  25.102  1.00  0.00     0.027 C 
ATOM     20  C   UNL A   1      31.785  25.477  23.361  1.00  0.00     0.316 C 
BRANCH  20  21
ATOM     21  C   UNL A   1      32.899  25.427  22.297  1.00  0.00     0.430 C 
ATOM     22  F   UNL A   1      33.842  26.379  22.498  1.00  0.00    -0.167 F 
ATOM     23  F   UNL A   1      33.529  24.233  22.266  1.00  0.00    -0.167 F 
ATOM     24  F   UNL A   1      32.396  25.625  21.052  1.00  0.00    -0.167 F 
ENDBRANCH  20  21
ENDBRANCH   6   8
ENDBRANCH   5   6
ENDBRANCH   4   5
ENDBRANCH   3   4
ENDBRANCH   2   3
ENDBRANCH   1   2
BRANCH   1  25
ATOM     25  C   UNL A   1      37.286  20.197  24.956  1.00  0.00     0.261 C 
BRANCH  25  26
ATOM     26  O   UNL A   1      38.171  21.313  25.163  1.00  0.00    -0.460 OA
BRANCH  26  27
ATOM     27  C   UNL A   1      39.226  21.055  25.972  1.00  0.00     0.338 C 
ATOM     28  O   UNL A   1      39.854  20.007  26.043  1.00  0.00    -0.246 OA
BRANCH  27  29
ATOM     29  C   UNL A   1      39.676  22.295  26.631  1.00  0.00     0.060 A 
ATOM     30  C   UNL A   1      39.122  23.499  26.173  1.00  0.00     0.016 A 
ATOM     31  C   UNL A   1      40.670  22.299  27.612  1.00  0.00     0.016 A 
ATOM     32  C   UNL A   1      39.612  24.715  26.637  1.00  0.00     0.010 A 
ATOM     33  C   UNL A   1      41.174  23.524  28.066  1.00  0.00     0.010 A 
ATOM     34  C   UNL A   1      40.681  24.732  27.542  1.00  0.00    -0.014 A 
BRANCH  34  35
ATOM     35  C   UNL A   1      41.425  25.999  27.751  1.00  0.00     0.031 A 
ATOM     36  C   UNL A   1      40.775  27.076  28.579  1.00  0.00     0.074 A 
ATOM     37  C   UNL A   1      42.673  26.165  27.280  1.00  0.00     0.049 A 
ATOM     38  N   UNL A   1      41.190  28.286  28.843  1.00  0.00    -0.248 NA
ATOM     39  C   UNL A   1      39.483  26.735  29.198  1.00  0.00     0.031 C 
ATOM     40  C   UNL A   1      43.443  25.160  26.550  1.00  0.00     0.029 A 
ATOM     41  N   UNL A   1      43.516  27.245  27.359  1.00  0.00    -0.354 N 
ATOM     42  C   UNL A   1      40.215  28.852  29.655  1.00  0.00     0.074 A 
ATOM     43  C   UNL A   1      39.173  27.861  29.819  1.00  0.00     0.031 C 
ATOM     44  C   UNL A   1      44.649  25.673  26.245  1.00  0.00     0.029 A 
ATOM     45  C   UNL A   1      44.717  27.055  26.719  1.00  0.00     0.049 A 
ATOM     46  H   UNL A   1      43.282  28.078  27.828  1.00  0.00     0.167 HD
ATOM     47  C   UNL A   1      40.190  30.083  30.219  1.00  0.00     0.034 A 
ATOM     48  C   UNL A   1      45.741  27.908  26.517  1.00  0.00     0.034 A 
ATOM     49  C   UNL A   1      41.228  31.066  30.042  1.00  0.00     0.049 A 
ATOM     50  C   UNL A   1      45.637  29.316  27.048  1.00  0.00     0.074 A 
ATOM     51  C   UNL A   1      41.291  32.354  30.544  1.00  0.00     0.029 A 
ATOM     52  N   UNL A   1      42.386  30.871  29.302  1.00  0.00    -0.354 N 
ATOM     53  N   UNL A   1      44.675  29.866  27.754  1.00  0.00    -0.248 NA
ATOM     54  C   UNL A   1      46.754  30.222  26.744  1.00  0.00     0.031 C 
ATOM     55  C   UNL A   1      42.456  32.956  30.060  1.00  0.00     0.029 A 
ATOM     56  C   UNL A   1      43.155  32.025  29.309  1.00  0.00     0.049 A 
ATOM     57  H   UNL A   1      42.626  30.037  28.838  1.00  0.00     0.167 HD
ATOM     58  C   UNL A   1      45.077  31.179  27.985  1.00  0.00     0.074 A 
ATOM     59  C   UNL A   1      46.375  31.332  27.361  1.00  0.00     0.031 C 
ATOM     60  C   UNL A   1      44.431  32.170  28.652  1.00  0.00     0.034 A 
BRANCH  47  61
ATOM     61  C   UNL A   1      38.978  30.448  31.033  1.00  0.00     0.023 A 
ATOM     62  C   UNL A   1      37.892  31.140  30.471  1.00  0.00     0.031 A 
ATOM     63  C   UNL A   1      38.912  30.101  32.393  1.00  0.00     0.131 A 
ATOM     64  C   UNL A   1      36.802  31.502  31.277  1.00  0.00     0.055 A 
ATOM     65  C   UNL A   1      37.798  30.410  33.177  1.00  0.00     0.041 A 
ATOM     66  F   UNL A   1      39.932  29.461  32.985  1.00  0.00    -0.206 F 
ATOM     67  C   UNL A   1      36.738  31.120  32.620  1.00  0.00     0.022 A 
BRANCH  64  68
ATOM     68  S   UNL A   1      35.499  32.546  30.570  1.00  0.00     0.124 S 
ATOM     69  O   UNL A   1      35.438  32.049  29.198  1.00  0.00    -0.237 OA
ATOM     70  O   UNL A   1      34.351  32.236  31.413  1.00  0.00    -0.237 OA
ATOM     71  O   UNL A   1      36.030  33.900  30.713  1.00  0.00    -0.744 OA
ENDBRANCH  64  68
ENDBRANCH  47  61
BRANCH  48  72
ATOM     72  C   UNL A   1      46.929  27.482  25.728  1.00  0.00     0.023 A 
ATOM     73  C   UNL A   1      47.060  27.825  24.373  1.00  0.00     0.031 A 
ATOM     74  C   UNL A   1      47.937  26.695  26.314  1.00  0.00     0.131 A 
ATOM     75  C   UNL A   1      48.164  27.361  23.640  1.00  0.00     0.055 A 
ATOM     76  C   UNL A   1      49.052  26.269  25.591  1.00  0.00     0.041 A 
ATOM     77  F   UNL A   1      47.856  26.341  27.606  1.00  0.00    -0.206 F 
ATOM     78  C   UNL A   1      49.166  26.597  24.243  1.00  0.00     0.022 A 
BRANCH  75  79
ATOM     79  S   UNL A   1      48.261  27.746  21.871  1.00  0.00     0.124 S 
ATOM     80  O   UNL A   1      48.458  26.422  21.290  1.00  0.00    -0.237 OA
ATOM     81  O   UNL A   1      46.966  28.370  21.622  1.00  0.00    -0.237 OA
ATOM     82  O   UNL A   1      49.409  28.646  21.781  1.00  0.00    -0.744 OA
ENDBRANCH  75  79
ENDBRANCH  48  72
BRANCH  60  83
ATOM     83  C   UNL A   1      45.128  33.504  28.741  1.00  0.00     0.023 A 
ATOM     84  C   UNL A   1      46.028  33.790  29.781  1.00  0.00     0.031 A 
ATOM     85  C   UNL A   1      44.893  34.498  27.774  1.00  0.00     0.131 A 
ATOM     86  C   UNL A   1      46.624  35.057  29.860  1.00  0.00     0.055 A 
ATOM     87  C   UNL A   1      45.531  35.737  27.826  1.00  0.00     0.041 A 
ATOM     88  F   UNL A   1      44.042  34.275  26.759  1.00  0.00    -0.206 F 
ATOM     89  C   UNL A   1      46.394  36.027  28.879  1.00  0.00     0.022 A 
BRANCH  86  90
ATOM     90  S   UNL A   1      47.649  35.448  31.303  1.00  0.00     0.124 S 
ATOM     91  O   UNL A   1      46.646  35.615  32.350  1.00  0.00    -0.237 OA
ATOM     92  O   UNL A   1      48.497  34.266  31.416  1.00  0.00    -0.237 OA
ATOM     93  O   UNL A   1      48.345  36.672  30.909  1.00  0.00    -0.744 OA
ENDBRANCH  86  90
ENDBRANCH  60  83
ENDBRANCH  34  35
ENDBRANCH  27  29
ENDBRANCH  26  27
ENDBRANCH  25  26
ENDBRANCH   1  25
TORSDOF 18
ENDMDL
