MODEL 1
REMARK VINA RESULT:      -9.5      0.000      0.000
REMARK SMILES CC[C@H](C)Nc1ncnc(N2CCC(C(=O)OCCOCCOC(=O)c3ccc(-c4c5nc(c(-c6cc(S(=O)(=O)[O-])ccc6F)c6ccc([nH]6)c(-c6cc(S(=O)(=O)[O-])ccc6F)c6nc(c(-c7cc(S(=O)(=O)[O-])ccc7F)c7ccc4[nH]7)C=C6)C=C5)cc3)CC2)c1[N+](=O)[O-]
REMARK SMILES IDX 19 1 18 2 17 3 15 4 16 5 14 6 11 7 12 8 90 9 13 10 89 11
REMARK SMILES IDX 10 12 6 13 7 14 91 15 8 16 9 17 5 18 3 20 4 21 2 22 1 23
REMARK SMILES IDX 92 24 93 25 94 26 20 27 21 28 22 29 23 30 24 31 25 32 26 33
REMARK SMILES IDX 27 34 88 35 28 36 87 37 29 38 30 39 31 40 81 41 32 42 86 43
REMARK SMILES IDX 80 44 82 45 33 46 85 47 79 48 78 49 34 51 66 52 46 53 65 54
REMARK SMILES IDX 47 55 50 56 64 57 83 58 48 59 49 60 63 62 84 63 51 64 35 65
REMARK SMILES IDX 36 66 44 67 37 68 43 69 45 70 42 71 38 72 39 73 40 74 41 75
REMARK SMILES IDX 67 76 68 77 76 78 69 79 75 80 77 81 74 82 70 83 71 84 72 85
REMARK SMILES IDX 73 86 52 87 53 88 61 89 54 90 60 91 62 92 59 93 55 94 56 95
REMARK SMILES IDX 57 96 58 97
REMARK H PARENT 5 19 82 50 50 61
REMARK Flexibility Score: inf
ROOT
ATOM      1  C   UNL A   1      40.919  21.483  27.717  1.00  0.00     0.202 C 
ENDROOT
BRANCH   1   2
ATOM      2  C   UNL A   1      40.422  22.223  26.474  1.00  0.00     0.261 C 
BRANCH   2   3
ATOM      3  O   UNL A   1      38.993  22.369  26.493  1.00  0.00    -0.463 OA
BRANCH   3   4
ATOM      4  C   UNL A   1      38.521  23.629  26.330  1.00  0.00     0.309 C 
ATOM      5  O   UNL A   1      38.940  24.627  26.904  1.00  0.00    -0.252 OA
BRANCH   4   6
ATOM      6  C   UNL A   1      37.362  23.688  25.363  1.00  0.00     0.103 C 
ATOM      7  N   UNL A   1      34.947  22.872  24.120  1.00  0.00    -0.351 N 
ATOM      8  C   UNL A   1      36.164  22.815  23.324  1.00  0.00     0.119 C 
ATOM      9  C   UNL A   1      34.875  23.769  25.266  1.00  0.00     0.119 C 
ATOM     10  C   UNL A   1      37.386  22.660  24.225  1.00  0.00     0.037 C 
ATOM     11  C   UNL A   1      36.076  23.556  26.168  1.00  0.00     0.037 C 
BRANCH   7  12
ATOM     12  C   UNL A   1      33.866  22.100  23.748  1.00  0.00     0.213 A 
ATOM     13  C   UNL A   1      32.499  20.129  23.820  1.00  0.00     0.211 A 
ATOM     14  N   UNL A   1      31.841  20.563  22.728  1.00  0.00    -0.213 NA
ATOM     15  C   UNL A   1      33.526  20.893  24.344  1.00  0.00     0.353 A 
ATOM     16  C   UNL A   1      32.182  21.763  22.234  1.00  0.00     0.227 A 
ATOM     17  N   UNL A   1      33.147  22.560  22.708  1.00  0.00    -0.212 NA
BRANCH  13  18
ATOM     18  N   UNL A   1      32.022  18.918  24.258  1.00  0.00    -0.362 N 
ATOM     19  H   UNL A   1      31.207  18.931  24.811  1.00  0.00     0.162 HD
BRANCH  18  20
ATOM     20  C   UNL A   1      32.610  17.615  23.979  1.00  0.00     0.077 C 
ATOM     21  C   UNL A   1      33.502  17.740  22.741  1.00  0.00     0.031 C 
BRANCH  20  22
ATOM     22  C   UNL A   1      33.427  17.137  25.191  1.00  0.00     0.021 C 
ATOM     23  C   UNL A   1      34.736  16.478  24.770  1.00  0.00     0.006 C 
ENDBRANCH  20  22
ENDBRANCH  18  20
ENDBRANCH  13  18
BRANCH  15  24
ATOM     24  N   UNL A   1      34.226  20.495  25.518  1.00  0.00     0.070 N 
ATOM     25  O   UNL A   1      35.364  20.023  25.370  1.00  0.00    -0.258 OA
ATOM     26  O   UNL A   1      33.647  20.623  26.607  1.00  0.00    -0.258 OA
ENDBRANCH  15  24
ENDBRANCH   7  12
ENDBRANCH   4   6
ENDBRANCH   3   4
ENDBRANCH   2   3
ENDBRANCH   1   2
BRANCH   1  27
ATOM     27  O   UNL A   1      40.953  20.057  27.637  1.00  0.00    -0.374 OA
BRANCH  27  28
ATOM     28  C   UNL A   1      42.228  19.436  27.499  1.00  0.00     0.202 C 
BRANCH  28  29
ATOM     29  C   UNL A   1      42.537  18.760  26.157  1.00  0.00     0.261 C 
BRANCH  29  30
ATOM     30  O   UNL A   1      42.814  19.704  25.108  1.00  0.00    -0.460 OA
BRANCH  30  31
ATOM     31  C   UNL A   1      44.123  19.782  24.765  1.00  0.00     0.338 C 
ATOM     32  O   UNL A   1      44.780  18.922  24.192  1.00  0.00    -0.246 OA
BRANCH  31  33
ATOM     33  C   UNL A   1      44.648  21.140  25.001  1.00  0.00     0.060 A 
ATOM     34  C   UNL A   1      45.235  21.383  26.249  1.00  0.00     0.016 A 
ATOM     35  C   UNL A   1      44.491  22.177  24.078  1.00  0.00     0.016 A 
ATOM     36  C   UNL A   1      45.612  22.675  26.604  1.00  0.00     0.010 A 
ATOM     37  C   UNL A   1      44.866  23.478  24.440  1.00  0.00     0.010 A 
ATOM     38  C   UNL A   1      45.389  23.740  25.719  1.00  0.00    -0.014 A 
BRANCH  38  39
ATOM     39  C   UNL A   1      45.568  25.126  26.221  1.00  0.00     0.031 A 
ATOM     40  C   UNL A   1      46.937  25.751  26.177  1.00  0.00     0.074 A 
ATOM     41  C   UNL A   1      44.507  25.849  26.624  1.00  0.00     0.049 A 
ATOM     42  N   UNL A   1      47.307  26.966  26.490  1.00  0.00    -0.248 NA
ATOM     43  C   UNL A   1      48.033  24.886  25.717  1.00  0.00     0.031 C 
ATOM     44  C   UNL A   1      43.128  25.364  26.673  1.00  0.00     0.029 A 
ATOM     45  N   UNL A   1      44.423  27.150  27.053  1.00  0.00    -0.354 N 
ATOM     46  C   UNL A   1      48.679  27.018  26.256  1.00  0.00     0.074 A 
ATOM     47  C   UNL A   1      49.077  25.694  25.826  1.00  0.00     0.031 C 
ATOM     48  C   UNL A   1      42.333  26.360  27.101  1.00  0.00     0.029 A 
ATOM     49  C   UNL A   1      43.146  27.540  27.380  1.00  0.00     0.049 A 
ATOM     50  H   UNL A   1      45.203  27.746  27.122  1.00  0.00     0.167 HD
ATOM     51  C   UNL A   1      49.523  28.073  26.374  1.00  0.00     0.034 A 
ATOM     52  C   UNL A   1      42.688  28.715  27.857  1.00  0.00     0.034 A 
ATOM     53  C   UNL A   1      49.115  29.383  26.824  1.00  0.00     0.049 A 
ATOM     54  C   UNL A   1      43.660  29.853  28.055  1.00  0.00     0.074 A 
ATOM     55  C   UNL A   1      49.884  30.524  26.976  1.00  0.00     0.029 A 
ATOM     56  N   UNL A   1      47.824  29.725  27.209  1.00  0.00    -0.354 N 
ATOM     57  N   UNL A   1      44.951  29.893  27.817  1.00  0.00    -0.248 NA
ATOM     58  C   UNL A   1      43.104  31.110  28.573  1.00  0.00     0.031 C 
ATOM     59  C   UNL A   1      49.077  31.531  27.519  1.00  0.00     0.029 A 
ATOM     60  C   UNL A   1      47.784  31.047  27.632  1.00  0.00     0.049 A 
ATOM     61  H   UNL A   1      47.049  29.118  27.187  1.00  0.00     0.167 HD
ATOM     62  C   UNL A   1      45.356  31.187  28.134  1.00  0.00     0.074 A 
ATOM     63  C   UNL A   1      44.167  31.901  28.556  1.00  0.00     0.031 C 
ATOM     64  C   UNL A   1      46.597  31.740  28.080  1.00  0.00     0.034 A 
BRANCH  51  65
ATOM     65  C   UNL A   1      50.981  27.827  26.061  1.00  0.00     0.023 A 
ATOM     66  C   UNL A   1      51.484  27.918  24.750  1.00  0.00     0.031 A 
ATOM     67  C   UNL A   1      51.874  27.451  27.081  1.00  0.00     0.131 A 
ATOM     68  C   UNL A   1      52.815  27.564  24.483  1.00  0.00     0.055 A 
ATOM     69  C   UNL A   1      53.218  27.177  26.821  1.00  0.00     0.041 A 
ATOM     70  F   UNL A   1      51.448  27.323  28.348  1.00  0.00    -0.206 F 
ATOM     71  C   UNL A   1      53.692  27.217  25.513  1.00  0.00     0.022 A 
BRANCH  68  72
ATOM     72  S   UNL A   1      53.343  27.410  22.754  1.00  0.00     0.124 S 
ATOM     73  O   UNL A   1      54.670  26.816  22.902  1.00  0.00    -0.237 OA
ATOM     74  O   UNL A   1      52.315  26.548  22.186  1.00  0.00    -0.237 OA
ATOM     75  O   UNL A   1      53.338  28.790  22.270  1.00  0.00    -0.744 OA
ENDBRANCH  68  72
ENDBRANCH  51  65
BRANCH  52  76
ATOM     76  C   UNL A   1      41.248  28.877  28.207  1.00  0.00     0.023 A 
ATOM     77  C   UNL A   1      40.798  28.743  29.531  1.00  0.00     0.031 A 
ATOM     78  C   UNL A   1      40.291  29.118  27.207  1.00  0.00     0.131 A 
ATOM     79  C   UNL A   1      39.425  28.812  29.812  1.00  0.00     0.055 A 
ATOM     80  C   UNL A   1      38.931  29.234  27.498  1.00  0.00     0.041 A 
ATOM     81  F   UNL A   1      40.669  29.253  25.925  1.00  0.00    -0.206 F 
ATOM     82  C   UNL A   1      38.490  29.068  28.806  1.00  0.00     0.022 A 
BRANCH  79  83
ATOM     83  S   UNL A   1      38.866  28.486  31.507  1.00  0.00     0.124 S 
ATOM     84  O   UNL A   1      38.663  27.042  31.482  1.00  0.00    -0.237 OA
ATOM     85  O   UNL A   1      39.999  28.961  32.295  1.00  0.00    -0.237 OA
ATOM     86  O   UNL A   1      37.650  29.287  31.624  1.00  0.00    -0.744 OA
ENDBRANCH  79  83
ENDBRANCH  52  76
BRANCH  64  87
ATOM     87  C   UNL A   1      46.710  33.197  28.464  1.00  0.00     0.023 A 
ATOM     88  C   UNL A   1      46.906  33.595  29.799  1.00  0.00     0.031 A 
ATOM     89  C   UNL A   1      46.576  34.203  27.490  1.00  0.00     0.131 A 
ATOM     90  C   UNL A   1      46.887  34.957  30.134  1.00  0.00     0.055 A 
ATOM     91  C   UNL A   1      46.627  35.558  27.821  1.00  0.00     0.041 A 
ATOM     92  F   UNL A   1      46.385  33.885  26.200  1.00  0.00    -0.206 F 
ATOM     93  C   UNL A   1      46.763  35.942  29.152  1.00  0.00     0.022 A 
BRANCH  90  94
ATOM     94  S   UNL A   1      46.895  35.422  31.888  1.00  0.00     0.124 S 
ATOM     95  O   UNL A   1      47.056  34.129  32.545  1.00  0.00    -0.237 OA
ATOM     96  O   UNL A   1      48.041  36.322  31.966  1.00  0.00    -0.237 OA
ATOM     97  O   UNL A   1      45.594  36.058  32.082  1.00  0.00    -0.744 OA
ENDBRANCH  90  94
ENDBRANCH  64  87
ENDBRANCH  38  39
ENDBRANCH  31  33
ENDBRANCH  30  31
ENDBRANCH  29  30
ENDBRANCH  28  29
ENDBRANCH  27  28
ENDBRANCH   1  27
TORSDOF 22
ENDMDL
MODEL 2
REMARK VINA RESULT:      -9.3      2.884      3.976
REMARK SMILES CC[C@H](C)Nc1ncnc(N2CCC(C(=O)OCCOCCOC(=O)c3ccc(-c4c5nc(c(-c6cc(S(=O)(=O)[O-])ccc6F)c6ccc([nH]6)c(-c6cc(S(=O)(=O)[O-])ccc6F)c6nc(c(-c7cc(S(=O)(=O)[O-])ccc7F)c7ccc4[nH]7)C=C6)C=C5)cc3)CC2)c1[N+](=O)[O-]
REMARK SMILES IDX 19 1 18 2 17 3 15 4 16 5 14 6 11 7 12 8 90 9 13 10 89 11
REMARK SMILES IDX 10 12 6 13 7 14 91 15 8 16 9 17 5 18 3 20 4 21 2 22 1 23
REMARK SMILES IDX 92 24 93 25 94 26 20 27 21 28 22 29 23 30 24 31 25 32 26 33
REMARK SMILES IDX 27 34 88 35 28 36 87 37 29 38 30 39 31 40 81 41 32 42 86 43
REMARK SMILES IDX 80 44 82 45 33 46 85 47 79 48 78 49 34 51 66 52 46 53 65 54
REMARK SMILES IDX 47 55 50 56 64 57 83 58 48 59 49 60 63 62 84 63 51 64 35 65
REMARK SMILES IDX 36 66 44 67 37 68 43 69 45 70 42 71 38 72 39 73 40 74 41 75
REMARK SMILES IDX 67 76 68 77 76 78 69 79 75 80 77 81 74 82 70 83 71 84 72 85
REMARK SMILES IDX 73 86 52 87 53 88 61 89 54 90 60 91 62 92 59 93 55 94 56 95
REMARK SMILES IDX 57 96 58 97
REMARK H PARENT 5 19 82 50 50 61
REMARK Flexibility Score: inf
ROOT
ATOM      1  C   UNL A   1      40.098  21.729  26.597  1.00  0.00     0.202 C 
ENDROOT
BRANCH   1   2
ATOM      2  C   UNL A   1      39.098  21.103  25.623  1.00  0.00     0.261 C 
BRANCH   2   3
ATOM      3  O   UNL A   1      37.990  21.985  25.380  1.00  0.00    -0.463 OA
BRANCH   3   4
ATOM      4  C   UNL A   1      36.776  21.394  25.256  1.00  0.00     0.309 C 
ATOM      5  O   UNL A   1      36.581  20.197  25.077  1.00  0.00    -0.252 OA
BRANCH   4   6
ATOM      6  C   UNL A   1      35.643  22.389  25.323  1.00  0.00     0.103 C 
ATOM      7  N   UNL A   1      33.693  24.206  24.351  1.00  0.00    -0.351 N 
ATOM      8  C   UNL A   1      34.790  24.755  25.133  1.00  0.00     0.119 C 
ATOM      9  C   UNL A   1      33.328  22.803  24.504  1.00  0.00     0.119 C 
ATOM     10  C   UNL A   1      36.016  23.850  25.043  1.00  0.00     0.037 C 
ATOM     11  C   UNL A   1      34.557  21.928  24.359  1.00  0.00     0.037 C 
BRANCH   7  12
ATOM     12  C   UNL A   1      32.992  25.038  23.504  1.00  0.00     0.213 A 
ATOM     13  C   UNL A   1      31.108  26.388  22.880  1.00  0.00     0.211 A 
ATOM     14  N   UNL A   1      31.588  26.453  21.624  1.00  0.00    -0.213 NA
ATOM     15  C   UNL A   1      31.804  25.673  23.838  1.00  0.00     0.353 A 
ATOM     16  C   UNL A   1      32.768  25.863  21.380  1.00  0.00     0.227 A 
ATOM     17  N   UNL A   1      33.501  25.180  22.267  1.00  0.00    -0.212 NA
BRANCH  13  18
ATOM     18  N   UNL A   1      29.925  27.074  23.013  1.00  0.00    -0.362 N 
ATOM     19  H   UNL A   1      29.097  26.581  22.812  1.00  0.00     0.162 HD
BRANCH  18  20
ATOM     20  C   UNL A   1      29.784  28.464  23.423  1.00  0.00     0.077 C 
ATOM     21  C   UNL A   1      31.169  29.117  23.411  1.00  0.00     0.031 C 
BRANCH  20  22
ATOM     22  C   UNL A   1      28.828  29.200  22.471  1.00  0.00     0.021 C 
ATOM     23  C   UNL A   1      29.410  30.526  21.993  1.00  0.00     0.006 C 
ENDBRANCH  20  22
ENDBRANCH  18  20
ENDBRANCH  13  18
BRANCH  15  24
ATOM     24  N   UNL A   1      31.356  25.606  25.188  1.00  0.00     0.070 N 
ATOM     25  O   UNL A   1      30.414  24.838  25.438  1.00  0.00    -0.258 OA
ATOM     26  O   UNL A   1      31.917  26.334  26.020  1.00  0.00    -0.258 OA
ENDBRANCH  15  24
ENDBRANCH   7  12
ENDBRANCH   4   6
ENDBRANCH   3   4
ENDBRANCH   2   3
ENDBRANCH   1   2
BRANCH   1  27
ATOM     27  O   UNL A   1      40.621  20.867  27.611  1.00  0.00    -0.374 OA
BRANCH  27  28
ATOM     28  C   UNL A   1      41.976  20.445  27.481  1.00  0.00     0.202 C 
BRANCH  28  29
ATOM     29  C   UNL A   1      42.246  19.216  26.603  1.00  0.00     0.261 C 
BRANCH  29  30
ATOM     30  O   UNL A   1      42.563  19.562  25.243  1.00  0.00    -0.460 OA
BRANCH  30  31
ATOM     31  C   UNL A   1      43.888  19.717  25.006  1.00  0.00     0.338 C 
ATOM     32  O   UNL A   1      44.655  18.867  24.572  1.00  0.00    -0.246 OA
BRANCH  31  33
ATOM     33  C   UNL A   1      44.288  21.128  25.160  1.00  0.00     0.060 A 
ATOM     34  C   UNL A   1      45.286  21.404  26.102  1.00  0.00     0.016 A 
ATOM     35  C   UNL A   1      43.648  22.168  24.480  1.00  0.00     0.016 A 
ATOM     36  C   UNL A   1      45.607  22.721  26.415  1.00  0.00     0.010 A 
ATOM     37  C   UNL A   1      43.969  23.495  24.802  1.00  0.00     0.010 A 
ATOM     38  C   UNL A   1      44.919  23.777  25.799  1.00  0.00    -0.014 A 
BRANCH  38  39
ATOM     39  C   UNL A   1      45.106  25.150  26.334  1.00  0.00     0.031 A 
ATOM     40  C   UNL A   1      46.472  25.779  26.276  1.00  0.00     0.074 A 
ATOM     41  C   UNL A   1      44.052  25.859  26.779  1.00  0.00     0.049 A 
ATOM     42  N   UNL A   1      46.847  26.987  26.613  1.00  0.00    -0.248 NA
ATOM     43  C   UNL A   1      47.560  24.930  25.770  1.00  0.00     0.031 C 
ATOM     44  C   UNL A   1      42.676  25.370  26.846  1.00  0.00     0.029 A 
ATOM     45  N   UNL A   1      43.975  27.148  27.244  1.00  0.00    -0.354 N 
ATOM     46  C   UNL A   1      48.212  27.048  26.350  1.00  0.00     0.074 A 
ATOM     47  C   UNL A   1      48.604  25.737  25.877  1.00  0.00     0.031 C 
ATOM     48  C   UNL A   1      41.888  26.352  27.317  1.00  0.00     0.029 A 
ATOM     49  C   UNL A   1      42.705  27.526  27.610  1.00  0.00     0.049 A 
ATOM     50  H   UNL A   1      44.756  27.744  27.311  1.00  0.00     0.167 HD
ATOM     51  C   UNL A   1      49.057  28.102  26.478  1.00  0.00     0.034 A 
ATOM     52  C   UNL A   1      42.255  28.687  28.127  1.00  0.00     0.034 A 
ATOM     53  C   UNL A   1      48.656  29.399  26.970  1.00  0.00     0.049 A 
ATOM     54  C   UNL A   1      43.228  29.822  28.333  1.00  0.00     0.074 A 
ATOM     55  C   UNL A   1      49.426  30.537  27.136  1.00  0.00     0.029 A 
ATOM     56  N   UNL A   1      47.374  29.728  27.393  1.00  0.00    -0.354 N 
ATOM     57  N   UNL A   1      44.514  29.872  28.068  1.00  0.00    -0.248 NA
ATOM     58  C   UNL A   1      42.682  31.063  28.896  1.00  0.00     0.031 C 
ATOM     59  C   UNL A   1      48.629  31.528  27.723  1.00  0.00     0.029 A 
ATOM     60  C   UNL A   1      47.340  31.038  27.851  1.00  0.00     0.049 A 
ATOM     61  H   UNL A   1      46.600  29.119  27.372  1.00  0.00     0.167 HD
ATOM     62  C   UNL A   1      44.923  31.158  28.410  1.00  0.00     0.074 A 
ATOM     63  C   UNL A   1      43.742  31.857  28.877  1.00  0.00     0.031 C 
ATOM     64  C   UNL A   1      46.162  31.715  28.343  1.00  0.00     0.034 A 
BRANCH  51  65
ATOM     65  C   UNL A   1      50.508  27.868  26.126  1.00  0.00     0.023 A 
ATOM     66  C   UNL A   1      51.476  27.597  27.111  1.00  0.00     0.031 A 
ATOM     67  C   UNL A   1      50.940  27.962  24.791  1.00  0.00     0.131 A 
ATOM     68  C   UNL A   1      52.831  27.507  26.757  1.00  0.00     0.055 A 
ATOM     69  C   UNL A   1      52.279  27.791  24.435  1.00  0.00     0.041 A 
ATOM     70  F   UNL A   1      50.068  28.241  23.809  1.00  0.00    -0.206 F 
ATOM     71  C   UNL A   1      53.237  27.578  25.423  1.00  0.00     0.022 A 
BRANCH  68  72
ATOM     72  S   UNL A   1      54.072  27.453  28.079  1.00  0.00     0.124 S 
ATOM     73  O   UNL A   1      53.362  26.715  29.121  1.00  0.00    -0.237 OA
ATOM     74  O   UNL A   1      55.181  26.753  27.442  1.00  0.00    -0.237 OA
ATOM     75  O   UNL A   1      54.314  28.863  28.381  1.00  0.00    -0.744 OA
ENDBRANCH  68  72
ENDBRANCH  51  65
BRANCH  52  76
ATOM     76  C   UNL A   1      40.823  28.835  28.513  1.00  0.00     0.023 A 
ATOM     77  C   UNL A   1      40.408  28.702  29.849  1.00  0.00     0.031 A 
ATOM     78  C   UNL A   1      39.838  29.063  27.536  1.00  0.00     0.131 A 
ATOM     79  C   UNL A   1      39.042  28.758  30.164  1.00  0.00     0.055 A 
ATOM     80  C   UNL A   1      38.485  29.166  27.861  1.00  0.00     0.041 A 
ATOM     81  F   UNL A   1      40.182  29.196  26.245  1.00  0.00    -0.206 F 
ATOM     82  C   UNL A   1      38.080  29.001  29.181  1.00  0.00     0.022 A 
BRANCH  79  83
ATOM     83  S   UNL A   1      38.530  28.434  31.874  1.00  0.00     0.124 S 
ATOM     84  O   UNL A   1      39.659  28.963  32.629  1.00  0.00    -0.237 OA
ATOM     85  O   UNL A   1      37.285  29.192  31.965  1.00  0.00    -0.237 OA
ATOM     86  O   UNL A   1      38.376  26.982  31.913  1.00  0.00    -0.744 OA
ENDBRANCH  79  83
ENDBRANCH  52  76
BRANCH  64  87
ATOM     87  C   UNL A   1      46.280  33.162  28.763  1.00  0.00     0.023 A 
ATOM     88  C   UNL A   1      46.026  34.215  27.865  1.00  0.00     0.031 A 
ATOM     89  C   UNL A   1      46.695  33.493  30.065  1.00  0.00     0.131 A 
ATOM     90  C   UNL A   1      46.262  35.541  28.256  1.00  0.00     0.055 A 
ATOM     91  C   UNL A   1      46.862  34.819  30.469  1.00  0.00     0.041 A 
ATOM     92  F   UNL A   1      46.954  32.532  30.966  1.00  0.00    -0.206 F 
ATOM     93  C   UNL A   1      46.664  35.852  29.557  1.00  0.00     0.022 A 
BRANCH  90  94
ATOM     94  S   UNL A   1      46.161  36.849  27.002  1.00  0.00     0.124 S 
ATOM     95  O   UNL A   1      44.720  37.027  26.863  1.00  0.00    -0.237 OA
ATOM     96  O   UNL A   1      46.881  37.947  27.639  1.00  0.00    -0.237 OA
ATOM     97  O   UNL A   1      46.828  36.263  25.840  1.00  0.00    -0.744 OA
ENDBRANCH  90  94
ENDBRANCH  64  87
ENDBRANCH  38  39
ENDBRANCH  31  33
ENDBRANCH  30  31
ENDBRANCH  29  30
ENDBRANCH  28  29
ENDBRANCH  27  28
ENDBRANCH   1  27
TORSDOF 22
ENDMDL
MODEL 3
REMARK VINA RESULT:      -9.2      1.852      3.110
REMARK SMILES CC[C@H](C)Nc1ncnc(N2CCC(C(=O)OCCOCCOC(=O)c3ccc(-c4c5nc(c(-c6cc(S(=O)(=O)[O-])ccc6F)c6ccc([nH]6)c(-c6cc(S(=O)(=O)[O-])ccc6F)c6nc(c(-c7cc(S(=O)(=O)[O-])ccc7F)c7ccc4[nH]7)C=C6)C=C5)cc3)CC2)c1[N+](=O)[O-]
REMARK SMILES IDX 19 1 18 2 17 3 15 4 16 5 14 6 11 7 12 8 90 9 13 10 89 11
REMARK SMILES IDX 10 12 6 13 7 14 91 15 8 16 9 17 5 18 3 20 4 21 2 22 1 23
REMARK SMILES IDX 92 24 93 25 94 26 20 27 21 28 22 29 23 30 24 31 25 32 26 33
REMARK SMILES IDX 27 34 88 35 28 36 87 37 29 38 30 39 31 40 81 41 32 42 86 43
REMARK SMILES IDX 80 44 82 45 33 46 85 47 79 48 78 49 34 51 66 52 46 53 65 54
REMARK SMILES IDX 47 55 50 56 64 57 83 58 48 59 49 60 63 62 84 63 51 64 35 65
REMARK SMILES IDX 36 66 44 67 37 68 43 69 45 70 42 71 38 72 39 73 40 74 41 75
REMARK SMILES IDX 67 76 68 77 76 78 69 79 75 80 77 81 74 82 70 83 71 84 72 85
REMARK SMILES IDX 73 86 52 87 53 88 61 89 54 90 60 91 62 92 59 93 55 94 56 95
REMARK SMILES IDX 57 96 58 97
REMARK H PARENT 5 19 82 50 50 61
REMARK Flexibility Score: inf
ROOT
ATOM      1  C   UNL A   1      40.750  21.365  27.416  1.00  0.00     0.202 C 
ENDROOT
BRANCH   1   2
ATOM      2  C   UNL A   1      40.086  21.818  26.115  1.00  0.00     0.261 C 
BRANCH   2   3
ATOM      3  O   UNL A   1      38.654  21.742  26.209  1.00  0.00    -0.463 OA
BRANCH   3   4
ATOM      4  C   UNL A   1      37.976  22.868  25.878  1.00  0.00     0.309 C 
ATOM      5  O   UNL A   1      38.392  24.014  26.002  1.00  0.00    -0.252 OA
BRANCH   4   6
ATOM      6  C   UNL A   1      36.590  22.572  25.356  1.00  0.00     0.103 C 
ATOM      7  N   UNL A   1      33.999  23.131  24.346  1.00  0.00    -0.351 N 
ATOM      8  C   UNL A   1      34.089  22.543  25.674  1.00  0.00     0.119 C 
ATOM      9  C   UNL A   1      35.095  22.953  23.402  1.00  0.00     0.119 C 
ATOM     10  C   UNL A   1      35.433  22.876  26.316  1.00  0.00     0.037 C 
ATOM     11  C   UNL A   1      36.409  23.338  24.052  1.00  0.00     0.037 C 
BRANCH   7  12
ATOM     12  C   UNL A   1      32.856  23.817  23.992  1.00  0.00     0.213 A 
ATOM     13  C   UNL A   1      31.510  25.790  23.766  1.00  0.00     0.211 A 
ATOM     14  N   UNL A   1      30.440  25.014  23.506  1.00  0.00    -0.213 NA
ATOM     15  C   UNL A   1      32.734  25.200  24.017  1.00  0.00     0.353 A 
ATOM     16  C   UNL A   1      30.637  23.688  23.441  1.00  0.00     0.227 A 
ATOM     17  N   UNL A   1      31.799  23.058  23.649  1.00  0.00    -0.212 NA
BRANCH  13  18
ATOM     18  N   UNL A   1      31.189  27.126  23.750  1.00  0.00    -0.362 N 
ATOM     19  H   UNL A   1      31.079  27.550  22.868  1.00  0.00     0.162 HD
BRANCH  18  20
ATOM     20  C   UNL A   1      30.995  27.973  24.919  1.00  0.00     0.077 C 
ATOM     21  C   UNL A   1      31.083  27.099  26.173  1.00  0.00     0.031 C 
BRANCH  20  22
ATOM     22  C   UNL A   1      32.064  29.078  24.950  1.00  0.00     0.021 C 
ATOM     23  C   UNL A   1      31.803  30.089  26.061  1.00  0.00     0.006 C 
ENDBRANCH  20  22
ENDBRANCH  18  20
ENDBRANCH  13  18
BRANCH  15  24
ATOM     24  N   UNL A   1      33.901  25.978  24.261  1.00  0.00     0.070 N 
ATOM     25  O   UNL A   1      34.392  26.585  23.297  1.00  0.00    -0.258 OA
ATOM     26  O   UNL A   1      34.364  25.982  25.411  1.00  0.00    -0.258 OA
ENDBRANCH  15  24
ENDBRANCH   7  12
ENDBRANCH   4   6
ENDBRANCH   3   4
ENDBRANCH   2   3
ENDBRANCH   1   2
BRANCH   1  27
ATOM     27  O   UNL A   1      40.958  19.959  27.566  1.00  0.00    -0.374 OA
BRANCH  27  28
ATOM     28  C   UNL A   1      42.286  19.468  27.403  1.00  0.00     0.202 C 
BRANCH  28  29
ATOM     29  C   UNL A   1      42.616  18.768  26.078  1.00  0.00     0.261 C 
BRANCH  29  30
ATOM     30  O   UNL A   1      42.855  19.694  25.003  1.00  0.00    -0.460 OA
BRANCH  30  31
ATOM     31  C   UNL A   1      44.157  19.801  24.644  1.00  0.00     0.338 C 
ATOM     32  O   UNL A   1      44.822  18.961  24.051  1.00  0.00    -0.246 OA
BRANCH  31  33
ATOM     33  C   UNL A   1      44.659  21.165  24.891  1.00  0.00     0.060 A 
ATOM     34  C   UNL A   1      45.287  21.395  26.122  1.00  0.00     0.016 A 
ATOM     35  C   UNL A   1      44.444  22.218  23.998  1.00  0.00     0.016 A 
ATOM     36  C   UNL A   1      45.647  22.687  26.492  1.00  0.00     0.010 A 
ATOM     37  C   UNL A   1      44.804  23.520  24.376  1.00  0.00     0.010 A 
ATOM     38  C   UNL A   1      45.368  23.766  25.640  1.00  0.00    -0.014 A 
BRANCH  38  39
ATOM     39  C   UNL A   1      45.534  25.145  26.167  1.00  0.00     0.031 A 
ATOM     40  C   UNL A   1      46.883  25.805  26.079  1.00  0.00     0.074 A 
ATOM     41  C   UNL A   1      44.473  25.831  26.632  1.00  0.00     0.049 A 
ATOM     42  N   UNL A   1      47.237  27.023  26.405  1.00  0.00    -0.248 NA
ATOM     43  C   UNL A   1      47.980  24.980  25.553  1.00  0.00     0.031 C 
ATOM     44  C   UNL A   1      43.110  25.310  26.728  1.00  0.00     0.029 A 
ATOM     45  N   UNL A   1      44.376  27.119  27.095  1.00  0.00    -0.354 N 
ATOM     46  C   UNL A   1      48.595  27.115  26.114  1.00  0.00     0.074 A 
ATOM     47  C   UNL A   1      49.008  25.811  25.636  1.00  0.00     0.031 C 
ATOM     48  C   UNL A   1      42.310  26.275  27.213  1.00  0.00     0.029 A 
ATOM     49  C   UNL A   1      43.105  27.469  27.485  1.00  0.00     0.049 A 
ATOM     50  H   UNL A   1      45.143  27.733  27.144  1.00  0.00     0.167 HD
ATOM     51  C   UNL A   1      49.418  28.188  26.221  1.00  0.00     0.034 A 
ATOM     52  C   UNL A   1      42.639  28.621  28.008  1.00  0.00     0.034 A 
ATOM     53  C   UNL A   1      48.997  29.477  26.719  1.00  0.00     0.049 A 
ATOM     54  C   UNL A   1      43.590  29.778  28.191  1.00  0.00     0.074 A 
ATOM     55  C   UNL A   1      49.743  30.633  26.865  1.00  0.00     0.029 A 
ATOM     56  N   UNL A   1      47.716  29.777  27.167  1.00  0.00    -0.354 N 
ATOM     57  N   UNL A   1      44.868  29.857  27.900  1.00  0.00    -0.248 NA
ATOM     58  C   UNL A   1      43.026  31.009  28.762  1.00  0.00     0.031 C 
ATOM     59  C   UNL A   1      48.936  31.607  27.465  1.00  0.00     0.029 A 
ATOM     60  C   UNL A   1      47.661  31.087  27.621  1.00  0.00     0.049 A 
ATOM     61  H   UNL A   1      46.956  29.151  27.163  1.00  0.00     0.167 HD
ATOM     62  C   UNL A   1      45.254  31.153  28.229  1.00  0.00     0.074 A 
ATOM     63  C   UNL A   1      44.067  31.826  28.718  1.00  0.00     0.031 C 
ATOM     64  C   UNL A   1      46.477  31.739  28.136  1.00  0.00     0.034 A 
BRANCH  51  65
ATOM     65  C   UNL A   1      50.866  27.987  25.841  1.00  0.00     0.023 A 
ATOM     66  C   UNL A   1      51.307  28.107  24.510  1.00  0.00     0.031 A 
ATOM     67  C   UNL A   1      51.814  27.625  26.815  1.00  0.00     0.131 A 
ATOM     68  C   UNL A   1      52.634  27.793  24.180  1.00  0.00     0.055 A 
ATOM     69  C   UNL A   1      53.152  27.392  26.492  1.00  0.00     0.041 A 
ATOM     70  F   UNL A   1      51.449  27.471  28.098  1.00  0.00    -0.206 F 
ATOM     71  C   UNL A   1      53.566  27.460  25.165  1.00  0.00     0.022 A 
BRANCH  68  72
ATOM     72  S   UNL A   1      53.089  27.674  22.427  1.00  0.00     0.124 S 
ATOM     73  O   UNL A   1      54.046  28.770  22.295  1.00  0.00    -0.237 OA
ATOM     74  O   UNL A   1      53.639  26.328  22.335  1.00  0.00    -0.237 OA
ATOM     75  O   UNL A   1      51.820  27.879  21.729  1.00  0.00    -0.744 OA
ENDBRANCH  68  72
ENDBRANCH  51  65
BRANCH  52  76
ATOM     76  C   UNL A   1      41.212  28.737  28.423  1.00  0.00     0.023 A 
ATOM     77  C   UNL A   1      40.831  28.629  29.771  1.00  0.00     0.031 A 
ATOM     78  C   UNL A   1      40.199  28.908  27.463  1.00  0.00     0.131 A 
ATOM     79  C   UNL A   1      39.471  28.653  30.116  1.00  0.00     0.055 A 
ATOM     80  C   UNL A   1      38.851  28.980  27.817  1.00  0.00     0.041 A 
ATOM     81  F   UNL A   1      40.510  29.016  26.161  1.00  0.00    -0.206 F 
ATOM     82  C   UNL A   1      38.480  28.840  29.150  1.00  0.00     0.022 A 
BRANCH  79  83
ATOM     83  S   UNL A   1      39.007  28.361  31.845  1.00  0.00     0.124 S 
ATOM     84  O   UNL A   1      40.308  28.340  32.504  1.00  0.00    -0.237 OA
ATOM     85  O   UNL A   1      38.162  29.516  32.130  1.00  0.00    -0.237 OA
ATOM     86  O   UNL A   1      38.309  27.078  31.799  1.00  0.00    -0.744 OA
ENDBRANCH  79  83
ENDBRANCH  52  76
BRANCH  64  87
ATOM     87  C   UNL A   1      46.571  33.189  28.549  1.00  0.00     0.023 A 
ATOM     88  C   UNL A   1      46.847  33.562  29.877  1.00  0.00     0.031 A 
ATOM     89  C   UNL A   1      46.337  34.213  27.614  1.00  0.00     0.131 A 
ATOM     90  C   UNL A   1      46.808  34.914  30.249  1.00  0.00     0.055 A 
ATOM     91  C   UNL A   1      46.368  35.561  27.975  1.00  0.00     0.041 A 
ATOM     92  F   UNL A   1      46.066  33.920  26.332  1.00  0.00    -0.206 F 
ATOM     93  C   UNL A   1      46.584  35.918  29.303  1.00  0.00     0.022 A 
BRANCH  90  94
ATOM     94  S   UNL A   1      46.925  35.337  32.009  1.00  0.00     0.124 S 
ATOM     95  O   UNL A   1      47.291  36.749  31.960  1.00  0.00    -0.237 OA
ATOM     96  O   UNL A   1      45.579  35.044  32.490  1.00  0.00    -0.237 OA
ATOM     97  O   UNL A   1      47.969  34.444  32.509  1.00  0.00    -0.744 OA
ENDBRANCH  90  94
ENDBRANCH  64  87
ENDBRANCH  38  39
ENDBRANCH  31  33
ENDBRANCH  30  31
ENDBRANCH  29  30
ENDBRANCH  28  29
ENDBRANCH  27  28
ENDBRANCH   1  27
TORSDOF 22
ENDMDL
