MODEL 1
REMARK VINA RESULT:     -12.0      0.000      0.000
REMARK SMILES O=C(OCCOCCOC(=O)c1ccc(-c2c3nc(c(-c4cc(S(=O)(=O)[O-])ccc4F)c4ccc([nH]4)c(-c4cc(S(=O)(=O)[O-])ccc4F)c4nc(c(-c5cc(S(=O)(=O)[O-])ccc5F)c5ccc2[nH]5)C=C4)C=C3)cc1)C1=Cc2cc(OC(F)(F)F)ccc2O[C@@H]1C(F)(F)F
REMARK SMILES IDX 7 1 6 2 5 3 4 4 3 5 2 6 1 7 75 8 76 9 89 10 77 11 88 12
REMARK SMILES IDX 78 13 87 14 79 15 86 16 85 17 90 18 91 19 92 20 93 21 80 22
REMARK SMILES IDX 81 23 82 24 83 25 84 26 8 27 9 28 10 29 11 30 12 31 13 32
REMARK SMILES IDX 74 33 14 34 73 35 15 36 16 37 17 38 67 39 18 40 72 41 66 42
REMARK SMILES IDX 68 43 19 44 71 45 65 46 64 47 20 49 52 50 32 51 51 52 33 53
REMARK SMILES IDX 36 54 50 55 69 56 34 57 35 58 49 60 70 61 37 62 21 63 22 64
REMARK SMILES IDX 30 65 23 66 29 67 31 68 28 69 24 70 25 71 26 72 27 73 53 74
REMARK SMILES IDX 54 75 62 76 55 77 61 78 63 79 60 80 56 81 57 82 58 83 59 84
REMARK SMILES IDX 38 85 39 86 47 87 40 88 46 89 48 90 45 91 41 92 42 93 43 94
REMARK SMILES IDX 44 95
REMARK H PARENT 68 48 36 59
REMARK Flexibility Score: inf
ROOT
ATOM      1  C   UNL A   1      31.537  30.245  25.627  1.00  0.00     0.202 C 
ENDROOT
BRANCH   1   2
ATOM      2  O   UNL A   1      32.071  28.984  26.068  1.00  0.00    -0.374 OA
BRANCH   2   3
ATOM      3  C   UNL A   1      31.389  27.655  26.682  1.00  0.00     0.202 C 
BRANCH   3   4
ATOM      4  C   UNL A   1      30.459  25.941  25.702  1.00  0.00     0.261 C 
BRANCH   4   5
ATOM      5  O   UNL A   1      30.706  25.483  24.246  1.00  0.00    -0.460 OA
BRANCH   5   6
ATOM      6  C   UNL A   1      31.531  24.435  24.164  1.00  0.00     0.338 C 
ATOM      7  O   UNL A   1      31.390  23.303  24.550  1.00  0.00    -0.246 OA
BRANCH   6   8
ATOM      8  C   UNL A   1      32.701  25.205  23.816  1.00  0.00     0.087 C 
ATOM      9  C   UNL A   1      33.684  25.219  24.929  1.00  0.00     0.027 C 
ATOM     10  C   UNL A   1      33.002  24.385  22.085  1.00  0.00     0.316 C 
ATOM     11  C   UNL A   1      35.235  24.281  24.903  1.00  0.00     0.021 A 
ATOM     12  O   UNL A   1      34.619  23.327  22.068  1.00  0.00    -0.475 OA
ATOM     13  C   UNL A   1      36.030  24.251  26.014  1.00  0.00     0.058 A 
ATOM     14  C   UNL A   1      35.674  23.291  23.556  1.00  0.00     0.128 A 
ATOM     15  C   UNL A   1      37.140  23.383  25.957  1.00  0.00     0.130 A 
ATOM     16  C   UNL A   1      36.678  22.375  23.635  1.00  0.00     0.051 A 
ATOM     17  C   UNL A   1      37.411  22.463  24.856  1.00  0.00     0.050 A 
BRANCH  10  18
ATOM     18  C   UNL A   1      32.544  25.596  21.164  1.00  0.00     0.430 C 
ATOM     19  F   UNL A   1      33.205  26.752  21.346  1.00  0.00    -0.167 F 
ATOM     20  F   UNL A   1      32.821  25.240  19.872  1.00  0.00    -0.167 F 
ATOM     21  F   UNL A   1      31.217  25.850  21.168  1.00  0.00    -0.167 F 
ENDBRANCH  10  18
BRANCH  15  22
ATOM     22  O   UNL A   1      37.901  23.472  27.102  1.00  0.00    -0.406 OA
BRANCH  22  23
ATOM     23  C   UNL A   1      39.168  24.107  27.021  1.00  0.00     0.573 C 
ATOM     24  F   UNL A   1      39.145  25.067  26.077  1.00  0.00    -0.132 F 
ATOM     25  F   UNL A   1      39.536  24.635  28.206  1.00  0.00    -0.132 F 
ATOM     26  F   UNL A   1      40.084  23.177  26.670  1.00  0.00    -0.132 F 
ENDBRANCH  22  23
ENDBRANCH  15  22
ENDBRANCH   6   8
ENDBRANCH   5   6
ENDBRANCH   4   5
ENDBRANCH   3   4
ENDBRANCH   2   3
ENDBRANCH   1   2
BRANCH   1  27
ATOM     27  C   UNL A   1      31.815  31.451  26.521  1.00  0.00     0.261 C 
BRANCH  27  28
ATOM     28  O   UNL A   1      32.834  31.199  27.476  1.00  0.00    -0.460 OA
BRANCH  28  29
ATOM     29  C   UNL A   1      33.592  32.289  27.732  1.00  0.00     0.338 C 
ATOM     30  O   UNL A   1      33.242  33.455  27.713  1.00  0.00    -0.246 OA
BRANCH  29  31
ATOM     31  C   UNL A   1      34.961  31.848  28.049  1.00  0.00     0.060 A 
ATOM     32  C   UNL A   1      35.150  30.481  28.268  1.00  0.00     0.016 A 
ATOM     33  C   UNL A   1      36.037  32.747  28.116  1.00  0.00     0.016 A 
ATOM     34  C   UNL A   1      36.417  30.005  28.565  1.00  0.00     0.010 A 
ATOM     35  C   UNL A   1      37.305  32.273  28.436  1.00  0.00     0.010 A 
ATOM     36  C   UNL A   1      37.480  30.907  28.694  1.00  0.00    -0.014 A 
BRANCH  36  37
ATOM     37  C   UNL A   1      38.683  30.428  29.394  1.00  0.00     0.031 A 
ATOM     38  C   UNL A   1      38.838  30.845  30.827  1.00  0.00     0.074 A 
ATOM     39  C   UNL A   1      39.523  29.565  28.805  1.00  0.00     0.049 A 
ATOM     40  N   UNL A   1      39.719  30.466  31.710  1.00  0.00    -0.248 NA
ATOM     41  C   UNL A   1      37.849  31.812  31.335  1.00  0.00     0.031 C 
ATOM     42  C   UNL A   1      39.398  29.067  27.435  1.00  0.00     0.029 A 
ATOM     43  N   UNL A   1      40.631  28.933  29.297  1.00  0.00    -0.354 N 
ATOM     44  C   UNL A   1      39.381  31.132  32.881  1.00  0.00     0.074 A 
ATOM     45  C   UNL A   1      38.246  31.975  32.585  1.00  0.00     0.031 C 
ATOM     46  C   UNL A   1      40.388  28.187  27.203  1.00  0.00     0.029 A 
ATOM     47  C   UNL A   1      41.228  28.087  28.394  1.00  0.00     0.049 A 
ATOM     48  H   UNL A   1      40.970  29.073  30.210  1.00  0.00     0.167 HD
ATOM     49  C   UNL A   1      39.966  31.036  34.097  1.00  0.00     0.034 A 
ATOM     50  C   UNL A   1      42.333  27.328  28.531  1.00  0.00     0.034 A 
ATOM     51  C   UNL A   1      41.127  30.222  34.343  1.00  0.00     0.049 A 
ATOM     52  C   UNL A   1      43.039  27.333  29.868  1.00  0.00     0.074 A 
ATOM     53  C   UNL A   1      41.834  30.061  35.519  1.00  0.00     0.029 A 
ATOM     54  N   UNL A   1      41.768  29.448  33.381  1.00  0.00    -0.354 N 
ATOM     55  N   UNL A   1      42.714  27.962  30.977  1.00  0.00    -0.248 NA
ATOM     56  C   UNL A   1      44.248  26.511  29.977  1.00  0.00     0.031 C 
ATOM     57  C   UNL A   1      42.955  29.272  35.244  1.00  0.00     0.029 A 
ATOM     58  C   UNL A   1      42.885  28.840  33.928  1.00  0.00     0.049 A 
ATOM     59  H   UNL A   1      41.471  29.346  32.448  1.00  0.00     0.167 HD
ATOM     60  C   UNL A   1      43.653  27.568  31.928  1.00  0.00     0.074 A 
ATOM     61  C   UNL A   1      44.547  26.643  31.260  1.00  0.00     0.031 C 
ATOM     62  C   UNL A   1      43.763  27.923  33.236  1.00  0.00     0.034 A 
BRANCH  49  63
ATOM     63  C   UNL A   1      39.409  31.905  35.198  1.00  0.00     0.023 A 
ATOM     64  C   UNL A   1      39.838  33.232  35.391  1.00  0.00     0.031 A 
ATOM     65  C   UNL A   1      38.489  31.371  36.115  1.00  0.00     0.131 A 
ATOM     66  C   UNL A   1      39.408  33.947  36.521  1.00  0.00     0.055 A 
ATOM     67  C   UNL A   1      37.993  32.120  37.183  1.00  0.00     0.041 A 
ATOM     68  F   UNL A   1      38.076  30.099  36.007  1.00  0.00    -0.206 F 
ATOM     69  C   UNL A   1      38.466  33.411  37.400  1.00  0.00     0.022 A 
BRANCH  66  70
ATOM     70  S   UNL A   1      40.231  35.513  36.922  1.00  0.00     0.124 S 
ATOM     71  O   UNL A   1      39.589  36.431  35.984  1.00  0.00    -0.237 OA
ATOM     72  O   UNL A   1      39.896  35.696  38.329  1.00  0.00    -0.237 OA
ATOM     73  O   UNL A   1      41.640  35.239  36.647  1.00  0.00    -0.744 OA
ENDBRANCH  66  70
ENDBRANCH  49  63
BRANCH  50  74
ATOM     74  C   UNL A   1      42.857  26.525  27.388  1.00  0.00     0.023 A 
ATOM     75  C   UNL A   1      42.717  25.128  27.351  1.00  0.00     0.031 A 
ATOM     76  C   UNL A   1      43.574  27.140  26.346  1.00  0.00     0.131 A 
ATOM     77  C   UNL A   1      43.337  24.389  26.331  1.00  0.00     0.055 A 
ATOM     78  C   UNL A   1      44.134  26.407  25.299  1.00  0.00     0.041 A 
ATOM     79  F   UNL A   1      43.745  28.472  26.332  1.00  0.00    -0.206 F 
ATOM     80  C   UNL A   1      44.031  25.019  25.296  1.00  0.00     0.022 A 
BRANCH  77  81
ATOM     81  S   UNL A   1      43.323  22.578  26.438  1.00  0.00     0.124 S 
ATOM     82  O   UNL A   1      42.433  22.224  25.339  1.00  0.00    -0.237 OA
ATOM     83  O   UNL A   1      44.733  22.253  26.255  1.00  0.00    -0.237 OA
ATOM     84  O   UNL A   1      42.795  22.321  27.777  1.00  0.00    -0.744 OA
ENDBRANCH  77  81
ENDBRANCH  50  74
BRANCH  62  85
ATOM     85  C   UNL A   1      44.846  27.246  34.044  1.00  0.00     0.023 A 
ATOM     86  C   UNL A   1      44.678  25.966  34.598  1.00  0.00     0.031 A 
ATOM     87  C   UNL A   1      46.065  27.911  34.277  1.00  0.00     0.131 A 
ATOM     88  C   UNL A   1      45.674  25.430  35.428  1.00  0.00     0.055 A 
ATOM     89  C   UNL A   1      47.087  27.333  35.028  1.00  0.00     0.041 A 
ATOM     90  F   UNL A   1      46.282  29.138  33.777  1.00  0.00    -0.206 F 
ATOM     91  C   UNL A   1      46.887  26.094  35.626  1.00  0.00     0.022 A 
BRANCH  88  92
ATOM     92  S   UNL A   1      45.302  23.923  36.365  1.00  0.00     0.124 S 
ATOM     93  O   UNL A   1      44.849  24.466  37.641  1.00  0.00    -0.237 OA
ATOM     94  O   UNL A   1      44.276  23.290  35.543  1.00  0.00    -0.237 OA
ATOM     95  O   UNL A   1      46.583  23.221  36.408  1.00  0.00    -0.744 OA
ENDBRANCH  88  92
ENDBRANCH  62  85
ENDBRANCH  36  37
ENDBRANCH  29  31
ENDBRANCH  28  29
ENDBRANCH  27  28
ENDBRANCH   1  27
TORSDOF 20
ENDMDL
MODEL 2
REMARK VINA RESULT:     -11.4      2.570      8.641
REMARK SMILES O=C(OCCOCCOC(=O)c1ccc(-c2c3nc(c(-c4cc(S(=O)(=O)[O-])ccc4F)c4ccc([nH]4)c(-c4cc(S(=O)(=O)[O-])ccc4F)c4nc(c(-c5cc(S(=O)(=O)[O-])ccc5F)c5ccc2[nH]5)C=C4)C=C3)cc1)C1=Cc2cc(OC(F)(F)F)ccc2O[C@@H]1C(F)(F)F
REMARK SMILES IDX 7 1 6 2 5 3 4 4 3 5 2 6 1 7 75 8 76 9 89 10 77 11 88 12
REMARK SMILES IDX 78 13 87 14 79 15 86 16 85 17 90 18 91 19 92 20 93 21 80 22
REMARK SMILES IDX 81 23 82 24 83 25 84 26 8 27 9 28 10 29 11 30 12 31 13 32
REMARK SMILES IDX 74 33 14 34 73 35 15 36 16 37 17 38 67 39 18 40 72 41 66 42
REMARK SMILES IDX 68 43 19 44 71 45 65 46 64 47 20 49 52 50 32 51 51 52 33 53
REMARK SMILES IDX 36 54 50 55 69 56 34 57 35 58 49 60 70 61 37 62 21 63 22 64
REMARK SMILES IDX 30 65 23 66 29 67 31 68 28 69 24 70 25 71 26 72 27 73 53 74
REMARK SMILES IDX 54 75 62 76 55 77 61 78 63 79 60 80 56 81 57 82 58 83 59 84
REMARK SMILES IDX 38 85 39 86 47 87 40 88 46 89 48 90 45 91 41 92 42 93 43 94
REMARK SMILES IDX 44 95
REMARK H PARENT 68 48 36 59
REMARK Flexibility Score: inf
ROOT
ATOM      1  C   UNL A   1      31.255  31.951  26.604  1.00  0.00     0.202 C 
ENDROOT
BRANCH   1   2
ATOM      2  O   UNL A   1      31.792  30.651  26.300  1.00  0.00    -0.374 OA
BRANCH   2   3
ATOM      3  C   UNL A   1      32.141  29.364  27.212  1.00  0.00     0.202 C 
BRANCH   3   4
ATOM      4  C   UNL A   1      31.945  27.228  26.806  1.00  0.00     0.261 C 
BRANCH   4   5
ATOM      5  O   UNL A   1      30.639  26.490  26.435  1.00  0.00    -0.460 OA
BRANCH   5   6
ATOM      6  C   UNL A   1      30.775  25.161  26.433  1.00  0.00     0.338 C 
ATOM      7  O   UNL A   1      31.356  24.439  27.202  1.00  0.00    -0.246 OA
BRANCH   6   8
ATOM      8  C   UNL A   1      30.330  24.976  25.073  1.00  0.00     0.087 C 
ATOM      9  C   UNL A   1      29.344  26.016  24.685  1.00  0.00     0.027 C 
ATOM     10  C   UNL A   1      32.092  24.777  24.286  1.00  0.00     0.316 C 
ATOM     11  C   UNL A   1      29.726  27.389  23.566  1.00  0.00     0.021 A 
ATOM     12  O   UNL A   1      32.536  26.270  23.143  1.00  0.00    -0.475 OA
ATOM     13  C   UNL A   1      28.799  28.371  23.353  1.00  0.00     0.058 A 
ATOM     14  C   UNL A   1      31.295  27.578  22.865  1.00  0.00     0.128 A 
ATOM     15  C   UNL A   1      29.232  29.472  22.585  1.00  0.00     0.130 A 
ATOM     16  C   UNL A   1      31.676  28.736  22.260  1.00  0.00     0.051 A 
ATOM     17  C   UNL A   1      30.601  29.664  22.118  1.00  0.00     0.050 A 
BRANCH  10  18
ATOM     18  C   UNL A   1      32.045  23.218  23.986  1.00  0.00     0.430 C 
ATOM     19  F   UNL A   1      31.237  22.493  24.782  1.00  0.00    -0.167 F 
ATOM     20  F   UNL A   1      31.516  23.069  22.733  1.00  0.00    -0.167 F 
ATOM     21  F   UNL A   1      33.249  22.609  23.920  1.00  0.00    -0.167 F 
ENDBRANCH  10  18
BRANCH  15  22
ATOM     22  O   UNL A   1      28.208  30.372  22.386  1.00  0.00    -0.406 OA
BRANCH  22  23
ATOM     23  C   UNL A   1      28.057  31.437  23.313  1.00  0.00     0.573 C 
ATOM     24  F   UNL A   1      27.865  32.597  22.657  1.00  0.00    -0.132 F 
ATOM     25  F   UNL A   1      27.035  31.213  24.164  1.00  0.00    -0.132 F 
ATOM     26  F   UNL A   1      29.196  31.531  24.036  1.00  0.00    -0.132 F 
ENDBRANCH  22  23
ENDBRANCH  15  22
ENDBRANCH   6   8
ENDBRANCH   5   6
ENDBRANCH   4   5
ENDBRANCH   3   4
ENDBRANCH   2   3
ENDBRANCH   1   2
BRANCH   1  27
ATOM     27  C   UNL A   1      32.269  33.073  26.810  1.00  0.00     0.261 C 
BRANCH  27  28
ATOM     28  O   UNL A   1      32.351  33.493  28.163  1.00  0.00    -0.460 OA
BRANCH  28  29
ATOM     29  C   UNL A   1      33.365  34.362  28.381  1.00  0.00     0.338 C 
ATOM     30  O   UNL A   1      33.344  35.572  28.243  1.00  0.00    -0.246 OA
BRANCH  29  31
ATOM     31  C   UNL A   1      34.548  33.606  28.825  1.00  0.00     0.060 A 
ATOM     32  C   UNL A   1      34.325  32.319  29.322  1.00  0.00     0.016 A 
ATOM     33  C   UNL A   1      35.845  34.136  28.746  1.00  0.00     0.016 A 
ATOM     34  C   UNL A   1      35.400  31.557  29.751  1.00  0.00     0.010 A 
ATOM     35  C   UNL A   1      36.922  33.381  29.196  1.00  0.00     0.010 A 
ATOM     36  C   UNL A   1      36.688  32.106  29.731  1.00  0.00    -0.014 A 
BRANCH  36  37
ATOM     37  C   UNL A   1      37.713  31.443  30.552  1.00  0.00     0.031 A 
ATOM     38  C   UNL A   1      38.565  30.417  29.865  1.00  0.00     0.074 A 
ATOM     39  C   UNL A   1      37.941  31.835  31.814  1.00  0.00     0.049 A 
ATOM     40  N   UNL A   1      39.615  29.782  30.306  1.00  0.00    -0.248 NA
ATOM     41  C   UNL A   1      38.186  30.074  28.483  1.00  0.00     0.031 C 
ATOM     42  C   UNL A   1      37.192  32.871  32.525  1.00  0.00     0.029 A 
ATOM     43  N   UNL A   1      38.889  31.424  32.710  1.00  0.00    -0.354 N 
ATOM     44  C   UNL A   1      40.033  28.981  29.251  1.00  0.00     0.074 A 
ATOM     45  C   UNL A   1      39.097  29.172  28.167  1.00  0.00     0.031 C 
ATOM     46  C   UNL A   1      37.727  33.026  33.749  1.00  0.00     0.029 A 
ATOM     47  C   UNL A   1      38.830  32.083  33.914  1.00  0.00     0.049 A 
ATOM     48  H   UNL A   1      39.550  30.723  32.511  1.00  0.00     0.167 HD
ATOM     49  C   UNL A   1      41.112  28.165  29.195  1.00  0.00     0.034 A 
ATOM     50  C   UNL A   1      39.587  31.923  35.017  1.00  0.00     0.034 A 
ATOM     51  C   UNL A   1      41.995  27.964  30.313  1.00  0.00     0.049 A 
ATOM     52  C   UNL A   1      40.713  30.916  34.968  1.00  0.00     0.074 A 
ATOM     53  C   UNL A   1      43.104  27.143  30.399  1.00  0.00     0.029 A 
ATOM     54  N   UNL A   1      41.852  28.574  31.554  1.00  0.00    -0.354 N 
ATOM     55  N   UNL A   1      41.109  30.161  33.966  1.00  0.00    -0.248 NA
ATOM     56  C   UNL A   1      41.505  30.754  36.191  1.00  0.00     0.031 C 
ATOM     57  C   UNL A   1      43.570  27.182  31.716  1.00  0.00     0.029 A 
ATOM     58  C   UNL A   1      42.828  28.118  32.424  1.00  0.00     0.049 A 
ATOM     59  H   UNL A   1      41.159  29.236  31.782  1.00  0.00     0.167 HD
ATOM     60  C   UNL A   1      42.230  29.473  34.427  1.00  0.00     0.074 A 
ATOM     61  C   UNL A   1      42.446  29.912  35.791  1.00  0.00     0.031 C 
ATOM     62  C   UNL A   1      43.019  28.571  33.784  1.00  0.00     0.034 A 
BRANCH  49  63
ATOM     63  C   UNL A   1      41.314  27.379  27.924  1.00  0.00     0.023 A 
ATOM     64  C   UNL A   1      41.017  26.005  27.841  1.00  0.00     0.031 A 
ATOM     65  C   UNL A   1      41.884  27.998  26.799  1.00  0.00     0.131 A 
ATOM     66  C   UNL A   1      41.368  25.284  26.688  1.00  0.00     0.055 A 
ATOM     67  C   UNL A   1      42.143  27.294  25.623  1.00  0.00     0.041 A 
ATOM     68  F   UNL A   1      42.226  29.295  26.834  1.00  0.00    -0.206 F 
ATOM     69  C   UNL A   1      41.901  25.925  25.568  1.00  0.00     0.022 A 
BRANCH  66  70
ATOM     70  S   UNL A   1      41.286  23.472  26.739  1.00  0.00     0.124 S 
ATOM     71  O   UNL A   1      39.862  23.236  26.511  1.00  0.00    -0.237 OA
ATOM     72  O   UNL A   1      42.181  23.084  25.656  1.00  0.00    -0.237 OA
ATOM     73  O   UNL A   1      41.755  23.146  28.084  1.00  0.00    -0.744 OA
ENDBRANCH  66  70
ENDBRANCH  49  63
BRANCH  50  74
ATOM     74  C   UNL A   1      39.306  32.702  36.258  1.00  0.00     0.023 A 
ATOM     75  C   UNL A   1      38.504  32.178  37.285  1.00  0.00     0.031 A 
ATOM     76  C   UNL A   1      39.777  34.020  36.402  1.00  0.00     0.131 A 
ATOM     77  C   UNL A   1      38.147  32.986  38.376  1.00  0.00     0.055 A 
ATOM     78  C   UNL A   1      39.473  34.798  37.520  1.00  0.00     0.041 A 
ATOM     79  F   UNL A   1      40.543  34.576  35.449  1.00  0.00    -0.206 F 
ATOM     80  C   UNL A   1      38.639  34.287  38.509  1.00  0.00     0.022 A 
BRANCH  77  81
ATOM     81  S   UNL A   1      36.934  32.352  39.567  1.00  0.00     0.124 S 
ATOM     82  O   UNL A   1      37.279  33.103  40.768  1.00  0.00    -0.237 OA
ATOM     83  O   UNL A   1      35.671  32.704  38.929  1.00  0.00    -0.237 OA
ATOM     84  O   UNL A   1      37.226  30.921  39.620  1.00  0.00    -0.744 OA
ENDBRANCH  77  81
ENDBRANCH  50  74
BRANCH  62  85
ATOM     85  C   UNL A   1      44.232  28.063  34.528  1.00  0.00     0.023 A 
ATOM     86  C   UNL A   1      44.193  26.904  35.321  1.00  0.00     0.031 A 
ATOM     87  C   UNL A   1      45.446  28.771  34.453  1.00  0.00     0.131 A 
ATOM     88  C   UNL A   1      45.319  26.538  36.074  1.00  0.00     0.055 A 
ATOM     89  C   UNL A   1      46.588  28.349  35.133  1.00  0.00     0.041 A 
ATOM     90  F   UNL A   1      45.543  29.888  33.714  1.00  0.00    -0.206 F 
ATOM     91  C   UNL A   1      46.522  27.238  35.966  1.00  0.00     0.022 A 
BRANCH  88  92
ATOM     92  S   UNL A   1      45.142  25.223  37.312  1.00  0.00     0.124 S 
ATOM     93  O   UNL A   1      46.460  25.221  37.938  1.00  0.00    -0.237 OA
ATOM     94  O   UNL A   1      44.045  25.717  38.137  1.00  0.00    -0.237 OA
ATOM     95  O   UNL A   1      44.834  24.040  36.511  1.00  0.00    -0.744 OA
ENDBRANCH  88  92
ENDBRANCH  62  85
ENDBRANCH  36  37
ENDBRANCH  29  31
ENDBRANCH  28  29
ENDBRANCH  27  28
ENDBRANCH   1  27
TORSDOF 20
ENDMDL
MODEL 3
REMARK VINA RESULT:     -11.3      3.147      3.930
REMARK SMILES O=C(OCCOCCOC(=O)c1ccc(-c2c3nc(c(-c4cc(S(=O)(=O)[O-])ccc4F)c4ccc([nH]4)c(-c4cc(S(=O)(=O)[O-])ccc4F)c4nc(c(-c5cc(S(=O)(=O)[O-])ccc5F)c5ccc2[nH]5)C=C4)C=C3)cc1)C1=Cc2cc(OC(F)(F)F)ccc2O[C@@H]1C(F)(F)F
REMARK SMILES IDX 7 1 6 2 5 3 4 4 3 5 2 6 1 7 75 8 76 9 89 10 77 11 88 12
REMARK SMILES IDX 78 13 87 14 79 15 86 16 85 17 90 18 91 19 92 20 93 21 80 22
REMARK SMILES IDX 81 23 82 24 83 25 84 26 8 27 9 28 10 29 11 30 12 31 13 32
REMARK SMILES IDX 74 33 14 34 73 35 15 36 16 37 17 38 67 39 18 40 72 41 66 42
REMARK SMILES IDX 68 43 19 44 71 45 65 46 64 47 20 49 52 50 32 51 51 52 33 53
REMARK SMILES IDX 36 54 50 55 69 56 34 57 35 58 49 60 70 61 37 62 21 63 22 64
REMARK SMILES IDX 30 65 23 66 29 67 31 68 28 69 24 70 25 71 26 72 27 73 53 74
REMARK SMILES IDX 54 75 62 76 55 77 61 78 63 79 60 80 56 81 57 82 58 83 59 84
REMARK SMILES IDX 38 85 39 86 47 87 40 88 46 89 48 90 45 91 41 92 42 93 43 94
REMARK SMILES IDX 44 95
REMARK H PARENT 68 48 36 59
REMARK Flexibility Score: inf
ROOT
ATOM      1  C   UNL A   1      31.771  30.471  25.758  1.00  0.00     0.202 C 
ENDROOT
BRANCH   1   2
ATOM      2  O   UNL A   1      31.975  29.196  25.123  1.00  0.00    -0.374 OA
BRANCH   2   3
ATOM      3  C   UNL A   1      32.303  28.765  23.602  1.00  0.00     0.202 C 
BRANCH   3   4
ATOM      4  C   UNL A   1      31.224  27.467  22.218  1.00  0.00     0.261 C 
BRANCH   4   5
ATOM      5  O   UNL A   1      30.944  25.959  22.417  1.00  0.00    -0.460 OA
BRANCH   5   6
ATOM      6  C   UNL A   1      32.000  25.294  22.897  1.00  0.00     0.338 C 
ATOM      7  O   UNL A   1      33.133  25.242  22.495  1.00  0.00    -0.246 OA
BRANCH   6   8
ATOM      8  C   UNL A   1      31.237  24.435  23.770  1.00  0.00     0.087 C 
ATOM      9  C   UNL A   1      31.394  23.008  23.390  1.00  0.00     0.027 C 
ATOM     10  C   UNL A   1      31.853  25.207  25.439  1.00  0.00     0.316 C 
ATOM     11  C   UNL A   1      32.379  21.822  24.344  1.00  0.00     0.021 A 
ATOM     12  O   UNL A   1      32.961  23.974  26.431  1.00  0.00    -0.475 OA
ATOM     13  C   UNL A   1      32.572  20.557  23.863  1.00  0.00     0.058 A 
ATOM     14  C   UNL A   1      33.215  22.288  25.784  1.00  0.00     0.128 A 
ATOM     15  C   UNL A   1      33.468  19.749  24.595  1.00  0.00     0.130 A 
ATOM     16  C   UNL A   1      34.171  21.498  26.345  1.00  0.00     0.051 A 
ATOM     17  C   UNL A   1      34.258  20.214  25.731  1.00  0.00     0.050 A 
BRANCH  10  18
ATOM     18  C   UNL A   1      30.524  25.974  25.852  1.00  0.00     0.430 C 
ATOM     19  F   UNL A   1      29.535  25.206  26.344  1.00  0.00    -0.167 F 
ATOM     20  F   UNL A   1      30.852  26.813  26.882  1.00  0.00    -0.167 F 
ATOM     21  F   UNL A   1      30.011  26.787  24.903  1.00  0.00    -0.167 F 
ENDBRANCH  10  18
BRANCH  15  22
ATOM     22  O   UNL A   1      33.546  18.483  24.058  1.00  0.00    -0.406 OA
BRANCH  22  23
ATOM     23  C   UNL A   1      33.283  17.375  24.906  1.00  0.00     0.573 C 
ATOM     24  F   UNL A   1      32.534  17.762  25.955  1.00  0.00    -0.132 F 
ATOM     25  F   UNL A   1      32.666  16.376  24.243  1.00  0.00    -0.132 F 
ATOM     26  F   UNL A   1      34.466  16.908  25.367  1.00  0.00    -0.132 F 
ENDBRANCH  22  23
ENDBRANCH  15  22
ENDBRANCH   6   8
ENDBRANCH   5   6
ENDBRANCH   4   5
ENDBRANCH   3   4
ENDBRANCH   2   3
ENDBRANCH   1   2
BRANCH   1  27
ATOM     27  C   UNL A   1      32.461  30.677  27.104  1.00  0.00     0.261 C 
BRANCH  27  28
ATOM     28  O   UNL A   1      33.868  30.506  27.029  1.00  0.00    -0.460 OA
BRANCH  28  29
ATOM     29  C   UNL A   1      34.540  31.315  27.879  1.00  0.00     0.338 C 
ATOM     30  O   UNL A   1      34.143  32.347  28.388  1.00  0.00    -0.246 OA
BRANCH  29  31
ATOM     31  C   UNL A   1      35.879  30.748  28.111  1.00  0.00     0.060 A 
ATOM     32  C   UNL A   1      35.980  29.354  28.137  1.00  0.00     0.016 A 
ATOM     33  C   UNL A   1      37.012  31.558  28.286  1.00  0.00     0.016 A 
ATOM     34  C   UNL A   1      37.214  28.762  28.346  1.00  0.00     0.010 A 
ATOM     35  C   UNL A   1      38.249  30.964  28.518  1.00  0.00     0.010 A 
ATOM     36  C   UNL A   1      38.335  29.567  28.583  1.00  0.00    -0.014 A 
BRANCH  36  37
ATOM     37  C   UNL A   1      39.509  28.920  29.192  1.00  0.00     0.031 A 
ATOM     38  C   UNL A   1      39.905  29.396  30.559  1.00  0.00     0.074 A 
ATOM     39  C   UNL A   1      40.105  27.878  28.595  1.00  0.00     0.049 A 
ATOM     40  N   UNL A   1      40.804  28.918  31.373  1.00  0.00    -0.248 NA
ATOM     41  C   UNL A   1      39.172  30.562  31.081  1.00  0.00     0.031 C 
ATOM     42  C   UNL A   1      39.731  27.322  27.295  1.00  0.00     0.029 A 
ATOM     43  N   UNL A   1      41.134  27.085  29.022  1.00  0.00    -0.354 N 
ATOM     44  C   UNL A   1      40.731  29.713  32.511  1.00  0.00     0.074 A 
ATOM     45  C   UNL A   1      39.737  30.731  32.263  1.00  0.00     0.031 C 
ATOM     46  C   UNL A   1      40.514  26.259  27.039  1.00  0.00     0.029 A 
ATOM     47  C   UNL A   1      41.459  26.083  28.139  1.00  0.00     0.049 A 
ATOM     48  H   UNL A   1      41.598  27.219  29.879  1.00  0.00     0.167 HD
ATOM     49  C   UNL A   1      41.430  29.591  33.663  1.00  0.00     0.034 A 
ATOM     50  C   UNL A   1      42.420  25.142  28.225  1.00  0.00     0.034 A 
ATOM     51  C   UNL A   1      42.449  28.593  33.855  1.00  0.00     0.049 A 
ATOM     52  C   UNL A   1      43.269  25.104  29.475  1.00  0.00     0.074 A 
ATOM     53  C   UNL A   1      43.251  28.381  34.960  1.00  0.00     0.029 A 
ATOM     54  N   UNL A   1      42.822  27.650  32.903  1.00  0.00    -0.354 N 
ATOM     55  N   UNL A   1      43.195  25.856  30.552  1.00  0.00    -0.248 NA
ATOM     56  C   UNL A   1      44.317  24.080  29.527  1.00  0.00     0.031 C 
ATOM     57  C   UNL A   1      44.173  27.380  34.640  1.00  0.00     0.029 A 
ATOM     58  C   UNL A   1      43.871  26.882  33.380  1.00  0.00     0.049 A 
ATOM     59  H   UNL A   1      42.403  27.543  32.019  1.00  0.00     0.167 HD
ATOM     60  C   UNL A   1      44.156  25.358  31.431  1.00  0.00     0.074 A 
ATOM     61  C   UNL A   1      44.785  24.240  30.756  1.00  0.00     0.031 C 
ATOM     62  C   UNL A   1      44.483  25.773  32.683  1.00  0.00     0.034 A 
BRANCH  49  63
ATOM     63  C   UNL A   1      41.173  30.620  34.736  1.00  0.00     0.023 A 
ATOM     64  C   UNL A   1      39.958  30.671  35.445  1.00  0.00     0.031 A 
ATOM     65  C   UNL A   1      42.132  31.612  35.000  1.00  0.00     0.131 A 
ATOM     66  C   UNL A   1      39.705  31.739  36.320  1.00  0.00     0.055 A 
ATOM     67  C   UNL A   1      41.910  32.617  35.942  1.00  0.00     0.041 A 
ATOM     68  F   UNL A   1      43.291  31.639  34.326  1.00  0.00    -0.206 F 
ATOM     69  C   UNL A   1      40.684  32.695  36.596  1.00  0.00     0.022 A 
BRANCH  66  70
ATOM     70  S   UNL A   1      38.020  31.962  36.954  1.00  0.00     0.124 S 
ATOM     71  O   UNL A   1      38.214  33.025  37.938  1.00  0.00    -0.237 OA
ATOM     72  O   UNL A   1      37.276  32.329  35.754  1.00  0.00    -0.237 OA
ATOM     73  O   UNL A   1      37.690  30.655  37.517  1.00  0.00    -0.744 OA
ENDBRANCH  66  70
ENDBRANCH  49  63
BRANCH  50  74
ATOM     74  C   UNL A   1      42.651  24.181  27.108  1.00  0.00     0.023 A 
ATOM     75  C   UNL A   1      42.072  22.902  27.111  1.00  0.00     0.031 A 
ATOM     76  C   UNL A   1      43.522  24.503  26.051  1.00  0.00     0.131 A 
ATOM     77  C   UNL A   1      42.416  21.974  26.116  1.00  0.00     0.055 A 
ATOM     78  C   UNL A   1      43.811  23.599  25.028  1.00  0.00     0.041 A 
ATOM     79  F   UNL A   1      44.110  25.709  25.998  1.00  0.00    -0.206 F 
ATOM     80  C   UNL A   1      43.270  22.319  25.066  1.00  0.00     0.022 A 
BRANCH  77  81
ATOM     81  S   UNL A   1      41.823  20.267  26.276  1.00  0.00     0.124 S 
ATOM     82  O   UNL A   1      42.297  19.914  27.608  1.00  0.00    -0.237 OA
ATOM     83  O   UNL A   1      40.381  20.432  26.127  1.00  0.00    -0.237 OA
ATOM     84  O   UNL A   1      42.486  19.573  25.173  1.00  0.00    -0.744 OA
ENDBRANCH  77  81
ENDBRANCH  50  74
BRANCH  62  85
ATOM     85  C   UNL A   1      45.517  24.961  33.430  1.00  0.00     0.023 A 
ATOM     86  C   UNL A   1      46.889  25.257  33.369  1.00  0.00     0.031 A 
ATOM     87  C   UNL A   1      45.114  23.855  34.201  1.00  0.00     0.131 A 
ATOM     88  C   UNL A   1      47.813  24.407  33.995  1.00  0.00     0.055 A 
ATOM     89  C   UNL A   1      46.031  23.068  34.896  1.00  0.00     0.041 A 
ATOM     90  F   UNL A   1      43.816  23.521  34.294  1.00  0.00    -0.206 F 
ATOM     91  C   UNL A   1      47.391  23.330  34.778  1.00  0.00     0.022 A 
BRANCH  88  92
ATOM     92  S   UNL A   1      49.578  24.641  33.648  1.00  0.00     0.124 S 
ATOM     93  O   UNL A   1      49.925  25.717  34.570  1.00  0.00    -0.237 OA
ATOM     94  O   UNL A   1      50.134  23.329  33.962  1.00  0.00    -0.237 OA
ATOM     95  O   UNL A   1      49.602  25.003  32.233  1.00  0.00    -0.744 OA
ENDBRANCH  88  92
ENDBRANCH  62  85
ENDBRANCH  36  37
ENDBRANCH  29  31
ENDBRANCH  28  29
ENDBRANCH  27  28
ENDBRANCH   1  27
TORSDOF 20
ENDMDL
