MODEL 1
REMARK VINA RESULT:     -11.3      0.000      0.000
REMARK SMILES Cc1ccnc(C(=O)c2[nH]c3ccc(OC(F)(F)F)cc3c2CC(=O)OCCOCCOC(=O)c2ccc(-c3c4nc(c(-c5cc(S(=O)(=O)[O-])ccc5F)c5ccc([nH]5)c(-c5cc(S(=O)(=O)[O-])ccc5F)c5nc(c(-c6cc(S(=O)(=O)[O-])ccc6F)c6ccc3[nH]6)C=C5)C=C4)cc2)c1
REMARK SMILES IDX 29 1 28 2 27 3 26 4 24 5 25 6 23 7 22 8 9 9 10 10 11 11
REMARK SMILES IDX 21 13 12 14 20 15 13 16 14 17 7 18 8 19 6 20 1 21 2 22 3 23
REMARK SMILES IDX 98 24 4 25 5 26 15 27 16 28 17 29 18 30 19 31 30 32 31 33
REMARK SMILES IDX 32 34 33 35 34 36 35 37 36 38 97 39 37 40 96 41 38 42 39 43
REMARK SMILES IDX 40 44 90 45 41 46 95 47 89 48 91 49 42 50 94 51 88 52 87 53
REMARK SMILES IDX 43 55 75 56 55 57 74 58 56 59 59 60 73 61 92 62 57 63 58 64
REMARK SMILES IDX 72 66 93 67 60 68 44 69 45 70 53 71 46 72 52 73 54 74 51 75
REMARK SMILES IDX 47 76 48 77 49 78 50 79 76 80 77 81 85 82 78 83 84 84 86 85
REMARK SMILES IDX 83 86 79 87 80 88 81 89 82 90 61 91 62 92 70 93 63 94 69 95
REMARK SMILES IDX 71 96 68 97 64 98 65 99 66 100 67 101
REMARK H PARENT 10 12 91 54 59 65
REMARK Flexibility Score: inf
ROOT
ATOM      1  O   UNL A   1      32.866  30.738  27.565  1.00  0.00    -0.374 OA
ENDROOT
BRANCH   1   2
ATOM      2  C   UNL A   1      33.996  30.023  27.067  1.00  0.00     0.202 C 
BRANCH   2   3
ATOM      3  C   UNL A   1      33.876  28.504  26.895  1.00  0.00     0.261 C 
BRANCH   3   4
ATOM      4  O   UNL A   1      32.652  27.954  27.431  1.00  0.00    -0.463 OA
BRANCH   4   5
ATOM      5  C   UNL A   1      31.817  27.394  26.514  1.00  0.00     0.310 C 
ATOM      6  O   UNL A   1      30.894  26.632  26.800  1.00  0.00    -0.252 OA
BRANCH   5   7
ATOM      7  C   UNL A   1      32.145  27.688  25.067  1.00  0.00     0.161 C 
BRANCH   7   8
ATOM      8  C   UNL A   1      31.945  26.616  24.028  1.00  0.00     0.000 A 
ATOM      9  C   UNL A   1      30.773  26.308  23.330  1.00  0.00     0.093 A 
ATOM     10  N   UNL A   1      31.089  25.274  22.471  1.00  0.00    -0.352 N 
ATOM     11  C   UNL A   1      32.295  24.710  22.822  1.00  0.00     0.046 A 
ATOM     12  H   UNL A   1      30.532  24.982  21.714  1.00  0.00     0.167 HD
ATOM     13  C   UNL A   1      32.866  25.547  23.774  1.00  0.00     0.008 A 
ATOM     14  C   UNL A   1      32.917  23.534  22.385  1.00  0.00     0.030 A 
ATOM     15  C   UNL A   1      34.109  25.181  24.328  1.00  0.00     0.057 A 
ATOM     16  C   UNL A   1      34.129  23.168  22.993  1.00  0.00     0.049 A 
ATOM     17  C   UNL A   1      34.715  23.970  23.971  1.00  0.00     0.130 A 
BRANCH   9  18
ATOM     18  C   UNL A   1      29.471  26.954  23.471  1.00  0.00     0.227 C 
ATOM     19  O   UNL A   1      28.511  26.370  23.973  1.00  0.00    -0.285 OA
BRANCH  18  20
ATOM     20  C   UNL A   1      29.213  28.328  22.938  1.00  0.00     0.113 A 
ATOM     21  C   UNL A   1      27.283  31.474  23.782  1.00  0.00     0.044 C 
ATOM     22  C   UNL A   1      28.224  30.505  23.131  1.00  0.00    -0.047 A 
ATOM     23  C   UNL A   1      29.153  30.960  22.191  1.00  0.00     0.023 A 
ATOM     24  C   UNL A   1      28.260  29.160  23.518  1.00  0.00     0.036 A 
ATOM     25  C   UNL A   1      30.049  30.054  21.649  1.00  0.00     0.112 A 
ATOM     26  N   UNL A   1      30.090  28.752  21.990  1.00  0.00    -0.253 NA
ENDBRANCH  18  20
ENDBRANCH   9  18
BRANCH  17  27
ATOM     27  O   UNL A   1      35.860  23.701  24.667  1.00  0.00    -0.406 OA
BRANCH  27  28
ATOM     28  C   UNL A   1      35.800  22.727  25.692  1.00  0.00     0.573 C 
ATOM     29  F   UNL A   1      35.077  23.165  26.748  1.00  0.00    -0.132 F 
ATOM     30  F   UNL A   1      35.273  21.573  25.236  1.00  0.00    -0.132 F 
ATOM     31  F   UNL A   1      37.055  22.480  26.130  1.00  0.00    -0.132 F 
ENDBRANCH  27  28
ENDBRANCH  17  27
ENDBRANCH   7   8
ENDBRANCH   5   7
ENDBRANCH   4   5
ENDBRANCH   3   4
ENDBRANCH   2   3
ENDBRANCH   1   2
BRANCH   1  32
ATOM     32  C   UNL A   1      32.242  31.656  26.673  1.00  0.00     0.202 C 
BRANCH  32  33
ATOM     33  C   UNL A   1      31.939  33.066  27.202  1.00  0.00     0.261 C 
BRANCH  33  34
ATOM     34  O   UNL A   1      33.067  33.951  27.165  1.00  0.00    -0.460 OA
BRANCH  34  35
ATOM     35  C   UNL A   1      33.478  34.386  28.382  1.00  0.00     0.338 C 
ATOM     36  O   UNL A   1      32.947  35.236  29.084  1.00  0.00    -0.246 OA
BRANCH  35  37
ATOM     37  C   UNL A   1      34.600  33.557  28.846  1.00  0.00     0.060 A 
ATOM     38  C   UNL A   1      34.326  32.559  29.789  1.00  0.00     0.016 A 
ATOM     39  C   UNL A   1      35.903  33.772  28.390  1.00  0.00     0.016 A 
ATOM     40  C   UNL A   1      35.360  31.777  30.293  1.00  0.00     0.010 A 
ATOM     41  C   UNL A   1      36.941  32.995  28.910  1.00  0.00     0.010 A 
ATOM     42  C   UNL A   1      36.677  32.006  29.874  1.00  0.00    -0.014 A 
BRANCH  42  43
ATOM     43  C   UNL A   1      37.790  31.272  30.517  1.00  0.00     0.031 A 
ATOM     44  C   UNL A   1      38.138  31.581  31.945  1.00  0.00     0.074 A 
ATOM     45  C   UNL A   1      38.464  30.333  29.828  1.00  0.00     0.049 A 
ATOM     46  N   UNL A   1      39.104  31.105  32.684  1.00  0.00    -0.248 NA
ATOM     47  C   UNL A   1      37.282  32.564  32.629  1.00  0.00     0.031 C 
ATOM     48  C   UNL A   1      38.167  29.925  28.454  1.00  0.00     0.029 A 
ATOM     49  N   UNL A   1      39.537  29.557  30.184  1.00  0.00    -0.354 N 
ATOM     50  C   UNL A   1      38.979  31.733  33.919  1.00  0.00     0.074 A 
ATOM     51  C   UNL A   1      37.860  32.645  33.819  1.00  0.00     0.031 C 
ATOM     52  C   UNL A   1      39.043  28.976  28.083  1.00  0.00     0.029 A 
ATOM     53  C   UNL A   1      39.991  28.745  29.170  1.00  0.00     0.049 A 
ATOM     54  H   UNL A   1      39.944  29.579  31.080  1.00  0.00     0.167 HD
ATOM     55  C   UNL A   1      39.735  31.558  35.032  1.00  0.00     0.034 A 
ATOM     56  C   UNL A   1      41.067  27.935  29.120  1.00  0.00     0.034 A 
ATOM     57  C   UNL A   1      40.851  30.647  35.099  1.00  0.00     0.049 A 
ATOM     58  C   UNL A   1      41.951  27.838  30.342  1.00  0.00     0.074 A 
ATOM     59  C   UNL A   1      41.666  30.363  36.180  1.00  0.00     0.029 A 
ATOM     60  N   UNL A   1      41.323  29.886  34.036  1.00  0.00    -0.354 N 
ATOM     61  N   UNL A   1      41.808  28.417  31.513  1.00  0.00    -0.248 NA
ATOM     62  C   UNL A   1      43.137  26.980  30.236  1.00  0.00     0.031 C 
ATOM     63  C   UNL A   1      42.680  29.502  35.747  1.00  0.00     0.029 A 
ATOM     64  C   UNL A   1      42.449  29.176  34.421  1.00  0.00     0.049 A 
ATOM     65  H   UNL A   1      40.916  29.857  33.140  1.00  0.00     0.167 HD
ATOM     66  C   UNL A   1      42.875  27.970  32.289  1.00  0.00     0.074 A 
ATOM     67  C   UNL A   1      43.635  27.057  31.461  1.00  0.00     0.031 C 
ATOM     68  C   UNL A   1      43.201  28.284  33.570  1.00  0.00     0.034 A 
BRANCH  55  69
ATOM     69  C   UNL A   1      39.419  32.409  36.237  1.00  0.00     0.023 A 
ATOM     70  C   UNL A   1      38.592  31.954  37.279  1.00  0.00     0.031 A 
ATOM     71  C   UNL A   1      39.956  33.706  36.342  1.00  0.00     0.131 A 
ATOM     72  C   UNL A   1      38.284  32.807  38.351  1.00  0.00     0.055 A 
ATOM     73  C   UNL A   1      39.706  34.521  37.447  1.00  0.00     0.041 A 
ATOM     74  F   UNL A   1      40.730  34.205  35.366  1.00  0.00    -0.206 F 
ATOM     75  C   UNL A   1      38.857  34.076  38.456  1.00  0.00     0.022 A 
BRANCH  72  76
ATOM     76  S   UNL A   1      37.028  32.280  39.550  1.00  0.00     0.124 S 
ATOM     77  O   UNL A   1      37.311  30.852  39.666  1.00  0.00    -0.237 OA
ATOM     78  O   UNL A   1      37.346  33.093  40.718  1.00  0.00    -0.237 OA
ATOM     79  O   UNL A   1      35.766  32.606  38.889  1.00  0.00    -0.744 OA
ENDBRANCH  72  76
ENDBRANCH  55  69
BRANCH  56  80
ATOM     80  C   UNL A   1      41.410  27.192  27.871  1.00  0.00     0.023 A 
ATOM     81  C   UNL A   1      41.224  25.803  27.782  1.00  0.00     0.031 A 
ATOM     82  C   UNL A   1      41.996  27.849  26.774  1.00  0.00     0.131 A 
ATOM     83  C   UNL A   1      41.670  25.109  26.646  1.00  0.00     0.055 A 
ATOM     84  C   UNL A   1      42.380  27.162  25.619  1.00  0.00     0.041 A 
ATOM     85  F   UNL A   1      42.207  29.174  26.806  1.00  0.00    -0.206 F 
ATOM     86  C   UNL A   1      42.232  25.780  25.558  1.00  0.00     0.022 A 
BRANCH  83  87
ATOM     87  S   UNL A   1      41.610  23.296  26.662  1.00  0.00     0.124 S 
ATOM     88  O   UNL A   1      42.375  22.985  27.865  1.00  0.00    -0.237 OA
ATOM     89  O   UNL A   1      40.176  23.041  26.729  1.00  0.00    -0.237 OA
ATOM     90  O   UNL A   1      42.251  22.924  25.402  1.00  0.00    -0.744 OA
ENDBRANCH  83  87
ENDBRANCH  56  80
BRANCH  68  91
ATOM     91  C   UNL A   1      44.419  27.607  34.151  1.00  0.00     0.023 A 
ATOM     92  C   UNL A   1      44.325  26.385  34.837  1.00  0.00     0.031 A 
ATOM     93  C   UNL A   1      45.690  28.196  34.018  1.00  0.00     0.131 A 
ATOM     94  C   UNL A   1      45.471  25.818  35.414  1.00  0.00     0.055 A 
ATOM     95  C   UNL A   1      46.836  27.593  34.535  1.00  0.00     0.041 A 
ATOM     96  F   UNL A   1      45.838  29.365  33.373  1.00  0.00    -0.206 F 
ATOM     97  C   UNL A   1      46.729  26.403  35.251  1.00  0.00     0.022 A 
BRANCH  94  98
ATOM     98  S   UNL A   1      45.279  24.353  36.465  1.00  0.00     0.124 S 
ATOM     99  O   UNL A   1      46.666  24.004  36.754  1.00  0.00    -0.237 OA
ATOM    100  O   UNL A   1      44.505  24.871  37.588  1.00  0.00    -0.237 OA
ATOM    101  O   UNL A   1      44.568  23.407  35.607  1.00  0.00    -0.744 OA
ENDBRANCH  94  98
ENDBRANCH  68  91
ENDBRANCH  42  43
ENDBRANCH  35  37
ENDBRANCH  34  35
ENDBRANCH  33  34
ENDBRANCH  32  33
ENDBRANCH   1  32
TORSDOF 22
ENDMDL
MODEL 2
REMARK VINA RESULT:     -11.2      2.728      4.385
REMARK SMILES Cc1ccnc(C(=O)c2[nH]c3ccc(OC(F)(F)F)cc3c2CC(=O)OCCOCCOC(=O)c2ccc(-c3c4nc(c(-c5cc(S(=O)(=O)[O-])ccc5F)c5ccc([nH]5)c(-c5cc(S(=O)(=O)[O-])ccc5F)c5nc(c(-c6cc(S(=O)(=O)[O-])ccc6F)c6ccc3[nH]6)C=C5)C=C4)cc2)c1
REMARK SMILES IDX 29 1 28 2 27 3 26 4 24 5 25 6 23 7 22 8 9 9 10 10 11 11
REMARK SMILES IDX 21 13 12 14 20 15 13 16 14 17 7 18 8 19 6 20 1 21 2 22 3 23
REMARK SMILES IDX 98 24 4 25 5 26 15 27 16 28 17 29 18 30 19 31 30 32 31 33
REMARK SMILES IDX 32 34 33 35 34 36 35 37 36 38 97 39 37 40 96 41 38 42 39 43
REMARK SMILES IDX 40 44 90 45 41 46 95 47 89 48 91 49 42 50 94 51 88 52 87 53
REMARK SMILES IDX 43 55 75 56 55 57 74 58 56 59 59 60 73 61 92 62 57 63 58 64
REMARK SMILES IDX 72 66 93 67 60 68 44 69 45 70 53 71 46 72 52 73 54 74 51 75
REMARK SMILES IDX 47 76 48 77 49 78 50 79 76 80 77 81 85 82 78 83 84 84 86 85
REMARK SMILES IDX 83 86 79 87 80 88 81 89 82 90 61 91 62 92 70 93 63 94 69 95
REMARK SMILES IDX 71 96 68 97 64 98 65 99 66 100 67 101
REMARK H PARENT 10 12 91 54 59 65
REMARK Flexibility Score: inf
ROOT
ATOM      1  O   UNL A   1      32.393  29.904  26.659  1.00  0.00    -0.374 OA
ENDROOT
BRANCH   1   2
ATOM      2  C   UNL A   1      32.396  28.617  26.041  1.00  0.00     0.202 C 
BRANCH   2   3
ATOM      3  C   UNL A   1      33.718  27.840  25.988  1.00  0.00     0.261 C 
BRANCH   3   4
ATOM      4  O   UNL A   1      34.184  27.579  24.644  1.00  0.00    -0.463 OA
BRANCH   4   5
ATOM      5  C   UNL A   1      33.416  28.105  23.652  1.00  0.00     0.310 C 
ATOM      6  O   UNL A   1      33.285  29.313  23.452  1.00  0.00    -0.252 OA
BRANCH   5   7
ATOM      7  C   UNL A   1      32.631  27.105  22.833  1.00  0.00     0.161 C 
BRANCH   7   8
ATOM      8  C   UNL A   1      31.315  26.590  23.354  1.00  0.00     0.000 A 
ATOM      9  C   UNL A   1      30.984  25.273  23.690  1.00  0.00     0.093 A 
ATOM     10  N   UNL A   1      29.681  25.300  24.145  1.00  0.00    -0.352 N 
ATOM     11  C   UNL A   1      29.080  26.492  23.807  1.00  0.00     0.046 A 
ATOM     12  H   UNL A   1      29.242  24.571  24.640  1.00  0.00     0.167 HD
ATOM     13  C   UNL A   1      30.086  27.329  23.338  1.00  0.00     0.008 A 
ATOM     14  C   UNL A   1      27.740  26.892  23.871  1.00  0.00     0.030 A 
ATOM     15  C   UNL A   1      29.733  28.619  22.894  1.00  0.00     0.057 A 
ATOM     16  C   UNL A   1      27.410  28.164  23.373  1.00  0.00     0.049 A 
ATOM     17  C   UNL A   1      28.391  29.016  22.869  1.00  0.00     0.130 A 
BRANCH   9  18
ATOM     18  C   UNL A   1      31.846  24.098  23.593  1.00  0.00     0.227 C 
ATOM     19  O   UNL A   1      31.928  23.442  22.555  1.00  0.00    -0.285 OA
BRANCH  18  20
ATOM     20  C   UNL A   1      32.610  23.582  24.771  1.00  0.00     0.113 A 
ATOM     21  C   UNL A   1      36.144  23.424  26.121  1.00  0.00     0.044 C 
ATOM     22  C   UNL A   1      34.652  23.329  26.004  1.00  0.00    -0.047 A 
ATOM     23  C   UNL A   1      33.880  23.058  27.137  1.00  0.00     0.023 A 
ATOM     24  C   UNL A   1      34.002  23.604  24.796  1.00  0.00     0.036 A 
ATOM     25  C   UNL A   1      32.502  23.033  27.014  1.00  0.00     0.112 A 
ATOM     26  N   UNL A   1      31.853  23.275  25.858  1.00  0.00    -0.253 NA
ENDBRANCH  18  20
ENDBRANCH   9  18
BRANCH  17  27
ATOM     27  O   UNL A   1      28.192  30.250  22.316  1.00  0.00    -0.406 OA
BRANCH  27  28
ATOM     28  C   UNL A   1      27.991  31.345  23.191  1.00  0.00     0.573 C 
ATOM     29  F   UNL A   1      27.644  32.462  22.512  1.00  0.00    -0.132 F 
ATOM     30  F   UNL A   1      27.044  31.066  24.110  1.00  0.00    -0.132 F 
ATOM     31  F   UNL A   1      29.150  31.603  23.838  1.00  0.00    -0.132 F 
ENDBRANCH  27  28
ENDBRANCH  17  27
ENDBRANCH   7   8
ENDBRANCH   5   7
ENDBRANCH   4   5
ENDBRANCH   3   4
ENDBRANCH   2   3
ENDBRANCH   1   2
BRANCH   1  32
ATOM     32  C   UNL A   1      31.516  30.880  26.108  1.00  0.00     0.202 C 
BRANCH  32  33
ATOM     33  C   UNL A   1      31.532  32.283  26.733  1.00  0.00     0.261 C 
BRANCH  33  34
ATOM     34  O   UNL A   1      32.798  32.949  26.623  1.00  0.00    -0.460 OA
BRANCH  34  35
ATOM     35  C   UNL A   1      33.208  33.562  27.761  1.00  0.00     0.338 C 
ATOM     36  O   UNL A   1      32.628  34.444  28.380  1.00  0.00    -0.246 OA
BRANCH  35  37
ATOM     37  C   UNL A   1      34.414  32.893  28.272  1.00  0.00     0.060 A 
ATOM     38  C   UNL A   1      34.262  31.625  28.844  1.00  0.00     0.016 A 
ATOM     39  C   UNL A   1      35.667  33.510  28.221  1.00  0.00     0.016 A 
ATOM     40  C   UNL A   1      35.365  30.968  29.382  1.00  0.00     0.010 A 
ATOM     41  C   UNL A   1      36.770  32.855  28.776  1.00  0.00     0.010 A 
ATOM     42  C   UNL A   1      36.620  31.590  29.372  1.00  0.00    -0.014 A 
BRANCH  42  43
ATOM     43  C   UNL A   1      37.760  30.954  30.071  1.00  0.00     0.031 A 
ATOM     44  C   UNL A   1      38.070  31.366  31.482  1.00  0.00     0.074 A 
ATOM     45  C   UNL A   1      38.490  30.011  29.449  1.00  0.00     0.049 A 
ATOM     46  N   UNL A   1      39.048  30.985  32.260  1.00  0.00    -0.248 NA
ATOM     47  C   UNL A   1      37.156  32.343  32.094  1.00  0.00     0.031 C 
ATOM     48  C   UNL A   1      38.235  29.506  28.099  1.00  0.00     0.029 A 
ATOM     49  N   UNL A   1      39.595  29.313  29.863  1.00  0.00    -0.354 N 
ATOM     50  C   UNL A   1      38.874  31.679  33.453  1.00  0.00     0.074 A 
ATOM     51  C   UNL A   1      37.712  32.525  33.284  1.00  0.00     0.031 C 
ATOM     52  C   UNL A   1      39.163  28.583  27.796  1.00  0.00     0.029 A 
ATOM     53  C   UNL A   1      40.105  28.467  28.906  1.00  0.00     0.049 A 
ATOM     54  H   UNL A   1      39.988  29.411  30.761  1.00  0.00     0.167 HD
ATOM     55  C   UNL A   1      39.621  31.610  34.583  1.00  0.00     0.034 A 
ATOM     56  C   UNL A   1      41.221  27.711  28.918  1.00  0.00     0.034 A 
ATOM     57  C   UNL A   1      40.781  30.763  34.718  1.00  0.00     0.049 A 
ATOM     58  C   UNL A   1      42.091  27.733  30.154  1.00  0.00     0.074 A 
ATOM     59  C   UNL A   1      41.593  30.587  35.824  1.00  0.00     0.029 A 
ATOM     60  N   UNL A   1      41.306  29.966  33.708  1.00  0.00    -0.354 N 
ATOM     61  N   UNL A   1      41.902  28.374  31.286  1.00  0.00    -0.248 NA
ATOM     62  C   UNL A   1      43.320  26.932  30.114  1.00  0.00     0.031 C 
ATOM     63  C   UNL A   1      42.656  29.755  35.456  1.00  0.00     0.029 A 
ATOM     64  C   UNL A   1      42.461  29.338  34.149  1.00  0.00     0.049 A 
ATOM     65  H   UNL A   1      40.914  29.861  32.812  1.00  0.00     0.167 HD
ATOM     66  C   UNL A   1      42.979  28.030  32.100  1.00  0.00     0.074 A 
ATOM     67  C   UNL A   1      43.795  27.109  31.338  1.00  0.00     0.031 C 
ATOM     68  C   UNL A   1      43.270  28.436  33.363  1.00  0.00     0.034 A 
BRANCH  55  69
ATOM     69  C   UNL A   1      39.244  32.515  35.730  1.00  0.00     0.023 A 
ATOM     70  C   UNL A   1      39.709  33.839  35.823  1.00  0.00     0.031 A 
ATOM     71  C   UNL A   1      38.403  32.041  36.752  1.00  0.00     0.131 A 
ATOM     72  C   UNL A   1      39.374  34.621  36.939  1.00  0.00     0.055 A 
ATOM     73  C   UNL A   1      38.013  32.849  37.822  1.00  0.00     0.041 A 
ATOM     74  F   UNL A   1      37.949  30.778  36.732  1.00  0.00    -0.206 F 
ATOM     75  C   UNL A   1      38.508  34.145  37.925  1.00  0.00     0.022 A 
BRANCH  72  76
ATOM     76  S   UNL A   1      40.184  36.232  37.149  1.00  0.00     0.124 S 
ATOM     77  O   UNL A   1      41.550  35.834  37.478  1.00  0.00    -0.237 OA
ATOM     78  O   UNL A   1      39.994  36.852  35.843  1.00  0.00    -0.237 OA
ATOM     79  O   UNL A   1      39.441  36.849  38.245  1.00  0.00    -0.744 OA
ENDBRANCH  72  76
ENDBRANCH  55  69
BRANCH  56  80
ATOM     80  C   UNL A   1      41.619  26.913  27.721  1.00  0.00     0.023 A 
ATOM     81  C   UNL A   1      41.554  25.510  27.732  1.00  0.00     0.031 A 
ATOM     82  C   UNL A   1      42.140  27.537  26.573  1.00  0.00     0.131 A 
ATOM     83  C   UNL A   1      42.051  24.777  26.643  1.00  0.00     0.055 A 
ATOM     84  C   UNL A   1      42.574  26.805  25.465  1.00  0.00     0.041 A 
ATOM     85  F   UNL A   1      42.235  28.875  26.508  1.00  0.00    -0.206 F 
ATOM     86  C   UNL A   1      42.546  25.415  25.504  1.00  0.00     0.022 A 
BRANCH  83  87
ATOM     87  S   UNL A   1      42.149  22.972  26.788  1.00  0.00     0.124 S 
ATOM     88  O   UNL A   1      43.541  22.721  26.429  1.00  0.00    -0.237 OA
ATOM     89  O   UNL A   1      41.799  22.761  28.188  1.00  0.00    -0.237 OA
ATOM     90  O   UNL A   1      41.160  22.500  25.821  1.00  0.00    -0.744 OA
ENDBRANCH  83  87
ENDBRANCH  56  80
BRANCH  68  91
ATOM     91  C   UNL A   1      44.511  27.860  33.998  1.00  0.00     0.023 A 
ATOM     92  C   UNL A   1      44.506  26.593  34.607  1.00  0.00     0.031 A 
ATOM     93  C   UNL A   1      45.714  28.588  33.996  1.00  0.00     0.131 A 
ATOM     94  C   UNL A   1      45.664  26.118  35.239  1.00  0.00     0.055 A 
ATOM     95  C   UNL A   1      46.882  28.081  34.566  1.00  0.00     0.041 A 
ATOM     96  F   UNL A   1      45.776  29.805  33.430  1.00  0.00    -0.206 F 
ATOM     97  C   UNL A   1      46.857  26.843  35.205  1.00  0.00     0.022 A 
BRANCH  94  98
ATOM     98  S   UNL A   1      45.564  24.577  36.190  1.00  0.00     0.124 S 
ATOM     99  O   UNL A   1      46.762  23.870  35.749  1.00  0.00    -0.237 OA
ATOM    100  O   UNL A   1      45.579  25.058  37.568  1.00  0.00    -0.237 OA
ATOM    101  O   UNL A   1      44.299  23.987  35.754  1.00  0.00    -0.744 OA
ENDBRANCH  94  98
ENDBRANCH  68  91
ENDBRANCH  42  43
ENDBRANCH  35  37
ENDBRANCH  34  35
ENDBRANCH  33  34
ENDBRANCH  32  33
ENDBRANCH   1  32
TORSDOF 22
ENDMDL
MODEL 3
REMARK VINA RESULT:     -11.2      1.656      7.459
REMARK SMILES Cc1ccnc(C(=O)c2[nH]c3ccc(OC(F)(F)F)cc3c2CC(=O)OCCOCCOC(=O)c2ccc(-c3c4nc(c(-c5cc(S(=O)(=O)[O-])ccc5F)c5ccc([nH]5)c(-c5cc(S(=O)(=O)[O-])ccc5F)c5nc(c(-c6cc(S(=O)(=O)[O-])ccc6F)c6ccc3[nH]6)C=C5)C=C4)cc2)c1
REMARK SMILES IDX 29 1 28 2 27 3 26 4 24 5 25 6 23 7 22 8 9 9 10 10 11 11
REMARK SMILES IDX 21 13 12 14 20 15 13 16 14 17 7 18 8 19 6 20 1 21 2 22 3 23
REMARK SMILES IDX 98 24 4 25 5 26 15 27 16 28 17 29 18 30 19 31 30 32 31 33
REMARK SMILES IDX 32 34 33 35 34 36 35 37 36 38 97 39 37 40 96 41 38 42 39 43
REMARK SMILES IDX 40 44 90 45 41 46 95 47 89 48 91 49 42 50 94 51 88 52 87 53
REMARK SMILES IDX 43 55 75 56 55 57 74 58 56 59 59 60 73 61 92 62 57 63 58 64
REMARK SMILES IDX 72 66 93 67 60 68 44 69 45 70 53 71 46 72 52 73 54 74 51 75
REMARK SMILES IDX 47 76 48 77 49 78 50 79 76 80 77 81 85 82 78 83 84 84 86 85
REMARK SMILES IDX 83 86 79 87 80 88 81 89 82 90 61 91 62 92 70 93 63 94 69 95
REMARK SMILES IDX 71 96 68 97 64 98 65 99 66 100 67 101
REMARK H PARENT 10 12 91 54 59 65
REMARK Flexibility Score: inf
ROOT
ATOM      1  O   UNL A   1      33.011  30.377  27.482  1.00  0.00    -0.374 OA
ENDROOT
BRANCH   1   2
ATOM      2  C   UNL A   1      32.889  28.999  27.132  1.00  0.00     0.202 C 
BRANCH   2   3
ATOM      3  C   UNL A   1      31.620  28.545  26.399  1.00  0.00     0.261 C 
BRANCH   3   4
ATOM      4  O   UNL A   1      30.889  27.509  27.093  1.00  0.00    -0.463 OA
BRANCH   4   5
ATOM      5  C   UNL A   1      30.853  26.303  26.463  1.00  0.00     0.310 C 
ATOM      6  O   UNL A   1      31.539  25.335  26.792  1.00  0.00    -0.252 OA
BRANCH   5   7
ATOM      7  C   UNL A   1      29.969  26.232  25.238  1.00  0.00     0.161 C 
BRANCH   7   8
ATOM      8  C   UNL A   1      30.550  26.549  23.884  1.00  0.00     0.000 A 
ATOM      9  C   UNL A   1      30.081  27.476  22.948  1.00  0.00     0.093 A 
ATOM     10  N   UNL A   1      30.954  27.430  21.880  1.00  0.00    -0.352 N 
ATOM     11  C   UNL A   1      31.747  26.307  21.957  1.00  0.00     0.046 A 
ATOM     12  H   UNL A   1      31.005  28.104  21.165  1.00  0.00     0.167 HD
ATOM     13  C   UNL A   1      31.536  25.753  23.214  1.00  0.00     0.008 A 
ATOM     14  C   UNL A   1      32.620  25.737  21.021  1.00  0.00     0.030 A 
ATOM     15  C   UNL A   1      32.215  24.563  23.545  1.00  0.00     0.057 A 
ATOM     16  C   UNL A   1      33.242  24.523  21.359  1.00  0.00     0.049 A 
ATOM     17  C   UNL A   1      33.029  23.927  22.601  1.00  0.00     0.130 A 
BRANCH   9  18
ATOM     18  C   UNL A   1      28.905  28.334  23.073  1.00  0.00     0.227 C 
ATOM     19  O   UNL A   1      27.801  27.876  23.368  1.00  0.00    -0.285 OA
BRANCH  18  20
ATOM     20  C   UNL A   1      28.962  29.798  22.769  1.00  0.00     0.113 A 
ATOM     21  C   UNL A   1      27.825  32.285  20.152  1.00  0.00     0.044 C 
ATOM     22  C   UNL A   1      28.381  31.685  21.409  1.00  0.00    -0.047 A 
ATOM     23  C   UNL A   1      28.676  32.505  22.501  1.00  0.00     0.023 A 
ATOM     24  C   UNL A   1      28.521  30.299  21.548  1.00  0.00     0.036 A 
ATOM     25  C   UNL A   1      29.132  31.919  23.669  1.00  0.00     0.112 A 
ATOM     26  N   UNL A   1      29.294  30.591  23.822  1.00  0.00    -0.253 NA
ENDBRANCH  18  20
ENDBRANCH   9  18
BRANCH  17  27
ATOM     27  O   UNL A   1      33.535  22.731  23.028  1.00  0.00    -0.406 OA
BRANCH  27  28
ATOM     28  C   UNL A   1      34.503  22.751  24.060  1.00  0.00     0.573 C 
ATOM     29  F   UNL A   1      35.218  23.899  24.045  1.00  0.00    -0.132 F 
ATOM     30  F   UNL A   1      33.927  22.600  25.270  1.00  0.00    -0.132 F 
ATOM     31  F   UNL A   1      35.366  21.729  23.868  1.00  0.00    -0.132 F 
ENDBRANCH  27  28
ENDBRANCH  17  27
ENDBRANCH   7   8
ENDBRANCH   5   7
ENDBRANCH   4   5
ENDBRANCH   3   4
ENDBRANCH   2   3
ENDBRANCH   1   2
BRANCH   1  32
ATOM     32  C   UNL A   1      32.257  31.306  26.711  1.00  0.00     0.202 C 
BRANCH  32  33
ATOM     33  C   UNL A   1      31.939  32.667  27.348  1.00  0.00     0.261 C 
BRANCH  33  34
ATOM     34  O   UNL A   1      33.036  33.591  27.312  1.00  0.00    -0.460 OA
BRANCH  34  35
ATOM     35  C   UNL A   1      33.321  34.168  28.505  1.00  0.00     0.338 C 
ATOM     36  O   UNL A   1      32.628  34.958  29.132  1.00  0.00    -0.246 OA
BRANCH  35  37
ATOM     37  C   UNL A   1      34.549  33.576  29.055  1.00  0.00     0.060 A 
ATOM     38  C   UNL A   1      34.419  32.439  29.862  1.00  0.00     0.016 A 
ATOM     39  C   UNL A   1      35.803  34.141  28.813  1.00  0.00     0.016 A 
ATOM     40  C   UNL A   1      35.547  31.866  30.443  1.00  0.00     0.010 A 
ATOM     41  C   UNL A   1      36.932  33.574  29.410  1.00  0.00     0.010 A 
ATOM     42  C   UNL A   1      36.807  32.444  30.239  1.00  0.00    -0.014 A 
BRANCH  42  43
ATOM     43  C   UNL A   1      37.981  31.921  30.973  1.00  0.00     0.031 A 
ATOM     44  C   UNL A   1      38.771  30.793  30.374  1.00  0.00     0.074 A 
ATOM     45  C   UNL A   1      38.336  32.466  32.150  1.00  0.00     0.049 A 
ATOM     46  N   UNL A   1      39.794  30.145  30.865  1.00  0.00    -0.248 NA
ATOM     47  C   UNL A   1      38.345  30.331  29.043  1.00  0.00     0.031 C 
ATOM     48  C   UNL A   1      37.664  33.598  32.789  1.00  0.00     0.029 A 
ATOM     49  N   UNL A   1      39.344  32.140  33.022  1.00  0.00    -0.354 N 
ATOM     50  C   UNL A   1      40.132  29.193  29.908  1.00  0.00     0.074 A 
ATOM     51  C   UNL A   1      39.187  29.331  28.821  1.00  0.00     0.031 C 
ATOM     52  C   UNL A   1      38.276  33.869  33.954  1.00  0.00     0.029 A 
ATOM     53  C   UNL A   1      39.348  32.900  34.169  1.00  0.00     0.049 A 
ATOM     54  H   UNL A   1      40.001  31.428  32.844  1.00  0.00     0.167 HD
ATOM     55  C   UNL A   1      41.144  28.290  29.942  1.00  0.00     0.034 A 
ATOM     56  C   UNL A   1      40.112  32.801  35.275  1.00  0.00     0.034 A 
ATOM     57  C   UNL A   1      42.066  28.171  31.045  1.00  0.00     0.049 A 
ATOM     58  C   UNL A   1      41.165  31.717  35.327  1.00  0.00     0.074 A 
ATOM     59  C   UNL A   1      43.146  27.317  31.174  1.00  0.00     0.029 A 
ATOM     60  N   UNL A   1      42.004  28.914  32.218  1.00  0.00    -0.354 N 
ATOM     61  N   UNL A   1      41.493  30.839  34.406  1.00  0.00    -0.248 NA
ATOM     62  C   UNL A   1      41.948  31.612  36.565  1.00  0.00     0.031 C 
ATOM     63  C   UNL A   1      43.681  27.481  32.456  1.00  0.00     0.029 A 
ATOM     64  C   UNL A   1      42.994  28.500  33.096  1.00  0.00     0.049 A 
ATOM     65  H   UNL A   1      41.353  29.629  32.398  1.00  0.00     0.167 HD
ATOM     66  C   UNL A   1      42.539  30.095  34.947  1.00  0.00     0.074 A 
ATOM     67  C   UNL A   1      42.800  30.644  36.261  1.00  0.00     0.031 C 
ATOM     68  C   UNL A   1      43.224  29.052  34.411  1.00  0.00     0.034 A 
BRANCH  55  69
ATOM     69  C   UNL A   1      41.263  27.326  28.787  1.00  0.00     0.023 A 
ATOM     70  C   UNL A   1      42.254  27.460  27.799  1.00  0.00     0.031 A 
ATOM     71  C   UNL A   1      40.363  26.251  28.674  1.00  0.00     0.131 A 
ATOM     72  C   UNL A   1      42.287  26.569  26.715  1.00  0.00     0.055 A 
ATOM     73  C   UNL A   1      40.448  25.324  27.633  1.00  0.00     0.041 A 
ATOM     74  F   UNL A   1      39.379  26.087  29.572  1.00  0.00    -0.206 F 
ATOM     75  C   UNL A   1      41.408  25.486  26.640  1.00  0.00     0.022 A 
BRANCH  72  76
ATOM     76  S   UNL A   1      43.419  26.913  25.339  1.00  0.00     0.124 S 
ATOM     77  O   UNL A   1      43.646  25.574  24.803  1.00  0.00    -0.237 OA
ATOM     78  O   UNL A   1      42.633  27.812  24.502  1.00  0.00    -0.237 OA
ATOM     79  O   UNL A   1      44.577  27.520  25.990  1.00  0.00    -0.744 OA
ENDBRANCH  72  76
ENDBRANCH  55  69
BRANCH  56  80
ATOM     80  C   UNL A   1      39.891  33.703  36.443  1.00  0.00     0.023 A 
ATOM     81  C   UNL A   1      39.309  33.224  37.628  1.00  0.00     0.031 A 
ATOM     82  C   UNL A   1      40.190  35.076  36.368  1.00  0.00     0.131 A 
ATOM     83  C   UNL A   1      38.995  34.115  38.665  1.00  0.00     0.055 A 
ATOM     84  C   UNL A   1      39.935  35.949  37.428  1.00  0.00     0.041 A 
ATOM     85  F   UNL A   1      40.739  35.593  35.257  1.00  0.00    -0.206 F 
ATOM     86  C   UNL A   1      39.318  35.471  38.580  1.00  0.00     0.022 A 
BRANCH  83  87
ATOM     87  S   UNL A   1      38.050  33.495  40.084  1.00  0.00     0.124 S 
ATOM     88  O   UNL A   1      38.997  32.560  40.683  1.00  0.00    -0.237 OA
ATOM     89  O   UNL A   1      37.793  34.719  40.835  1.00  0.00    -0.237 OA
ATOM     90  O   UNL A   1      36.874  32.884  39.468  1.00  0.00    -0.744 OA
ENDBRANCH  83  87
ENDBRANCH  56  80
BRANCH  68  91
ATOM     91  C   UNL A   1      44.335  28.463  35.244  1.00  0.00     0.023 A 
ATOM     92  C   UNL A   1      44.079  27.511  36.246  1.00  0.00     0.031 A 
ATOM     93  C   UNL A   1      45.668  28.861  35.035  1.00  0.00     0.131 A 
ATOM     94  C   UNL A   1      45.131  27.033  37.040  1.00  0.00     0.055 A 
ATOM     95  C   UNL A   1      46.719  28.330  35.782  1.00  0.00     0.041 A 
ATOM     96  F   UNL A   1      45.970  29.769  34.092  1.00  0.00    -0.206 F 
ATOM     97  C   UNL A   1      46.452  27.420  36.801  1.00  0.00     0.022 A 
BRANCH  94  98
ATOM     98  S   UNL A   1      44.738  25.967  38.454  1.00  0.00     0.124 S 
ATOM     99  O   UNL A   1      45.876  26.201  39.335  1.00  0.00    -0.237 OA
ATOM    100  O   UNL A   1      43.459  26.506  38.906  1.00  0.00    -0.237 OA
ATOM    101  O   UNL A   1      44.672  24.630  37.866  1.00  0.00    -0.744 OA
ENDBRANCH  94  98
ENDBRANCH  68  91
ENDBRANCH  42  43
ENDBRANCH  35  37
ENDBRANCH  34  35
ENDBRANCH  33  34
ENDBRANCH  32  33
ENDBRANCH   1  32
TORSDOF 22
ENDMDL
