MODEL 1
REMARK VINA RESULT:     -11.7      0.000      0.000
REMARK SMILES Cc1ccc(C[C@@H](Cc2cc(F)cc(Br)c2)C(=O)OCCOCCOC(=O)c2ccc(-c3c4nc(c(-c5cc(S(=O)(=O)[O-])ccc5F)c5ccc([nH]5)c(-c5cc(S(=O)(=O)[O-])ccc5F)c5nc(c(-c6cc(S(=O)(=O)[O-])ccc6F)c6ccc3[nH]6)C=C5)C=C4)cc2)cc1
REMARK SMILES IDX 23 1 22 2 21 3 20 4 19 5 17 6 18 7 7 8 6 9 5 10 1 11 2 12
REMARK SMILES IDX 3 13 92 14 4 15 91 16 8 17 9 18 10 19 16 20 11 21 14 22
REMARK SMILES IDX 12 23 13 24 15 25 24 26 25 27 26 28 27 29 28 30 29 31 90 32
REMARK SMILES IDX 30 33 89 34 31 35 32 36 33 37 83 38 34 39 88 40 82 41 84 42
REMARK SMILES IDX 35 43 87 44 81 45 80 46 36 48 68 49 48 50 67 51 49 52 52 53
REMARK SMILES IDX 66 54 85 55 50 56 51 57 65 59 86 60 53 61 37 62 38 63 46 64
REMARK SMILES IDX 39 65 45 66 47 67 44 68 40 69 41 70 42 71 43 72 69 73 70 74
REMARK SMILES IDX 78 75 71 76 77 77 79 78 76 79 72 80 73 81 74 82 75 83 54 84
REMARK SMILES IDX 55 85 63 86 56 87 62 88 64 89 61 90 57 91 58 92 59 93 60 94
REMARK H PARENT 84 47 52 58
REMARK Flexibility Score: inf
ROOT
ATOM      1  C   UNL A   1      33.597  29.908  26.754  1.00  0.00     0.202 C 
ENDROOT
BRANCH   1   2
ATOM      2  O   UNL A   1      32.939  30.031  25.506  1.00  0.00    -0.374 OA
BRANCH   2   3
ATOM      3  C   UNL A   1      31.512  30.104  25.556  1.00  0.00     0.202 C 
BRANCH   3   4
ATOM      4  C   UNL A   1      31.012  29.499  24.256  1.00  0.00     0.261 C 
BRANCH   4   5
ATOM      5  O   UNL A   1      31.154  28.067  24.249  1.00  0.00    -0.463 OA
BRANCH   5   6
ATOM      6  C   UNL A   1      30.974  27.240  23.167  1.00  0.00     0.309 C 
ATOM      7  O   UNL A   1      30.536  27.550  22.098  1.00  0.00    -0.252 OA
BRANCH   6   8
ATOM      8  C   UNL A   1      31.580  25.857  23.514  1.00  0.00     0.108 C 
BRANCH   8   9
ATOM      9  C   UNL A   1      32.971  26.210  24.129  1.00  0.00     0.051 C 
BRANCH   9  10
ATOM     10  C   UNL A   1      34.018  25.150  24.162  1.00  0.00    -0.047 A 
ATOM     11  C   UNL A   1      36.778  21.900  24.254  1.00  0.00     0.044 C 
ATOM     12  C   UNL A   1      35.824  23.048  24.231  1.00  0.00    -0.051 A 
ATOM     13  C   UNL A   1      35.162  23.349  23.040  1.00  0.00     0.004 A 
ATOM     14  C   UNL A   1      35.590  23.815  25.381  1.00  0.00     0.004 A 
ATOM     15  C   UNL A   1      34.239  24.374  23.016  1.00  0.00     0.004 A 
ATOM     16  C   UNL A   1      34.700  24.878  25.343  1.00  0.00     0.004 A 
ENDBRANCH   9  10
ENDBRANCH   8   9
BRANCH   8  17
ATOM     17  C   UNL A   1      30.903  24.709  24.336  1.00  0.00     0.051 C 
BRANCH  17  18
ATOM     18  C   UNL A   1      31.341  23.372  24.843  1.00  0.00    -0.043 A 
ATOM     19  C   UNL A   1      31.614  22.339  23.898  1.00  0.00     0.043 A 
ATOM     20  C   UNL A   1      31.573  23.098  26.151  1.00  0.00     0.019 A 
ATOM     21  C   UNL A   1      32.342  21.194  24.221  1.00  0.00     0.124 A 
ATOM     22  C   UNL A   1      32.418  22.025  26.378  1.00  0.00     0.021 A 
ATOM     23  F   UNL A   1      32.698  20.314  23.280  1.00  0.00    -0.207 F 
ATOM     24  C   UNL A   1      32.831  21.063  25.476  1.00  0.00     0.055 A 
ATOM     25  Br  UNL A   1      33.502  22.221  27.798  1.00  0.00    -0.051 Br
ENDBRANCH  17  18
ENDBRANCH   8  17
ENDBRANCH   6   8
ENDBRANCH   5   6
ENDBRANCH   4   5
ENDBRANCH   3   4
ENDBRANCH   2   3
ENDBRANCH   1   2
BRANCH   1  26
ATOM     26  C   UNL A   1      33.637  31.212  27.560  1.00  0.00     0.261 C 
BRANCH  26  27
ATOM     27  O   UNL A   1      35.008  31.576  27.812  1.00  0.00    -0.460 OA
BRANCH  27  28
ATOM     28  C   UNL A   1      35.455  31.269  29.058  1.00  0.00     0.338 C 
ATOM     29  O   UNL A   1      35.221  31.915  30.066  1.00  0.00    -0.246 OA
BRANCH  28  30
ATOM     30  C   UNL A   1      36.411  30.129  28.986  1.00  0.00     0.060 A 
ATOM     31  C   UNL A   1      36.727  29.431  30.159  1.00  0.00     0.016 A 
ATOM     32  C   UNL A   1      37.169  29.925  27.832  1.00  0.00     0.016 A 
ATOM     33  C   UNL A   1      37.874  28.633  30.208  1.00  0.00     0.010 A 
ATOM     34  C   UNL A   1      38.362  29.222  27.916  1.00  0.00     0.010 A 
ATOM     35  C   UNL A   1      38.751  28.600  29.115  1.00  0.00    -0.014 A 
BRANCH  35  36
ATOM     36  C   UNL A   1      40.174  28.206  29.256  1.00  0.00     0.031 A 
ATOM     37  C   UNL A   1      40.724  26.949  28.609  1.00  0.00     0.074 A 
ATOM     38  C   UNL A   1      40.975  29.222  29.651  1.00  0.00     0.049 A 
ATOM     39  N   UNL A   1      41.945  26.508  28.614  1.00  0.00    -0.248 NA
ATOM     40  C   UNL A   1      39.814  25.944  28.071  1.00  0.00     0.031 C 
ATOM     41  C   UNL A   1      42.017  29.870  28.892  1.00  0.00     0.029 A 
ATOM     42  N   UNL A   1      41.009  29.895  30.864  1.00  0.00    -0.354 N 
ATOM     43  C   UNL A   1      42.027  25.263  28.014  1.00  0.00     0.074 A 
ATOM     44  C   UNL A   1      40.649  24.987  27.657  1.00  0.00     0.031 C 
ATOM     45  C   UNL A   1      42.783  30.643  29.677  1.00  0.00     0.029 A 
ATOM     46  C   UNL A   1      42.281  30.450  31.001  1.00  0.00     0.049 A 
ATOM     47  H   UNL A   1      40.269  29.970  31.510  1.00  0.00     0.167 HD
ATOM     48  C   UNL A   1      43.192  24.529  27.903  1.00  0.00     0.034 A 
ATOM     49  C   UNL A   1      42.959  30.814  32.100  1.00  0.00     0.034 A 
ATOM     50  C   UNL A   1      44.350  24.977  28.736  1.00  0.00     0.049 A 
ATOM     51  C   UNL A   1      43.861  29.647  32.528  1.00  0.00     0.074 A 
ATOM     52  C   UNL A   1      45.667  25.341  28.455  1.00  0.00     0.029 A 
ATOM     53  N   UNL A   1      44.207  25.227  30.129  1.00  0.00    -0.354 N 
ATOM     54  N   UNL A   1      44.186  28.611  31.775  1.00  0.00    -0.248 NA
ATOM     55  C   UNL A   1      44.545  29.592  33.815  1.00  0.00     0.031 C 
ATOM     56  C   UNL A   1      46.263  25.894  29.636  1.00  0.00     0.029 A 
ATOM     57  C   UNL A   1      45.308  25.931  30.658  1.00  0.00     0.049 A 
ATOM     58  H   UNL A   1      43.429  24.940  30.661  1.00  0.00     0.167 HD
ATOM     59  C   UNL A   1      44.994  27.710  32.458  1.00  0.00     0.074 A 
ATOM     60  C   UNL A   1      45.254  28.452  33.703  1.00  0.00     0.031 C 
ATOM     61  C   UNL A   1      45.386  26.425  32.059  1.00  0.00     0.034 A 
BRANCH  48  62
ATOM     62  C   UNL A   1      43.354  23.412  26.838  1.00  0.00     0.023 A 
ATOM     63  C   UNL A   1      42.714  22.157  27.004  1.00  0.00     0.031 A 
ATOM     64  C   UNL A   1      44.141  23.492  25.671  1.00  0.00     0.131 A 
ATOM     65  C   UNL A   1      42.922  21.069  26.122  1.00  0.00     0.055 A 
ATOM     66  C   UNL A   1      44.415  22.390  24.837  1.00  0.00     0.041 A 
ATOM     67  F   UNL A   1      44.618  24.657  25.220  1.00  0.00    -0.206 F 
ATOM     68  C   UNL A   1      43.809  21.168  25.061  1.00  0.00     0.022 A 
BRANCH  65  69
ATOM     69  S   UNL A   1      41.985  19.525  26.358  1.00  0.00     0.124 S 
ATOM     70  O   UNL A   1      42.281  19.189  27.747  1.00  0.00    -0.237 OA
ATOM     71  O   UNL A   1      40.618  19.943  26.073  1.00  0.00    -0.237 OA
ATOM     72  O   UNL A   1      42.568  18.619  25.368  1.00  0.00    -0.744 OA
ENDBRANCH  65  69
ENDBRANCH  48  62
BRANCH  49  73
ATOM     73  C   UNL A   1      42.140  31.892  32.751  1.00  0.00     0.023 A 
ATOM     74  C   UNL A   1      40.883  31.424  33.254  1.00  0.00     0.031 A 
ATOM     75  C   UNL A   1      42.765  32.919  33.476  1.00  0.00     0.131 A 
ATOM     76  C   UNL A   1      40.426  31.807  34.531  1.00  0.00     0.055 A 
ATOM     77  C   UNL A   1      42.287  33.316  34.740  1.00  0.00     0.041 A 
ATOM     78  F   UNL A   1      43.967  33.379  33.096  1.00  0.00    -0.206 F 
ATOM     79  C   UNL A   1      41.146  32.727  35.292  1.00  0.00     0.022 A 
BRANCH  76  80
ATOM     80  S   UNL A   1      39.059  30.897  35.346  1.00  0.00     0.124 S 
ATOM     81  O   UNL A   1      38.287  30.421  34.204  1.00  0.00    -0.237 OA
ATOM     82  O   UNL A   1      39.749  29.871  36.121  1.00  0.00    -0.237 OA
ATOM     83  O   UNL A   1      38.412  31.933  36.152  1.00  0.00    -0.744 OA
ENDBRANCH  76  80
ENDBRANCH  49  73
BRANCH  61  84
ATOM     84  C   UNL A   1      46.026  25.432  33.025  1.00  0.00     0.023 A 
ATOM     85  C   UNL A   1      45.298  24.397  33.616  1.00  0.00     0.031 A 
ATOM     86  C   UNL A   1      47.419  25.422  33.303  1.00  0.00     0.131 A 
ATOM     87  C   UNL A   1      45.883  23.534  34.551  1.00  0.00     0.055 A 
ATOM     88  C   UNL A   1      48.026  24.480  34.136  1.00  0.00     0.041 A 
ATOM     89  F   UNL A   1      48.271  26.310  32.774  1.00  0.00    -0.206 F 
ATOM     90  C   UNL A   1      47.251  23.544  34.795  1.00  0.00     0.022 A 
BRANCH  87  91
ATOM     91  S   UNL A   1      44.776  22.489  35.522  1.00  0.00     0.124 S 
ATOM     92  O   UNL A   1      45.538  22.323  36.757  1.00  0.00    -0.237 OA
ATOM     93  O   UNL A   1      43.575  23.312  35.626  1.00  0.00    -0.237 OA
ATOM     94  O   UNL A   1      44.639  21.284  34.707  1.00  0.00    -0.744 OA
ENDBRANCH  87  91
ENDBRANCH  61  84
ENDBRANCH  35  36
ENDBRANCH  28  30
ENDBRANCH  27  28
ENDBRANCH  26  27
ENDBRANCH   1  26
TORSDOF 21
ENDMDL
MODEL 2
REMARK VINA RESULT:     -11.5      4.743     10.190
REMARK SMILES Cc1ccc(C[C@@H](Cc2cc(F)cc(Br)c2)C(=O)OCCOCCOC(=O)c2ccc(-c3c4nc(c(-c5cc(S(=O)(=O)[O-])ccc5F)c5ccc([nH]5)c(-c5cc(S(=O)(=O)[O-])ccc5F)c5nc(c(-c6cc(S(=O)(=O)[O-])ccc6F)c6ccc3[nH]6)C=C5)C=C4)cc2)cc1
REMARK SMILES IDX 23 1 22 2 21 3 20 4 19 5 17 6 18 7 7 8 6 9 5 10 1 11 2 12
REMARK SMILES IDX 3 13 92 14 4 15 91 16 8 17 9 18 10 19 16 20 11 21 14 22
REMARK SMILES IDX 12 23 13 24 15 25 24 26 25 27 26 28 27 29 28 30 29 31 90 32
REMARK SMILES IDX 30 33 89 34 31 35 32 36 33 37 83 38 34 39 88 40 82 41 84 42
REMARK SMILES IDX 35 43 87 44 81 45 80 46 36 48 68 49 48 50 67 51 49 52 52 53
REMARK SMILES IDX 66 54 85 55 50 56 51 57 65 59 86 60 53 61 37 62 38 63 46 64
REMARK SMILES IDX 39 65 45 66 47 67 44 68 40 69 41 70 42 71 43 72 69 73 70 74
REMARK SMILES IDX 78 75 71 76 77 77 79 78 76 79 72 80 73 81 74 82 75 83 54 84
REMARK SMILES IDX 55 85 63 86 56 87 62 88 64 89 61 90 57 91 58 92 59 93 60 94
REMARK H PARENT 84 47 52 58
REMARK Flexibility Score: inf
ROOT
ATOM      1  C   UNL A   1      37.786  21.717  25.125  1.00  0.00     0.202 C 
ENDROOT
BRANCH   1   2
ATOM      2  O   UNL A   1      36.413  21.417  25.297  1.00  0.00    -0.374 OA
BRANCH   2   3
ATOM      3  C   UNL A   1      35.559  22.531  25.573  1.00  0.00     0.202 C 
BRANCH   3   4
ATOM      4  C   UNL A   1      34.159  22.099  25.175  1.00  0.00     0.261 C 
BRANCH   4   5
ATOM      5  O   UNL A   1      33.266  23.223  25.075  1.00  0.00    -0.463 OA
BRANCH   5   6
ATOM      6  C   UNL A   1      32.054  23.241  24.429  1.00  0.00     0.309 C 
ATOM      7  O   UNL A   1      31.715  22.528  23.529  1.00  0.00    -0.252 OA
BRANCH   6   8
ATOM      8  C   UNL A   1      31.133  24.247  25.162  1.00  0.00     0.108 C 
BRANCH   8   9
ATOM      9  C   UNL A   1      32.027  24.782  26.325  1.00  0.00     0.051 C 
BRANCH   9  10
ATOM     10  C   UNL A   1      32.231  26.253  26.440  1.00  0.00    -0.047 A 
ATOM     11  C   UNL A   1      33.036  30.405  26.994  1.00  0.00     0.044 C 
ATOM     12  C   UNL A   1      32.736  28.956  26.796  1.00  0.00    -0.051 A 
ATOM     13  C   UNL A   1      33.653  28.170  26.097  1.00  0.00     0.004 A 
ATOM     14  C   UNL A   1      31.559  28.386  27.300  1.00  0.00     0.004 A 
ATOM     15  C   UNL A   1      33.416  26.818  25.950  1.00  0.00     0.004 A 
ATOM     16  C   UNL A   1      31.296  27.038  27.107  1.00  0.00     0.004 A 
ENDBRANCH   9  10
ENDBRANCH   8   9
BRANCH   8  17
ATOM     17  C   UNL A   1      30.320  25.423  24.524  1.00  0.00     0.051 C 
BRANCH  17  18
ATOM     18  C   UNL A   1      30.669  26.637  23.722  1.00  0.00    -0.043 A 
ATOM     19  C   UNL A   1      29.939  27.841  23.952  1.00  0.00     0.043 A 
ATOM     20  C   UNL A   1      31.697  26.690  22.839  1.00  0.00     0.019 A 
ATOM     21  C   UNL A   1      30.391  29.090  23.529  1.00  0.00     0.124 A 
ATOM     22  C   UNL A   1      32.175  27.964  22.580  1.00  0.00     0.021 A 
ATOM     23  F   UNL A   1      29.754  30.210  23.881  1.00  0.00    -0.207 F 
ATOM     24  C   UNL A   1      31.584  29.173  22.893  1.00  0.00     0.055 A 
ATOM     25  Br  UNL A   1      33.952  28.053  22.326  1.00  0.00    -0.051 Br
ENDBRANCH  17  18
ENDBRANCH   8  17
ENDBRANCH   6   8
ENDBRANCH   5   6
ENDBRANCH   4   5
ENDBRANCH   3   4
ENDBRANCH   2   3
ENDBRANCH   1   2
BRANCH   1  26
ATOM     26  C   UNL A   1      38.325  22.735  26.136  1.00  0.00     0.261 C 
BRANCH  26  27
ATOM     27  O   UNL A   1      39.765  22.698  26.129  1.00  0.00    -0.460 OA
BRANCH  27  28
ATOM     28  C   UNL A   1      40.351  23.224  27.236  1.00  0.00     0.338 C 
ATOM     29  O   UNL A   1      41.037  22.602  28.031  1.00  0.00    -0.246 OA
BRANCH  28  30
ATOM     30  C   UNL A   1      39.894  24.629  27.432  1.00  0.00     0.060 A 
ATOM     31  C   UNL A   1      40.408  25.633  26.601  1.00  0.00     0.016 A 
ATOM     32  C   UNL A   1      39.173  24.975  28.575  1.00  0.00     0.016 A 
ATOM     33  C   UNL A   1      40.309  26.974  26.984  1.00  0.00     0.010 A 
ATOM     34  C   UNL A   1      39.173  26.294  29.005  1.00  0.00     0.010 A 
ATOM     35  C   UNL A   1      39.775  27.306  28.238  1.00  0.00    -0.014 A 
BRANCH  35  36
ATOM     36  C   UNL A   1      40.080  28.592  28.910  1.00  0.00     0.031 A 
ATOM     37  C   UNL A   1      38.995  29.605  29.224  1.00  0.00     0.074 A 
ATOM     38  C   UNL A   1      41.276  28.598  29.540  1.00  0.00     0.049 A 
ATOM     39  N   UNL A   1      39.109  30.743  29.840  1.00  0.00    -0.248 NA
ATOM     40  C   UNL A   1      37.673  29.475  28.623  1.00  0.00     0.031 C 
ATOM     41  C   UNL A   1      41.525  28.669  30.960  1.00  0.00     0.029 A 
ATOM     42  N   UNL A   1      42.554  28.541  29.003  1.00  0.00    -0.354 N 
ATOM     43  C   UNL A   1      37.913  31.439  29.828  1.00  0.00     0.074 A 
ATOM     44  C   UNL A   1      37.037  30.558  29.079  1.00  0.00     0.031 C 
ATOM     45  C   UNL A   1      42.816  28.926  31.216  1.00  0.00     0.029 A 
ATOM     46  C   UNL A   1      43.427  29.100  29.936  1.00  0.00     0.049 A 
ATOM     47  H   UNL A   1      42.801  28.172  28.123  1.00  0.00     0.167 HD
ATOM     48  C   UNL A   1      37.738  32.695  30.376  1.00  0.00     0.034 A 
ATOM     49  C   UNL A   1      44.636  29.658  29.772  1.00  0.00     0.034 A 
ATOM     50  C   UNL A   1      38.978  33.451  30.730  1.00  0.00     0.049 A 
ATOM     51  C   UNL A   1      44.459  31.177  29.628  1.00  0.00     0.074 A 
ATOM     52  C   UNL A   1      39.456  34.041  31.900  1.00  0.00     0.029 A 
ATOM     53  N   UNL A   1      40.043  33.603  29.800  1.00  0.00    -0.354 N 
ATOM     54  N   UNL A   1      43.373  31.858  29.952  1.00  0.00    -0.248 NA
ATOM     55  C   UNL A   1      45.523  32.071  29.186  1.00  0.00     0.031 C 
ATOM     56  C   UNL A   1      40.818  34.443  31.699  1.00  0.00     0.029 A 
ATOM     57  C   UNL A   1      41.225  34.061  30.417  1.00  0.00     0.049 A 
ATOM     58  H   UNL A   1      39.963  33.411  28.837  1.00  0.00     0.167 HD
ATOM     59  C   UNL A   1      43.513  33.213  29.678  1.00  0.00     0.074 A 
ATOM     60  C   UNL A   1      44.932  33.277  29.290  1.00  0.00     0.031 C 
ATOM     61  C   UNL A   1      42.528  34.209  29.715  1.00  0.00     0.034 A 
BRANCH  48  62
ATOM     62  C   UNL A   1      36.334  33.222  30.774  1.00  0.00     0.023 A 
ATOM     63  C   UNL A   1      35.551  33.961  29.850  1.00  0.00     0.031 A 
ATOM     64  C   UNL A   1      35.724  33.075  32.037  1.00  0.00     0.131 A 
ATOM     65  C   UNL A   1      34.317  34.561  30.200  1.00  0.00     0.055 A 
ATOM     66  C   UNL A   1      34.539  33.737  32.413  1.00  0.00     0.041 A 
ATOM     67  F   UNL A   1      36.189  32.215  32.949  1.00  0.00    -0.206 F 
ATOM     68  C   UNL A   1      33.829  34.490  31.496  1.00  0.00     0.022 A 
BRANCH  65  69
ATOM     69  S   UNL A   1      33.334  35.411  28.924  1.00  0.00     0.124 S 
ATOM     70  O   UNL A   1      32.470  36.277  29.720  1.00  0.00    -0.237 OA
ATOM     71  O   UNL A   1      34.360  36.078  28.131  1.00  0.00    -0.237 OA
ATOM     72  O   UNL A   1      32.645  34.316  28.239  1.00  0.00    -0.744 OA
ENDBRANCH  65  69
ENDBRANCH  48  62
BRANCH  49  73
ATOM     73  C   UNL A   1      45.517  28.577  29.214  1.00  0.00     0.023 A 
ATOM     74  C   UNL A   1      45.467  28.485  27.786  1.00  0.00     0.031 A 
ATOM     75  C   UNL A   1      46.748  28.280  29.822  1.00  0.00     0.131 A 
ATOM     76  C   UNL A   1      46.646  28.340  27.027  1.00  0.00     0.055 A 
ATOM     77  C   UNL A   1      47.918  28.110  29.056  1.00  0.00     0.041 A 
ATOM     78  F   UNL A   1      46.888  28.390  31.151  1.00  0.00    -0.206 F 
ATOM     79  C   UNL A   1      47.879  28.188  27.661  1.00  0.00     0.022 A 
BRANCH  76  80
ATOM     80  S   UNL A   1      46.638  28.646  25.220  1.00  0.00     0.124 S 
ATOM     81  O   UNL A   1      46.389  30.082  25.157  1.00  0.00    -0.237 OA
ATOM     82  O   UNL A   1      47.964  28.210  24.795  1.00  0.00    -0.237 OA
ATOM     83  O   UNL A   1      45.541  27.799  24.750  1.00  0.00    -0.744 OA
ENDBRANCH  76  80
ENDBRANCH  49  73
BRANCH  61  84
ATOM     84  C   UNL A   1      42.746  35.592  29.107  1.00  0.00     0.023 A 
ATOM     85  C   UNL A   1      43.352  36.629  29.820  1.00  0.00     0.031 A 
ATOM     86  C   UNL A   1      42.452  35.887  27.749  1.00  0.00     0.131 A 
ATOM     87  C   UNL A   1      43.484  37.911  29.273  1.00  0.00     0.055 A 
ATOM     88  C   UNL A   1      42.704  37.130  27.165  1.00  0.00     0.041 A 
ATOM     89  F   UNL A   1      41.920  34.989  26.910  1.00  0.00    -0.206 F 
ATOM     90  C   UNL A   1      43.196  38.167  27.938  1.00  0.00     0.022 A 
BRANCH  87  91
ATOM     91  S   UNL A   1      43.928  39.252  30.398  1.00  0.00     0.124 S 
ATOM     92  O   UNL A   1      43.840  38.587  31.695  1.00  0.00    -0.237 OA
ATOM     93  O   UNL A   1      45.275  39.601  29.957  1.00  0.00    -0.237 OA
ATOM     94  O   UNL A   1      42.905  40.264  30.145  1.00  0.00    -0.744 OA
ENDBRANCH  87  91
ENDBRANCH  61  84
ENDBRANCH  35  36
ENDBRANCH  28  30
ENDBRANCH  27  28
ENDBRANCH  26  27
ENDBRANCH   1  26
TORSDOF 21
ENDMDL
MODEL 3
REMARK VINA RESULT:     -11.5      4.518     10.229
REMARK SMILES Cc1ccc(C[C@@H](Cc2cc(F)cc(Br)c2)C(=O)OCCOCCOC(=O)c2ccc(-c3c4nc(c(-c5cc(S(=O)(=O)[O-])ccc5F)c5ccc([nH]5)c(-c5cc(S(=O)(=O)[O-])ccc5F)c5nc(c(-c6cc(S(=O)(=O)[O-])ccc6F)c6ccc3[nH]6)C=C5)C=C4)cc2)cc1
REMARK SMILES IDX 23 1 22 2 21 3 20 4 19 5 17 6 18 7 7 8 6 9 5 10 1 11 2 12
REMARK SMILES IDX 3 13 92 14 4 15 91 16 8 17 9 18 10 19 16 20 11 21 14 22
REMARK SMILES IDX 12 23 13 24 15 25 24 26 25 27 26 28 27 29 28 30 29 31 90 32
REMARK SMILES IDX 30 33 89 34 31 35 32 36 33 37 83 38 34 39 88 40 82 41 84 42
REMARK SMILES IDX 35 43 87 44 81 45 80 46 36 48 68 49 48 50 67 51 49 52 52 53
REMARK SMILES IDX 66 54 85 55 50 56 51 57 65 59 86 60 53 61 37 62 38 63 46 64
REMARK SMILES IDX 39 65 45 66 47 67 44 68 40 69 41 70 42 71 43 72 69 73 70 74
REMARK SMILES IDX 78 75 71 76 77 77 79 78 76 79 72 80 73 81 74 82 75 83 54 84
REMARK SMILES IDX 55 85 63 86 56 87 62 88 64 89 61 90 57 91 58 92 59 93 60 94
REMARK H PARENT 84 47 52 58
REMARK Flexibility Score: inf
ROOT
ATOM      1  C   UNL A   1      37.769  22.158  25.319  1.00  0.00     0.202 C 
ENDROOT
BRANCH   1   2
ATOM      2  O   UNL A   1      37.138  21.028  24.746  1.00  0.00    -0.374 OA
BRANCH   2   3
ATOM      3  C   UNL A   1      35.799  20.772  25.177  1.00  0.00     0.202 C 
BRANCH   3   4
ATOM      4  C   UNL A   1      35.233  22.111  25.612  1.00  0.00     0.261 C 
BRANCH   4   5
ATOM      5  O   UNL A   1      33.904  21.976  26.149  1.00  0.00    -0.463 OA
BRANCH   5   6
ATOM      6  C   UNL A   1      32.729  22.174  25.467  1.00  0.00     0.309 C 
ATOM      7  O   UNL A   1      31.854  21.373  25.305  1.00  0.00    -0.252 OA
BRANCH   6   8
ATOM      8  C   UNL A   1      32.653  23.667  25.063  1.00  0.00     0.108 C 
BRANCH   8   9
ATOM      9  C   UNL A   1      31.259  23.789  24.371  1.00  0.00     0.051 C 
BRANCH   9  10
ATOM     10  C   UNL A   1      30.890  25.092  23.750  1.00  0.00    -0.047 A 
ATOM     11  C   UNL A   1      30.135  28.923  22.033  1.00  0.00     0.044 C 
ATOM     12  C   UNL A   1      30.381  27.581  22.639  1.00  0.00    -0.051 A 
ATOM     13  C   UNL A   1      31.150  26.655  21.932  1.00  0.00     0.004 A 
ATOM     14  C   UNL A   1      29.856  27.248  23.895  1.00  0.00     0.004 A 
ATOM     15  C   UNL A   1      31.429  25.429  22.501  1.00  0.00     0.004 A 
ATOM     16  C   UNL A   1      30.095  25.997  24.445  1.00  0.00     0.004 A 
ENDBRANCH   9  10
ENDBRANCH   8   9
BRANCH   8  17
ATOM     17  C   UNL A   1      32.906  24.908  25.984  1.00  0.00     0.051 C 
BRANCH  17  18
ATOM     18  C   UNL A   1      33.291  26.335  25.754  1.00  0.00    -0.043 A 
ATOM     19  C   UNL A   1      33.835  26.700  24.486  1.00  0.00     0.043 A 
ATOM     20  C   UNL A   1      33.081  27.329  26.652  1.00  0.00     0.019 A 
ATOM     21  C   UNL A   1      33.903  28.021  24.047  1.00  0.00     0.124 A 
ATOM     22  C   UNL A   1      33.028  28.602  26.107  1.00  0.00     0.021 A 
ATOM     23  F   UNL A   1      34.289  28.316  22.801  1.00  0.00    -0.207 F 
ATOM     24  C   UNL A   1      33.413  29.001  24.842  1.00  0.00     0.055 A 
ATOM     25  Br  UNL A   1      31.850  29.701  26.904  1.00  0.00    -0.051 Br
ENDBRANCH  17  18
ENDBRANCH   8  17
ENDBRANCH   6   8
ENDBRANCH   5   6
ENDBRANCH   4   5
ENDBRANCH   3   4
ENDBRANCH   2   3
ENDBRANCH   1   2
BRANCH   1  26
ATOM     26  C   UNL A   1      39.092  21.835  26.023  1.00  0.00     0.261 C 
BRANCH  26  27
ATOM     27  O   UNL A   1      40.016  22.921  25.824  1.00  0.00    -0.460 OA
BRANCH  27  28
ATOM     28  C   UNL A   1      40.531  23.443  26.968  1.00  0.00     0.338 C 
ATOM     29  O   UNL A   1      41.148  22.813  27.812  1.00  0.00    -0.246 OA
BRANCH  28  30
ATOM     30  C   UNL A   1      40.087  24.857  27.124  1.00  0.00     0.060 A 
ATOM     31  C   UNL A   1      40.668  25.845  26.319  1.00  0.00     0.016 A 
ATOM     32  C   UNL A   1      39.303  25.225  28.219  1.00  0.00     0.016 A 
ATOM     33  C   UNL A   1      40.568  27.191  26.685  1.00  0.00     0.010 A 
ATOM     34  C   UNL A   1      39.299  26.547  28.638  1.00  0.00     0.010 A 
ATOM     35  C   UNL A   1      39.964  27.542  27.901  1.00  0.00    -0.014 A 
BRANCH  35  36
ATOM     36  C   UNL A   1      40.248  28.829  28.581  1.00  0.00     0.031 A 
ATOM     37  C   UNL A   1      39.139  29.783  28.982  1.00  0.00     0.074 A 
ATOM     38  C   UNL A   1      41.479  28.880  29.139  1.00  0.00     0.049 A 
ATOM     39  N   UNL A   1      39.236  30.913  29.613  1.00  0.00    -0.248 NA
ATOM     40  C   UNL A   1      37.790  29.600  28.458  1.00  0.00     0.031 C 
ATOM     41  C   UNL A   1      41.810  28.937  30.542  1.00  0.00     0.029 A 
ATOM     42  N   UNL A   1      42.723  28.895  28.524  1.00  0.00    -0.354 N 
ATOM     43  C   UNL A   1      38.010  31.551  29.688  1.00  0.00     0.074 A 
ATOM     44  C   UNL A   1      37.133  30.643  28.974  1.00  0.00     0.031 C 
ATOM     45  C   UNL A   1      43.101  29.251  30.726  1.00  0.00     0.029 A 
ATOM     46  C   UNL A   1      43.624  29.478  29.415  1.00  0.00     0.049 A 
ATOM     47  H   UNL A   1      42.933  28.555  27.624  1.00  0.00     0.167 HD
ATOM     48  C   UNL A   1      37.811  32.787  30.272  1.00  0.00     0.034 A 
ATOM     49  C   UNL A   1      44.793  30.096  29.191  1.00  0.00     0.034 A 
ATOM     50  C   UNL A   1      39.033  33.595  30.567  1.00  0.00     0.049 A 
ATOM     51  C   UNL A   1      44.537  31.607  29.091  1.00  0.00     0.074 A 
ATOM     52  C   UNL A   1      39.553  34.186  31.718  1.00  0.00     0.029 A 
ATOM     53  N   UNL A   1      40.031  33.815  29.578  1.00  0.00    -0.354 N 
ATOM     54  N   UNL A   1      43.442  32.229  29.494  1.00  0.00    -0.248 NA
ATOM     55  C   UNL A   1      45.529  32.559  28.605  1.00  0.00     0.031 C 
ATOM     56  C   UNL A   1      40.880  34.656  31.445  1.00  0.00     0.029 A 
ATOM     57  C   UNL A   1      41.226  34.318  30.133  1.00  0.00     0.049 A 
ATOM     58  H   UNL A   1      39.902  33.637  28.618  1.00  0.00     0.167 HD
ATOM     59  C   UNL A   1      43.502  33.594  29.240  1.00  0.00     0.074 A 
ATOM     60  C   UNL A   1      44.890  33.734  28.769  1.00  0.00     0.031 C 
ATOM     61  C   UNL A   1      42.476  34.541  29.357  1.00  0.00     0.034 A 
BRANCH  48  62
ATOM     62  C   UNL A   1      36.410  33.239  30.764  1.00  0.00     0.023 A 
ATOM     63  C   UNL A   1      35.574  34.032  29.937  1.00  0.00     0.031 A 
ATOM     64  C   UNL A   1      35.853  32.967  32.031  1.00  0.00     0.131 A 
ATOM     65  C   UNL A   1      34.341  34.566  30.382  1.00  0.00     0.055 A 
ATOM     66  C   UNL A   1      34.667  33.560  32.506  1.00  0.00     0.041 A 
ATOM     67  F   UNL A   1      36.373  32.044  32.847  1.00  0.00    -0.206 F 
ATOM     68  C   UNL A   1      33.904  34.369  31.683  1.00  0.00     0.022 A 
BRANCH  65  69
ATOM     69  S   UNL A   1      33.289  35.495  29.222  1.00  0.00     0.124 S 
ATOM     70  O   UNL A   1      32.528  36.363  30.115  1.00  0.00    -0.237 OA
ATOM     71  O   UNL A   1      34.271  36.151  28.366  1.00  0.00    -0.237 OA
ATOM     72  O   UNL A   1      32.503  34.450  28.563  1.00  0.00    -0.744 OA
ENDBRANCH  65  69
ENDBRANCH  48  62
BRANCH  49  73
ATOM     73  C   UNL A   1      45.688  29.069  28.559  1.00  0.00     0.023 A 
ATOM     74  C   UNL A   1      45.464  27.742  29.050  1.00  0.00     0.031 A 
ATOM     75  C   UNL A   1      46.063  29.187  27.210  1.00  0.00     0.131 A 
ATOM     76  C   UNL A   1      45.390  26.646  28.167  1.00  0.00     0.055 A 
ATOM     77  C   UNL A   1      46.013  28.080  26.339  1.00  0.00     0.041 A 
ATOM     78  F   UNL A   1      46.245  30.398  26.664  1.00  0.00    -0.206 F 
ATOM     79  C   UNL A   1      45.629  26.820  26.804  1.00  0.00     0.022 A 
BRANCH  76  80
ATOM     80  S   UNL A   1      44.691  25.044  28.722  1.00  0.00     0.124 S 
ATOM     81  O   UNL A   1      43.989  25.426  29.942  1.00  0.00    -0.237 OA
ATOM     82  O   UNL A   1      43.848  24.636  27.603  1.00  0.00    -0.237 OA
ATOM     83  O   UNL A   1      45.883  24.218  28.917  1.00  0.00    -0.744 OA
ENDBRANCH  76  80
ENDBRANCH  49  73
BRANCH  61  84
ATOM     84  C   UNL A   1      42.590  35.944  28.768  1.00  0.00     0.023 A 
ATOM     85  C   UNL A   1      43.231  36.983  29.445  1.00  0.00     0.031 A 
ATOM     86  C   UNL A   1      42.157  36.260  27.452  1.00  0.00     0.131 A 
ATOM     87  C   UNL A   1      43.271  38.282  28.921  1.00  0.00     0.055 A 
ATOM     88  C   UNL A   1      42.313  37.523  26.879  1.00  0.00     0.041 A 
ATOM     89  F   UNL A   1      41.574  35.364  26.645  1.00  0.00    -0.206 F 
ATOM     90  C   UNL A   1      42.846  38.558  27.627  1.00  0.00     0.022 A 
BRANCH  87  91
ATOM     91  S   UNL A   1      43.781  39.610  30.032  1.00  0.00     0.124 S 
ATOM     92  O   UNL A   1      45.165  39.824  29.616  1.00  0.00    -0.237 OA
ATOM     93  O   UNL A   1      42.848  40.681  29.693  1.00  0.00    -0.237 OA
ATOM     94  O   UNL A   1      43.611  39.030  31.361  1.00  0.00    -0.744 OA
ENDBRANCH  87  91
ENDBRANCH  61  84
ENDBRANCH  35  36
ENDBRANCH  28  30
ENDBRANCH  27  28
ENDBRANCH  26  27
ENDBRANCH   1  26
TORSDOF 21
ENDMDL
