MODEL 1
REMARK VINA RESULT:     -10.6      0.000      0.000
REMARK SMILES Cc1cnc(NC(=O)NC[C@H]2CC[C@H](C(=O)OCCOCCOC(=O)c3ccc(-c4c5nc(c(-c6cc(S(=O)(=O)[O-])ccc6F)c6ccc([nH]6)c(-c6cc(S(=O)(=O)[O-])ccc6F)c6nc(c(-c7cc(S(=O)(=O)[O-])ccc7F)c7ccc4[nH]7)C=C6)C=C5)cc3)O2)s1
REMARK SMILES IDX 20 1 19 2 18 3 17 4 15 5 16 6 14 7 11 8 12 9 89 10 13 11
REMARK SMILES IDX 10 12 9 13 6 14 7 15 8 17 5 19 1 20 2 21 3 22 90 23 4 24
REMARK SMILES IDX 21 25 22 26 23 27 24 28 25 29 26 30 27 31 88 32 28 33 87 34
REMARK SMILES IDX 29 35 30 36 31 37 81 38 32 39 86 40 80 41 82 42 33 43 85 44
REMARK SMILES IDX 79 45 78 46 34 48 66 49 46 50 65 51 47 52 50 53 64 54 83 55
REMARK SMILES IDX 48 56 49 57 63 59 84 60 51 61 35 62 36 63 44 64 37 65 43 66
REMARK SMILES IDX 45 67 42 68 38 69 39 70 40 71 41 72 67 73 68 74 76 75 69 76
REMARK SMILES IDX 75 77 77 78 74 79 70 80 71 81 72 82 73 83 52 84 53 85 61 86
REMARK SMILES IDX 54 87 60 88 62 89 59 90 55 91 56 92 57 93 58 94
REMARK H PARENT 6 16 9 18 82 47 50 58
REMARK Flexibility Score: inf
ROOT
ATOM      1  O   UNL A   1      32.838  30.437  26.916  1.00  0.00    -0.374 OA
ENDROOT
BRANCH   1   2
ATOM      2  C   UNL A   1      33.052  29.201  26.235  1.00  0.00     0.202 C 
BRANCH   2   3
ATOM      3  C   UNL A   1      33.316  29.292  24.728  1.00  0.00     0.261 C 
BRANCH   3   4
ATOM      4  O   UNL A   1      33.844  28.057  24.215  1.00  0.00    -0.461 OA
BRANCH   4   5
ATOM      5  C   UNL A   1      33.468  27.713  22.951  1.00  0.00     0.335 C 
ATOM      6  O   UNL A   1      34.026  28.091  21.927  1.00  0.00    -0.249 OA
BRANCH   5   7
ATOM      7  C   UNL A   1      32.246  26.781  22.945  1.00  0.00     0.228 C 
ATOM      8  C   UNL A   1      32.459  24.539  23.558  1.00  0.00     0.138 C 
ATOM      9  C   UNL A   1      32.776  24.654  22.072  1.00  0.00     0.037 C 
ATOM     10  O   UNL A   1      32.307  25.875  24.059  1.00  0.00    -0.361 OA
ATOM     11  C   UNL A   1      32.066  25.927  21.697  1.00  0.00     0.047 C 
BRANCH   8  12
ATOM     12  C   UNL A   1      31.193  23.697  23.813  1.00  0.00     0.149 C 
BRANCH  12  13
ATOM     13  N   UNL A   1      30.669  23.716  25.172  1.00  0.00    -0.335 N 
ATOM     14  N   UNL A   1      31.634  21.988  26.516  1.00  0.00    -0.284 N 
ATOM     15  C   UNL A   1      30.838  23.045  26.316  1.00  0.00     0.321 C 
ATOM     16  H   UNL A   1      31.451  21.522  27.362  1.00  0.00     0.174 HD
ATOM     17  O   UNL A   1      30.095  23.368  27.253  1.00  0.00    -0.248 OA
ATOM     18  H   UNL A   1      29.997  24.427  25.278  1.00  0.00     0.165 HD
BRANCH  14  19
ATOM     19  C   UNL A   1      32.640  21.423  25.802  1.00  0.00     0.190 A 
ATOM     20  C   UNL A   1      34.762  18.561  24.472  1.00  0.00     0.058 C 
ATOM     21  C   UNL A   1      34.116  19.856  24.793  1.00  0.00     0.023 A 
ATOM     22  C   UNL A   1      34.688  21.065  25.138  1.00  0.00     0.128 A 
ATOM     23  S   UNL A   1      32.406  20.044  24.824  1.00  0.00    -0.102 S 
ATOM     24  N   UNL A   1      33.813  21.995  25.663  1.00  0.00    -0.228 NA
ENDBRANCH  14  19
ENDBRANCH  12  13
ENDBRANCH   8  12
ENDBRANCH   5   7
ENDBRANCH   4   5
ENDBRANCH   3   4
ENDBRANCH   2   3
ENDBRANCH   1   2
BRANCH   1  25
ATOM     25  C   UNL A   1      31.754  31.252  26.475  1.00  0.00     0.202 C 
BRANCH  25  26
ATOM     26  C   UNL A   1      31.651  32.663  27.072  1.00  0.00     0.261 C 
BRANCH  26  27
ATOM     27  O   UNL A   1      32.870  33.420  26.950  1.00  0.00    -0.460 OA
BRANCH  27  28
ATOM     28  C   UNL A   1      33.351  33.886  28.129  1.00  0.00     0.338 C 
ATOM     29  O   UNL A   1      32.796  34.674  28.887  1.00  0.00    -0.246 OA
BRANCH  28  30
ATOM     30  C   UNL A   1      34.592  33.186  28.508  1.00  0.00     0.060 A 
ATOM     31  C   UNL A   1      34.455  31.937  29.128  1.00  0.00     0.016 A 
ATOM     32  C   UNL A   1      35.853  33.771  28.369  1.00  0.00     0.016 A 
ATOM     33  C   UNL A   1      35.570  31.296  29.661  1.00  0.00     0.010 A 
ATOM     34  C   UNL A   1      36.974  33.124  28.911  1.00  0.00     0.010 A 
ATOM     35  C   UNL A   1      36.832  31.901  29.594  1.00  0.00    -0.014 A 
BRANCH  35  36
ATOM     36  C   UNL A   1      37.951  31.312  30.375  1.00  0.00     0.031 A 
ATOM     37  C   UNL A   1      38.802  30.240  29.746  1.00  0.00     0.074 A 
ATOM     38  C   UNL A   1      38.258  31.785  31.597  1.00  0.00     0.049 A 
ATOM     39  N   UNL A   1      39.843  29.613  30.231  1.00  0.00    -0.248 NA
ATOM     40  C   UNL A   1      38.427  29.822  28.386  1.00  0.00     0.031 C 
ATOM     41  C   UNL A   1      37.537  32.849  32.295  1.00  0.00     0.029 A 
ATOM     42  N   UNL A   1      39.263  31.435  32.466  1.00  0.00    -0.354 N 
ATOM     43  C   UNL A   1      40.259  28.737  29.232  1.00  0.00     0.074 A 
ATOM     44  C   UNL A   1      39.322  28.878  28.137  1.00  0.00     0.031 C 
ATOM     45  C   UNL A   1      38.121  33.063  33.486  1.00  0.00     0.029 A 
ATOM     46  C   UNL A   1      39.235  32.131  33.652  1.00  0.00     0.049 A 
ATOM     47  H   UNL A   1      39.939  30.750  32.260  1.00  0.00     0.167 HD
ATOM     48  C   UNL A   1      41.334  27.910  29.219  1.00  0.00     0.034 A 
ATOM     49  C   UNL A   1      40.009  32.020  34.751  1.00  0.00     0.034 A 
ATOM     50  C   UNL A   1      42.252  27.764  30.324  1.00  0.00     0.049 A 
ATOM     51  C   UNL A   1      41.149  31.028  34.748  1.00  0.00     0.074 A 
ATOM     52  C   UNL A   1      43.361  26.941  30.421  1.00  0.00     0.029 A 
ATOM     53  N   UNL A   1      42.166  28.453  31.527  1.00  0.00    -0.354 N 
ATOM     54  N   UNL A   1      41.528  30.207  33.796  1.00  0.00    -0.248 NA
ATOM     55  C   UNL A   1      41.975  30.962  35.961  1.00  0.00     0.031 C 
ATOM     56  C   UNL A   1      43.905  27.085  31.703  1.00  0.00     0.029 A 
ATOM     57  C   UNL A   1      43.184  28.054  32.380  1.00  0.00     0.049 A 
ATOM     58  H   UNL A   1      41.481  29.126  31.743  1.00  0.00     0.167 HD
ATOM     59  C   UNL A   1      42.654  29.550  34.287  1.00  0.00     0.074 A 
ATOM     60  C   UNL A   1      42.903  30.088  35.609  1.00  0.00     0.031 C 
ATOM     61  C   UNL A   1      43.414  28.588  33.702  1.00  0.00     0.034 A 
BRANCH  48  62
ATOM     62  C   UNL A   1      41.545  27.069  27.983  1.00  0.00     0.023 A 
ATOM     63  C   UNL A   1      41.153  25.719  27.934  1.00  0.00     0.031 A 
ATOM     64  C   UNL A   1      42.164  27.615  26.845  1.00  0.00     0.131 A 
ATOM     65  C   UNL A   1      41.442  24.945  26.800  1.00  0.00     0.055 A 
ATOM     66  C   UNL A   1      42.379  26.860  25.689  1.00  0.00     0.041 A 
ATOM     67  F   UNL A   1      42.582  28.890  26.840  1.00  0.00    -0.206 F 
ATOM     68  C   UNL A   1      42.030  25.513  25.667  1.00  0.00     0.022 A 
BRANCH  65  69
ATOM     69  S   UNL A   1      41.163  23.155  26.876  1.00  0.00     0.124 S 
ATOM     70  O   UNL A   1      39.705  23.082  26.827  1.00  0.00    -0.237 OA
ATOM     71  O   UNL A   1      41.868  22.674  25.693  1.00  0.00    -0.237 OA
ATOM     72  O   UNL A   1      41.756  22.770  28.155  1.00  0.00    -0.744 OA
ENDBRANCH  65  69
ENDBRANCH  48  62
BRANCH  49  73
ATOM     73  C   UNL A   1      39.711  32.827  35.971  1.00  0.00     0.023 A 
ATOM     74  C   UNL A   1      38.866  32.344  36.982  1.00  0.00     0.031 A 
ATOM     75  C   UNL A   1      40.219  34.132  36.105  1.00  0.00     0.131 A 
ATOM     76  C   UNL A   1      38.508  33.181  38.053  1.00  0.00     0.055 A 
ATOM     77  C   UNL A   1      39.909  34.938  37.201  1.00  0.00     0.041 A 
ATOM     78  F   UNL A   1      41.032  34.645  35.168  1.00  0.00    -0.206 F 
ATOM     79  C   UNL A   1      39.034  34.468  38.176  1.00  0.00     0.022 A 
BRANCH  76  80
ATOM     80  S   UNL A   1      37.259  32.597  39.232  1.00  0.00     0.124 S 
ATOM     81  O   UNL A   1      37.742  31.255  39.538  1.00  0.00    -0.237 OA
ATOM     82  O   UNL A   1      37.375  33.580  40.304  1.00  0.00    -0.237 OA
ATOM     83  O   UNL A   1      36.016  32.655  38.466  1.00  0.00    -0.744 OA
ENDBRANCH  76  80
ENDBRANCH  49  73
BRANCH  61  84
ATOM     84  C   UNL A   1      44.611  28.091  34.481  1.00  0.00     0.023 A 
ATOM     85  C   UNL A   1      44.523  26.985  35.345  1.00  0.00     0.031 A 
ATOM     86  C   UNL A   1      45.849  28.750  34.375  1.00  0.00     0.131 A 
ATOM     87  C   UNL A   1      45.633  26.613  36.120  1.00  0.00     0.055 A 
ATOM     88  C   UNL A   1      46.967  28.335  35.100  1.00  0.00     0.041 A 
ATOM     89  F   UNL A   1      45.992  29.811  33.566  1.00  0.00    -0.206 F 
ATOM     90  C   UNL A   1      46.858  27.272  35.991  1.00  0.00     0.022 A 
BRANCH  87  91
ATOM     91  S   UNL A   1      45.420  25.325  37.381  1.00  0.00     0.124 S 
ATOM     92  O   UNL A   1      44.104  25.645  37.922  1.00  0.00    -0.237 OA
ATOM     93  O   UNL A   1      45.506  24.101  36.592  1.00  0.00    -0.237 OA
ATOM     94  O   UNL A   1      46.539  25.553  38.294  1.00  0.00    -0.744 OA
ENDBRANCH  87  91
ENDBRANCH  61  84
ENDBRANCH  35  36
ENDBRANCH  28  30
ENDBRANCH  27  28
ENDBRANCH  26  27
ENDBRANCH  25  26
ENDBRANCH   1  25
TORSDOF 20
ENDMDL
MODEL 2
REMARK VINA RESULT:     -10.3      2.246      2.581
REMARK SMILES Cc1cnc(NC(=O)NC[C@H]2CC[C@H](C(=O)OCCOCCOC(=O)c3ccc(-c4c5nc(c(-c6cc(S(=O)(=O)[O-])ccc6F)c6ccc([nH]6)c(-c6cc(S(=O)(=O)[O-])ccc6F)c6nc(c(-c7cc(S(=O)(=O)[O-])ccc7F)c7ccc4[nH]7)C=C6)C=C5)cc3)O2)s1
REMARK SMILES IDX 20 1 19 2 18 3 17 4 15 5 16 6 14 7 11 8 12 9 89 10 13 11
REMARK SMILES IDX 10 12 9 13 6 14 7 15 8 17 5 19 1 20 2 21 3 22 90 23 4 24
REMARK SMILES IDX 21 25 22 26 23 27 24 28 25 29 26 30 27 31 88 32 28 33 87 34
REMARK SMILES IDX 29 35 30 36 31 37 81 38 32 39 86 40 80 41 82 42 33 43 85 44
REMARK SMILES IDX 79 45 78 46 34 48 66 49 46 50 65 51 47 52 50 53 64 54 83 55
REMARK SMILES IDX 48 56 49 57 63 59 84 60 51 61 35 62 36 63 44 64 37 65 43 66
REMARK SMILES IDX 45 67 42 68 38 69 39 70 40 71 41 72 67 73 68 74 76 75 69 76
REMARK SMILES IDX 75 77 77 78 74 79 70 80 71 81 72 82 73 83 52 84 53 85 61 86
REMARK SMILES IDX 54 87 60 88 62 89 59 90 55 91 56 92 57 93 58 94
REMARK H PARENT 6 16 9 18 82 47 50 58
REMARK Flexibility Score: inf
ROOT
ATOM      1  O   UNL A   1      32.847  30.299  26.550  1.00  0.00    -0.374 OA
ENDROOT
BRANCH   1   2
ATOM      2  C   UNL A   1      32.841  29.080  25.806  1.00  0.00     0.202 C 
BRANCH   2   3
ATOM      3  C   UNL A   1      33.417  29.146  24.387  1.00  0.00     0.261 C 
BRANCH   3   4
ATOM      4  O   UNL A   1      33.843  27.849  23.936  1.00  0.00    -0.461 OA
BRANCH   4   5
ATOM      5  C   UNL A   1      33.524  27.516  22.654  1.00  0.00     0.335 C 
ATOM      6  O   UNL A   1      34.100  27.937  21.657  1.00  0.00    -0.249 OA
BRANCH   5   7
ATOM      7  C   UNL A   1      32.342  26.536  22.589  1.00  0.00     0.228 C 
ATOM      8  C   UNL A   1      32.341  24.589  23.877  1.00  0.00     0.138 C 
ATOM      9  C   UNL A   1      33.071  24.291  22.573  1.00  0.00     0.037 C 
ATOM     10  O   UNL A   1      32.070  25.999  23.894  1.00  0.00    -0.361 OA
ATOM     11  C   UNL A   1      32.516  25.346  21.654  1.00  0.00     0.047 C 
BRANCH   8  12
ATOM     12  C   UNL A   1      31.044  23.767  24.011  1.00  0.00     0.149 C 
BRANCH  12  13
ATOM     13  N   UNL A   1      30.432  23.738  25.333  1.00  0.00    -0.335 N 
ATOM     14  N   UNL A   1      31.594  22.260  26.812  1.00  0.00    -0.284 N 
ATOM     15  C   UNL A   1      30.639  23.148  26.515  1.00  0.00     0.321 C 
ATOM     16  H   UNL A   1      31.439  21.797  27.666  1.00  0.00     0.174 HD
ATOM     17  O   UNL A   1      29.788  23.364  27.389  1.00  0.00    -0.248 OA
ATOM     18  H   UNL A   1      29.639  24.320  25.365  1.00  0.00     0.165 HD
BRANCH  14  19
ATOM     19  C   UNL A   1      32.731  21.860  26.188  1.00  0.00     0.190 A 
ATOM     20  C   UNL A   1      35.997  22.330  24.297  1.00  0.00     0.058 C 
ATOM     21  C   UNL A   1      34.812  21.837  25.039  1.00  0.00     0.023 A 
ATOM     22  C   UNL A   1      33.970  20.780  24.752  1.00  0.00     0.128 A 
ATOM     23  S   UNL A   1      34.241  22.604  26.469  1.00  0.00    -0.102 S 
ATOM     24  N   UNL A   1      32.791  20.762  25.471  1.00  0.00    -0.228 NA
ENDBRANCH  14  19
ENDBRANCH  12  13
ENDBRANCH   8  12
ENDBRANCH   5   7
ENDBRANCH   4   5
ENDBRANCH   3   4
ENDBRANCH   2   3
ENDBRANCH   1   2
BRANCH   1  25
ATOM     25  C   UNL A   1      31.766  31.204  26.338  1.00  0.00     0.202 C 
BRANCH  25  26
ATOM     26  C   UNL A   1      31.698  32.439  27.248  1.00  0.00     0.261 C 
BRANCH  26  27
ATOM     27  O   UNL A   1      32.795  33.350  27.049  1.00  0.00    -0.460 OA
BRANCH  27  28
ATOM     28  C   UNL A   1      33.256  33.920  28.190  1.00  0.00     0.338 C 
ATOM     29  O   UNL A   1      32.689  34.773  28.863  1.00  0.00    -0.246 OA
BRANCH  28  30
ATOM     30  C   UNL A   1      34.487  33.254  28.654  1.00  0.00     0.060 A 
ATOM     31  C   UNL A   1      34.353  31.963  29.182  1.00  0.00     0.016 A 
ATOM     32  C   UNL A   1      35.723  33.904  28.681  1.00  0.00     0.016 A 
ATOM     33  C   UNL A   1      35.440  31.340  29.790  1.00  0.00     0.010 A 
ATOM     34  C   UNL A   1      36.815  33.275  29.298  1.00  0.00     0.010 A 
ATOM     35  C   UNL A   1      36.669  32.006  29.890  1.00  0.00    -0.014 A 
BRANCH  35  36
ATOM     36  C   UNL A   1      37.732  31.420  30.747  1.00  0.00     0.031 A 
ATOM     37  C   UNL A   1      38.622  30.344  30.182  1.00  0.00     0.074 A 
ATOM     38  C   UNL A   1      37.958  31.898  31.985  1.00  0.00     0.049 A 
ATOM     39  N   UNL A   1      39.628  29.718  30.739  1.00  0.00    -0.248 NA
ATOM     40  C   UNL A   1      38.339  29.919  28.802  1.00  0.00     0.031 C 
ATOM     41  C   UNL A   1      37.193  32.967  32.627  1.00  0.00     0.029 A 
ATOM     42  N   UNL A   1      38.902  31.552  32.921  1.00  0.00    -0.354 N 
ATOM     43  C   UNL A   1      40.108  28.837  29.774  1.00  0.00     0.074 A 
ATOM     44  C   UNL A   1      39.247  28.973  28.618  1.00  0.00     0.031 C 
ATOM     45  C   UNL A   1      37.696  33.186  33.854  1.00  0.00     0.029 A 
ATOM     46  C   UNL A   1      38.795  32.255  34.098  1.00  0.00     0.049 A 
ATOM     47  H   UNL A   1      39.589  30.865  32.764  1.00  0.00     0.167 HD
ATOM     48  C   UNL A   1      41.181  28.008  29.838  1.00  0.00     0.034 A 
ATOM     49  C   UNL A   1      39.494  32.148  35.248  1.00  0.00     0.034 A 
ATOM     50  C   UNL A   1      42.023  27.867  31.002  1.00  0.00     0.049 A 
ATOM     51  C   UNL A   1      40.630  31.155  35.326  1.00  0.00     0.074 A 
ATOM     52  C   UNL A   1      43.122  27.044  31.177  1.00  0.00     0.029 A 
ATOM     53  N   UNL A   1      41.857  28.562  32.193  1.00  0.00    -0.354 N 
ATOM     54  N   UNL A   1      41.071  30.329  34.405  1.00  0.00    -0.248 NA
ATOM     55  C   UNL A   1      41.373  31.095  36.592  1.00  0.00     0.031 C 
ATOM     56  C   UNL A   1      43.579  27.194  32.492  1.00  0.00     0.029 A 
ATOM     57  C   UNL A   1      42.815  28.167  33.115  1.00  0.00     0.049 A 
ATOM     58  H   UNL A   1      41.160  29.237  32.359  1.00  0.00     0.167 HD
ATOM     59  C   UNL A   1      42.161  29.673  34.974  1.00  0.00     0.074 A 
ATOM     60  C   UNL A   1      42.322  30.218  36.307  1.00  0.00     0.031 C 
ATOM     61  C   UNL A   1      42.957  28.708  34.446  1.00  0.00     0.034 A 
BRANCH  48  62
ATOM     62  C   UNL A   1      41.473  27.161  28.622  1.00  0.00     0.023 A 
ATOM     63  C   UNL A   1      42.491  27.502  27.714  1.00  0.00     0.031 A 
ATOM     64  C   UNL A   1      40.712  26.009  28.355  1.00  0.00     0.131 A 
ATOM     65  C   UNL A   1      42.677  26.739  26.550  1.00  0.00     0.055 A 
ATOM     66  C   UNL A   1      40.954  25.210  27.235  1.00  0.00     0.041 A 
ATOM     67  F   UNL A   1      39.712  25.646  29.172  1.00  0.00    -0.206 F 
ATOM     68  C   UNL A   1      41.933  25.581  26.318  1.00  0.00     0.022 A 
BRANCH  65  69
ATOM     69  S   UNL A   1      43.813  27.358  25.280  1.00  0.00     0.124 S 
ATOM     70  O   UNL A   1      42.886  27.754  24.223  1.00  0.00    -0.237 OA
ATOM     71  O   UNL A   1      44.497  28.445  25.971  1.00  0.00    -0.237 OA
ATOM     72  O   UNL A   1      44.644  26.197  24.968  1.00  0.00    -0.744 OA
ENDBRANCH  65  69
ENDBRANCH  48  62
BRANCH  49  73
ATOM     73  C   UNL A   1      39.116  32.962  36.441  1.00  0.00     0.023 A 
ATOM     74  C   UNL A   1      39.669  34.231  36.668  1.00  0.00     0.031 A 
ATOM     75  C   UNL A   1      38.240  32.441  37.412  1.00  0.00     0.131 A 
ATOM     76  C   UNL A   1      39.386  34.913  37.864  1.00  0.00     0.055 A 
ATOM     77  C   UNL A   1      37.916  33.149  38.570  1.00  0.00     0.041 A 
ATOM     78  F   UNL A   1      37.683  31.232  37.246  1.00  0.00    -0.206 F 
ATOM     79  C   UNL A   1      38.505  34.386  38.810  1.00  0.00     0.022 A 
BRANCH  76  80
ATOM     80  S   UNL A   1      40.274  36.456  38.215  1.00  0.00     0.124 S 
ATOM     81  O   UNL A   1      40.416  37.027  36.880  1.00  0.00    -0.237 OA
ATOM     82  O   UNL A   1      39.347  37.139  39.110  1.00  0.00    -0.237 OA
ATOM     83  O   UNL A   1      41.516  35.999  38.836  1.00  0.00    -0.744 OA
ENDBRANCH  76  80
ENDBRANCH  49  73
BRANCH  61  84
ATOM     84  C   UNL A   1      44.098  28.214  35.306  1.00  0.00     0.023 A 
ATOM     85  C   UNL A   1      45.369  28.815  35.263  1.00  0.00     0.031 A 
ATOM     86  C   UNL A   1      43.917  27.111  36.161  1.00  0.00     0.131 A 
ATOM     87  C   UNL A   1      46.426  28.268  36.007  1.00  0.00     0.055 A 
ATOM     88  C   UNL A   1      44.957  26.612  36.947  1.00  0.00     0.041 A 
ATOM     89  F   UNL A   1      42.726  26.498  36.242  1.00  0.00    -0.206 F 
ATOM     90  C   UNL A   1      46.224  27.180  36.860  1.00  0.00     0.022 A 
BRANCH  87  91
ATOM     91  S   UNL A   1      48.097  28.931  35.760  1.00  0.00     0.124 S 
ATOM     92  O   UNL A   1      48.087  30.109  36.619  1.00  0.00    -0.237 OA
ATOM     93  O   UNL A   1      48.940  27.825  36.203  1.00  0.00    -0.237 OA
ATOM     94  O   UNL A   1      48.146  29.210  34.326  1.00  0.00    -0.744 OA
ENDBRANCH  87  91
ENDBRANCH  61  84
ENDBRANCH  35  36
ENDBRANCH  28  30
ENDBRANCH  27  28
ENDBRANCH  26  27
ENDBRANCH  25  26
ENDBRANCH   1  25
TORSDOF 20
ENDMDL
MODEL 3
REMARK VINA RESULT:     -10.2      2.041      2.782
REMARK SMILES Cc1cnc(NC(=O)NC[C@H]2CC[C@H](C(=O)OCCOCCOC(=O)c3ccc(-c4c5nc(c(-c6cc(S(=O)(=O)[O-])ccc6F)c6ccc([nH]6)c(-c6cc(S(=O)(=O)[O-])ccc6F)c6nc(c(-c7cc(S(=O)(=O)[O-])ccc7F)c7ccc4[nH]7)C=C6)C=C5)cc3)O2)s1
REMARK SMILES IDX 20 1 19 2 18 3 17 4 15 5 16 6 14 7 11 8 12 9 89 10 13 11
REMARK SMILES IDX 10 12 9 13 6 14 7 15 8 17 5 19 1 20 2 21 3 22 90 23 4 24
REMARK SMILES IDX 21 25 22 26 23 27 24 28 25 29 26 30 27 31 88 32 28 33 87 34
REMARK SMILES IDX 29 35 30 36 31 37 81 38 32 39 86 40 80 41 82 42 33 43 85 44
REMARK SMILES IDX 79 45 78 46 34 48 66 49 46 50 65 51 47 52 50 53 64 54 83 55
REMARK SMILES IDX 48 56 49 57 63 59 84 60 51 61 35 62 36 63 44 64 37 65 43 66
REMARK SMILES IDX 45 67 42 68 38 69 39 70 40 71 41 72 67 73 68 74 76 75 69 76
REMARK SMILES IDX 75 77 77 78 74 79 70 80 71 81 72 82 73 83 52 84 53 85 61 86
REMARK SMILES IDX 54 87 60 88 62 89 59 90 55 91 56 92 57 93 58 94
REMARK H PARENT 6 16 9 18 82 47 50 58
REMARK Flexibility Score: inf
ROOT
ATOM      1  O   UNL A   1      34.512  31.459  28.073  1.00  0.00    -0.374 OA
ENDROOT
BRANCH   1   2
ATOM      2  C   UNL A   1      35.131  30.187  27.879  1.00  0.00     0.202 C 
BRANCH   2   3
ATOM      3  C   UNL A   1      34.585  29.332  26.730  1.00  0.00     0.261 C 
BRANCH   3   4
ATOM      4  O   UNL A   1      33.920  28.157  27.225  1.00  0.00    -0.461 OA
BRANCH   4   5
ATOM      5  C   UNL A   1      32.601  28.025  26.908  1.00  0.00     0.335 C 
ATOM      6  O   UNL A   1      31.677  28.542  27.526  1.00  0.00    -0.249 OA
BRANCH   5   7
ATOM      7  C   UNL A   1      32.391  27.142  25.669  1.00  0.00     0.228 C 
ATOM      8  C   UNL A   1      31.040  25.241  25.780  1.00  0.00     0.138 C 
ATOM      9  C   UNL A   1      32.447  24.847  26.215  1.00  0.00     0.037 C 
ATOM     10  O   UNL A   1      31.035  26.667  25.620  1.00  0.00    -0.361 OA
ATOM     11  C   UNL A   1      33.287  25.914  25.567  1.00  0.00     0.047 C 
BRANCH   8  12
ATOM     12  C   UNL A   1      30.620  24.530  24.479  1.00  0.00     0.149 C 
BRANCH  12  13
ATOM     13  N   UNL A   1      30.945  25.215  23.235  1.00  0.00    -0.335 N 
ATOM     14  N   UNL A   1      32.870  24.266  22.179  1.00  0.00    -0.284 N 
ATOM     15  C   UNL A   1      31.847  25.126  22.252  1.00  0.00     0.321 C 
ATOM     16  H   UNL A   1      33.528  24.507  21.489  1.00  0.00     0.174 HD
ATOM     17  O   UNL A   1      31.793  26.004  21.380  1.00  0.00    -0.248 OA
ATOM     18  H   UNL A   1      30.320  25.958  23.070  1.00  0.00     0.165 HD
BRANCH  14  19
ATOM     19  C   UNL A   1      33.194  23.133  22.852  1.00  0.00     0.190 A 
ATOM     20  C   UNL A   1      32.528  20.063  24.996  1.00  0.00     0.058 C 
ATOM     21  C   UNL A   1      33.086  21.138  24.140  1.00  0.00     0.023 A 
ATOM     22  C   UNL A   1      34.244  21.875  24.293  1.00  0.00     0.128 A 
ATOM     23  S   UNL A   1      32.276  21.700  22.730  1.00  0.00    -0.102 S 
ATOM     24  N   UNL A   1      34.331  22.998  23.494  1.00  0.00    -0.228 NA
ENDBRANCH  14  19
ENDBRANCH  12  13
ENDBRANCH   8  12
ENDBRANCH   5   7
ENDBRANCH   4   5
ENDBRANCH   3   4
ENDBRANCH   2   3
ENDBRANCH   1   2
BRANCH   1  25
ATOM     25  C   UNL A   1      33.199  31.638  27.546  1.00  0.00     0.202 C 
BRANCH  25  26
ATOM     26  C   UNL A   1      32.712  33.082  27.355  1.00  0.00     0.261 C 
BRANCH  26  27
ATOM     27  O   UNL A   1      33.703  34.065  27.707  1.00  0.00    -0.460 OA
BRANCH  27  28
ATOM     28  C   UNL A   1      33.505  34.641  28.919  1.00  0.00     0.338 C 
ATOM     29  O   UNL A   1      32.522  35.281  29.274  1.00  0.00    -0.246 OA
BRANCH  28  30
ATOM     30  C   UNL A   1      34.568  34.258  29.866  1.00  0.00     0.060 A 
ATOM     31  C   UNL A   1      35.891  34.366  29.418  1.00  0.00     0.016 A 
ATOM     32  C   UNL A   1      34.288  33.701  31.116  1.00  0.00     0.016 A 
ATOM     33  C   UNL A   1      36.934  33.867  30.194  1.00  0.00     0.010 A 
ATOM     34  C   UNL A   1      35.341  33.195  31.894  1.00  0.00     0.010 A 
ATOM     35  C   UNL A   1      36.666  33.241  31.418  1.00  0.00    -0.014 A 
BRANCH  35  36
ATOM     36  C   UNL A   1      37.764  32.511  32.105  1.00  0.00     0.031 A 
ATOM     37  C   UNL A   1      38.427  31.353  31.407  1.00  0.00     0.074 A 
ATOM     38  C   UNL A   1      38.222  32.928  33.300  1.00  0.00     0.049 A 
ATOM     39  N   UNL A   1      39.420  30.599  31.805  1.00  0.00    -0.248 NA
ATOM     40  C   UNL A   1      37.898  31.001  30.079  1.00  0.00     0.031 C 
ATOM     41  C   UNL A   1      37.692  34.062  34.057  1.00  0.00     0.029 A 
ATOM     42  N   UNL A   1      39.243  32.449  34.085  1.00  0.00    -0.354 N 
ATOM     43  C   UNL A   1      39.647  29.693  30.773  1.00  0.00     0.074 A 
ATOM     44  C   UNL A   1      38.650  29.959  29.757  1.00  0.00     0.031 C 
ATOM     45  C   UNL A   1      38.390  34.189  35.198  1.00  0.00     0.029 A 
ATOM     46  C   UNL A   1      39.393  33.129  35.271  1.00  0.00     0.049 A 
ATOM     47  H   UNL A   1      39.813  31.690  33.823  1.00  0.00     0.167 HD
ATOM     48  C   UNL A   1      40.609  28.742  30.671  1.00  0.00     0.034 A 
ATOM     49  C   UNL A   1      40.232  32.911  36.305  1.00  0.00     0.034 A 
ATOM     50  C   UNL A   1      41.588  28.473  31.698  1.00  0.00     0.049 A 
ATOM     51  C   UNL A   1      41.241  31.790  36.207  1.00  0.00     0.074 A 
ATOM     52  C   UNL A   1      42.594  27.522  31.704  1.00  0.00     0.029 A 
ATOM     53  N   UNL A   1      41.681  29.152  32.907  1.00  0.00    -0.354 N 
ATOM     54  N   UNL A   1      41.441  30.941  35.225  1.00  0.00    -0.248 NA
ATOM     55  C   UNL A   1      42.146  31.610  37.350  1.00  0.00     0.031 C 
ATOM     56  C   UNL A   1      43.251  27.583  32.939  1.00  0.00     0.029 A 
ATOM     57  C   UNL A   1      42.708  28.624  33.674  1.00  0.00     0.049 A 
ATOM     58  H   UNL A   1      41.101  29.900  33.179  1.00  0.00     0.167 HD
ATOM     59  C   UNL A   1      42.515  30.147  35.623  1.00  0.00     0.074 A 
ATOM     60  C   UNL A   1      42.931  30.635  36.922  1.00  0.00     0.031 C 
ATOM     61  C   UNL A   1      43.105  29.109  34.975  1.00  0.00     0.034 A 
BRANCH  48  62
ATOM     62  C   UNL A   1      40.619  27.898  29.419  1.00  0.00     0.023 A 
ATOM     63  C   UNL A   1      41.547  28.121  28.388  1.00  0.00     0.031 A 
ATOM     64  C   UNL A   1      39.675  26.871  29.244  1.00  0.00     0.131 A 
ATOM     65  C   UNL A   1      41.471  27.374  27.202  1.00  0.00     0.055 A 
ATOM     66  C   UNL A   1      39.654  26.078  28.093  1.00  0.00     0.041 A 
ATOM     67  F   UNL A   1      38.748  26.626  30.183  1.00  0.00    -0.206 F 
ATOM     68  C   UNL A   1      40.548  26.337  27.058  1.00  0.00     0.022 A 
BRANCH  65  69
ATOM     69  S   UNL A   1      42.508  27.867  25.798  1.00  0.00     0.124 S 
ATOM     70  O   UNL A   1      42.490  26.657  24.980  1.00  0.00    -0.237 OA
ATOM     71  O   UNL A   1      41.786  29.014  25.259  1.00  0.00    -0.237 OA
ATOM     72  O   UNL A   1      43.797  28.174  26.415  1.00  0.00    -0.744 OA
ENDBRANCH  65  69
ENDBRANCH  48  62
BRANCH  49  73
ATOM     73  C   UNL A   1      40.131  33.733  37.547  1.00  0.00     0.023 A 
ATOM     74  C   UNL A   1      39.346  33.324  38.636  1.00  0.00     0.031 A 
ATOM     75  C   UNL A   1      40.772  34.983  37.630  1.00  0.00     0.131 A 
ATOM     76  C   UNL A   1      39.175  34.181  39.736  1.00  0.00     0.055 A 
ATOM     77  C   UNL A   1      40.646  35.805  38.750  1.00  0.00     0.041 A 
ATOM     78  F   UNL A   1      41.535  35.424  36.618  1.00  0.00    -0.206 F 
ATOM     79  C   UNL A   1      39.829  35.412  39.806  1.00  0.00     0.022 A 
BRANCH  76  80
ATOM     80  S   UNL A   1      37.996  33.708  41.031  1.00  0.00     0.124 S 
ATOM     81  O   UNL A   1      38.875  33.109  42.029  1.00  0.00    -0.237 OA
ATOM     82  O   UNL A   1      37.406  34.995  41.385  1.00  0.00    -0.237 OA
ATOM     83  O   UNL A   1      37.098  32.778  40.349  1.00  0.00    -0.744 OA
ENDBRANCH  76  80
ENDBRANCH  49  73
BRANCH  61  84
ATOM     84  C   UNL A   1      44.290  28.462  35.654  1.00  0.00     0.023 A 
ATOM     85  C   UNL A   1      44.128  27.485  36.652  1.00  0.00     0.031 A 
ATOM     86  C   UNL A   1      45.600  28.848  35.314  1.00  0.00     0.131 A 
ATOM     87  C   UNL A   1      45.252  26.977  37.323  1.00  0.00     0.055 A 
ATOM     88  C   UNL A   1      46.716  28.291  35.940  1.00  0.00     0.041 A 
ATOM     89  F   UNL A   1      45.815  29.776  34.368  1.00  0.00    -0.206 F 
ATOM     90  C   UNL A   1      46.545  27.363  36.962  1.00  0.00     0.022 A 
BRANCH  87  91
ATOM     91  S   UNL A   1      44.994  25.886  38.750  1.00  0.00     0.124 S 
ATOM     92  O   UNL A   1      46.265  26.003  39.456  1.00  0.00    -0.237 OA
ATOM     93  O   UNL A   1      43.842  26.497  39.404  1.00  0.00    -0.237 OA
ATOM     94  O   UNL A   1      44.740  24.582  38.141  1.00  0.00    -0.744 OA
ENDBRANCH  87  91
ENDBRANCH  61  84
ENDBRANCH  35  36
ENDBRANCH  28  30
ENDBRANCH  27  28
ENDBRANCH  26  27
ENDBRANCH  25  26
ENDBRANCH   1  25
TORSDOF 20
ENDMDL
