MODEL 1
REMARK VINA RESULT:     -11.5      0.000      0.000
REMARK SMILES COc1cccc(C(=O)/C=C(/Nc2cc(C)c(C)cc2[N+](=O)[O-])C(=O)OCCOCCOC(=O)c2ccc(-c3c4nc(c(-c5cc(S(=O)(=O)[O-])ccc5F)c5ccc([nH]5)c(-c5cc(S(=O)(=O)[O-])ccc5F)c5nc(c(-c6cc(S(=O)(=O)[O-])ccc6F)c6ccc3[nH]6)C=C5)C=C4)cc2)c1
REMARK SMILES IDX 29 1 28 2 27 3 26 4 24 5 25 6 11 7 10 8 8 9 9 10 7 11 3 12
REMARK SMILES IDX 4 13 98 14 5 15 6 16 2 17 1 18 12 19 13 21 14 22 20 23 15 24
REMARK SMILES IDX 19 25 16 26 17 27 18 28 21 29 22 30 23 31 30 32 31 33 32 34
REMARK SMILES IDX 33 35 34 36 35 37 36 38 97 39 37 40 96 41 38 42 39 43 40 44
REMARK SMILES IDX 90 45 41 46 95 47 89 48 91 49 42 50 94 51 88 52 87 53 43 55
REMARK SMILES IDX 75 56 55 57 74 58 56 59 59 60 73 61 92 62 57 63 58 64 72 66
REMARK SMILES IDX 93 67 60 68 44 69 45 70 53 71 46 72 52 73 54 74 51 75 47 76
REMARK SMILES IDX 48 77 49 78 50 79 76 80 77 81 85 82 78 83 84 84 86 85 83 86
REMARK SMILES IDX 79 87 80 88 81 89 82 90 61 91 62 92 70 93 63 94 69 95 71 96
REMARK SMILES IDX 68 97 64 98 65 99 66 100 67 101
REMARK H PARENT 12 20 91 54 59 65
REMARK Flexibility Score: inf
ROOT
ATOM      1  O   UNL A   1      37.488  21.761  24.919  1.00  0.00    -0.374 OA
ENDROOT
BRANCH   1   2
ATOM      2  C   UNL A   1      36.595  22.497  25.751  1.00  0.00     0.202 C 
BRANCH   2   3
ATOM      3  C   UNL A   1      36.289  23.956  25.392  1.00  0.00     0.261 C 
BRANCH   3   4
ATOM      4  O   UNL A   1      34.919  24.107  25.062  1.00  0.00    -0.459 OA
BRANCH   4   5
ATOM      5  C   UNL A   1      34.548  23.680  23.851  1.00  0.00     0.354 C 
ATOM      6  O   UNL A   1      35.268  23.446  22.888  1.00  0.00    -0.244 OA
BRANCH   5   7
ATOM      7  C   UNL A   1      33.068  23.656  23.830  1.00  0.00     0.129 C 
ATOM      8  C   UNL A   1      32.449  22.587  24.368  1.00  0.00     0.086 C 
BRANCH   8   9
ATOM      9  C   UNL A   1      32.814  21.282  25.030  1.00  0.00     0.188 C 
ATOM     10  O   UNL A   1      33.000  21.348  26.253  1.00  0.00    -0.289 OA
BRANCH   9  11
ATOM     11  C   UNL A   1      33.058  19.956  24.390  1.00  0.00     0.026 A 
ATOM     12  C   UNL A   1      34.178  17.815  24.107  1.00  0.00     0.119 A 
ATOM     13  C   UNL A   1      33.334  17.481  23.051  1.00  0.00     0.046 A 
ATOM     14  C   UNL A   1      34.100  19.083  24.704  1.00  0.00     0.058 A 
ATOM     15  C   UNL A   1      32.369  18.391  22.633  1.00  0.00     0.005 A 
ATOM     16  C   UNL A   1      32.221  19.608  23.310  1.00  0.00     0.012 A 
BRANCH  12  17
ATOM     17  O   UNL A   1      35.163  16.962  24.531  1.00  0.00    -0.497 OA
ATOM     18  C   UNL A   1      34.679  15.897  25.359  1.00  0.00     0.278 C 
ENDBRANCH  12  17
ENDBRANCH   9  11
ENDBRANCH   8   9
BRANCH   7  19
ATOM     19  N   UNL A   1      32.428  24.819  23.365  1.00  0.00    -0.344 N 
ATOM     20  H   UNL A   1      31.852  24.736  22.571  1.00  0.00     0.167 HD
BRANCH  19  21
ATOM     21  C   UNL A   1      32.551  26.103  23.958  1.00  0.00     0.118 A 
ATOM     22  C   UNL A   1      31.971  26.320  25.222  1.00  0.00     0.037 A 
ATOM     23  C   UNL A   1      33.397  27.116  23.469  1.00  0.00     0.292 A 
ATOM     24  C   UNL A   1      32.329  27.428  26.025  1.00  0.00    -0.046 A 
ATOM     25  C   UNL A   1      33.861  28.144  24.303  1.00  0.00     0.091 A 
ATOM     26  C   UNL A   1      31.584  27.663  27.313  1.00  0.00     0.045 C 
ATOM     27  C   UNL A   1      33.381  28.266  25.612  1.00  0.00    -0.041 A 
ATOM     28  C   UNL A   1      33.976  29.329  26.498  1.00  0.00     0.045 C 
BRANCH  23  29
ATOM     29  N   UNL A   1      33.726  27.193  22.037  1.00  0.00     0.064 N 
ATOM     30  O   UNL A   1      33.564  26.174  21.348  1.00  0.00    -0.258 OA
ATOM     31  O   UNL A   1      34.231  28.246  21.614  1.00  0.00    -0.258 OA
ENDBRANCH  23  29
ENDBRANCH  19  21
ENDBRANCH   7  19
ENDBRANCH   5   7
ENDBRANCH   4   5
ENDBRANCH   3   4
ENDBRANCH   2   3
ENDBRANCH   1   2
BRANCH   1  32
ATOM     32  C   UNL A   1      37.543  20.339  25.002  1.00  0.00     0.202 C 
BRANCH  32  33
ATOM     33  C   UNL A   1      38.899  19.684  25.254  1.00  0.00     0.261 C 
BRANCH  33  34
ATOM     34  O   UNL A   1      39.785  20.517  26.023  1.00  0.00    -0.460 OA
BRANCH  34  35
ATOM     35  C   UNL A   1      41.042  20.028  26.165  1.00  0.00     0.338 C 
ATOM     36  O   UNL A   1      41.399  18.871  26.016  1.00  0.00    -0.246 OA
BRANCH  35  37
ATOM     37  C   UNL A   1      41.998  21.130  26.367  1.00  0.00     0.060 A 
ATOM     38  C   UNL A   1      42.440  21.392  27.672  1.00  0.00     0.016 A 
ATOM     39  C   UNL A   1      42.368  21.960  25.308  1.00  0.00     0.016 A 
ATOM     40  C   UNL A   1      43.202  22.528  27.934  1.00  0.00     0.010 A 
ATOM     41  C   UNL A   1      43.114  23.109  25.576  1.00  0.00     0.010 A 
ATOM     42  C   UNL A   1      43.490  23.422  26.895  1.00  0.00    -0.014 A 
BRANCH  42  43
ATOM     43  C   UNL A   1      43.977  24.784  27.213  1.00  0.00     0.031 A 
ATOM     44  C   UNL A   1      42.982  25.794  27.721  1.00  0.00     0.074 A 
ATOM     45  C   UNL A   1      45.272  25.112  27.071  1.00  0.00     0.049 A 
ATOM     46  N   UNL A   1      43.139  27.068  27.966  1.00  0.00    -0.248 NA
ATOM     47  C   UNL A   1      41.622  25.292  27.980  1.00  0.00     0.031 C 
ATOM     48  C   UNL A   1      46.335  24.196  26.659  1.00  0.00     0.029 A 
ATOM     49  N   UNL A   1      45.911  26.312  27.250  1.00  0.00    -0.354 N 
ATOM     50  C   UNL A   1      41.902  27.520  28.419  1.00  0.00     0.074 A 
ATOM     51  C   UNL A   1      40.995  26.394  28.363  1.00  0.00     0.031 C 
ATOM     52  C   UNL A   1      47.493  24.877  26.594  1.00  0.00     0.029 A 
ATOM     53  C   UNL A   1      47.246  26.279  26.921  1.00  0.00     0.049 A 
ATOM     54  H   UNL A   1      45.457  27.120  27.581  1.00  0.00     0.167 HD
ATOM     55  C   UNL A   1      41.559  28.758  28.852  1.00  0.00     0.034 A 
ATOM     56  C   UNL A   1      48.151  27.278  26.866  1.00  0.00     0.034 A 
ATOM     57  C   UNL A   1      42.468  29.877  28.872  1.00  0.00     0.049 A 
ATOM     58  C   UNL A   1      47.715  28.677  27.245  1.00  0.00     0.074 A 
ATOM     59  C   UNL A   1      42.221  31.188  29.242  1.00  0.00     0.029 A 
ATOM     60  N   UNL A   1      43.806  29.816  28.503  1.00  0.00    -0.354 N 
ATOM     61  N   UNL A   1      46.536  29.099  27.645  1.00  0.00    -0.248 NA
ATOM     62  C   UNL A   1      48.737  29.729  27.181  1.00  0.00     0.031 C 
ATOM     63  C   UNL A   1      43.390  31.929  29.041  1.00  0.00     0.029 A 
ATOM     64  C   UNL A   1      44.391  31.067  28.622  1.00  0.00     0.049 A 
ATOM     65  H   UNL A   1      44.272  29.003  28.200  1.00  0.00     0.167 HD
ATOM     66  C   UNL A   1      46.695  30.456  27.926  1.00  0.00     0.074 A 
ATOM     67  C   UNL A   1      48.082  30.772  27.665  1.00  0.00     0.031 C 
ATOM     68  C   UNL A   1      45.781  31.361  28.364  1.00  0.00     0.034 A 
BRANCH  55  69
ATOM     69  C   UNL A   1      40.131  28.962  29.298  1.00  0.00     0.023 A 
ATOM     70  C   UNL A   1      39.783  28.994  30.660  1.00  0.00     0.031 A 
ATOM     71  C   UNL A   1      39.100  29.097  28.352  1.00  0.00     0.131 A 
ATOM     72  C   UNL A   1      38.436  29.091  31.037  1.00  0.00     0.055 A 
ATOM     73  C   UNL A   1      37.768  29.273  28.735  1.00  0.00     0.041 A 
ATOM     74  F   UNL A   1      39.366  29.047  27.037  1.00  0.00    -0.206 F 
ATOM     75  C   UNL A   1      37.428  29.258  30.084  1.00  0.00     0.022 A 
BRANCH  72  76
ATOM     76  S   UNL A   1      38.005  28.861  32.784  1.00  0.00     0.124 S 
ATOM     77  O   UNL A   1      36.802  29.683  32.900  1.00  0.00    -0.237 OA
ATOM     78  O   UNL A   1      37.805  27.419  32.873  1.00  0.00    -0.237 OA
ATOM     79  O   UNL A   1      39.173  29.375  33.495  1.00  0.00    -0.744 OA
ENDBRANCH  72  76
ENDBRANCH  55  69
BRANCH  56  80
ATOM     80  C   UNL A   1      49.547  27.023  26.405  1.00  0.00     0.023 A 
ATOM     81  C   UNL A   1      50.006  27.528  25.179  1.00  0.00     0.031 A 
ATOM     82  C   UNL A   1      50.411  26.188  27.137  1.00  0.00     0.131 A 
ATOM     83  C   UNL A   1      51.260  27.135  24.685  1.00  0.00     0.055 A 
ATOM     84  C   UNL A   1      51.684  25.854  26.673  1.00  0.00     0.041 A 
ATOM     85  F   UNL A   1      50.025  25.676  28.317  1.00  0.00    -0.206 F 
ATOM     86  C   UNL A   1      52.107  26.312  25.429  1.00  0.00     0.022 A 
BRANCH  83  87
ATOM     87  S   UNL A   1      51.706  27.606  22.990  1.00  0.00     0.124 S 
ATOM     88  O   UNL A   1      50.840  26.736  22.204  1.00  0.00    -0.237 OA
ATOM     89  O   UNL A   1      51.371  29.027  22.976  1.00  0.00    -0.237 OA
ATOM     90  O   UNL A   1      53.133  27.300  22.918  1.00  0.00    -0.744 OA
ENDBRANCH  83  87
ENDBRANCH  56  80
BRANCH  68  91
ATOM     91  C   UNL A   1      46.282  32.755  28.656  1.00  0.00     0.023 A 
ATOM     92  C   UNL A   1      46.333  33.753  27.666  1.00  0.00     0.031 A 
ATOM     93  C   UNL A   1      46.750  33.080  29.943  1.00  0.00     0.131 A 
ATOM     94  C   UNL A   1      46.909  34.999  27.956  1.00  0.00     0.055 A 
ATOM     95  C   UNL A   1      47.258  34.345  30.244  1.00  0.00     0.041 A 
ATOM     96  F   UNL A   1      46.725  32.170  30.929  1.00  0.00    -0.206 F 
ATOM     97  C   UNL A   1      47.357  35.305  29.243  1.00  0.00     0.022 A 
BRANCH  94  98
ATOM     98  S   UNL A   1      47.177  36.170  26.597  1.00  0.00     0.124 S 
ATOM     99  O   UNL A   1      47.482  35.278  25.483  1.00  0.00    -0.237 OA
ATOM    100  O   UNL A   1      45.893  36.860  26.526  1.00  0.00    -0.237 OA
ATOM    101  O   UNL A   1      48.296  36.987  27.063  1.00  0.00    -0.744 OA
ENDBRANCH  94  98
ENDBRANCH  68  91
ENDBRANCH  42  43
ENDBRANCH  35  37
ENDBRANCH  34  35
ENDBRANCH  33  34
ENDBRANCH  32  33
ENDBRANCH   1  32
TORSDOF 23
ENDMDL
MODEL 2
REMARK VINA RESULT:     -11.1      2.556      7.802
REMARK SMILES COc1cccc(C(=O)/C=C(/Nc2cc(C)c(C)cc2[N+](=O)[O-])C(=O)OCCOCCOC(=O)c2ccc(-c3c4nc(c(-c5cc(S(=O)(=O)[O-])ccc5F)c5ccc([nH]5)c(-c5cc(S(=O)(=O)[O-])ccc5F)c5nc(c(-c6cc(S(=O)(=O)[O-])ccc6F)c6ccc3[nH]6)C=C5)C=C4)cc2)c1
REMARK SMILES IDX 29 1 28 2 27 3 26 4 24 5 25 6 11 7 10 8 8 9 9 10 7 11 3 12
REMARK SMILES IDX 4 13 98 14 5 15 6 16 2 17 1 18 12 19 13 21 14 22 20 23 15 24
REMARK SMILES IDX 19 25 16 26 17 27 18 28 21 29 22 30 23 31 30 32 31 33 32 34
REMARK SMILES IDX 33 35 34 36 35 37 36 38 97 39 37 40 96 41 38 42 39 43 40 44
REMARK SMILES IDX 90 45 41 46 95 47 89 48 91 49 42 50 94 51 88 52 87 53 43 55
REMARK SMILES IDX 75 56 55 57 74 58 56 59 59 60 73 61 92 62 57 63 58 64 72 66
REMARK SMILES IDX 93 67 60 68 44 69 45 70 53 71 46 72 52 73 54 74 51 75 47 76
REMARK SMILES IDX 48 77 49 78 50 79 76 80 77 81 85 82 78 83 84 84 86 85 83 86
REMARK SMILES IDX 79 87 80 88 81 89 82 90 61 91 62 92 70 93 63 94 69 95 71 96
REMARK SMILES IDX 68 97 64 98 65 99 66 100 67 101
REMARK H PARENT 12 20 91 54 59 65
REMARK Flexibility Score: inf
ROOT
ATOM      1  O   UNL A   1      38.019  21.398  25.048  1.00  0.00    -0.374 OA
ENDROOT
BRANCH   1   2
ATOM      2  C   UNL A   1      37.106  21.517  23.961  1.00  0.00     0.202 C 
BRANCH   2   3
ATOM      3  C   UNL A   1      36.826  22.909  23.382  1.00  0.00     0.261 C 
BRANCH   3   4
ATOM      4  O   UNL A   1      35.440  23.202  23.449  1.00  0.00    -0.459 OA
BRANCH   4   5
ATOM      5  C   UNL A   1      35.052  24.018  24.433  1.00  0.00     0.354 C 
ATOM      6  O   UNL A   1      35.725  24.436  25.368  1.00  0.00    -0.244 OA
BRANCH   5   7
ATOM      7  C   UNL A   1      33.598  24.239  24.270  1.00  0.00     0.129 C 
ATOM      8  C   UNL A   1      32.763  23.265  24.684  1.00  0.00     0.086 C 
BRANCH   8   9
ATOM      9  C   UNL A   1      32.845  21.893  25.303  1.00  0.00     0.188 C 
ATOM     10  O   UNL A   1      32.836  21.874  26.541  1.00  0.00    -0.289 OA
BRANCH   9  11
ATOM     11  C   UNL A   1      33.017  20.578  24.618  1.00  0.00     0.026 A 
ATOM     12  C   UNL A   1      34.028  18.395  24.255  1.00  0.00     0.119 A 
ATOM     13  C   UNL A   1      33.159  18.137  23.199  1.00  0.00     0.046 A 
ATOM     14  C   UNL A   1      34.018  19.645  24.893  1.00  0.00     0.058 A 
ATOM     15  C   UNL A   1      32.236  19.105  22.821  1.00  0.00     0.005 A 
ATOM     16  C   UNL A   1      32.154  20.305  23.538  1.00  0.00     0.012 A 
BRANCH  12  17
ATOM     17  O   UNL A   1      34.974  17.482  24.641  1.00  0.00    -0.497 OA
ATOM     18  C   UNL A   1      34.499  16.131  24.642  1.00  0.00     0.278 C 
ENDBRANCH  12  17
ENDBRANCH   9  11
ENDBRANCH   8   9
BRANCH   7  19
ATOM     19  N   UNL A   1      33.202  25.509  23.811  1.00  0.00    -0.344 N 
ATOM     20  H   UNL A   1      33.289  25.694  22.849  1.00  0.00     0.167 HD
BRANCH  19  21
ATOM     21  C   UNL A   1      32.687  26.542  24.638  1.00  0.00     0.118 A 
ATOM     22  C   UNL A   1      33.552  27.164  25.558  1.00  0.00     0.037 A 
ATOM     23  C   UNL A   1      31.425  27.138  24.455  1.00  0.00     0.292 A 
ATOM     24  C   UNL A   1      33.231  28.403  26.161  1.00  0.00    -0.046 A 
ATOM     25  C   UNL A   1      31.150  28.425  24.938  1.00  0.00     0.091 A 
ATOM     26  C   UNL A   1      34.147  28.953  27.222  1.00  0.00     0.045 C 
ATOM     27  C   UNL A   1      32.082  29.096  25.739  1.00  0.00    -0.041 A 
ATOM     28  C   UNL A   1      31.781  30.512  26.158  1.00  0.00     0.045 C 
BRANCH  23  29
ATOM     29  N   UNL A   1      30.317  26.381  23.852  1.00  0.00     0.064 N 
ATOM     30  O   UNL A   1      30.580  25.619  22.909  1.00  0.00    -0.258 OA
ATOM     31  O   UNL A   1      29.167  26.610  24.260  1.00  0.00    -0.258 OA
ENDBRANCH  23  29
ENDBRANCH  19  21
ENDBRANCH   7  19
ENDBRANCH   5   7
ENDBRANCH   4   5
ENDBRANCH   3   4
ENDBRANCH   2   3
ENDBRANCH   1   2
BRANCH   1  32
ATOM     32  C   UNL A   1      38.221  20.141  25.685  1.00  0.00     0.202 C 
BRANCH  32  33
ATOM     33  C   UNL A   1      39.643  19.585  25.750  1.00  0.00     0.261 C 
BRANCH  33  34
ATOM     34  O   UNL A   1      40.637  20.616  25.896  1.00  0.00    -0.460 OA
BRANCH  34  35
ATOM     35  C   UNL A   1      41.233  20.659  27.113  1.00  0.00     0.338 C 
ATOM     36  O   UNL A   1      41.838  19.755  27.665  1.00  0.00    -0.246 OA
BRANCH  35  37
ATOM     37  C   UNL A   1      41.208  22.033  27.644  1.00  0.00     0.060 A 
ATOM     38  C   UNL A   1      40.343  22.959  27.042  1.00  0.00     0.016 A 
ATOM     39  C   UNL A   1      42.097  22.431  28.643  1.00  0.00     0.016 A 
ATOM     40  C   UNL A   1      40.413  24.305  27.392  1.00  0.00     0.010 A 
ATOM     41  C   UNL A   1      42.180  23.784  28.977  1.00  0.00     0.010 A 
ATOM     42  C   UNL A   1      41.374  24.730  28.317  1.00  0.00    -0.014 A 
BRANCH  42  43
ATOM     43  C   UNL A   1      41.699  26.171  28.430  1.00  0.00     0.031 A 
ATOM     44  C   UNL A   1      43.054  26.633  27.964  1.00  0.00     0.074 A 
ATOM     45  C   UNL A   1      40.807  27.051  28.918  1.00  0.00     0.049 A 
ATOM     46  N   UNL A   1      43.610  27.813  28.055  1.00  0.00    -0.248 NA
ATOM     47  C   UNL A   1      43.897  25.617  27.312  1.00  0.00     0.031 C 
ATOM     48  C   UNL A   1      39.441  26.728  29.328  1.00  0.00     0.029 A 
ATOM     49  N   UNL A   1      40.924  28.395  29.158  1.00  0.00    -0.354 N 
ATOM     50  C   UNL A   1      44.863  27.686  27.463  1.00  0.00     0.074 A 
ATOM     51  C   UNL A   1      45.004  26.301  27.064  1.00  0.00     0.031 C 
ATOM     52  C   UNL A   1      38.853  27.845  29.793  1.00  0.00     0.029 A 
ATOM     53  C   UNL A   1      39.811  28.947  29.749  1.00  0.00     0.049 A 
ATOM     54  H   UNL A   1      41.727  28.915  28.930  1.00  0.00     0.167 HD
ATOM     55  C   UNL A   1      45.805  28.640  27.259  1.00  0.00     0.034 A 
ATOM     56  C   UNL A   1      39.609  30.193  30.222  1.00  0.00     0.034 A 
ATOM     57  C   UNL A   1      45.660  30.008  27.690  1.00  0.00     0.049 A 
ATOM     58  C   UNL A   1      40.719  31.213  30.087  1.00  0.00     0.074 A 
ATOM     59  C   UNL A   1      46.566  31.050  27.583  1.00  0.00     0.029 A 
ATOM     60  N   UNL A   1      44.533  30.527  28.314  1.00  0.00    -0.354 N 
ATOM     61  N   UNL A   1      41.911  31.076  29.551  1.00  0.00    -0.248 NA
ATOM     62  C   UNL A   1      40.448  32.559  30.606  1.00  0.00     0.031 C 
ATOM     63  C   UNL A   1      46.009  32.179  28.194  1.00  0.00     0.029 A 
ATOM     64  C   UNL A   1      44.725  31.867  28.610  1.00  0.00     0.049 A 
ATOM     65  H   UNL A   1      43.715  30.016  28.516  1.00  0.00     0.167 HD
ATOM     66  C   UNL A   1      42.508  32.333  29.627  1.00  0.00     0.074 A 
ATOM     67  C   UNL A   1      41.540  33.214  30.244  1.00  0.00     0.031 C 
ATOM     68  C   UNL A   1      43.743  32.731  29.221  1.00  0.00     0.034 A 
BRANCH  55  69
ATOM     69  C   UNL A   1      47.082  28.214  26.576  1.00  0.00     0.023 A 
ATOM     70  C   UNL A   1      47.199  28.207  25.175  1.00  0.00     0.031 A 
ATOM     71  C   UNL A   1      48.186  27.783  27.331  1.00  0.00     0.131 A 
ATOM     72  C   UNL A   1      48.367  27.716  24.572  1.00  0.00     0.055 A 
ATOM     73  C   UNL A   1      49.375  27.370  26.726  1.00  0.00     0.041 A 
ATOM     74  F   UNL A   1      48.125  27.741  28.671  1.00  0.00    -0.206 F 
ATOM     75  C   UNL A   1      49.467  27.323  25.339  1.00  0.00     0.022 A 
BRANCH  72  76
ATOM     76  S   UNL A   1      48.379  27.474  22.774  1.00  0.00     0.124 S 
ATOM     77  O   UNL A   1      48.306  26.018  22.674  1.00  0.00    -0.237 OA
ATOM     78  O   UNL A   1      47.191  28.204  22.349  1.00  0.00    -0.237 OA
ATOM     79  O   UNL A   1      49.652  28.057  22.359  1.00  0.00    -0.744 OA
ENDBRANCH  72  76
ENDBRANCH  55  69
BRANCH  56  80
ATOM     80  C   UNL A   1      38.331  30.557  30.901  1.00  0.00     0.023 A 
ATOM     81  C   UNL A   1      37.308  31.221  30.207  1.00  0.00     0.031 A 
ATOM     82  C   UNL A   1      38.153  30.334  32.279  1.00  0.00     0.131 A 
ATOM     83  C   UNL A   1      36.189  31.707  30.903  1.00  0.00     0.055 A 
ATOM     84  C   UNL A   1      37.007  30.760  32.954  1.00  0.00     0.041 A 
ATOM     85  F   UNL A   1      39.098  29.703  32.994  1.00  0.00    -0.206 F 
ATOM     86  C   UNL A   1      36.026  31.469  32.269  1.00  0.00     0.022 A 
BRANCH  83  87
ATOM     87  S   UNL A   1      35.019  32.775  30.019  1.00  0.00     0.124 S 
ATOM     88  O   UNL A   1      35.891  33.845  29.551  1.00  0.00    -0.237 OA
ATOM     89  O   UNL A   1      34.505  31.872  28.994  1.00  0.00    -0.237 OA
ATOM     90  O   UNL A   1      34.060  33.156  31.053  1.00  0.00    -0.744 OA
ENDBRANCH  83  87
ENDBRANCH  56  80
BRANCH  68  91
ATOM     91  C   UNL A   1      44.074  34.197  29.368  1.00  0.00     0.023 A 
ATOM     92  C   UNL A   1      44.600  34.727  30.560  1.00  0.00     0.031 A 
ATOM     93  C   UNL A   1      43.826  35.085  28.305  1.00  0.00     0.131 A 
ATOM     94  C   UNL A   1      44.787  36.112  30.687  1.00  0.00     0.055 A 
ATOM     95  C   UNL A   1      44.081  36.453  28.414  1.00  0.00     0.041 A 
ATOM     96  F   UNL A   1      43.327  34.637  27.143  1.00  0.00    -0.206 F 
ATOM     97  C   UNL A   1      44.546  36.975  29.616  1.00  0.00     0.022 A 
BRANCH  94  98
ATOM     98  S   UNL A   1      45.235  36.781  32.313  1.00  0.00     0.124 S 
ATOM     99  O   UNL A   1      46.377  37.629  31.988  1.00  0.00    -0.237 OA
ATOM    100  O   UNL A   1      44.015  37.480  32.706  1.00  0.00    -0.237 OA
ATOM    101  O   UNL A   1      45.550  35.590  33.100  1.00  0.00    -0.744 OA
ENDBRANCH  94  98
ENDBRANCH  68  91
ENDBRANCH  42  43
ENDBRANCH  35  37
ENDBRANCH  34  35
ENDBRANCH  33  34
ENDBRANCH  32  33
ENDBRANCH   1  32
TORSDOF 23
ENDMDL
MODEL 3
REMARK VINA RESULT:     -10.9      1.575      2.117
REMARK SMILES COc1cccc(C(=O)/C=C(/Nc2cc(C)c(C)cc2[N+](=O)[O-])C(=O)OCCOCCOC(=O)c2ccc(-c3c4nc(c(-c5cc(S(=O)(=O)[O-])ccc5F)c5ccc([nH]5)c(-c5cc(S(=O)(=O)[O-])ccc5F)c5nc(c(-c6cc(S(=O)(=O)[O-])ccc6F)c6ccc3[nH]6)C=C5)C=C4)cc2)c1
REMARK SMILES IDX 29 1 28 2 27 3 26 4 24 5 25 6 11 7 10 8 8 9 9 10 7 11 3 12
REMARK SMILES IDX 4 13 98 14 5 15 6 16 2 17 1 18 12 19 13 21 14 22 20 23 15 24
REMARK SMILES IDX 19 25 16 26 17 27 18 28 21 29 22 30 23 31 30 32 31 33 32 34
REMARK SMILES IDX 33 35 34 36 35 37 36 38 97 39 37 40 96 41 38 42 39 43 40 44
REMARK SMILES IDX 90 45 41 46 95 47 89 48 91 49 42 50 94 51 88 52 87 53 43 55
REMARK SMILES IDX 75 56 55 57 74 58 56 59 59 60 73 61 92 62 57 63 58 64 72 66
REMARK SMILES IDX 93 67 60 68 44 69 45 70 53 71 46 72 52 73 54 74 51 75 47 76
REMARK SMILES IDX 48 77 49 78 50 79 76 80 77 81 85 82 78 83 84 84 86 85 83 86
REMARK SMILES IDX 79 87 80 88 81 89 82 90 61 91 62 92 70 93 63 94 69 95 71 96
REMARK SMILES IDX 68 97 64 98 65 99 66 100 67 101
REMARK H PARENT 12 20 91 54 59 65
REMARK Flexibility Score: inf
ROOT
ATOM      1  O   UNL A   1      37.412  21.872  24.950  1.00  0.00    -0.374 OA
ENDROOT
BRANCH   1   2
ATOM      2  C   UNL A   1      36.393  22.550  25.680  1.00  0.00     0.202 C 
BRANCH   2   3
ATOM      3  C   UNL A   1      35.975  23.955  25.230  1.00  0.00     0.261 C 
BRANCH   3   4
ATOM      4  O   UNL A   1      34.572  24.017  25.040  1.00  0.00    -0.459 OA
BRANCH   4   5
ATOM      5  C   UNL A   1      34.103  23.502  23.899  1.00  0.00     0.354 C 
ATOM      6  O   UNL A   1      34.727  23.275  22.869  1.00  0.00    -0.244 OA
BRANCH   5   7
ATOM      7  C   UNL A   1      32.637  23.365  24.052  1.00  0.00     0.129 C 
ATOM      8  C   UNL A   1      32.171  22.276  24.696  1.00  0.00     0.086 C 
BRANCH   8   9
ATOM      9  C   UNL A   1      32.713  21.035  25.357  1.00  0.00     0.188 C 
ATOM     10  O   UNL A   1      33.190  21.207  26.487  1.00  0.00    -0.289 OA
BRANCH   9  11
ATOM     11  C   UNL A   1      32.820  19.657  24.792  1.00  0.00     0.026 A 
ATOM     12  C   UNL A   1      33.304  17.274  24.864  1.00  0.00     0.119 A 
ATOM     13  C   UNL A   1      32.926  17.128  23.533  1.00  0.00     0.046 A 
ATOM     14  C   UNL A   1      33.341  18.546  25.456  1.00  0.00     0.058 A 
ATOM     15  C   UNL A   1      32.525  18.246  22.810  1.00  0.00     0.005 A 
ATOM     16  C   UNL A   1      32.454  19.494  23.441  1.00  0.00     0.012 A 
BRANCH  12  17
ATOM     17  O   UNL A   1      33.735  16.205  25.606  1.00  0.00    -0.497 OA
ATOM     18  C   UNL A   1      34.996  15.681  25.173  1.00  0.00     0.278 C 
ENDBRANCH  12  17
ENDBRANCH   9  11
ENDBRANCH   8   9
BRANCH   7  19
ATOM     19  N   UNL A   1      31.856  24.453  23.622  1.00  0.00    -0.344 N 
ATOM     20  H   UNL A   1      31.206  24.292  22.901  1.00  0.00     0.167 HD
BRANCH  19  21
ATOM     21  C   UNL A   1      31.937  25.766  24.155  1.00  0.00     0.118 A 
ATOM     22  C   UNL A   1      32.692  26.730  23.461  1.00  0.00     0.037 A 
ATOM     23  C   UNL A   1      31.141  26.233  25.218  1.00  0.00     0.292 A 
ATOM     24  C   UNL A   1      32.551  28.114  23.719  1.00  0.00    -0.046 A 
ATOM     25  C   UNL A   1      30.891  27.602  25.395  1.00  0.00     0.091 A 
ATOM     26  C   UNL A   1      33.473  29.081  23.023  1.00  0.00     0.045 C 
ATOM     27  C   UNL A   1      31.543  28.550  24.599  1.00  0.00    -0.041 A 
ATOM     28  C   UNL A   1      31.174  30.002  24.764  1.00  0.00     0.045 C 
BRANCH  23  29
ATOM     29  N   UNL A   1      30.641  25.306  26.245  1.00  0.00     0.064 N 
ATOM     30  O   UNL A   1      29.415  25.243  26.424  1.00  0.00    -0.258 OA
ATOM     31  O   UNL A   1      31.477  24.702  26.938  1.00  0.00    -0.258 OA
ENDBRANCH  23  29
ENDBRANCH  19  21
ENDBRANCH   7  19
ENDBRANCH   5   7
ENDBRANCH   4   5
ENDBRANCH   3   4
ENDBRANCH   2   3
ENDBRANCH   1   2
BRANCH   1  32
ATOM     32  C   UNL A   1      37.568  20.461  25.071  1.00  0.00     0.202 C 
BRANCH  32  33
ATOM     33  C   UNL A   1      38.981  19.903  25.234  1.00  0.00     0.261 C 
BRANCH  33  34
ATOM     34  O   UNL A   1      39.823  20.750  26.037  1.00  0.00    -0.460 OA
BRANCH  34  35
ATOM     35  C   UNL A   1      41.030  20.216  26.348  1.00  0.00     0.338 C 
ATOM     36  O   UNL A   1      41.330  19.033  26.350  1.00  0.00    -0.246 OA
BRANCH  35  37
ATOM     37  C   UNL A   1      42.028  21.284  26.530  1.00  0.00     0.060 A 
ATOM     38  C   UNL A   1      42.424  21.604  27.837  1.00  0.00     0.016 A 
ATOM     39  C   UNL A   1      42.485  22.030  25.443  1.00  0.00     0.016 A 
ATOM     40  C   UNL A   1      43.227  22.718  28.068  1.00  0.00     0.010 A 
ATOM     41  C   UNL A   1      43.272  23.158  25.678  1.00  0.00     0.010 A 
ATOM     42  C   UNL A   1      43.603  23.534  26.993  1.00  0.00    -0.014 A 
BRANCH  42  43
ATOM     43  C   UNL A   1      44.141  24.889  27.254  1.00  0.00     0.031 A 
ATOM     44  C   UNL A   1      43.198  25.937  27.786  1.00  0.00     0.074 A 
ATOM     45  C   UNL A   1      45.435  25.179  27.039  1.00  0.00     0.049 A 
ATOM     46  N   UNL A   1      43.400  27.212  27.992  1.00  0.00    -0.248 NA
ATOM     47  C   UNL A   1      41.841  25.477  28.125  1.00  0.00     0.031 C 
ATOM     48  C   UNL A   1      46.452  24.226  26.597  1.00  0.00     0.029 A 
ATOM     49  N   UNL A   1      46.112  26.365  27.157  1.00  0.00    -0.354 N 
ATOM     50  C   UNL A   1      42.200  27.706  28.495  1.00  0.00     0.074 A 
ATOM     51  C   UNL A   1      41.263  26.604  28.512  1.00  0.00     0.031 C 
ATOM     52  C   UNL A   1      47.622  24.873  26.458  1.00  0.00     0.029 A 
ATOM     53  C   UNL A   1      47.428  26.289  26.763  1.00  0.00     0.049 A 
ATOM     54  H   UNL A   1      45.696  27.192  27.491  1.00  0.00     0.167 HD
ATOM     55  C   UNL A   1      41.911  28.963  28.915  1.00  0.00     0.034 A 
ATOM     56  C   UNL A   1      48.354  27.261  26.639  1.00  0.00     0.034 A 
ATOM     57  C   UNL A   1      42.848  30.057  28.862  1.00  0.00     0.049 A 
ATOM     58  C   UNL A   1      47.974  28.680  27.005  1.00  0.00     0.074 A 
ATOM     59  C   UNL A   1      42.654  31.382  29.213  1.00  0.00     0.029 A 
ATOM     60  N   UNL A   1      44.164  29.952  28.428  1.00  0.00    -0.354 N 
ATOM     61  N   UNL A   1      46.828  29.143  27.453  1.00  0.00    -0.248 NA
ATOM     62  C   UNL A   1      49.018  29.702  26.865  1.00  0.00     0.031 C 
ATOM     63  C   UNL A   1      43.830  32.087  28.935  1.00  0.00     0.029 A 
ATOM     64  C   UNL A   1      44.786  31.189  28.488  1.00  0.00     0.049 A 
ATOM     65  H   UNL A   1      44.592  29.120  28.122  1.00  0.00     0.167 HD
ATOM     66  C   UNL A   1      47.035  30.501  27.693  1.00  0.00     0.074 A 
ATOM     67  C   UNL A   1      48.415  30.774  27.355  1.00  0.00     0.031 C 
ATOM     68  C   UNL A   1      46.168  31.440  28.154  1.00  0.00     0.034 A 
BRANCH  55  69
ATOM     69  C   UNL A   1      40.513  29.215  29.426  1.00  0.00     0.023 A 
ATOM     70  C   UNL A   1      40.227  29.242  30.802  1.00  0.00     0.031 A 
ATOM     71  C   UNL A   1      39.447  29.401  28.529  1.00  0.00     0.131 A 
ATOM     72  C   UNL A   1      38.902  29.385  31.240  1.00  0.00     0.055 A 
ATOM     73  C   UNL A   1      38.142  29.623  28.973  1.00  0.00     0.041 A 
ATOM     74  F   UNL A   1      39.652  29.358  27.203  1.00  0.00    -0.206 F 
ATOM     75  C   UNL A   1      37.860  29.603  30.335  1.00  0.00     0.022 A 
BRANCH  72  76
ATOM     76  S   UNL A   1      38.540  29.150  33.002  1.00  0.00     0.124 S 
ATOM     77  O   UNL A   1      39.768  28.509  33.470  1.00  0.00    -0.237 OA
ATOM     78  O   UNL A   1      38.316  30.514  33.464  1.00  0.00    -0.237 OA
ATOM     79  O   UNL A   1      37.360  28.289  32.997  1.00  0.00    -0.744 OA
ENDBRANCH  72  76
ENDBRANCH  55  69
BRANCH  56  80
ATOM     80  C   UNL A   1      49.718  26.959  26.115  1.00  0.00     0.023 A 
ATOM     81  C   UNL A   1      50.792  26.730  26.989  1.00  0.00     0.031 A 
ATOM     82  C   UNL A   1      49.989  26.991  24.735  1.00  0.00     0.131 A 
ATOM     83  C   UNL A   1      52.097  26.619  26.481  1.00  0.00     0.055 A 
ATOM     84  C   UNL A   1      51.278  26.813  24.231  1.00  0.00     0.041 A 
ATOM     85  F   UNL A   1      49.000  27.206  23.852  1.00  0.00    -0.206 F 
ATOM     86  C   UNL A   1      52.345  26.646  25.108  1.00  0.00     0.022 A 
BRANCH  83  87
ATOM     87  S   UNL A   1      53.479  26.578  27.655  1.00  0.00     0.124 S 
ATOM     88  O   UNL A   1      52.779  26.564  28.934  1.00  0.00    -0.237 OA
ATOM     89  O   UNL A   1      54.154  25.339  27.281  1.00  0.00    -0.237 OA
ATOM     90  O   UNL A   1      54.215  27.804  27.357  1.00  0.00    -0.744 OA
ENDBRANCH  83  87
ENDBRANCH  56  80
BRANCH  68  91
ATOM     91  C   UNL A   1      46.719  32.827  28.387  1.00  0.00     0.023 A 
ATOM     92  C   UNL A   1      46.849  33.763  27.345  1.00  0.00     0.031 A 
ATOM     93  C   UNL A   1      47.154  33.205  29.671  1.00  0.00     0.131 A 
ATOM     94  C   UNL A   1      47.468  34.998  27.588  1.00  0.00     0.055 A 
ATOM     95  C   UNL A   1      47.705  34.462  29.921  1.00  0.00     0.041 A 
ATOM     96  F   UNL A   1      47.053  32.355  30.704  1.00  0.00    -0.206 F 
ATOM     97  C   UNL A   1      47.883  35.359  28.872  1.00  0.00     0.022 A 
BRANCH  94  98
ATOM     98  S   UNL A   1      47.836  36.077  26.177  1.00  0.00     0.124 S 
ATOM     99  O   UNL A   1      48.955  36.867  26.681  1.00  0.00    -0.237 OA
ATOM    100  O   UNL A   1      48.158  35.115  25.127  1.00  0.00    -0.237 OA
ATOM    101  O   UNL A   1      46.592  36.819  25.979  1.00  0.00    -0.744 OA
ENDBRANCH  94  98
ENDBRANCH  68  91
ENDBRANCH  42  43
ENDBRANCH  35  37
ENDBRANCH  34  35
ENDBRANCH  33  34
ENDBRANCH  32  33
ENDBRANCH   1  32
TORSDOF 23
ENDMDL
