MODEL 1
REMARK VINA RESULT:     -10.9      0.000      0.000
REMARK SMILES Cc1n[nH]c(CCC(=O)OCCOCCOC(=O)c2ccc(-c3c4nc(c(-c5cc(S(=O)(=O)[O-])ccc5F)c5ccc([nH]5)c(-c5cc(S(=O)(=O)[O-])ccc5F)c5nc(c(-c6cc(S(=O)(=O)[O-])ccc6F)c6ccc3[nH]6)C=C5)C=C4)cc2)c1C
REMARK SMILES IDX 14 1 13 2 12 3 11 4 10 5 8 6 9 7 7 8 6 9 5 10 1 11 2 12 3 13
REMARK SMILES IDX 82 14 4 15 83 16 15 18 16 19 17 20 18 21 19 22 20 23 81 24
REMARK SMILES IDX 21 25 80 26 22 27 23 28 24 29 74 30 25 31 79 32 73 33 75 34
REMARK SMILES IDX 26 35 78 36 72 37 71 38 27 40 59 41 39 42 58 43 40 44 43 45
REMARK SMILES IDX 57 46 76 47 41 48 42 49 56 51 77 52 44 53 28 54 29 55 37 56
REMARK SMILES IDX 30 57 36 58 38 59 35 60 31 61 32 62 33 63 34 64 60 65 61 66
REMARK SMILES IDX 69 67 62 68 68 69 70 70 67 71 63 72 64 73 65 74 66 75 45 76
REMARK SMILES IDX 46 77 54 78 47 79 53 80 55 81 52 82 48 83 49 84 50 85 51 86
REMARK H PARENT 4 17 75 39 43 50
REMARK Flexibility Score: inf
ROOT
ATOM      1  C   UNL A   1      34.152  31.669  27.857  1.00  0.00     0.202 C 
ENDROOT
BRANCH   1   2
ATOM      2  O   UNL A   1      33.646  32.768  28.611  1.00  0.00    -0.374 OA
BRANCH   2   3
ATOM      3  C   UNL A   1      33.830  34.058  28.032  1.00  0.00     0.202 C 
BRANCH   3   4
ATOM      4  C   UNL A   1      33.894  35.187  29.072  1.00  0.00     0.261 C 
BRANCH   4   5
ATOM      5  O   UNL A   1      33.272  34.839  30.332  1.00  0.00    -0.463 OA
BRANCH   5   6
ATOM      6  C   UNL A   1      32.752  35.835  31.086  1.00  0.00     0.306 C 
ATOM      7  O   UNL A   1      32.192  36.830  30.643  1.00  0.00    -0.252 OA
BRANCH   6   8
ATOM      8  C   UNL A   1      32.981  35.615  32.569  1.00  0.00     0.129 C 
BRANCH   8   9
ATOM      9  C   UNL A   1      34.366  35.990  33.102  1.00  0.00     0.067 C 
BRANCH   9  10
ATOM     10  C   UNL A   1      35.146  34.832  33.643  1.00  0.00     0.039 A 
ATOM     11  C   UNL A   1      37.376  31.934  33.964  1.00  0.00     0.069 C 
ATOM     12  C   UNL A   1      36.429  33.071  34.095  1.00  0.00     0.062 A 
ATOM     13  N   UNL A   1      35.898  33.426  35.268  1.00  0.00    -0.181 NA
ATOM     14  C   UNL A   1      35.965  33.894  33.042  1.00  0.00    -0.007 A 
ATOM     15  N   UNL A   1      35.083  34.447  34.958  1.00  0.00    -0.282 N 
ATOM     16  C   UNL A   1      36.313  33.722  31.624  1.00  0.00     0.048 C 
ATOM     17  H   UNL A   1      34.492  34.880  35.616  1.00  0.00     0.190 HD
ENDBRANCH   9  10
ENDBRANCH   8   9
ENDBRANCH   6   8
ENDBRANCH   5   6
ENDBRANCH   4   5
ENDBRANCH   3   4
ENDBRANCH   2   3
ENDBRANCH   1   2
BRANCH   1  18
ATOM     18  C   UNL A   1      35.671  31.570  27.882  1.00  0.00     0.261 C 
BRANCH  18  19
ATOM     19  O   UNL A   1      36.060  30.211  28.075  1.00  0.00    -0.460 OA
BRANCH  19  20
ATOM     20  C   UNL A   1      36.661  29.874  29.241  1.00  0.00     0.338 C 
ATOM     21  O   UNL A   1      36.296  30.132  30.359  1.00  0.00    -0.246 OA
BRANCH  20  22
ATOM     22  C   UNL A   1      37.900  29.149  28.872  1.00  0.00     0.060 A 
ATOM     23  C   UNL A   1      38.391  28.180  29.749  1.00  0.00     0.016 A 
ATOM     24  C   UNL A   1      38.600  29.490  27.701  1.00  0.00     0.016 A 
ATOM     25  C   UNL A   1      39.656  27.665  29.524  1.00  0.00     0.010 A 
ATOM     26  C   UNL A   1      39.838  28.947  27.455  1.00  0.00     0.010 A 
ATOM     27  C   UNL A   1      40.391  28.114  28.417  1.00  0.00    -0.014 A 
BRANCH  27  28
ATOM     28  C   UNL A   1      41.782  27.734  28.293  1.00  0.00     0.031 A 
ATOM     29  C   UNL A   1      42.032  26.506  27.515  1.00  0.00     0.074 A 
ATOM     30  C   UNL A   1      42.772  28.504  28.785  1.00  0.00     0.049 A 
ATOM     31  N   UNL A   1      42.380  25.354  27.977  1.00  0.00    -0.248 NA
ATOM     32  C   UNL A   1      41.714  26.507  26.081  1.00  0.00     0.031 C 
ATOM     33  C   UNL A   1      42.684  29.860  29.336  1.00  0.00     0.029 A 
ATOM     34  N   UNL A   1      44.107  28.254  28.801  1.00  0.00    -0.354 N 
ATOM     35  C   UNL A   1      42.574  24.542  26.867  1.00  0.00     0.074 A 
ATOM     36  C   UNL A   1      41.956  25.233  25.766  1.00  0.00     0.031 C 
ATOM     37  C   UNL A   1      43.925  30.390  29.414  1.00  0.00     0.029 A 
ATOM     38  C   UNL A   1      44.895  29.366  29.064  1.00  0.00     0.049 A 
ATOM     39  H   UNL A   1      44.484  27.359  28.640  1.00  0.00     0.167 HD
ATOM     40  C   UNL A   1      43.437  23.490  26.918  1.00  0.00     0.034 A 
ATOM     41  C   UNL A   1      46.246  29.450  28.943  1.00  0.00     0.034 A 
ATOM     42  C   UNL A   1      43.762  23.153  28.289  1.00  0.00     0.049 A 
ATOM     43  C   UNL A   1      46.767  28.063  29.067  1.00  0.00     0.074 A 
ATOM     44  C   UNL A   1      43.011  22.802  29.396  1.00  0.00     0.029 A 
ATOM     45  N   UNL A   1      44.987  23.543  28.789  1.00  0.00    -0.354 N 
ATOM     46  N   UNL A   1      46.659  27.359  30.163  1.00  0.00    -0.248 NA
ATOM     47  C   UNL A   1      46.937  27.278  27.850  1.00  0.00     0.031 C 
ATOM     48  C   UNL A   1      43.619  23.498  30.484  1.00  0.00     0.029 A 
ATOM     49  C   UNL A   1      44.755  24.153  30.000  1.00  0.00     0.049 A 
ATOM     50  H   UNL A   1      45.863  23.410  28.360  1.00  0.00     0.167 HD
ATOM     51  C   UNL A   1      46.299  26.086  29.743  1.00  0.00     0.074 A 
ATOM     52  C   UNL A   1      46.586  26.071  28.308  1.00  0.00     0.031 C 
ATOM     53  C   UNL A   1      45.538  25.259  30.523  1.00  0.00     0.034 A 
BRANCH  40  54
ATOM     54  C   UNL A   1      44.269  22.998  25.754  1.00  0.00     0.023 A 
ATOM     55  C   UNL A   1      44.208  21.621  25.464  1.00  0.00     0.031 A 
ATOM     56  C   UNL A   1      45.310  23.713  25.122  1.00  0.00     0.131 A 
ATOM     57  C   UNL A   1      45.206  21.001  24.693  1.00  0.00     0.055 A 
ATOM     58  C   UNL A   1      46.258  23.103  24.295  1.00  0.00     0.041 A 
ATOM     59  F   UNL A   1      45.532  25.014  25.335  1.00  0.00    -0.206 F 
ATOM     60  C   UNL A   1      46.233  21.733  24.106  1.00  0.00     0.022 A 
BRANCH  57  61
ATOM     61  S   UNL A   1      45.243  19.192  24.642  1.00  0.00     0.124 S 
ATOM     62  O   UNL A   1      46.636  18.919  24.977  1.00  0.00    -0.237 OA
ATOM     63  O   UNL A   1      44.255  18.844  25.658  1.00  0.00    -0.237 OA
ATOM     64  O   UNL A   1      44.859  18.885  23.267  1.00  0.00    -0.744 OA
ENDBRANCH  57  61
ENDBRANCH  40  54
BRANCH  41  65
ATOM     65  C   UNL A   1      47.000  30.601  28.366  1.00  0.00     0.023 A 
ATOM     66  C   UNL A   1      46.415  31.552  27.506  1.00  0.00     0.031 A 
ATOM     67  C   UNL A   1      48.298  30.901  28.846  1.00  0.00     0.131 A 
ATOM     68  C   UNL A   1      47.123  32.730  27.157  1.00  0.00     0.055 A 
ATOM     69  C   UNL A   1      48.994  32.058  28.494  1.00  0.00     0.041 A 
ATOM     70  F   UNL A   1      48.909  30.115  29.746  1.00  0.00    -0.206 F 
ATOM     71  C   UNL A   1      48.405  32.984  27.652  1.00  0.00     0.022 A 
BRANCH  68  72
ATOM     72  S   UNL A   1      46.344  34.007  26.115  1.00  0.00     0.124 S 
ATOM     73  O   UNL A   1      47.457  34.450  25.285  1.00  0.00    -0.237 OA
ATOM     74  O   UNL A   1      45.288  33.258  25.440  1.00  0.00    -0.237 OA
ATOM     75  O   UNL A   1      45.868  34.995  27.084  1.00  0.00    -0.744 OA
ENDBRANCH  68  72
ENDBRANCH  41  65
BRANCH  53  76
ATOM     76  C   UNL A   1      45.304  25.630  31.978  1.00  0.00     0.023 A 
ATOM     77  C   UNL A   1      46.182  25.326  33.043  1.00  0.00     0.031 A 
ATOM     78  C   UNL A   1      44.202  26.458  32.264  1.00  0.00     0.131 A 
ATOM     79  C   UNL A   1      45.934  25.839  34.334  1.00  0.00     0.055 A 
ATOM     80  C   UNL A   1      43.972  26.982  33.535  1.00  0.00     0.041 A 
ATOM     81  F   UNL A   1      43.343  26.809  31.292  1.00  0.00    -0.206 F 
ATOM     82  C   UNL A   1      44.836  26.670  34.578  1.00  0.00     0.022 A 
BRANCH  79  83
ATOM     83  S   UNL A   1      47.033  25.429  35.729  1.00  0.00     0.124 S 
ATOM     84  O   UNL A   1      47.516  26.729  36.179  1.00  0.00    -0.237 OA
ATOM     85  O   UNL A   1      46.136  24.727  36.644  1.00  0.00    -0.237 OA
ATOM     86  O   UNL A   1      48.058  24.580  35.118  1.00  0.00    -0.744 OA
ENDBRANCH  79  83
ENDBRANCH  53  76
ENDBRANCH  27  28
ENDBRANCH  20  22
ENDBRANCH  19  20
ENDBRANCH  18  19
ENDBRANCH   1  18
TORSDOF 19
ENDMDL
MODEL 2
REMARK VINA RESULT:     -10.6      3.615      5.363
REMARK SMILES Cc1n[nH]c(CCC(=O)OCCOCCOC(=O)c2ccc(-c3c4nc(c(-c5cc(S(=O)(=O)[O-])ccc5F)c5ccc([nH]5)c(-c5cc(S(=O)(=O)[O-])ccc5F)c5nc(c(-c6cc(S(=O)(=O)[O-])ccc6F)c6ccc3[nH]6)C=C5)C=C4)cc2)c1C
REMARK SMILES IDX 14 1 13 2 12 3 11 4 10 5 8 6 9 7 7 8 6 9 5 10 1 11 2 12 3 13
REMARK SMILES IDX 82 14 4 15 83 16 15 18 16 19 17 20 18 21 19 22 20 23 81 24
REMARK SMILES IDX 21 25 80 26 22 27 23 28 24 29 74 30 25 31 79 32 73 33 75 34
REMARK SMILES IDX 26 35 78 36 72 37 71 38 27 40 59 41 39 42 58 43 40 44 43 45
REMARK SMILES IDX 57 46 76 47 41 48 42 49 56 51 77 52 44 53 28 54 29 55 37 56
REMARK SMILES IDX 30 57 36 58 38 59 35 60 31 61 32 62 33 63 34 64 60 65 61 66
REMARK SMILES IDX 69 67 62 68 68 69 70 70 67 71 63 72 64 73 65 74 66 75 45 76
REMARK SMILES IDX 46 77 54 78 47 79 53 80 55 81 52 82 48 83 49 84 50 85 51 86
REMARK H PARENT 4 17 75 39 43 50
REMARK Flexibility Score: inf
ROOT
ATOM      1  C   UNL A   1      33.764  30.558  27.883  1.00  0.00     0.202 C 
ENDROOT
BRANCH   1   2
ATOM      2  O   UNL A   1      32.830  30.782  26.829  1.00  0.00    -0.374 OA
BRANCH   2   3
ATOM      3  C   UNL A   1      32.928  29.900  25.712  1.00  0.00     0.202 C 
BRANCH   3   4
ATOM      4  C   UNL A   1      33.200  28.442  26.114  1.00  0.00     0.261 C 
BRANCH   4   5
ATOM      5  O   UNL A   1      32.042  27.778  26.673  1.00  0.00    -0.463 OA
BRANCH   5   6
ATOM      6  C   UNL A   1      31.533  26.713  26.011  1.00  0.00     0.306 C 
ATOM      7  O   UNL A   1      30.597  26.026  26.403  1.00  0.00    -0.252 OA
BRANCH   6   8
ATOM      8  C   UNL A   1      32.285  26.417  24.728  1.00  0.00     0.129 C 
BRANCH   8   9
ATOM      9  C   UNL A   1      31.427  26.127  23.493  1.00  0.00     0.067 C 
BRANCH   9  10
ATOM     10  C   UNL A   1      30.573  27.278  23.060  1.00  0.00     0.039 A 
ATOM     11  C   UNL A   1      27.758  29.580  22.565  1.00  0.00     0.069 C 
ATOM     12  C   UNL A   1      29.032  28.820  22.611  1.00  0.00     0.062 A 
ATOM     13  N   UNL A   1      30.149  29.262  22.027  1.00  0.00    -0.181 NA
ATOM     14  C   UNL A   1      29.234  27.569  23.240  1.00  0.00    -0.007 A 
ATOM     15  N   UNL A   1      31.043  28.287  22.258  1.00  0.00    -0.282 N 
ATOM     16  C   UNL A   1      28.187  26.789  23.916  1.00  0.00     0.048 C 
ATOM     17  H   UNL A   1      31.955  28.296  21.886  1.00  0.00     0.190 HD
ENDBRANCH   9  10
ENDBRANCH   8   9
ENDBRANCH   6   8
ENDBRANCH   5   6
ENDBRANCH   4   5
ENDBRANCH   3   4
ENDBRANCH   2   3
ENDBRANCH   1   2
BRANCH   1  18
ATOM     18  C   UNL A   1      35.096  31.263  27.670  1.00  0.00     0.261 C 
BRANCH  18  19
ATOM     19  O   UNL A   1      36.150  30.303  27.659  1.00  0.00    -0.460 OA
BRANCH  19  20
ATOM     20  C   UNL A   1      36.671  29.907  28.845  1.00  0.00     0.338 C 
ATOM     21  O   UNL A   1      36.236  30.120  29.948  1.00  0.00    -0.246 OA
BRANCH  20  22
ATOM     22  C   UNL A   1      37.923  29.182  28.525  1.00  0.00     0.060 A 
ATOM     23  C   UNL A   1      38.400  28.240  29.438  1.00  0.00     0.016 A 
ATOM     24  C   UNL A   1      38.649  29.497  27.362  1.00  0.00     0.016 A 
ATOM     25  C   UNL A   1      39.674  27.730  29.257  1.00  0.00     0.010 A 
ATOM     26  C   UNL A   1      39.895  28.958  27.160  1.00  0.00     0.010 A 
ATOM     27  C   UNL A   1      40.431  28.155  28.157  1.00  0.00    -0.014 A 
BRANCH  27  28
ATOM     28  C   UNL A   1      41.828  27.782  28.075  1.00  0.00     0.031 A 
ATOM     29  C   UNL A   1      42.103  26.525  27.355  1.00  0.00     0.074 A 
ATOM     30  C   UNL A   1      42.802  28.581  28.553  1.00  0.00     0.049 A 
ATOM     31  N   UNL A   1      42.451  25.397  27.871  1.00  0.00    -0.248 NA
ATOM     32  C   UNL A   1      41.814  26.463  25.916  1.00  0.00     0.031 C 
ATOM     33  C   UNL A   1      42.692  29.959  29.044  1.00  0.00     0.029 A 
ATOM     34  N   UNL A   1      44.138  28.345  28.605  1.00  0.00    -0.354 N 
ATOM     35  C   UNL A   1      42.674  24.541  26.800  1.00  0.00     0.074 A 
ATOM     36  C   UNL A   1      42.072  25.179  25.659  1.00  0.00     0.031 C 
ATOM     37  C   UNL A   1      43.927  30.503  29.123  1.00  0.00     0.029 A 
ATOM     38  C   UNL A   1      44.912  29.474  28.836  1.00  0.00     0.049 A 
ATOM     39  H   UNL A   1      44.526  27.447  28.490  1.00  0.00     0.167 HD
ATOM     40  C   UNL A   1      43.544  23.499  26.912  1.00  0.00     0.034 A 
ATOM     41  C   UNL A   1      46.265  29.565  28.737  1.00  0.00     0.034 A 
ATOM     42  C   UNL A   1      43.845  23.223  28.303  1.00  0.00     0.049 A 
ATOM     43  C   UNL A   1      46.794  28.188  28.929  1.00  0.00     0.074 A 
ATOM     44  C   UNL A   1      43.076  22.913  29.409  1.00  0.00     0.029 A 
ATOM     45  N   UNL A   1      45.057  23.645  28.809  1.00  0.00    -0.354 N 
ATOM     46  N   UNL A   1      46.671  27.530  30.052  1.00  0.00    -0.248 NA
ATOM     47  C   UNL A   1      46.994  27.355  27.751  1.00  0.00     0.031 C 
ATOM     48  C   UNL A   1      43.657  23.659  30.478  1.00  0.00     0.029 A 
ATOM     49  C   UNL A   1      44.796  24.303  29.988  1.00  0.00     0.049 A 
ATOM     50  H   UNL A   1      45.942  23.502  28.403  1.00  0.00     0.167 HD
ATOM     51  C   UNL A   1      46.329  26.238  29.680  1.00  0.00     0.074 A 
ATOM     52  C   UNL A   1      46.644  26.165  28.252  1.00  0.00     0.031 C 
ATOM     53  C   UNL A   1      45.560  25.438  30.479  1.00  0.00     0.034 A 
BRANCH  40  54
ATOM     54  C   UNL A   1      44.403  22.967  25.787  1.00  0.00     0.023 A 
ATOM     55  C   UNL A   1      44.375  21.576  25.567  1.00  0.00     0.031 A 
ATOM     56  C   UNL A   1      45.438  23.671  25.132  1.00  0.00     0.131 A 
ATOM     57  C   UNL A   1      45.397  20.939  24.842  1.00  0.00     0.055 A 
ATOM     58  C   UNL A   1      46.409  23.040  24.350  1.00  0.00     0.041 A 
ATOM     59  F   UNL A   1      45.630  24.985  25.280  1.00  0.00    -0.206 F 
ATOM     60  C   UNL A   1      46.416  21.661  24.232  1.00  0.00     0.022 A 
BRANCH  57  61
ATOM     61  S   UNL A   1      45.472  19.130  24.885  1.00  0.00     0.124 S 
ATOM     62  O   UNL A   1      45.542  18.808  23.464  1.00  0.00    -0.237 OA
ATOM     63  O   UNL A   1      46.687  18.900  25.660  1.00  0.00    -0.237 OA
ATOM     64  O   UNL A   1      44.226  18.755  25.550  1.00  0.00    -0.744 OA
ENDBRANCH  57  61
ENDBRANCH  40  54
BRANCH  41  65
ATOM     65  C   UNL A   1      47.020  30.697  28.127  1.00  0.00     0.023 A 
ATOM     66  C   UNL A   1      46.415  31.678  27.315  1.00  0.00     0.031 A 
ATOM     67  C   UNL A   1      48.355  30.947  28.528  1.00  0.00     0.131 A 
ATOM     68  C   UNL A   1      47.140  32.836  26.935  1.00  0.00     0.055 A 
ATOM     69  C   UNL A   1      49.067  32.085  28.146  1.00  0.00     0.041 A 
ATOM     70  F   UNL A   1      48.993  30.130  29.381  1.00  0.00    -0.206 F 
ATOM     71  C   UNL A   1      48.458  33.041  27.352  1.00  0.00     0.022 A 
BRANCH  68  72
ATOM     72  S   UNL A   1      46.342  34.151  25.957  1.00  0.00     0.124 S 
ATOM     73  O   UNL A   1      45.900  35.080  26.989  1.00  0.00    -0.237 OA
ATOM     74  O   UNL A   1      47.431  34.605  25.097  1.00  0.00    -0.237 OA
ATOM     75  O   UNL A   1      45.264  33.450  25.257  1.00  0.00    -0.744 OA
ENDBRANCH  68  72
ENDBRANCH  41  65
BRANCH  53  76
ATOM     76  C   UNL A   1      45.294  25.867  31.912  1.00  0.00     0.023 A 
ATOM     77  C   UNL A   1      44.163  26.599  32.343  1.00  0.00     0.031 A 
ATOM     78  C   UNL A   1      46.167  25.381  32.904  1.00  0.00     0.131 A 
ATOM     79  C   UNL A   1      43.948  26.824  33.718  1.00  0.00     0.055 A 
ATOM     80  C   UNL A   1      45.939  25.586  34.264  1.00  0.00     0.041 A 
ATOM     81  F   UNL A   1      47.245  24.655  32.566  1.00  0.00    -0.206 F 
ATOM     82  C   UNL A   1      44.829  26.314  34.677  1.00  0.00     0.022 A 
BRANCH  79  83
ATOM     83  S   UNL A   1      42.516  27.796  34.293  1.00  0.00     0.124 S 
ATOM     84  O   UNL A   1      41.622  27.801  33.141  1.00  0.00    -0.237 OA
ATOM     85  O   UNL A   1      42.062  27.036  35.454  1.00  0.00    -0.237 OA
ATOM     86  O   UNL A   1      43.098  29.101  34.614  1.00  0.00    -0.744 OA
ENDBRANCH  79  83
ENDBRANCH  53  76
ENDBRANCH  27  28
ENDBRANCH  20  22
ENDBRANCH  19  20
ENDBRANCH  18  19
ENDBRANCH   1  18
TORSDOF 19
ENDMDL
MODEL 3
REMARK VINA RESULT:     -10.5      3.811      9.156
REMARK SMILES Cc1n[nH]c(CCC(=O)OCCOCCOC(=O)c2ccc(-c3c4nc(c(-c5cc(S(=O)(=O)[O-])ccc5F)c5ccc([nH]5)c(-c5cc(S(=O)(=O)[O-])ccc5F)c5nc(c(-c6cc(S(=O)(=O)[O-])ccc6F)c6ccc3[nH]6)C=C5)C=C4)cc2)c1C
REMARK SMILES IDX 14 1 13 2 12 3 11 4 10 5 8 6 9 7 7 8 6 9 5 10 1 11 2 12 3 13
REMARK SMILES IDX 82 14 4 15 83 16 15 18 16 19 17 20 18 21 19 22 20 23 81 24
REMARK SMILES IDX 21 25 80 26 22 27 23 28 24 29 74 30 25 31 79 32 73 33 75 34
REMARK SMILES IDX 26 35 78 36 72 37 71 38 27 40 59 41 39 42 58 43 40 44 43 45
REMARK SMILES IDX 57 46 76 47 41 48 42 49 56 51 77 52 44 53 28 54 29 55 37 56
REMARK SMILES IDX 30 57 36 58 38 59 35 60 31 61 32 62 33 63 34 64 60 65 61 66
REMARK SMILES IDX 69 67 62 68 68 69 70 70 67 71 63 72 64 73 65 74 66 75 45 76
REMARK SMILES IDX 46 77 54 78 47 79 53 80 55 81 52 82 48 83 49 84 50 85 51 86
REMARK H PARENT 4 17 75 39 43 50
REMARK Flexibility Score: inf
ROOT
ATOM      1  C   UNL A   1      32.677  29.579  27.201  1.00  0.00     0.202 C 
ENDROOT
BRANCH   1   2
ATOM      2  O   UNL A   1      32.340  29.132  25.889  1.00  0.00    -0.374 OA
BRANCH   2   3
ATOM      3  C   UNL A   1      33.402  28.547  25.139  1.00  0.00     0.202 C 
BRANCH   3   4
ATOM      4  C   UNL A   1      32.933  27.896  23.828  1.00  0.00     0.261 C 
BRANCH   4   5
ATOM      5  O   UNL A   1      33.490  26.578  23.613  1.00  0.00    -0.463 OA
BRANCH   5   6
ATOM      6  C   UNL A   1      33.361  26.020  22.387  1.00  0.00     0.306 C 
ATOM      7  O   UNL A   1      33.801  26.500  21.349  1.00  0.00    -0.252 OA
BRANCH   6   8
ATOM      8  C   UNL A   1      32.554  24.737  22.419  1.00  0.00     0.129 C 
BRANCH   8   9
ATOM      9  C   UNL A   1      33.332  23.458  22.740  1.00  0.00     0.067 C 
BRANCH   9  10
ATOM     10  C   UNL A   1      34.274  23.591  23.896  1.00  0.00     0.039 A 
ATOM     11  C   UNL A   1      37.294  23.722  25.977  1.00  0.00     0.069 C 
ATOM     12  C   UNL A   1      35.943  23.720  25.363  1.00  0.00     0.062 A 
ATOM     13  N   UNL A   1      34.840  23.994  26.064  1.00  0.00    -0.181 NA
ATOM     14  C   UNL A   1      35.641  23.427  24.012  1.00  0.00    -0.007 A 
ATOM     15  N   UNL A   1      33.845  23.849  25.174  1.00  0.00    -0.282 N 
ATOM     16  C   UNL A   1      36.628  23.025  22.998  1.00  0.00     0.048 C 
ATOM     17  H   UNL A   1      32.894  23.920  25.416  1.00  0.00     0.190 HD
ENDBRANCH   9  10
ENDBRANCH   8   9
ENDBRANCH   6   8
ENDBRANCH   5   6
ENDBRANCH   4   5
ENDBRANCH   3   4
ENDBRANCH   2   3
ENDBRANCH   1   2
BRANCH   1  18
ATOM     18  C   UNL A   1      33.024  31.060  27.263  1.00  0.00     0.261 C 
BRANCH  18  19
ATOM     19  O   UNL A   1      34.439  31.218  27.341  1.00  0.00    -0.460 OA
BRANCH  19  20
ATOM     20  C   UNL A   1      34.988  31.510  28.544  1.00  0.00     0.338 C 
ATOM     21  O   UNL A   1      34.506  32.162  29.434  1.00  0.00    -0.246 OA
BRANCH  20  22
ATOM     22  C   UNL A   1      36.338  30.899  28.541  1.00  0.00     0.060 A 
ATOM     23  C   UNL A   1      36.476  29.591  28.073  1.00  0.00     0.016 A 
ATOM     24  C   UNL A   1      37.436  31.600  29.072  1.00  0.00     0.016 A 
ATOM     25  C   UNL A   1      37.681  28.940  28.278  1.00  0.00     0.010 A 
ATOM     26  C   UNL A   1      38.644  30.967  29.236  1.00  0.00     0.010 A 
ATOM     27  C   UNL A   1      38.724  29.618  28.925  1.00  0.00    -0.014 A 
BRANCH  27  28
ATOM     28  C   UNL A   1      39.905  28.881  29.319  1.00  0.00     0.031 A 
ATOM     29  C   UNL A   1      40.145  28.808  30.773  1.00  0.00     0.074 A 
ATOM     30  C   UNL A   1      40.674  28.240  28.418  1.00  0.00     0.049 A 
ATOM     31  N   UNL A   1      41.047  29.440  31.442  1.00  0.00    -0.248 NA
ATOM     32  C   UNL A   1      39.185  28.073  31.607  1.00  0.00     0.031 C 
ATOM     33  C   UNL A   1      40.407  28.008  26.994  1.00  0.00     0.029 A 
ATOM     34  N   UNL A   1      41.835  27.566  28.624  1.00  0.00    -0.354 N 
ATOM     35  C   UNL A   1      40.936  28.990  32.751  1.00  0.00     0.074 A 
ATOM     36  C   UNL A   1      39.662  28.325  32.827  1.00  0.00     0.031 C 
ATOM     37  C   UNL A   1      41.255  27.063  26.531  1.00  0.00     0.029 A 
ATOM     38  C   UNL A   1      42.211  26.737  27.576  1.00  0.00     0.049 A 
ATOM     39  H   UNL A   1      42.365  27.657  29.448  1.00  0.00     0.167 HD
ATOM     40  C   UNL A   1      42.014  29.001  33.584  1.00  0.00     0.034 A 
ATOM     41  C   UNL A   1      43.202  25.807  27.592  1.00  0.00     0.034 A 
ATOM     42  C   UNL A   1      43.065  29.849  33.060  1.00  0.00     0.049 A 
ATOM     43  C   UNL A   1      44.157  26.228  28.651  1.00  0.00     0.074 A 
ATOM     44  C   UNL A   1      43.131  31.180  32.690  1.00  0.00     0.029 A 
ATOM     45  N   UNL A   1      44.155  29.251  32.464  1.00  0.00    -0.354 N 
ATOM     46  N   UNL A   1      44.854  27.333  28.581  1.00  0.00    -0.248 NA
ATOM     47  C   UNL A   1      43.964  25.712  30.000  1.00  0.00     0.031 C 
ATOM     48  C   UNL A   1      43.913  31.188  31.496  1.00  0.00     0.029 A 
ATOM     49  C   UNL A   1      44.356  29.884  31.260  1.00  0.00     0.049 A 
ATOM     50  H   UNL A   1      44.690  28.510  32.831  1.00  0.00     0.167 HD
ATOM     51  C   UNL A   1      44.798  27.879  29.856  1.00  0.00     0.074 A 
ATOM     52  C   UNL A   1      44.325  26.787  30.709  1.00  0.00     0.031 C 
ATOM     53  C   UNL A   1      44.858  29.229  30.064  1.00  0.00     0.034 A 
BRANCH  40  54
ATOM     54  C   UNL A   1      42.274  27.982  34.671  1.00  0.00     0.023 A 
ATOM     55  C   UNL A   1      43.056  26.863  34.322  1.00  0.00     0.031 A 
ATOM     56  C   UNL A   1      41.584  27.888  35.900  1.00  0.00     0.131 A 
ATOM     57  C   UNL A   1      43.031  25.694  35.100  1.00  0.00     0.055 A 
ATOM     58  C   UNL A   1      41.624  26.749  36.709  1.00  0.00     0.041 A 
ATOM     59  F   UNL A   1      40.763  28.843  36.347  1.00  0.00    -0.206 F 
ATOM     60  C   UNL A   1      42.319  25.628  36.293  1.00  0.00     0.022 A 
BRANCH  57  61
ATOM     61  S   UNL A   1      43.790  24.198  34.417  1.00  0.00     0.124 S 
ATOM     62  O   UNL A   1      44.835  23.928  35.397  1.00  0.00    -0.237 OA
ATOM     63  O   UNL A   1      42.663  23.271  34.403  1.00  0.00    -0.237 OA
ATOM     64  O   UNL A   1      44.261  24.628  33.103  1.00  0.00    -0.744 OA
ENDBRANCH  57  61
ENDBRANCH  40  54
BRANCH  41  65
ATOM     65  C   UNL A   1      43.124  24.439  27.003  1.00  0.00     0.023 A 
ATOM     66  C   UNL A   1      44.020  23.971  26.021  1.00  0.00     0.031 A 
ATOM     67  C   UNL A   1      42.262  23.474  27.579  1.00  0.00     0.131 A 
ATOM     68  C   UNL A   1      44.023  22.602  25.652  1.00  0.00     0.055 A 
ATOM     69  C   UNL A   1      42.262  22.130  27.207  1.00  0.00     0.041 A 
ATOM     70  F   UNL A   1      41.438  23.790  28.591  1.00  0.00    -0.206 F 
ATOM     71  C   UNL A   1      43.151  21.684  26.244  1.00  0.00     0.022 A 
BRANCH  68  72
ATOM     72  S   UNL A   1      45.234  21.968  24.446  1.00  0.00     0.124 S 
ATOM     73  O   UNL A   1      46.424  21.787  25.268  1.00  0.00    -0.237 OA
ATOM     74  O   UNL A   1      44.587  20.753  23.962  1.00  0.00    -0.237 OA
ATOM     75  O   UNL A   1      45.327  23.044  23.457  1.00  0.00    -0.744 OA
ENDBRANCH  68  72
ENDBRANCH  41  65
BRANCH  53  76
ATOM     76  C   UNL A   1      45.260  30.133  28.911  1.00  0.00     0.023 A 
ATOM     77  C   UNL A   1      46.588  30.503  28.595  1.00  0.00     0.031 A 
ATOM     78  C   UNL A   1      44.250  30.517  28.008  1.00  0.00     0.131 A 
ATOM     79  C   UNL A   1      46.859  31.235  27.420  1.00  0.00     0.055 A 
ATOM     80  C   UNL A   1      44.524  31.220  26.836  1.00  0.00     0.041 A 
ATOM     81  F   UNL A   1      42.970  30.174  28.232  1.00  0.00    -0.206 F 
ATOM     82  C   UNL A   1      45.831  31.587  26.539  1.00  0.00     0.022 A 
BRANCH  79  83
ATOM     83  S   UNL A   1      48.559  31.754  27.014  1.00  0.00     0.124 S 
ATOM     84  O   UNL A   1      49.160  30.550  26.453  1.00  0.00    -0.237 OA
ATOM     85  O   UNL A   1      48.339  32.855  26.080  1.00  0.00    -0.237 OA
ATOM     86  O   UNL A   1      49.109  32.160  28.309  1.00  0.00    -0.744 OA
ENDBRANCH  79  83
ENDBRANCH  53  76
ENDBRANCH  27  28
ENDBRANCH  20  22
ENDBRANCH  19  20
ENDBRANCH  18  19
ENDBRANCH   1  18
TORSDOF 19
ENDMDL
