MODEL 1
REMARK VINA RESULT:     -12.0      0.000      0.000
REMARK SMILES CC1(C)Cc2c(-c3ccccc3)c(-c3ccc(Cl)cc3)c(CC(=O)OCCOCCOC(=O)c3ccc(-c4c5nc(c(-c6cc(S(=O)(=O)[O-])ccc6F)c6ccc([nH]6)c(-c6cc(S(=O)(=O)[O-])ccc6F)c6nc(c(-c7cc(S(=O)(=O)[O-])ccc7F)c7ccc4[nH]7)C=C6)C=C5)cc3)n2C1
REMARK SMILES IDX 29 1 28 2 27 3 26 4 25 5 23 6 24 7 22 8 21 9 1 10 2 11 3 12
REMARK SMILES IDX 4 13 98 14 5 15 97 16 6 17 13 18 7 19 8 20 12 21 9 22 11 23
REMARK SMILES IDX 10 24 14 25 15 26 20 27 16 28 19 29 17 30 18 31 30 32 31 33
REMARK SMILES IDX 32 34 33 35 34 36 35 37 96 38 36 39 95 40 37 41 38 42 39 43
REMARK SMILES IDX 89 44 40 45 94 46 88 47 90 48 41 49 93 50 87 51 86 52 42 54
REMARK SMILES IDX 74 55 54 56 73 57 55 58 58 59 72 60 91 61 56 62 57 63 71 65
REMARK SMILES IDX 92 66 59 67 43 68 44 69 52 70 45 71 51 72 53 73 50 74 46 75
REMARK SMILES IDX 47 76 48 77 49 78 75 79 76 80 84 81 77 82 83 83 85 84 82 85
REMARK SMILES IDX 78 86 79 87 80 88 81 89 60 90 61 91 69 92 62 93 68 94 70 95
REMARK SMILES IDX 67 96 63 97 64 98 65 99 66 100
REMARK H PARENT 90 53 58 64
REMARK Flexibility Score: inf
ROOT
ATOM      1  C   UNL A   1      45.476  39.750  25.962  1.00  0.00     0.202 C 
ENDROOT
BRANCH   1   2
ATOM      2  O   UNL A   1      44.491  40.589  25.374  1.00  0.00    -0.374 OA
BRANCH   2   3
ATOM      3  C   UNL A   1      43.200  40.594  25.951  1.00  0.00     0.202 C 
BRANCH   3   4
ATOM      4  C   UNL A   1      42.144  41.374  25.155  1.00  0.00     0.261 C 
BRANCH   4   5
ATOM      5  O   UNL A   1      42.578  41.750  23.821  1.00  0.00    -0.463 OA
BRANCH   5   6
ATOM      6  C   UNL A   1      41.984  42.825  23.252  1.00  0.00     0.311 C 
ATOM      7  O   UNL A   1      40.902  42.759  22.668  1.00  0.00    -0.252 OA
BRANCH   6   8
ATOM      8  C   UNL A   1      42.693  44.170  23.400  1.00  0.00     0.177 C 
BRANCH   8   9
ATOM      9  C   UNL A   1      44.181  44.319  23.177  1.00  0.00     0.037 A 
ATOM     10  C   UNL A   1      46.857  42.897  27.092  1.00  0.00     0.013 C 
ATOM     11  C   UNL A   1      46.497  44.021  26.112  1.00  0.00    -0.012 C 
ATOM     12  C   UNL A   1      46.760  45.378  26.784  1.00  0.00     0.013 C 
ATOM     13  C   UNL A   1      47.355  43.906  24.818  1.00  0.00     0.063 C 
ATOM     14  C   UNL A   1      45.011  43.920  25.632  1.00  0.00     0.129 C 
ATOM     15  C   UNL A   1      46.369  44.150  23.744  1.00  0.00     0.027 A 
ATOM     16  N   UNL A   1      45.088  44.198  24.201  1.00  0.00    -0.346 N 
ATOM     17  C   UNL A   1      46.355  44.299  22.388  1.00  0.00     0.011 A 
ATOM     18  C   UNL A   1      44.964  44.358  21.999  1.00  0.00     0.011 A 
BRANCH  17  19
ATOM     19  C   UNL A   1      47.556  44.342  21.576  1.00  0.00    -0.016 A 
ATOM     20  C   UNL A   1      48.140  45.550  21.177  1.00  0.00     0.009 A 
ATOM     21  C   UNL A   1      48.133  43.138  21.170  1.00  0.00     0.009 A 
ATOM     22  C   UNL A   1      49.255  45.548  20.335  1.00  0.00     0.001 A 
ATOM     23  C   UNL A   1      49.258  43.140  20.354  1.00  0.00     0.001 A 
ATOM     24  C   UNL A   1      49.803  44.340  19.912  1.00  0.00     0.000 A 
ENDBRANCH  17  19
BRANCH  18  25
ATOM     25  C   UNL A   1      44.530  44.304  20.593  1.00  0.00    -0.016 A 
ATOM     26  C   UNL A   1      44.747  45.410  19.759  1.00  0.00     0.010 A 
ATOM     27  C   UNL A   1      43.638  43.331  20.137  1.00  0.00     0.010 A 
ATOM     28  C   UNL A   1      44.087  45.527  18.523  1.00  0.00     0.021 A 
ATOM     29  C   UNL A   1      42.984  43.427  18.904  1.00  0.00     0.021 A 
ATOM     30  C   UNL A   1      43.205  44.534  18.103  1.00  0.00     0.041 A 
ATOM     31  Cl  UNL A   1      42.356  44.690  16.616  1.00  0.00    -0.084 Cl
ENDBRANCH  18  25
ENDBRANCH   8   9
ENDBRANCH   6   8
ENDBRANCH   5   6
ENDBRANCH   4   5
ENDBRANCH   3   4
ENDBRANCH   2   3
ENDBRANCH   1   2
BRANCH   1  32
ATOM     32  C   UNL A   1      45.248  39.084  27.329  1.00  0.00     0.261 C 
BRANCH  32  33
ATOM     33  O   UNL A   1      44.884  37.711  27.270  1.00  0.00    -0.460 OA
BRANCH  33  34
ATOM     34  C   UNL A   1      45.302  37.049  28.357  1.00  0.00     0.338 C 
ATOM     35  O   UNL A   1      46.463  37.058  28.765  1.00  0.00    -0.246 OA
BRANCH  34  36
ATOM     36  C   UNL A   1      44.185  36.331  28.990  1.00  0.00     0.060 A 
ATOM     37  C   UNL A   1      44.497  35.194  29.733  1.00  0.00     0.016 A 
ATOM     38  C   UNL A   1      42.847  36.725  28.798  1.00  0.00     0.016 A 
ATOM     39  C   UNL A   1      43.470  34.440  30.271  1.00  0.00     0.010 A 
ATOM     40  C   UNL A   1      41.823  35.935  29.277  1.00  0.00     0.010 A 
ATOM     41  C   UNL A   1      42.143  34.805  30.024  1.00  0.00    -0.014 A 
BRANCH  41  42
ATOM     42  C   UNL A   1      41.103  34.183  30.821  1.00  0.00     0.031 A 
ATOM     43  C   UNL A   1      41.484  34.026  32.243  1.00  0.00     0.074 A 
ATOM     44  C   UNL A   1      39.871  33.876  30.391  1.00  0.00     0.049 A 
ATOM     45  N   UNL A   1      41.786  32.923  32.838  1.00  0.00    -0.248 NA
ATOM     46  C   UNL A   1      41.747  35.232  33.042  1.00  0.00     0.031 C 
ATOM     47  C   UNL A   1      39.266  34.185  29.106  1.00  0.00     0.029 A 
ATOM     48  N   UNL A   1      38.855  33.300  31.086  1.00  0.00    -0.354 N 
ATOM     49  C   UNL A   1      42.045  33.269  34.157  1.00  0.00     0.074 A 
ATOM     50  C   UNL A   1      42.246  34.690  34.152  1.00  0.00     0.031 C 
ATOM     51  C   UNL A   1      37.926  34.026  29.195  1.00  0.00     0.029 A 
ATOM     52  C   UNL A   1      37.610  33.442  30.489  1.00  0.00     0.049 A 
ATOM     53  H   UNL A   1      38.989  32.824  31.938  1.00  0.00     0.167 HD
ATOM     54  C   UNL A   1      41.805  32.391  35.168  1.00  0.00     0.034 A 
ATOM     55  C   UNL A   1      36.410  33.131  31.039  1.00  0.00     0.034 A 
ATOM     56  C   UNL A   1      41.695  31.037  34.655  1.00  0.00     0.049 A 
ATOM     57  C   UNL A   1      36.669  32.101  32.079  1.00  0.00     0.074 A 
ATOM     58  C   UNL A   1      42.519  30.233  33.884  1.00  0.00     0.029 A 
ATOM     59  N   UNL A   1      40.446  30.457  34.576  1.00  0.00    -0.354 N 
ATOM     60  N   UNL A   1      37.107  30.902  31.805  1.00  0.00    -0.248 NA
ATOM     61  C   UNL A   1      36.879  32.534  33.452  1.00  0.00     0.031 C 
ATOM     62  C   UNL A   1      41.641  29.534  33.005  1.00  0.00     0.029 A 
ATOM     63  C   UNL A   1      40.331  29.883  33.333  1.00  0.00     0.049 A 
ATOM     64  H   UNL A   1      39.761  30.454  35.284  1.00  0.00     0.167 HD
ATOM     65  C   UNL A   1      38.016  30.614  32.810  1.00  0.00     0.074 A 
ATOM     66  C   UNL A   1      37.745  31.599  33.854  1.00  0.00     0.031 C 
ATOM     67  C   UNL A   1      39.088  29.795  32.586  1.00  0.00     0.034 A 
BRANCH  54  68
ATOM     68  C   UNL A   1      41.285  32.798  36.535  1.00  0.00     0.023 A 
ATOM     69  C   UNL A   1      39.995  32.351  36.873  1.00  0.00     0.031 A 
ATOM     70  C   UNL A   1      41.823  33.791  37.388  1.00  0.00     0.131 A 
ATOM     71  C   UNL A   1      39.253  32.979  37.887  1.00  0.00     0.055 A 
ATOM     72  C   UNL A   1      41.104  34.363  38.443  1.00  0.00     0.041 A 
ATOM     73  F   UNL A   1      43.036  34.326  37.227  1.00  0.00    -0.206 F 
ATOM     74  C   UNL A   1      39.795  33.989  38.671  1.00  0.00     0.022 A 
BRANCH  71  75
ATOM     75  S   UNL A   1      37.495  32.576  38.018  1.00  0.00     0.124 S 
ATOM     76  O   UNL A   1      37.513  31.136  37.783  1.00  0.00    -0.237 OA
ATOM     77  O   UNL A   1      37.194  33.005  39.380  1.00  0.00    -0.237 OA
ATOM     78  O   UNL A   1      36.887  33.379  36.960  1.00  0.00    -0.744 OA
ENDBRANCH  71  75
ENDBRANCH  54  68
BRANCH  55  79
ATOM     79  C   UNL A   1      35.119  33.849  30.882  1.00  0.00     0.023 A 
ATOM     80  C   UNL A   1      34.677  34.804  31.819  1.00  0.00     0.031 A 
ATOM     81  C   UNL A   1      34.409  33.782  29.663  1.00  0.00     0.131 A 
ATOM     82  C   UNL A   1      33.576  35.639  31.521  1.00  0.00     0.055 A 
ATOM     83  C   UNL A   1      33.315  34.601  29.377  1.00  0.00     0.041 A 
ATOM     84  F   UNL A   1      34.808  32.976  28.666  1.00  0.00    -0.206 F 
ATOM     85  C   UNL A   1      32.900  35.544  30.303  1.00  0.00     0.022 A 
BRANCH  82  86
ATOM     86  S   UNL A   1      33.088  36.958  32.676  1.00  0.00     0.124 S 
ATOM     87  O   UNL A   1      33.238  38.155  31.855  1.00  0.00    -0.237 OA
ATOM     88  O   UNL A   1      31.725  36.581  33.031  1.00  0.00    -0.237 OA
ATOM     89  O   UNL A   1      34.060  36.831  33.764  1.00  0.00    -0.744 OA
ENDBRANCH  82  86
ENDBRANCH  55  79
BRANCH  67  90
ATOM     90  C   UNL A   1      39.088  28.904  31.358  1.00  0.00     0.023 A 
ATOM     91  C   UNL A   1      39.616  29.258  30.096  1.00  0.00     0.031 A 
ATOM     92  C   UNL A   1      38.632  27.582  31.524  1.00  0.00     0.131 A 
ATOM     93  C   UNL A   1      39.665  28.304  29.059  1.00  0.00     0.055 A 
ATOM     94  C   UNL A   1      38.700  26.636  30.502  1.00  0.00     0.041 A 
ATOM     95  F   UNL A   1      38.141  27.174  32.706  1.00  0.00    -0.206 F 
ATOM     96  C   UNL A   1      39.211  26.996  29.262  1.00  0.00     0.022 A 
BRANCH  93  97
ATOM     97  S   UNL A   1      40.308  28.748  27.414  1.00  0.00     0.124 S 
ATOM     98  O   UNL A   1      41.547  29.458  27.707  1.00  0.00    -0.237 OA
ATOM     99  O   UNL A   1      40.456  27.442  26.773  1.00  0.00    -0.237 OA
ATOM    100  O   UNL A   1      39.247  29.583  26.848  1.00  0.00    -0.744 OA
ENDBRANCH  93  97
ENDBRANCH  67  90
ENDBRANCH  41  42
ENDBRANCH  34  36
ENDBRANCH  33  34
ENDBRANCH  32  33
ENDBRANCH   1  32
TORSDOF 20
ENDMDL
MODEL 2
REMARK VINA RESULT:     -11.7      8.713     16.461
REMARK SMILES CC1(C)Cc2c(-c3ccccc3)c(-c3ccc(Cl)cc3)c(CC(=O)OCCOCCOC(=O)c3ccc(-c4c5nc(c(-c6cc(S(=O)(=O)[O-])ccc6F)c6ccc([nH]6)c(-c6cc(S(=O)(=O)[O-])ccc6F)c6nc(c(-c7cc(S(=O)(=O)[O-])ccc7F)c7ccc4[nH]7)C=C6)C=C5)cc3)n2C1
REMARK SMILES IDX 29 1 28 2 27 3 26 4 25 5 23 6 24 7 22 8 21 9 1 10 2 11 3 12
REMARK SMILES IDX 4 13 98 14 5 15 97 16 6 17 13 18 7 19 8 20 12 21 9 22 11 23
REMARK SMILES IDX 10 24 14 25 15 26 20 27 16 28 19 29 17 30 18 31 30 32 31 33
REMARK SMILES IDX 32 34 33 35 34 36 35 37 96 38 36 39 95 40 37 41 38 42 39 43
REMARK SMILES IDX 89 44 40 45 94 46 88 47 90 48 41 49 93 50 87 51 86 52 42 54
REMARK SMILES IDX 74 55 54 56 73 57 55 58 58 59 72 60 91 61 56 62 57 63 71 65
REMARK SMILES IDX 92 66 59 67 43 68 44 69 52 70 45 71 51 72 53 73 50 74 46 75
REMARK SMILES IDX 47 76 48 77 49 78 75 79 76 80 84 81 77 82 83 83 85 84 82 85
REMARK SMILES IDX 78 86 79 87 80 88 81 89 60 90 61 91 69 92 62 93 68 94 70 95
REMARK SMILES IDX 67 96 63 97 64 98 65 99 66 100
REMARK H PARENT 90 53 58 64
REMARK Flexibility Score: inf
ROOT
ATOM      1  C   UNL A   1      35.433  32.440  28.294  1.00  0.00     0.202 C 
ENDROOT
BRANCH   1   2
ATOM      2  O   UNL A   1      34.528  32.131  27.242  1.00  0.00    -0.374 OA
BRANCH   2   3
ATOM      3  C   UNL A   1      33.199  31.796  27.593  1.00  0.00     0.202 C 
BRANCH   3   4
ATOM      4  C   UNL A   1      32.621  30.590  26.839  1.00  0.00     0.261 C 
BRANCH   4   5
ATOM      5  O   UNL A   1      33.626  29.636  26.405  1.00  0.00    -0.463 OA
BRANCH   5   6
ATOM      6  C   UNL A   1      33.434  28.336  26.732  1.00  0.00     0.311 C 
ATOM      7  O   UNL A   1      32.743  27.984  27.689  1.00  0.00    -0.252 OA
BRANCH   6   8
ATOM      8  C   UNL A   1      34.080  27.288  25.828  1.00  0.00     0.177 C 
BRANCH   8   9
ATOM      9  C   UNL A   1      33.317  26.081  25.330  1.00  0.00     0.037 A 
ATOM     10  C   UNL A   1      29.139  27.292  22.966  1.00  0.00     0.013 C 
ATOM     11  C   UNL A   1      29.795  26.527  24.124  1.00  0.00    -0.012 C 
ATOM     12  C   UNL A   1      28.767  26.344  25.252  1.00  0.00     0.013 C 
ATOM     13  C   UNL A   1      30.288  25.132  23.638  1.00  0.00     0.063 C 
ATOM     14  C   UNL A   1      31.074  27.256  24.653  1.00  0.00     0.129 C 
ATOM     15  C   UNL A   1      31.624  25.019  24.261  1.00  0.00     0.027 A 
ATOM     16  N   UNL A   1      32.034  26.175  24.852  1.00  0.00    -0.346 N 
ATOM     17  C   UNL A   1      32.616  24.091  24.383  1.00  0.00     0.011 A 
ATOM     18  C   UNL A   1      33.727  24.763  25.018  1.00  0.00     0.011 A 
BRANCH  17  19
ATOM     19  C   UNL A   1      32.499  22.727  23.902  1.00  0.00    -0.016 A 
ATOM     20  C   UNL A   1      32.345  22.430  22.543  1.00  0.00     0.009 A 
ATOM     21  C   UNL A   1      32.525  21.686  24.831  1.00  0.00     0.009 A 
ATOM     22  C   UNL A   1      32.164  21.109  22.129  1.00  0.00     0.001 A 
ATOM     23  C   UNL A   1      32.370  20.370  24.411  1.00  0.00     0.001 A 
ATOM     24  C   UNL A   1      32.161  20.080  23.067  1.00  0.00     0.000 A 
ENDBRANCH  17  19
BRANCH  18  25
ATOM     25  C   UNL A   1      35.064  24.154  25.133  1.00  0.00    -0.016 A 
ATOM     26  C   UNL A   1      35.750  23.770  23.973  1.00  0.00     0.010 A 
ATOM     27  C   UNL A   1      35.542  23.658  26.348  1.00  0.00     0.010 A 
ATOM     28  C   UNL A   1      36.867  22.917  24.040  1.00  0.00     0.021 A 
ATOM     29  C   UNL A   1      36.659  22.820  26.431  1.00  0.00     0.021 A 
ATOM     30  C   UNL A   1      37.315  22.445  25.271  1.00  0.00     0.041 A 
ATOM     31  Cl  UNL A   1      38.649  21.365  25.360  1.00  0.00    -0.084 Cl
ENDBRANCH  18  25
ENDBRANCH   8   9
ENDBRANCH   6   8
ENDBRANCH   5   6
ENDBRANCH   4   5
ENDBRANCH   3   4
ENDBRANCH   2   3
ENDBRANCH   1   2
BRANCH   1  32
ATOM     32  C   UNL A   1      35.576  31.525  29.520  1.00  0.00     0.261 C 
BRANCH  32  33
ATOM     33  O   UNL A   1      35.960  30.188  29.226  1.00  0.00    -0.460 OA
BRANCH  33  34
ATOM     34  C   UNL A   1      36.558  29.610  30.277  1.00  0.00     0.338 C 
ATOM     35  O   UNL A   1      36.048  29.511  31.391  1.00  0.00    -0.246 OA
BRANCH  34  36
ATOM     36  C   UNL A   1      37.891  29.110  29.905  1.00  0.00     0.060 A 
ATOM     37  C   UNL A   1      38.315  29.336  28.597  1.00  0.00     0.016 A 
ATOM     38  C   UNL A   1      38.681  28.369  30.804  1.00  0.00     0.016 A 
ATOM     39  C   UNL A   1      39.523  28.806  28.181  1.00  0.00     0.010 A 
ATOM     40  C   UNL A   1      39.852  27.784  30.368  1.00  0.00     0.010 A 
ATOM     41  C   UNL A   1      40.272  28.020  29.062  1.00  0.00    -0.014 A 
BRANCH  41  42
ATOM     42  C   UNL A   1      41.647  27.720  28.711  1.00  0.00     0.031 A 
ATOM     43  C   UNL A   1      41.785  26.450  27.963  1.00  0.00     0.074 A 
ATOM     44  C   UNL A   1      42.697  28.529  28.912  1.00  0.00     0.049 A 
ATOM     45  N   UNL A   1      42.275  25.345  28.412  1.00  0.00    -0.248 NA
ATOM     46  C   UNL A   1      41.141  26.330  26.646  1.00  0.00     0.031 C 
ATOM     47  C   UNL A   1      42.695  29.896  29.407  1.00  0.00     0.029 A 
ATOM     48  N   UNL A   1      44.002  28.309  28.602  1.00  0.00    -0.354 N 
ATOM     49  C   UNL A   1      42.220  24.453  27.350  1.00  0.00     0.074 A 
ATOM     50  C   UNL A   1      41.306  25.031  26.406  1.00  0.00     0.031 C 
ATOM     51  C   UNL A   1      43.887  30.471  29.131  1.00  0.00     0.029 A 
ATOM     52  C   UNL A   1      44.782  29.456  28.597  1.00  0.00     0.049 A 
ATOM     53  H   UNL A   1      44.362  27.415  28.399  1.00  0.00     0.167 HD
ATOM     54  C   UNL A   1      43.136  23.455  27.231  1.00  0.00     0.034 A 
ATOM     55  C   UNL A   1      46.059  29.563  28.153  1.00  0.00     0.034 A 
ATOM     56  C   UNL A   1      43.808  23.222  28.497  1.00  0.00     0.049 A 
ATOM     57  C   UNL A   1      46.659  28.206  28.243  1.00  0.00     0.074 A 
ATOM     58  C   UNL A   1      43.366  22.936  29.779  1.00  0.00     0.029 A 
ATOM     59  N   UNL A   1      45.105  23.664  28.651  1.00  0.00    -0.354 N 
ATOM     60  N   UNL A   1      46.866  27.589  29.375  1.00  0.00    -0.248 NA
ATOM     61  C   UNL A   1      46.612  27.343  27.072  1.00  0.00     0.031 C 
ATOM     62  C   UNL A   1      44.221  23.681  30.643  1.00  0.00     0.029 A 
ATOM     63  C   UNL A   1      45.183  24.317  29.857  1.00  0.00     0.049 A 
ATOM     64  H   UNL A   1      45.843  23.534  28.012  1.00  0.00     0.167 HD
ATOM     65  C   UNL A   1      46.539  26.266  29.128  1.00  0.00     0.074 A 
ATOM     66  C   UNL A   1      46.507  26.154  27.671  1.00  0.00     0.031 C 
ATOM     67  C   UNL A   1      46.045  25.458  30.115  1.00  0.00     0.034 A 
BRANCH  54  68
ATOM     68  C   UNL A   1      43.693  22.973  25.903  1.00  0.00     0.023 A 
ATOM     69  C   UNL A   1      43.630  21.589  25.663  1.00  0.00     0.031 A 
ATOM     70  C   UNL A   1      44.510  23.705  25.008  1.00  0.00     0.131 A 
ATOM     71  C   UNL A   1      44.457  20.982  24.702  1.00  0.00     0.055 A 
ATOM     72  C   UNL A   1      45.277  23.102  24.006  1.00  0.00     0.041 A 
ATOM     73  F   UNL A   1      44.683  25.027  25.079  1.00  0.00    -0.206 F 
ATOM     74  C   UNL A   1      45.288  21.728  23.876  1.00  0.00     0.022 A 
BRANCH  71  75
ATOM     75  S   UNL A   1      44.564  19.176  24.702  1.00  0.00     0.124 S 
ATOM     76  O   UNL A   1      45.650  18.955  25.651  1.00  0.00    -0.237 OA
ATOM     77  O   UNL A   1      43.227  18.801  25.151  1.00  0.00    -0.237 OA
ATOM     78  O   UNL A   1      44.869  18.858  23.310  1.00  0.00    -0.744 OA
ENDBRANCH  71  75
ENDBRANCH  54  68
BRANCH  55  79
ATOM     79  C   UNL A   1      46.686  30.704  27.438  1.00  0.00     0.023 A 
ATOM     80  C   UNL A   1      45.926  31.778  26.933  1.00  0.00     0.031 A 
ATOM     81  C   UNL A   1      48.089  30.875  27.458  1.00  0.00     0.131 A 
ATOM     82  C   UNL A   1      46.566  32.953  26.480  1.00  0.00     0.055 A 
ATOM     83  C   UNL A   1      48.718  32.034  26.998  1.00  0.00     0.041 A 
ATOM     84  F   UNL A   1      48.896  29.954  28.007  1.00  0.00    -0.206 F 
ATOM     85  C   UNL A   1      47.955  33.085  26.516  1.00  0.00     0.022 A 
BRANCH  82  86
ATOM     86  S   UNL A   1      45.579  34.388  25.950  1.00  0.00     0.124 S 
ATOM     87  O   UNL A   1      46.411  35.507  26.378  1.00  0.00    -0.237 OA
ATOM     88  O   UNL A   1      45.460  34.178  24.512  1.00  0.00    -0.237 OA
ATOM     89  O   UNL A   1      44.328  34.230  26.695  1.00  0.00    -0.744 OA
ENDBRANCH  82  86
ENDBRANCH  55  79
BRANCH  67  90
ATOM     90  C   UNL A   1      46.200  25.887  31.561  1.00  0.00     0.023 A 
ATOM     91  C   UNL A   1      47.343  25.661  32.360  1.00  0.00     0.031 A 
ATOM     92  C   UNL A   1      45.170  26.674  32.111  1.00  0.00     0.131 A 
ATOM     93  C   UNL A   1      47.418  26.209  33.657  1.00  0.00     0.055 A 
ATOM     94  C   UNL A   1      45.255  27.230  33.387  1.00  0.00     0.041 A 
ATOM     95  F   UNL A   1      44.066  26.948  31.395  1.00  0.00    -0.206 F 
ATOM     96  C   UNL A   1      46.379  26.994  34.168  1.00  0.00     0.022 A 
BRANCH  93  97
ATOM     97  S   UNL A   1      48.867  25.900  34.717  1.00  0.00     0.124 S 
ATOM     98  O   UNL A   1      49.445  24.680  34.166  1.00  0.00    -0.237 OA
ATOM     99  O   UNL A   1      49.653  27.118  34.536  1.00  0.00    -0.237 OA
ATOM    100  O   UNL A   1      48.285  25.748  36.052  1.00  0.00    -0.744 OA
ENDBRANCH  93  97
ENDBRANCH  67  90
ENDBRANCH  41  42
ENDBRANCH  34  36
ENDBRANCH  33  34
ENDBRANCH  32  33
ENDBRANCH   1  32
TORSDOF 20
ENDMDL
MODEL 3
REMARK VINA RESULT:     -11.5      8.393     12.986
REMARK SMILES CC1(C)Cc2c(-c3ccccc3)c(-c3ccc(Cl)cc3)c(CC(=O)OCCOCCOC(=O)c3ccc(-c4c5nc(c(-c6cc(S(=O)(=O)[O-])ccc6F)c6ccc([nH]6)c(-c6cc(S(=O)(=O)[O-])ccc6F)c6nc(c(-c7cc(S(=O)(=O)[O-])ccc7F)c7ccc4[nH]7)C=C6)C=C5)cc3)n2C1
REMARK SMILES IDX 29 1 28 2 27 3 26 4 25 5 23 6 24 7 22 8 21 9 1 10 2 11 3 12
REMARK SMILES IDX 4 13 98 14 5 15 97 16 6 17 13 18 7 19 8 20 12 21 9 22 11 23
REMARK SMILES IDX 10 24 14 25 15 26 20 27 16 28 19 29 17 30 18 31 30 32 31 33
REMARK SMILES IDX 32 34 33 35 34 36 35 37 96 38 36 39 95 40 37 41 38 42 39 43
REMARK SMILES IDX 89 44 40 45 94 46 88 47 90 48 41 49 93 50 87 51 86 52 42 54
REMARK SMILES IDX 74 55 54 56 73 57 55 58 58 59 72 60 91 61 56 62 57 63 71 65
REMARK SMILES IDX 92 66 59 67 43 68 44 69 52 70 45 71 51 72 53 73 50 74 46 75
REMARK SMILES IDX 47 76 48 77 49 78 75 79 76 80 84 81 77 82 83 83 85 84 82 85
REMARK SMILES IDX 78 86 79 87 80 88 81 89 60 90 61 91 69 92 62 93 68 94 70 95
REMARK SMILES IDX 67 96 63 97 64 98 65 99 66 100
REMARK H PARENT 90 53 58 64
REMARK Flexibility Score: inf
ROOT
ATOM      1  C   UNL A   1      35.475  34.230  34.709  1.00  0.00     0.202 C 
ENDROOT
BRANCH   1   2
ATOM      2  O   UNL A   1      34.477  34.273  33.698  1.00  0.00    -0.374 OA
BRANCH   2   3
ATOM      3  C   UNL A   1      34.249  35.509  33.049  1.00  0.00     0.202 C 
BRANCH   3   4
ATOM      4  C   UNL A   1      33.830  35.393  31.576  1.00  0.00     0.261 C 
BRANCH   4   5
ATOM      5  O   UNL A   1      34.635  34.455  30.813  1.00  0.00    -0.463 OA
BRANCH   5   6
ATOM      6  C   UNL A   1      34.303  34.264  29.514  1.00  0.00     0.311 C 
ATOM      7  O   UNL A   1      33.137  34.247  29.119  1.00  0.00    -0.252 OA
BRANCH   6   8
ATOM      8  C   UNL A   1      35.451  34.109  28.519  1.00  0.00     0.177 C 
BRANCH   8   9
ATOM      9  C   UNL A   1      36.508  33.039  28.677  1.00  0.00     0.037 A 
ATOM     10  C   UNL A   1      39.811  34.112  32.206  1.00  0.00     0.013 C 
ATOM     11  C   UNL A   1      39.558  33.785  30.728  1.00  0.00    -0.012 C 
ATOM     12  C   UNL A   1      40.698  34.373  29.881  1.00  0.00     0.013 C 
ATOM     13  C   UNL A   1      39.494  32.244  30.519  1.00  0.00     0.063 C 
ATOM     14  C   UNL A   1      38.172  34.326  30.242  1.00  0.00     0.129 C 
ATOM     15  C   UNL A   1      38.336  32.081  29.614  1.00  0.00     0.027 A 
ATOM     16  N   UNL A   1      37.637  33.235  29.433  1.00  0.00    -0.346 N 
ATOM     17  C   UNL A   1      37.714  31.081  28.925  1.00  0.00     0.011 A 
ATOM     18  C   UNL A   1      36.516  31.660  28.360  1.00  0.00     0.011 A 
BRANCH  17  19
ATOM     19  C   UNL A   1      38.216  29.722  28.861  1.00  0.00    -0.016 A 
ATOM     20  C   UNL A   1      38.016  28.807  29.903  1.00  0.00     0.009 A 
ATOM     21  C   UNL A   1      38.933  29.325  27.732  1.00  0.00     0.009 A 
ATOM     22  C   UNL A   1      38.577  27.530  29.833  1.00  0.00     0.001 A 
ATOM     23  C   UNL A   1      39.467  28.043  27.656  1.00  0.00     0.001 A 
ATOM     24  C   UNL A   1      39.316  27.155  28.715  1.00  0.00     0.000 A 
ENDBRANCH  17  19
BRANCH  18  25
ATOM     25  C   UNL A   1      35.466  30.847  27.721  1.00  0.00    -0.016 A 
ATOM     26  C   UNL A   1      34.174  31.372  27.583  1.00  0.00     0.010 A 
ATOM     27  C   UNL A   1      35.617  29.472  27.531  1.00  0.00     0.010 A 
ATOM     28  C   UNL A   1      33.083  30.540  27.272  1.00  0.00     0.021 A 
ATOM     29  C   UNL A   1      34.544  28.635  27.209  1.00  0.00     0.021 A 
ATOM     30  C   UNL A   1      33.274  29.174  27.089  1.00  0.00     0.041 A 
ATOM     31  Cl  UNL A   1      31.941  28.141  26.756  1.00  0.00    -0.084 Cl
ENDBRANCH  18  25
ENDBRANCH   8   9
ENDBRANCH   6   8
ENDBRANCH   5   6
ENDBRANCH   4   5
ENDBRANCH   3   4
ENDBRANCH   2   3
ENDBRANCH   1   2
BRANCH   1  32
ATOM     32  C   UNL A   1      36.942  33.924  34.373  1.00  0.00     0.261 C 
BRANCH  32  33
ATOM     33  O   UNL A   1      37.225  32.550  34.135  1.00  0.00    -0.460 OA
BRANCH  33  34
ATOM     34  C   UNL A   1      37.826  31.987  35.192  1.00  0.00     0.338 C 
ATOM     35  O   UNL A   1      37.531  32.229  36.362  1.00  0.00    -0.246 OA
BRANCH  34  36
ATOM     36  C   UNL A   1      38.865  31.042  34.756  1.00  0.00     0.060 A 
ATOM     37  C   UNL A   1      38.536  30.160  33.729  1.00  0.00     0.016 A 
ATOM     38  C   UNL A   1      40.118  30.974  35.394  1.00  0.00     0.016 A 
ATOM     39  C   UNL A   1      39.453  29.197  33.349  1.00  0.00     0.010 A 
ATOM     40  C   UNL A   1      41.005  29.970  35.060  1.00  0.00     0.010 A 
ATOM     41  C   UNL A   1      40.671  29.098  34.029  1.00  0.00    -0.014 A 
BRANCH  41  42
ATOM     42  C   UNL A   1      41.719  28.288  33.438  1.00  0.00     0.031 A 
ATOM     43  C   UNL A   1      42.208  27.228  34.348  1.00  0.00     0.074 A 
ATOM     44  C   UNL A   1      42.149  28.372  32.171  1.00  0.00     0.049 A 
ATOM     45  N   UNL A   1      43.343  27.205  34.960  1.00  0.00    -0.248 NA
ATOM     46  C   UNL A   1      41.272  26.179  34.781  1.00  0.00     0.031 C 
ATOM     47  C   UNL A   1      41.610  29.185  31.093  1.00  0.00     0.029 A 
ATOM     48  N   UNL A   1      43.118  27.642  31.559  1.00  0.00    -0.354 N 
ATOM     49  C   UNL A   1      43.361  26.013  35.670  1.00  0.00     0.074 A 
ATOM     50  C   UNL A   1      41.997  25.569  35.716  1.00  0.00     0.031 C 
ATOM     51  C   UNL A   1      42.082  28.728  29.912  1.00  0.00     0.029 A 
ATOM     52  C   UNL A   1      43.084  27.706  30.174  1.00  0.00     0.049 A 
ATOM     53  H   UNL A   1      43.786  27.114  32.055  1.00  0.00     0.167 HD
ATOM     54  C   UNL A   1      44.533  25.370  35.921  1.00  0.00     0.034 A 
ATOM     55  C   UNL A   1      43.805  26.946  29.312  1.00  0.00     0.034 A 
ATOM     56  C   UNL A   1      45.659  26.272  35.754  1.00  0.00     0.049 A 
ATOM     57  C   UNL A   1      45.015  26.496  30.047  1.00  0.00     0.074 A 
ATOM     58  C   UNL A   1      45.988  27.505  36.293  1.00  0.00     0.029 A 
ATOM     59  N   UNL A   1      46.451  26.143  34.632  1.00  0.00    -0.354 N 
ATOM     60  N   UNL A   1      45.947  27.311  30.459  1.00  0.00    -0.248 NA
ATOM     61  C   UNL A   1      44.980  25.208  30.725  1.00  0.00     0.031 C 
ATOM     62  C   UNL A   1      46.568  28.240  35.216  1.00  0.00     0.029 A 
ATOM     63  C   UNL A   1      46.635  27.398  34.105  1.00  0.00     0.049 A 
ATOM     64  H   UNL A   1      46.819  25.303  34.274  1.00  0.00     0.167 HD
ATOM     65  C   UNL A   1      46.314  26.836  31.708  1.00  0.00     0.074 A 
ATOM     66  C   UNL A   1      45.776  25.479  31.764  1.00  0.00     0.031 C 
ATOM     67  C   UNL A   1      46.768  27.677  32.685  1.00  0.00     0.034 A 
BRANCH  54  68
ATOM     68  C   UNL A   1      44.684  23.859  35.928  1.00  0.00     0.023 A 
ATOM     69  C   UNL A   1      45.320  23.298  37.050  1.00  0.00     0.031 A 
ATOM     70  C   UNL A   1      44.512  22.983  34.830  1.00  0.00     0.131 A 
ATOM     71  C   UNL A   1      45.882  22.012  36.996  1.00  0.00     0.055 A 
ATOM     72  C   UNL A   1      45.012  21.676  34.810  1.00  0.00     0.041 A 
ATOM     73  F   UNL A   1      43.922  23.338  33.686  1.00  0.00    -0.206 F 
ATOM     74  C   UNL A   1      45.740  21.197  35.880  1.00  0.00     0.022 A 
BRANCH  71  75
ATOM     75  S   UNL A   1      46.975  21.511  38.348  1.00  0.00     0.124 S 
ATOM     76  O   UNL A   1      47.951  20.693  37.638  1.00  0.00    -0.237 OA
ATOM     77  O   UNL A   1      47.447  22.802  38.840  1.00  0.00    -0.237 OA
ATOM     78  O   UNL A   1      46.083  20.786  39.250  1.00  0.00    -0.744 OA
ENDBRANCH  71  75
ENDBRANCH  54  68
BRANCH  55  79
ATOM     79  C   UNL A   1      43.379  26.402  27.997  1.00  0.00     0.023 A 
ATOM     80  C   UNL A   1      42.999  25.055  27.833  1.00  0.00     0.031 A 
ATOM     81  C   UNL A   1      43.101  27.274  26.920  1.00  0.00     0.131 A 
ATOM     82  C   UNL A   1      42.372  24.631  26.640  1.00  0.00     0.055 A 
ATOM     83  C   UNL A   1      42.491  26.848  25.738  1.00  0.00     0.041 A 
ATOM     84  F   UNL A   1      43.333  28.592  27.012  1.00  0.00    -0.206 F 
ATOM     85  C   UNL A   1      42.113  25.523  25.598  1.00  0.00     0.022 A 
BRANCH  82  86
ATOM     86  S   UNL A   1      41.766  22.922  26.481  1.00  0.00     0.124 S 
ATOM     87  O   UNL A   1      42.396  22.487  25.240  1.00  0.00    -0.237 OA
ATOM     88  O   UNL A   1      42.248  22.299  27.708  1.00  0.00    -0.237 OA
ATOM     89  O   UNL A   1      40.312  23.085  26.411  1.00  0.00    -0.744 OA
ENDBRANCH  82  86
ENDBRANCH  55  79
BRANCH  67  90
ATOM     90  C   UNL A   1      47.224  29.072  32.300  1.00  0.00     0.023 A 
ATOM     91  C   UNL A   1      46.381  30.199  32.176  1.00  0.00     0.031 A 
ATOM     92  C   UNL A   1      48.610  29.281  32.171  1.00  0.00     0.131 A 
ATOM     93  C   UNL A   1      46.935  31.471  31.926  1.00  0.00     0.055 A 
ATOM     94  C   UNL A   1      49.156  30.543  31.943  1.00  0.00     0.041 A 
ATOM     95  F   UNL A   1      49.469  28.256  32.303  1.00  0.00    -0.206 F 
ATOM     96  C   UNL A   1      48.319  31.644  31.813  1.00  0.00     0.022 A 
BRANCH  93  97
ATOM     97  S   UNL A   1      45.864  32.932  31.728  1.00  0.00     0.124 S 
ATOM     98  O   UNL A   1      44.685  32.406  31.052  1.00  0.00    -0.237 OA
ATOM     99  O   UNL A   1      45.669  33.366  33.109  1.00  0.00    -0.237 OA
ATOM    100  O   UNL A   1      46.677  33.840  30.916  1.00  0.00    -0.744 OA
ENDBRANCH  93  97
ENDBRANCH  67  90
ENDBRANCH  41  42
ENDBRANCH  34  36
ENDBRANCH  33  34
ENDBRANCH  32  33
ENDBRANCH   1  32
TORSDOF 20
ENDMDL
