MODEL 1
REMARK VINA RESULT:     -11.5      0.000      0.000
REMARK SMILES C=Cc1cc(Cl)cc2c1O[C@H](C(F)(F)F)C(C(=O)OCCOCCOC(=O)c1ccc(-c3c4nc(c(-c5cc(S(=O)(=O)[O-])ccc5F)c5ccc([nH]5)c(-c5cc(S(=O)(=O)[O-])ccc5F)c5nc(c(-c6cc(S(=O)(=O)[O-])ccc6F)c6ccc3[nH]6)C=C5)C=C4)cc1)=C2
REMARK SMILES IDX 23 1 22 2 21 3 20 4 19 5 17 6 18 7 16 8 3 9 4 10 9 11 5 12
REMARK SMILES IDX 8 13 10 14 6 15 7 16 91 17 11 18 2 19 1 20 12 21 13 22 14 23
REMARK SMILES IDX 15 24 24 25 25 26 26 27 27 28 28 29 29 30 90 31 30 32 89 33
REMARK SMILES IDX 31 34 32 35 33 36 83 37 34 38 88 39 82 40 84 41 35 42 87 43
REMARK SMILES IDX 81 44 80 45 36 47 68 48 48 49 67 50 49 51 52 52 66 53 85 54
REMARK SMILES IDX 50 55 51 56 65 58 86 59 53 60 37 61 38 62 46 63 39 64 45 65
REMARK SMILES IDX 47 66 44 67 40 68 41 69 42 70 43 71 69 72 70 73 78 74 71 75
REMARK SMILES IDX 77 76 79 77 76 78 72 79 73 80 74 81 75 82 54 83 55 84 63 85
REMARK SMILES IDX 56 86 62 87 64 88 61 89 57 90 58 91 59 92 60 93
REMARK H PARENT 84 46 52 57
REMARK Flexibility Score: inf
ROOT
ATOM      1  C   UNL A   1      36.451  20.844  24.656  1.00  0.00     0.202 C 
ENDROOT
BRANCH   1   2
ATOM      2  O   UNL A   1      35.517  21.281  25.642  1.00  0.00    -0.374 OA
BRANCH   2   3
ATOM      3  C   UNL A   1      34.196  20.744  25.613  1.00  0.00     0.202 C 
BRANCH   3   4
ATOM      4  C   UNL A   1      33.023  21.729  25.623  1.00  0.00     0.261 C 
BRANCH   4   5
ATOM      5  O   UNL A   1      33.420  23.050  26.020  1.00  0.00    -0.460 OA
BRANCH   5   6
ATOM      6  C   UNL A   1      32.424  23.793  26.557  1.00  0.00     0.338 C 
ATOM      7  O   UNL A   1      31.804  23.558  27.582  1.00  0.00    -0.246 OA
BRANCH   6   8
ATOM      8  C   UNL A   1      32.263  25.044  25.793  1.00  0.00     0.087 C 
ATOM      9  C   UNL A   1      31.377  28.663  23.883  1.00  0.00     0.018 A 
ATOM     10  C   UNL A   1      31.370  29.836  24.654  1.00  0.00     0.032 A 
ATOM     11  C   UNL A   1      31.761  27.450  24.491  1.00  0.00     0.135 A 
ATOM     12  C   UNL A   1      31.780  29.810  25.986  1.00  0.00     0.042 A 
ATOM     13  C   UNL A   1      32.136  27.430  25.840  1.00  0.00     0.019 A 
ATOM     14  O   UNL A   1      31.772  26.321  23.712  1.00  0.00    -0.475 OA
ATOM     15  Cl  UNL A   1      31.771  31.260  26.914  1.00  0.00    -0.084 Cl
ATOM     16  C   UNL A   1      32.168  28.615  26.581  1.00  0.00     0.032 A 
ATOM     17  C   UNL A   1      32.421  26.170  26.498  1.00  0.00     0.027 C 
ATOM     18  C   UNL A   1      31.910  25.013  24.333  1.00  0.00     0.316 C 
BRANCH   9  19
ATOM     19  C   UNL A   1      30.892  28.683  22.491  1.00  0.00     0.004 C 
ATOM     20  C   UNL A   1      30.044  29.591  21.992  1.00  0.00     0.009 C 
ENDBRANCH   9  19
BRANCH  18  21
ATOM     21  C   UNL A   1      30.633  24.208  24.051  1.00  0.00     0.430 C 
ATOM     22  F   UNL A   1      30.263  23.482  25.132  1.00  0.00    -0.167 F 
ATOM     23  F   UNL A   1      29.591  25.011  23.740  1.00  0.00    -0.167 F 
ATOM     24  F   UNL A   1      30.804  23.346  23.023  1.00  0.00    -0.167 F 
ENDBRANCH  18  21
ENDBRANCH   6   8
ENDBRANCH   5   6
ENDBRANCH   4   5
ENDBRANCH   3   4
ENDBRANCH   2   3
ENDBRANCH   1   2
BRANCH   1  25
ATOM     25  C   UNL A   1      37.877  20.487  25.095  1.00  0.00     0.261 C 
BRANCH  25  26
ATOM     26  O   UNL A   1      38.669  21.638  25.430  1.00  0.00    -0.460 OA
BRANCH  26  27
ATOM     27  C   UNL A   1      39.546  21.452  26.451  1.00  0.00     0.338 C 
ATOM     28  O   UNL A   1      40.050  20.398  26.804  1.00  0.00    -0.246 OA
BRANCH  27  29
ATOM     29  C   UNL A   1      39.980  22.769  26.953  1.00  0.00     0.060 A 
ATOM     30  C   UNL A   1      40.999  22.876  27.901  1.00  0.00     0.016 A 
ATOM     31  C   UNL A   1      39.362  23.915  26.437  1.00  0.00     0.016 A 
ATOM     32  C   UNL A   1      41.407  24.143  28.321  1.00  0.00     0.010 A 
ATOM     33  C   UNL A   1      39.769  25.179  26.863  1.00  0.00     0.010 A 
ATOM     34  C   UNL A   1      40.805  25.304  27.798  1.00  0.00    -0.014 A 
BRANCH  34  35
ATOM     35  C   UNL A   1      41.350  26.643  28.129  1.00  0.00     0.031 A 
ATOM     36  C   UNL A   1      42.766  27.016  27.810  1.00  0.00     0.074 A 
ATOM     37  C   UNL A   1      40.545  27.522  28.756  1.00  0.00     0.049 A 
ATOM     38  N   UNL A   1      43.369  28.164  27.982  1.00  0.00    -0.248 NA
ATOM     39  C   UNL A   1      43.621  25.969  27.230  1.00  0.00     0.031 C 
ATOM     40  C   UNL A   1      39.167  27.243  29.156  1.00  0.00     0.029 A 
ATOM     41  N   UNL A   1      40.758  28.815  29.167  1.00  0.00    -0.354 N 
ATOM     42  C   UNL A   1      44.666  27.990  27.515  1.00  0.00     0.074 A 
ATOM     43  C   UNL A   1      44.779  26.606  27.103  1.00  0.00     0.031 C 
ATOM     44  C   UNL A   1      38.647  28.338  29.729  1.00  0.00     0.029 A 
ATOM     45  C   UNL A   1      39.666  29.386  29.777  1.00  0.00     0.049 A 
ATOM     46  H   UNL A   1      41.612  29.287  29.038  1.00  0.00     0.167 HD
ATOM     47  C   UNL A   1      45.656  28.910  27.422  1.00  0.00     0.034 A 
ATOM     48  C   UNL A   1      39.498  30.611  30.318  1.00  0.00     0.034 A 
ATOM     49  C   UNL A   1      45.522  30.281  27.852  1.00  0.00     0.049 A 
ATOM     50  C   UNL A   1      40.626  31.607  30.230  1.00  0.00     0.074 A 
ATOM     51  C   UNL A   1      46.452  31.300  27.747  1.00  0.00     0.029 A 
ATOM     52  N   UNL A   1      44.407  30.825  28.474  1.00  0.00    -0.354 N 
ATOM     53  N   UNL A   1      41.808  31.464  29.676  1.00  0.00    -0.248 NA
ATOM     54  C   UNL A   1      40.402  32.932  30.822  1.00  0.00     0.031 C 
ATOM     55  C   UNL A   1      45.937  32.431  28.378  1.00  0.00     0.029 A 
ATOM     56  C   UNL A   1      44.644  32.153  28.795  1.00  0.00     0.049 A 
ATOM     57  H   UNL A   1      43.571  30.341  28.659  1.00  0.00     0.167 HD
ATOM     58  C   UNL A   1      42.456  32.685  29.832  1.00  0.00     0.074 A 
ATOM     59  C   UNL A   1      41.525  33.565  30.508  1.00  0.00     0.031 C 
ATOM     60  C   UNL A   1      43.712  33.038  29.455  1.00  0.00     0.034 A 
BRANCH  47  61
ATOM     61  C   UNL A   1      46.975  28.504  26.806  1.00  0.00     0.023 A 
ATOM     62  C   UNL A   1      47.092  28.365  25.410  1.00  0.00     0.031 A 
ATOM     63  C   UNL A   1      48.056  28.092  27.607  1.00  0.00     0.131 A 
ATOM     64  C   UNL A   1      48.241  27.781  24.861  1.00  0.00     0.055 A 
ATOM     65  C   UNL A   1      49.219  27.557  27.051  1.00  0.00     0.041 A 
ATOM     66  F   UNL A   1      47.993  28.195  28.944  1.00  0.00    -0.206 F 
ATOM     67  C   UNL A   1      49.307  27.384  25.673  1.00  0.00     0.022 A 
BRANCH  64  68
ATOM     68  S   UNL A   1      48.359  27.431  23.084  1.00  0.00     0.124 S 
ATOM     69  O   UNL A   1      49.679  27.969  22.762  1.00  0.00    -0.237 OA
ATOM     70  O   UNL A   1      48.255  25.975  23.053  1.00  0.00    -0.237 OA
ATOM     71  O   UNL A   1      47.235  28.159  22.508  1.00  0.00    -0.744 OA
ENDBRANCH  64  68
ENDBRANCH  47  61
BRANCH  48  72
ATOM     72  C   UNL A   1      38.178  30.957  30.922  1.00  0.00     0.023 A 
ATOM     73  C   UNL A   1      37.181  31.591  30.159  1.00  0.00     0.031 A 
ATOM     74  C   UNL A   1      37.941  30.773  32.295  1.00  0.00     0.131 A 
ATOM     75  C   UNL A   1      36.033  32.090  30.787  1.00  0.00     0.055 A 
ATOM     76  C   UNL A   1      36.758  31.200  32.901  1.00  0.00     0.041 A 
ATOM     77  F   UNL A   1      38.867  30.188  33.070  1.00  0.00    -0.206 F 
ATOM     78  C   UNL A   1      35.806  31.881  32.150  1.00  0.00     0.022 A 
BRANCH  75  79
ATOM     79  S   UNL A   1      34.872  33.155  29.886  1.00  0.00     0.124 S 
ATOM     80  O   UNL A   1      34.031  33.669  30.962  1.00  0.00    -0.237 OA
ATOM     81  O   UNL A   1      35.776  34.125  29.272  1.00  0.00    -0.237 OA
ATOM     82  O   UNL A   1      34.217  32.242  28.954  1.00  0.00    -0.744 OA
ENDBRANCH  75  79
ENDBRANCH  48  72
BRANCH  60  83
ATOM     83  C   UNL A   1      44.196  34.441  29.746  1.00  0.00     0.023 A 
ATOM     84  C   UNL A   1      43.990  35.467  28.801  1.00  0.00     0.031 A 
ATOM     85  C   UNL A   1      45.009  34.721  30.858  1.00  0.00     0.131 A 
ATOM     86  C   UNL A   1      44.639  36.699  28.953  1.00  0.00     0.055 A 
ATOM     87  C   UNL A   1      45.604  35.970  31.037  1.00  0.00     0.041 A 
ATOM     88  F   UNL A   1      45.247  33.777  31.783  1.00  0.00    -0.206 F 
ATOM     89  C   UNL A   1      45.436  36.960  30.071  1.00  0.00     0.022 A 
BRANCH  86  90
ATOM     90  S   UNL A   1      44.560  37.966  27.657  1.00  0.00     0.124 S 
ATOM     91  O   UNL A   1      43.369  37.566  26.913  1.00  0.00    -0.237 OA
ATOM     92  O   UNL A   1      44.423  39.193  28.438  1.00  0.00    -0.237 OA
ATOM     93  O   UNL A   1      45.820  37.816  26.938  1.00  0.00    -0.744 OA
ENDBRANCH  86  90
ENDBRANCH  60  83
ENDBRANCH  34  35
ENDBRANCH  27  29
ENDBRANCH  26  27
ENDBRANCH  25  26
ENDBRANCH   1  25
TORSDOF 19
ENDMDL
MODEL 2
REMARK VINA RESULT:     -11.4      1.278      7.571
REMARK SMILES C=Cc1cc(Cl)cc2c1O[C@H](C(F)(F)F)C(C(=O)OCCOCCOC(=O)c1ccc(-c3c4nc(c(-c5cc(S(=O)(=O)[O-])ccc5F)c5ccc([nH]5)c(-c5cc(S(=O)(=O)[O-])ccc5F)c5nc(c(-c6cc(S(=O)(=O)[O-])ccc6F)c6ccc3[nH]6)C=C5)C=C4)cc1)=C2
REMARK SMILES IDX 23 1 22 2 21 3 20 4 19 5 17 6 18 7 16 8 3 9 4 10 9 11 5 12
REMARK SMILES IDX 8 13 10 14 6 15 7 16 91 17 11 18 2 19 1 20 12 21 13 22 14 23
REMARK SMILES IDX 15 24 24 25 25 26 26 27 27 28 28 29 29 30 90 31 30 32 89 33
REMARK SMILES IDX 31 34 32 35 33 36 83 37 34 38 88 39 82 40 84 41 35 42 87 43
REMARK SMILES IDX 81 44 80 45 36 47 68 48 48 49 67 50 49 51 52 52 66 53 85 54
REMARK SMILES IDX 50 55 51 56 65 58 86 59 53 60 37 61 38 62 46 63 39 64 45 65
REMARK SMILES IDX 47 66 44 67 40 68 41 69 42 70 43 71 69 72 70 73 78 74 71 75
REMARK SMILES IDX 77 76 79 77 76 78 72 79 73 80 74 81 75 82 54 83 55 84 63 85
REMARK SMILES IDX 56 86 62 87 64 88 61 89 57 90 58 91 59 92 60 93
REMARK H PARENT 84 46 52 57
REMARK Flexibility Score: inf
ROOT
ATOM      1  C   UNL A   1      37.738  20.189  24.966  1.00  0.00     0.202 C 
ENDROOT
BRANCH   1   2
ATOM      2  O   UNL A   1      36.389  19.724  24.965  1.00  0.00    -0.374 OA
BRANCH   2   3
ATOM      3  C   UNL A   1      35.343  20.674  25.159  1.00  0.00     0.202 C 
BRANCH   3   4
ATOM      4  C   UNL A   1      35.735  22.143  25.345  1.00  0.00     0.261 C 
BRANCH   4   5
ATOM      5  O   UNL A   1      34.751  23.044  24.817  1.00  0.00    -0.460 OA
BRANCH   5   6
ATOM      6  C   UNL A   1      33.956  23.612  25.753  1.00  0.00     0.338 C 
ATOM      7  O   UNL A   1      33.872  23.301  26.931  1.00  0.00    -0.246 OA
BRANCH   6   8
ATOM      8  C   UNL A   1      33.273  24.789  25.185  1.00  0.00     0.087 C 
ATOM      9  C   UNL A   1      31.027  28.109  23.976  1.00  0.00     0.018 A 
ATOM     10  C   UNL A   1      31.069  29.265  24.772  1.00  0.00     0.032 A 
ATOM     11  C   UNL A   1      31.847  27.015  24.320  1.00  0.00     0.135 A 
ATOM     12  C   UNL A   1      31.939  29.344  25.858  1.00  0.00     0.042 A 
ATOM     13  C   UNL A   1      32.691  27.094  25.435  1.00  0.00     0.019 A 
ATOM     14  O   UNL A   1      31.797  25.904  23.518  1.00  0.00    -0.475 OA
ATOM     15  Cl  UNL A   1      31.981  30.772  26.819  1.00  0.00    -0.084 Cl
ATOM     16  C   UNL A   1      32.754  28.268  26.190  1.00  0.00     0.032 A 
ATOM     17  C   UNL A   1      33.449  25.933  25.858  1.00  0.00     0.027 C 
ATOM     18  C   UNL A   1      32.418  24.663  23.957  1.00  0.00     0.316 C 
BRANCH   9  19
ATOM     19  C   UNL A   1      30.068  28.007  22.861  1.00  0.00     0.004 C 
ATOM     20  C   UNL A   1      29.356  29.030  22.372  1.00  0.00     0.009 C 
ENDBRANCH   9  19
BRANCH  18  21
ATOM     21  C   UNL A   1      31.319  23.601  24.107  1.00  0.00     0.430 C 
ATOM     22  F   UNL A   1      30.291  23.837  23.259  1.00  0.00    -0.167 F 
ATOM     23  F   UNL A   1      31.779  22.359  23.833  1.00  0.00    -0.167 F 
ATOM     24  F   UNL A   1      30.814  23.581  25.362  1.00  0.00    -0.167 F 
ENDBRANCH  18  21
ENDBRANCH   6   8
ENDBRANCH   5   6
ENDBRANCH   4   5
ENDBRANCH   3   4
ENDBRANCH   2   3
ENDBRANCH   1   2
BRANCH   1  25
ATOM     25  C   UNL A   1      38.798  19.379  25.724  1.00  0.00     0.261 C 
BRANCH  25  26
ATOM     26  O   UNL A   1      40.142  19.791  25.425  1.00  0.00    -0.460 OA
BRANCH  26  27
ATOM     27  C   UNL A   1      40.974  19.849  26.496  1.00  0.00     0.338 C 
ATOM     28  O   UNL A   1      41.580  18.921  27.009  1.00  0.00    -0.246 OA
BRANCH  27  29
ATOM     29  C   UNL A   1      41.219  21.263  26.835  1.00  0.00     0.060 A 
ATOM     30  C   UNL A   1      41.754  21.623  28.072  1.00  0.00     0.016 A 
ATOM     31  C   UNL A   1      40.924  22.238  25.873  1.00  0.00     0.016 A 
ATOM     32  C   UNL A   1      42.007  22.971  28.339  1.00  0.00     0.010 A 
ATOM     33  C   UNL A   1      41.174  23.583  26.145  1.00  0.00     0.010 A 
ATOM     34  C   UNL A   1      41.730  23.959  27.374  1.00  0.00    -0.014 A 
BRANCH  34  35
ATOM     35  C   UNL A   1      42.147  25.365  27.602  1.00  0.00     0.031 A 
ATOM     36  C   UNL A   1      41.232  26.362  28.245  1.00  0.00     0.074 A 
ATOM     37  C   UNL A   1      43.373  25.740  27.190  1.00  0.00     0.049 A 
ATOM     38  N   UNL A   1      41.473  27.607  28.565  1.00  0.00    -0.248 NA
ATOM     39  C   UNL A   1      39.868  25.912  28.564  1.00  0.00     0.031 C 
ATOM     40  C   UNL A   1      44.324  24.862  26.509  1.00  0.00     0.029 A 
ATOM     41  N   UNL A   1      44.030  26.943  27.276  1.00  0.00    -0.354 N 
ATOM     42  C   UNL A   1      40.304  28.088  29.142  1.00  0.00     0.074 A 
ATOM     43  C   UNL A   1      39.334  27.014  29.077  1.00  0.00     0.031 C 
ATOM     44  C   UNL A   1      45.451  25.544  26.265  1.00  0.00     0.029 A 
ATOM     45  C   UNL A   1      45.293  26.920  26.732  1.00  0.00     0.049 A 
ATOM     46  H   UNL A   1      43.635  27.744  27.689  1.00  0.00     0.167 HD
ATOM     47  C   UNL A   1      40.077  29.304  29.693  1.00  0.00     0.034 A 
ATOM     48  C   UNL A   1      46.221  27.893  26.615  1.00  0.00     0.034 A 
ATOM     49  C   UNL A   1      41.058  30.363  29.734  1.00  0.00     0.049 A 
ATOM     50  C   UNL A   1      45.933  29.249  27.208  1.00  0.00     0.074 A 
ATOM     51  C   UNL A   1      40.938  31.611  30.320  1.00  0.00     0.029 A 
ATOM     52  N   UNL A   1      42.323  30.312  29.166  1.00  0.00    -0.354 N 
ATOM     53  N   UNL A   1      44.866  29.652  27.859  1.00  0.00    -0.248 NA
ATOM     54  C   UNL A   1      46.970  30.280  27.069  1.00  0.00     0.031 C 
ATOM     55  C   UNL A   1      42.090  32.342  30.033  1.00  0.00     0.029 A 
ATOM     56  C   UNL A   1      42.975  31.521  29.351  1.00  0.00     0.049 A 
ATOM     57  H   UNL A   1      42.702  29.533  28.700  1.00  0.00     0.167 HD
ATOM     58  C   UNL A   1      45.114  30.971  28.226  1.00  0.00     0.074 A 
ATOM     59  C   UNL A   1      46.444  31.290  27.749  1.00  0.00     0.031 C 
ATOM     60  C   UNL A   1      44.308  31.838  28.891  1.00  0.00     0.034 A 
BRANCH  47  61
ATOM     61  C   UNL A   1      38.737  29.579  30.334  1.00  0.00     0.023 A 
ATOM     62  C   UNL A   1      37.791  30.391  29.678  1.00  0.00     0.031 A 
ATOM     63  C   UNL A   1      38.467  29.183  31.656  1.00  0.00     0.131 A 
ATOM     64  C   UNL A   1      36.648  30.822  30.362  1.00  0.00     0.055 A 
ATOM     65  C   UNL A   1      37.301  29.575  32.316  1.00  0.00     0.041 A 
ATOM     66  F   UNL A   1      39.339  28.416  32.330  1.00  0.00    -0.206 F 
ATOM     67  C   UNL A   1      36.394  30.412  31.674  1.00  0.00     0.022 A 
BRANCH  64  68
ATOM     68  S   UNL A   1      35.492  32.002  29.610  1.00  0.00     0.124 S 
ATOM     69  O   UNL A   1      34.785  31.156  28.651  1.00  0.00    -0.237 OA
ATOM     70  O   UNL A   1      34.704  32.432  30.762  1.00  0.00    -0.237 OA
ATOM     71  O   UNL A   1      36.359  33.016  29.022  1.00  0.00    -0.744 OA
ENDBRANCH  64  68
ENDBRANCH  47  61
BRANCH  48  72
ATOM     72  C   UNL A   1      47.525  27.572  25.964  1.00  0.00     0.023 A 
ATOM     73  C   UNL A   1      47.728  27.830  24.597  1.00  0.00     0.031 A 
ATOM     74  C   UNL A   1      48.536  26.895  26.666  1.00  0.00     0.131 A 
ATOM     75  C   UNL A   1      48.875  27.341  23.958  1.00  0.00     0.055 A 
ATOM     76  C   UNL A   1      49.714  26.481  26.042  1.00  0.00     0.041 A 
ATOM     77  F   UNL A   1      48.383  26.611  27.969  1.00  0.00    -0.206 F 
ATOM     78  C   UNL A   1      49.879  26.685  24.676  1.00  0.00     0.022 A 
BRANCH  75  79
ATOM     79  S   UNL A   1      49.029  27.407  22.150  1.00  0.00     0.124 S 
ATOM     80  O   UNL A   1      48.087  28.465  21.802  1.00  0.00    -0.237 OA
ATOM     81  O   UNL A   1      50.442  27.739  21.985  1.00  0.00    -0.237 OA
ATOM     82  O   UNL A   1      48.654  26.062  21.723  1.00  0.00    -0.744 OA
ENDBRANCH  75  79
ENDBRANCH  48  72
BRANCH  60  83
ATOM     83  C   UNL A   1      44.809  33.238  29.168  1.00  0.00     0.023 A 
ATOM     84  C   UNL A   1      44.714  34.229  28.170  1.00  0.00     0.031 A 
ATOM     85  C   UNL A   1      45.535  33.540  30.333  1.00  0.00     0.131 A 
ATOM     86  C   UNL A   1      45.386  35.448  28.328  1.00  0.00     0.055 A 
ATOM     87  C   UNL A   1      46.151  34.779  30.513  1.00  0.00     0.041 A 
ATOM     88  F   UNL A   1      45.666  32.629  31.310  1.00  0.00    -0.206 F 
ATOM     89  C   UNL A   1      46.095  35.733  29.499  1.00  0.00     0.022 A 
BRANCH  86  90
ATOM     90  S   UNL A   1      45.453  36.663  26.982  1.00  0.00     0.124 S 
ATOM     91  O   UNL A   1      46.414  37.635  27.498  1.00  0.00    -0.237 OA
ATOM     92  O   UNL A   1      45.926  35.853  25.863  1.00  0.00    -0.237 OA
ATOM     93  O   UNL A   1      44.080  37.146  26.873  1.00  0.00    -0.744 OA
ENDBRANCH  86  90
ENDBRANCH  60  83
ENDBRANCH  34  35
ENDBRANCH  27  29
ENDBRANCH  26  27
ENDBRANCH  25  26
ENDBRANCH   1  25
TORSDOF 19
ENDMDL
MODEL 3
REMARK VINA RESULT:     -11.4      2.875      8.193
REMARK SMILES C=Cc1cc(Cl)cc2c1O[C@H](C(F)(F)F)C(C(=O)OCCOCCOC(=O)c1ccc(-c3c4nc(c(-c5cc(S(=O)(=O)[O-])ccc5F)c5ccc([nH]5)c(-c5cc(S(=O)(=O)[O-])ccc5F)c5nc(c(-c6cc(S(=O)(=O)[O-])ccc6F)c6ccc3[nH]6)C=C5)C=C4)cc1)=C2
REMARK SMILES IDX 23 1 22 2 21 3 20 4 19 5 17 6 18 7 16 8 3 9 4 10 9 11 5 12
REMARK SMILES IDX 8 13 10 14 6 15 7 16 91 17 11 18 2 19 1 20 12 21 13 22 14 23
REMARK SMILES IDX 15 24 24 25 25 26 26 27 27 28 28 29 29 30 90 31 30 32 89 33
REMARK SMILES IDX 31 34 32 35 33 36 83 37 34 38 88 39 82 40 84 41 35 42 87 43
REMARK SMILES IDX 81 44 80 45 36 47 68 48 48 49 67 50 49 51 52 52 66 53 85 54
REMARK SMILES IDX 50 55 51 56 65 58 86 59 53 60 37 61 38 62 46 63 39 64 45 65
REMARK SMILES IDX 47 66 44 67 40 68 41 69 42 70 43 71 69 72 70 73 78 74 71 75
REMARK SMILES IDX 77 76 79 77 76 78 72 79 73 80 74 81 75 82 54 83 55 84 63 85
REMARK SMILES IDX 56 86 62 87 64 88 61 89 57 90 58 91 59 92 60 93
REMARK H PARENT 84 46 52 57
REMARK Flexibility Score: inf
ROOT
ATOM      1  C   UNL A   1      39.051  21.322  25.993  1.00  0.00     0.202 C 
ENDROOT
BRANCH   1   2
ATOM      2  O   UNL A   1      37.879  21.745  25.297  1.00  0.00    -0.374 OA
BRANCH   2   3
ATOM      3  C   UNL A   1      36.844  20.792  25.067  1.00  0.00     0.202 C 
BRANCH   3   4
ATOM      4  C   UNL A   1      35.405  21.308  24.970  1.00  0.00     0.261 C 
BRANCH   4   5
ATOM      5  O   UNL A   1      35.334  22.741  24.993  1.00  0.00    -0.460 OA
BRANCH   5   6
ATOM      6  C   UNL A   1      35.205  23.312  23.773  1.00  0.00     0.338 C 
ATOM      7  O   UNL A   1      35.768  22.978  22.743  1.00  0.00    -0.246 OA
BRANCH   6   8
ATOM      8  C   UNL A   1      34.154  24.347  23.812  1.00  0.00     0.087 C 
ATOM      9  C   UNL A   1      31.056  27.104  24.381  1.00  0.00     0.018 A 
ATOM     10  C   UNL A   1      31.195  28.058  25.402  1.00  0.00     0.032 A 
ATOM     11  C   UNL A   1      32.128  26.227  24.117  1.00  0.00     0.135 A 
ATOM     12  C   UNL A   1      32.389  28.164  26.113  1.00  0.00     0.042 A 
ATOM     13  C   UNL A   1      33.310  26.320  24.863  1.00  0.00     0.019 A 
ATOM     14  O   UNL A   1      31.972  25.315  23.105  1.00  0.00    -0.475 OA
ATOM     15  Cl  UNL A   1      32.543  29.343  27.358  1.00  0.00    -0.084 Cl
ATOM     16  C   UNL A   1      33.448  27.304  25.846  1.00  0.00     0.032 A 
ATOM     17  C   UNL A   1      34.368  25.348  24.673  1.00  0.00     0.027 C 
ATOM     18  C   UNL A   1      32.927  24.228  22.953  1.00  0.00     0.316 C 
BRANCH   9  19
ATOM     19  C   UNL A   1      29.774  26.959  23.667  1.00  0.00     0.004 C 
ATOM     20  C   UNL A   1      29.018  27.979  23.241  1.00  0.00     0.009 C 
ENDBRANCH   9  19
BRANCH  18  21
ATOM     21  C   UNL A   1      32.185  22.901  23.164  1.00  0.00     0.430 C 
ATOM     22  F   UNL A   1      32.286  22.482  24.448  1.00  0.00    -0.167 F 
ATOM     23  F   UNL A   1      30.866  23.013  22.889  1.00  0.00    -0.167 F 
ATOM     24  F   UNL A   1      32.684  21.920  22.377  1.00  0.00    -0.167 F 
ENDBRANCH  18  21
ENDBRANCH   6   8
ENDBRANCH   5   6
ENDBRANCH   4   5
ENDBRANCH   3   4
ENDBRANCH   2   3
ENDBRANCH   1   2
BRANCH   1  25
ATOM     25  C   UNL A   1      39.596  19.910  25.734  1.00  0.00     0.261 C 
BRANCH  25  26
ATOM     26  O   UNL A   1      40.595  19.510  26.686  1.00  0.00    -0.460 OA
BRANCH  26  27
ATOM     27  C   UNL A   1      41.868  19.509  26.212  1.00  0.00     0.338 C 
ATOM     28  O   UNL A   1      42.408  18.635  25.552  1.00  0.00    -0.246 OA
BRANCH  27  29
ATOM     29  C   UNL A   1      42.460  20.842  26.431  1.00  0.00     0.060 A 
ATOM     30  C   UNL A   1      43.006  21.569  25.373  1.00  0.00     0.016 A 
ATOM     31  C   UNL A   1      42.438  21.374  27.727  1.00  0.00     0.016 A 
ATOM     32  C   UNL A   1      43.521  22.844  25.616  1.00  0.00     0.010 A 
ATOM     33  C   UNL A   1      42.958  22.646  27.967  1.00  0.00     0.010 A 
ATOM     34  C   UNL A   1      43.490  23.397  26.911  1.00  0.00    -0.014 A 
BRANCH  34  35
ATOM     35  C   UNL A   1      43.892  24.809  27.131  1.00  0.00     0.031 A 
ATOM     36  C   UNL A   1      42.909  25.844  27.587  1.00  0.00     0.074 A 
ATOM     37  C   UNL A   1      45.170  25.154  26.883  1.00  0.00     0.049 A 
ATOM     38  N   UNL A   1      43.121  27.101  27.879  1.00  0.00    -0.248 NA
ATOM     39  C   UNL A   1      41.507  25.421  27.726  1.00  0.00     0.031 C 
ATOM     40  C   UNL A   1      46.195  24.235  26.389  1.00  0.00     0.029 A 
ATOM     41  N   UNL A   1      45.827  26.353  27.006  1.00  0.00    -0.354 N 
ATOM     42  C   UNL A   1      41.888  27.619  28.258  1.00  0.00     0.074 A 
ATOM     43  C   UNL A   1      40.922  26.551  28.104  1.00  0.00     0.031 C 
ATOM     44  C   UNL A   1      47.357  24.895  26.278  1.00  0.00     0.029 A 
ATOM     45  C   UNL A   1      47.154  26.293  26.652  1.00  0.00     0.049 A 
ATOM     46  H   UNL A   1      45.388  27.177  27.319  1.00  0.00     0.167 HD
ATOM     47  C   UNL A   1      41.603  28.863  28.712  1.00  0.00     0.034 A 
ATOM     48  C   UNL A   1      48.104  27.252  26.625  1.00  0.00     0.034 A 
ATOM     49  C   UNL A   1      42.584  29.914  28.844  1.00  0.00     0.049 A 
ATOM     50  C   UNL A   1      47.754  28.637  27.105  1.00  0.00     0.074 A 
ATOM     51  C   UNL A   1      42.400  31.190  29.347  1.00  0.00     0.029 A 
ATOM     52  N   UNL A   1      43.917  29.825  28.468  1.00  0.00    -0.354 N 
ATOM     53  N   UNL A   1      46.611  29.081  27.575  1.00  0.00    -0.248 NA
ATOM     54  C   UNL A   1      48.817  29.651  27.069  1.00  0.00     0.031 C 
ATOM     55  C   UNL A   1      43.592  31.897  29.196  1.00  0.00     0.029 A 
ATOM     56  C   UNL A   1      44.554  31.036  28.688  1.00  0.00     0.049 A 
ATOM     57  H   UNL A   1      44.347  29.020  28.099  1.00  0.00     0.167 HD
ATOM     58  C   UNL A   1      46.824  30.414  27.912  1.00  0.00     0.074 A 
ATOM     59  C   UNL A   1      48.213  30.698  27.617  1.00  0.00     0.031 C 
ATOM     60  C   UNL A   1      45.944  31.319  28.411  1.00  0.00     0.034 A 
BRANCH  47  61
ATOM     61  C   UNL A   1      40.189  29.180  29.138  1.00  0.00     0.023 A 
ATOM     62  C   UNL A   1      39.829  29.121  30.499  1.00  0.00     0.031 A 
ATOM     63  C   UNL A   1      39.167  29.368  28.190  1.00  0.00     0.131 A 
ATOM     64  C   UNL A   1      38.480  29.198  30.868  1.00  0.00     0.055 A 
ATOM     65  C   UNL A   1      37.830  29.493  28.568  1.00  0.00     0.041 A 
ATOM     66  F   UNL A   1      39.454  29.422  26.879  1.00  0.00    -0.206 F 
ATOM     67  C   UNL A   1      37.480  29.391  29.911  1.00  0.00     0.022 A 
BRANCH  64  68
ATOM     68  S   UNL A   1      37.963  28.959  32.590  1.00  0.00     0.124 S 
ATOM     69  O   UNL A   1      36.596  29.477  32.566  1.00  0.00    -0.237 OA
ATOM     70  O   UNL A   1      38.077  27.512  32.745  1.00  0.00    -0.237 OA
ATOM     71  O   UNL A   1      38.915  29.755  33.356  1.00  0.00    -0.744 OA
ENDBRANCH  64  68
ENDBRANCH  47  61
BRANCH  48  72
ATOM     72  C   UNL A   1      49.483  26.889  26.186  1.00  0.00     0.023 A 
ATOM     73  C   UNL A   1      50.504  26.673  27.128  1.00  0.00     0.031 A 
ATOM     74  C   UNL A   1      49.827  26.873  24.824  1.00  0.00     0.131 A 
ATOM     75  C   UNL A   1      51.831  26.534  26.699  1.00  0.00     0.055 A 
ATOM     76  C   UNL A   1      51.138  26.651  24.398  1.00  0.00     0.041 A 
ATOM     77  F   UNL A   1      48.892  27.088  23.886  1.00  0.00    -0.206 F 
ATOM     78  C   UNL A   1      52.152  26.502  25.340  1.00  0.00     0.022 A 
BRANCH  75  79
ATOM     79  S   UNL A   1      53.197  26.542  27.894  1.00  0.00     0.124 S 
ATOM     80  O   UNL A   1      54.042  25.460  27.399  1.00  0.00    -0.237 OA
ATOM     81  O   UNL A   1      53.732  27.890  27.723  1.00  0.00    -0.237 OA
ATOM     82  O   UNL A   1      52.538  26.294  29.173  1.00  0.00    -0.744 OA
ENDBRANCH  75  79
ENDBRANCH  48  72
BRANCH  60  83
ATOM     83  C   UNL A   1      46.421  32.726  28.691  1.00  0.00     0.023 A 
ATOM     84  C   UNL A   1      46.462  33.675  27.650  1.00  0.00     0.031 A 
ATOM     85  C   UNL A   1      46.998  33.074  29.925  1.00  0.00     0.131 A 
ATOM     86  C   UNL A   1      47.122  34.896  27.841  1.00  0.00     0.055 A 
ATOM     87  C   UNL A   1      47.601  34.316  30.130  1.00  0.00     0.041 A 
ATOM     88  F   UNL A   1      46.996  32.203  30.947  1.00  0.00    -0.206 F 
ATOM     89  C   UNL A   1      47.682  35.226  29.079  1.00  0.00     0.022 A 
BRANCH  86  90
ATOM     90  S   UNL A   1      47.370  36.053  26.465  1.00  0.00     0.124 S 
ATOM     91  O   UNL A   1      46.131  36.825  26.490  1.00  0.00    -0.237 OA
ATOM     92  O   UNL A   1      48.565  36.779  26.889  1.00  0.00    -0.237 OA
ATOM     93  O   UNL A   1      47.540  35.188  25.303  1.00  0.00    -0.744 OA
ENDBRANCH  86  90
ENDBRANCH  60  83
ENDBRANCH  34  35
ENDBRANCH  27  29
ENDBRANCH  26  27
ENDBRANCH  25  26
ENDBRANCH   1  25
TORSDOF 19
ENDMDL
