MODEL 1
REMARK VINA RESULT:     -12.5      0.000      0.000
REMARK SMILES O=C(OCCOCCOC(=O)[C@H]1Cc2c([nH]c3ccccc23)[C@@H](c2ccc(OC(F)(F)F)cc2)[NH2+]1)c1ccc(-c2c3nc(c(-c4cc(S(=O)(=O)[O-])ccc4F)c4ccc([nH]4)c(-c4cc(S(=O)(=O)[O-])ccc4F)c4nc(c(-c5cc(S(=O)(=O)[O-])ccc5F)c5ccc2[nH]5)C=C4)C=C3)cc1
REMARK SMILES IDX 6 1 5 2 4 3 3 4 2 5 1 6 36 7 37 8 98 9 38 10 97 11 39 12
REMARK SMILES IDX 40 13 41 14 91 15 42 16 96 17 90 18 92 19 43 20 95 21 89 22
REMARK SMILES IDX 88 23 44 25 76 26 56 27 75 28 57 29 60 30 74 31 93 32 58 33
REMARK SMILES IDX 59 34 73 36 94 37 61 38 45 39 46 40 54 41 47 42 53 43 55 44
REMARK SMILES IDX 52 45 48 46 49 47 50 48 51 49 77 50 78 51 86 52 79 53 85 54
REMARK SMILES IDX 87 55 84 56 80 57 81 58 82 59 83 60 62 61 63 62 71 63 64 64
REMARK SMILES IDX 70 65 72 66 69 67 65 68 66 69 67 70 68 71 7 72 8 73 9 74
REMARK SMILES IDX 10 75 11 76 12 77 13 78 35 79 14 80 23 81 15 84 22 85 16 86
REMARK SMILES IDX 17 87 21 88 18 90 20 91 19 92 24 93 25 94 34 95 26 96 33 97
REMARK SMILES IDX 27 98 28 99 29 100 30 101 31 102 32 103
REMARK H PARENT 92 24 60 35 35 82 35 83 16 89
REMARK Flexibility Score: inf
ROOT
ATOM      1  O   UNL A   1      34.454  22.390  23.789  1.00  0.00    -0.374 OA
ENDROOT
BRANCH   1   2
ATOM      2  C   UNL A   1      35.558  22.604  24.671  1.00  0.00     0.202 C 
BRANCH   2   3
ATOM      3  C   UNL A   1      36.382  21.366  25.041  1.00  0.00     0.261 C 
BRANCH   3   4
ATOM      4  O   UNL A   1      37.782  21.630  24.836  1.00  0.00    -0.460 OA
BRANCH   4   5
ATOM      5  C   UNL A   1      38.783  21.573  25.747  1.00  0.00     0.338 C 
ATOM      6  O   UNL A   1      39.293  20.484  26.003  1.00  0.00    -0.246 OA
BRANCH   5   7
ATOM      7  C   UNL A   1      39.326  22.786  26.421  1.00  0.00     0.060 A 
ATOM      8  C   UNL A   1      38.857  24.078  26.203  1.00  0.00     0.016 A 
ATOM      9  C   UNL A   1      40.343  22.602  27.374  1.00  0.00     0.016 A 
ATOM     10  C   UNL A   1      39.448  25.172  26.799  1.00  0.00     0.010 A 
ATOM     11  C   UNL A   1      40.905  23.698  28.036  1.00  0.00     0.010 A 
ATOM     12  C   UNL A   1      40.475  24.989  27.718  1.00  0.00    -0.014 A 
BRANCH  12  13
ATOM     13  C   UNL A   1      41.137  26.213  28.195  1.00  0.00     0.031 A 
ATOM     14  C   UNL A   1      42.525  26.494  27.712  1.00  0.00     0.074 A 
ATOM     15  C   UNL A   1      40.397  27.138  28.836  1.00  0.00     0.049 A 
ATOM     16  N   UNL A   1      43.285  27.529  27.934  1.00  0.00    -0.248 NA
ATOM     17  C   UNL A   1      43.129  25.475  26.838  1.00  0.00     0.031 C 
ATOM     18  C   UNL A   1      38.979  26.983  29.178  1.00  0.00     0.029 A 
ATOM     19  N   UNL A   1      40.699  28.407  29.240  1.00  0.00    -0.354 N 
ATOM     20  C   UNL A   1      44.469  27.275  27.254  1.00  0.00     0.074 A 
ATOM     21  C   UNL A   1      44.327  25.988  26.612  1.00  0.00     0.031 C 
ATOM     22  C   UNL A   1      38.522  28.139  29.683  1.00  0.00     0.029 A 
ATOM     23  C   UNL A   1      39.629  29.079  29.785  1.00  0.00     0.049 A 
ATOM     24  H   UNL A   1      41.596  28.802  29.150  1.00  0.00     0.167 HD
ATOM     25  C   UNL A   1      45.578  28.052  27.192  1.00  0.00     0.034 A 
ATOM     26  C   UNL A   1      39.574  30.309  30.329  1.00  0.00     0.034 A 
ATOM     27  C   UNL A   1      45.670  29.321  27.869  1.00  0.00     0.049 A 
ATOM     28  C   UNL A   1      40.853  31.105  30.349  1.00  0.00     0.074 A 
ATOM     29  C   UNL A   1      46.758  30.162  28.005  1.00  0.00     0.029 A 
ATOM     30  N   UNL A   1      44.607  29.933  28.531  1.00  0.00    -0.354 N 
ATOM     31  N   UNL A   1      42.019  30.807  29.815  1.00  0.00    -0.248 NA
ATOM     32  C   UNL A   1      40.822  32.387  31.057  1.00  0.00     0.031 C 
ATOM     33  C   UNL A   1      46.369  31.250  28.798  1.00  0.00     0.029 A 
ATOM     34  C   UNL A   1      45.020  31.126  29.100  1.00  0.00     0.049 A 
ATOM     35  H   UNL A   1      43.694  29.570  28.587  1.00  0.00     0.167 HD
ATOM     36  C   UNL A   1      42.860  31.868  30.122  1.00  0.00     0.074 A 
ATOM     37  C   UNL A   1      42.055  32.827  30.858  1.00  0.00     0.031 C 
ATOM     38  C   UNL A   1      44.178  32.040  29.838  1.00  0.00     0.034 A 
BRANCH  25  39
ATOM     39  C   UNL A   1      46.776  27.460  26.492  1.00  0.00     0.023 A 
ATOM     40  C   UNL A   1      47.161  27.860  25.198  1.00  0.00     0.031 A 
ATOM     41  C   UNL A   1      47.458  26.378  27.075  1.00  0.00     0.131 A 
ATOM     42  C   UNL A   1      48.128  27.120  24.497  1.00  0.00     0.055 A 
ATOM     43  C   UNL A   1      48.477  25.699  26.403  1.00  0.00     0.041 A 
ATOM     44  F   UNL A   1      47.112  25.928  28.291  1.00  0.00    -0.206 F 
ATOM     45  C   UNL A   1      48.804  26.056  25.099  1.00  0.00     0.022 A 
BRANCH  42  46
ATOM     46  S   UNL A   1      48.361  27.448  22.724  1.00  0.00     0.124 S 
ATOM     47  O   UNL A   1      48.428  26.094  22.181  1.00  0.00    -0.237 OA
ATOM     48  O   UNL A   1      47.168  28.213  22.387  1.00  0.00    -0.237 OA
ATOM     49  O   UNL A   1      49.614  28.193  22.675  1.00  0.00    -0.744 OA
ENDBRANCH  42  46
ENDBRANCH  25  39
BRANCH  26  50
ATOM     50  C   UNL A   1      38.318  30.815  30.959  1.00  0.00     0.023 A 
ATOM     51  C   UNL A   1      37.327  31.468  30.207  1.00  0.00     0.031 A 
ATOM     52  C   UNL A   1      38.106  30.686  32.345  1.00  0.00     0.131 A 
ATOM     53  C   UNL A   1      36.191  31.992  30.848  1.00  0.00     0.055 A 
ATOM     54  C   UNL A   1      36.949  31.157  32.969  1.00  0.00     0.041 A 
ATOM     55  F   UNL A   1      39.022  30.083  33.121  1.00  0.00    -0.206 F 
ATOM     56  C   UNL A   1      35.988  31.827  32.221  1.00  0.00     0.022 A 
BRANCH  53  57
ATOM     57  S   UNL A   1      35.013  32.974  29.879  1.00  0.00     0.124 S 
ATOM     58  O   UNL A   1      34.106  33.460  30.914  1.00  0.00    -0.237 OA
ATOM     59  O   UNL A   1      35.883  33.973  29.266  1.00  0.00    -0.237 OA
ATOM     60  O   UNL A   1      34.437  32.001  28.954  1.00  0.00    -0.744 OA
ENDBRANCH  53  57
ENDBRANCH  26  50
BRANCH  38  61
ATOM     61  C   UNL A   1      44.793  33.328  30.314  1.00  0.00     0.023 A 
ATOM     62  C   UNL A   1      44.812  34.473  29.501  1.00  0.00     0.031 A 
ATOM     63  C   UNL A   1      45.390  33.398  31.584  1.00  0.00     0.131 A 
ATOM     64  C   UNL A   1      45.472  35.626  29.943  1.00  0.00     0.055 A 
ATOM     65  C   UNL A   1      45.993  34.566  32.042  1.00  0.00     0.041 A 
ATOM     66  F   UNL A   1      45.395  32.327  32.395  1.00  0.00    -0.206 F 
ATOM     67  C   UNL A   1      46.050  35.685  31.215  1.00  0.00     0.022 A 
BRANCH  64  68
ATOM     68  S   UNL A   1      45.647  37.018  28.796  1.00  0.00     0.124 S 
ATOM     69  O   UNL A   1      45.946  36.338  27.539  1.00  0.00    -0.237 OA
ATOM     70  O   UNL A   1      44.338  37.657  28.878  1.00  0.00    -0.237 OA
ATOM     71  O   UNL A   1      46.750  37.791  29.361  1.00  0.00    -0.744 OA
ENDBRANCH  64  68
ENDBRANCH  38  61
ENDBRANCH  12  13
ENDBRANCH   5   7
ENDBRANCH   4   5
ENDBRANCH   3   4
ENDBRANCH   2   3
ENDBRANCH   1   2
BRANCH   1  72
ATOM     72  C   UNL A   1      34.215  23.439  22.841  1.00  0.00     0.202 C 
BRANCH  72  73
ATOM     73  C   UNL A   1      32.716  23.587  22.593  1.00  0.00     0.261 C 
BRANCH  73  74
ATOM     74  O   UNL A   1      32.402  24.987  22.670  1.00  0.00    -0.459 OA
BRANCH  74  75
ATOM     75  C   UNL A   1      32.788  25.747  21.615  1.00  0.00     0.365 C 
ATOM     76  O   UNL A   1      33.302  25.309  20.591  1.00  0.00    -0.245 OA
BRANCH  75  77
ATOM     77  C   UNL A   1      32.545  27.248  21.841  1.00  0.00     0.298 C 
ATOM     78  C   UNL A   1      31.052  27.667  21.741  1.00  0.00     0.115 C 
ATOM     79  N   UNL A   1      33.356  27.732  22.992  1.00  0.00    -0.323 N 
ATOM     80  C   UNL A   1      30.724  28.776  22.655  1.00  0.00    -0.006 A 
ATOM     81  C   UNL A   1      32.641  28.139  24.203  1.00  0.00     0.262 C 
ATOM     82  H   UNL A   1      33.891  28.537  22.670  1.00  0.00     0.347 HD
ATOM     83  H   UNL A   1      33.906  26.922  23.277  1.00  0.00     0.347 HD
ATOM     84  C   UNL A   1      31.481  28.986  23.780  1.00  0.00     0.083 A 
ATOM     85  C   UNL A   1      29.669  29.717  22.635  1.00  0.00     0.003 A 
ATOM     86  N   UNL A   1      30.977  30.086  24.418  1.00  0.00    -0.353 N 
ATOM     87  C   UNL A   1      29.845  30.528  23.758  1.00  0.00     0.046 A 
ATOM     88  C   UNL A   1      28.576  29.951  21.779  1.00  0.00     0.010 A 
ATOM     89  H   UNL A   1      31.362  30.501  25.224  1.00  0.00     0.166 HD
ATOM     90  C   UNL A   1      28.966  31.574  24.064  1.00  0.00     0.026 A 
ATOM     91  C   UNL A   1      27.689  30.991  22.074  1.00  0.00     0.001 A 
ATOM     92  C   UNL A   1      27.885  31.789  23.200  1.00  0.00     0.002 A 
BRANCH  81  93
ATOM     93  C   UNL A   1      32.281  26.989  25.152  1.00  0.00     0.016 A 
ATOM     94  C   UNL A   1      33.211  25.995  25.505  1.00  0.00     0.014 A 
ATOM     95  C   UNL A   1      30.955  26.801  25.581  1.00  0.00     0.014 A 
ATOM     96  C   UNL A   1      32.822  24.848  26.205  1.00  0.00     0.047 A 
ATOM     97  C   UNL A   1      30.567  25.657  26.296  1.00  0.00     0.047 A 
ATOM     98  C   UNL A   1      31.493  24.657  26.580  1.00  0.00     0.129 A 
BRANCH  98  99
ATOM     99  O   UNL A   1      31.246  23.463  27.193  1.00  0.00    -0.406 OA
BRANCH  99 100
ATOM    100  C   UNL A   1      30.727  22.411  26.400  1.00  0.00     0.573 C 
ATOM    101  F   UNL A   1      30.596  22.794  25.113  1.00  0.00    -0.132 F 
ATOM    102  F   UNL A   1      31.502  21.306  26.468  1.00  0.00    -0.132 F 
ATOM    103  F   UNL A   1      29.501  22.083  26.868  1.00  0.00    -0.132 F 
ENDBRANCH  99 100
ENDBRANCH  98  99
ENDBRANCH  81  93
ENDBRANCH  75  77
ENDBRANCH  74  75
ENDBRANCH  73  74
ENDBRANCH  72  73
ENDBRANCH   1  72
TORSDOF 20
ENDMDL
MODEL 2
REMARK VINA RESULT:     -12.1      4.948      9.855
REMARK SMILES O=C(OCCOCCOC(=O)[C@H]1Cc2c([nH]c3ccccc23)[C@@H](c2ccc(OC(F)(F)F)cc2)[NH2+]1)c1ccc(-c2c3nc(c(-c4cc(S(=O)(=O)[O-])ccc4F)c4ccc([nH]4)c(-c4cc(S(=O)(=O)[O-])ccc4F)c4nc(c(-c5cc(S(=O)(=O)[O-])ccc5F)c5ccc2[nH]5)C=C4)C=C3)cc1
REMARK SMILES IDX 6 1 5 2 4 3 3 4 2 5 1 6 36 7 37 8 98 9 38 10 97 11 39 12
REMARK SMILES IDX 40 13 41 14 91 15 42 16 96 17 90 18 92 19 43 20 95 21 89 22
REMARK SMILES IDX 88 23 44 25 76 26 56 27 75 28 57 29 60 30 74 31 93 32 58 33
REMARK SMILES IDX 59 34 73 36 94 37 61 38 45 39 46 40 54 41 47 42 53 43 55 44
REMARK SMILES IDX 52 45 48 46 49 47 50 48 51 49 77 50 78 51 86 52 79 53 85 54
REMARK SMILES IDX 87 55 84 56 80 57 81 58 82 59 83 60 62 61 63 62 71 63 64 64
REMARK SMILES IDX 70 65 72 66 69 67 65 68 66 69 67 70 68 71 7 72 8 73 9 74
REMARK SMILES IDX 10 75 11 76 12 77 13 78 35 79 14 80 23 81 15 84 22 85 16 86
REMARK SMILES IDX 17 87 21 88 18 90 20 91 19 92 24 93 25 94 34 95 26 96 33 97
REMARK SMILES IDX 27 98 28 99 29 100 30 101 31 102 32 103
REMARK H PARENT 92 24 60 35 35 82 35 83 16 89
REMARK Flexibility Score: inf
ROOT
ATOM      1  O   UNL A   1      32.708  30.762  27.530  1.00  0.00    -0.374 OA
ENDROOT
BRANCH   1   2
ATOM      2  C   UNL A   1      31.975  31.969  27.311  1.00  0.00     0.202 C 
BRANCH   2   3
ATOM      3  C   UNL A   1      32.805  33.236  27.077  1.00  0.00     0.261 C 
BRANCH   3   4
ATOM      4  O   UNL A   1      32.541  34.194  28.119  1.00  0.00    -0.460 OA
BRANCH   4   5
ATOM      5  C   UNL A   1      33.330  34.524  29.169  1.00  0.00     0.338 C 
ATOM      6  O   UNL A   1      33.013  35.480  29.874  1.00  0.00    -0.246 OA
BRANCH   5   7
ATOM      7  C   UNL A   1      34.548  33.747  29.534  1.00  0.00     0.060 A 
ATOM      8  C   UNL A   1      34.533  32.581  30.294  1.00  0.00     0.016 A 
ATOM      9  C   UNL A   1      35.782  34.198  29.037  1.00  0.00     0.016 A 
ATOM     10  C   UNL A   1      35.698  31.945  30.665  1.00  0.00     0.010 A 
ATOM     11  C   UNL A   1      36.966  33.523  29.350  1.00  0.00     0.010 A 
ATOM     12  C   UNL A   1      36.921  32.411  30.197  1.00  0.00    -0.014 A 
BRANCH  12  13
ATOM     13  C   UNL A   1      38.115  31.759  30.756  1.00  0.00     0.031 A 
ATOM     14  C   UNL A   1      38.422  31.977  32.204  1.00  0.00     0.074 A 
ATOM     15  C   UNL A   1      38.735  30.814  30.023  1.00  0.00     0.049 A 
ATOM     16  N   UNL A   1      39.369  31.461  32.936  1.00  0.00    -0.248 NA
ATOM     17  C   UNL A   1      37.518  32.884  32.932  1.00  0.00     0.031 C 
ATOM     18  C   UNL A   1      38.360  30.438  28.655  1.00  0.00     0.029 A 
ATOM     19  N   UNL A   1      39.744  29.951  30.340  1.00  0.00    -0.354 N 
ATOM     20  C   UNL A   1      39.197  32.004  34.204  1.00  0.00     0.074 A 
ATOM     21  C   UNL A   1      38.055  32.888  34.140  1.00  0.00     0.031 C 
ATOM     22  C   UNL A   1      39.090  29.377  28.278  1.00  0.00     0.029 A 
ATOM     23  C   UNL A   1      40.040  29.059  29.335  1.00  0.00     0.049 A 
ATOM     24  H   UNL A   1      40.214  29.965  31.205  1.00  0.00     0.167 HD
ATOM     25  C   UNL A   1      39.945  31.785  35.312  1.00  0.00     0.034 A 
ATOM     26  C   UNL A   1      40.998  28.115  29.279  1.00  0.00     0.034 A 
ATOM     27  C   UNL A   1      41.086  30.904  35.312  1.00  0.00     0.049 A 
ATOM     28  C   UNL A   1      41.890  27.973  30.485  1.00  0.00     0.074 A 
ATOM     29  C   UNL A   1      42.012  30.674  36.310  1.00  0.00     0.029 A 
ATOM     30  N   UNL A   1      41.453  30.099  34.235  1.00  0.00    -0.354 N 
ATOM     31  N   UNL A   1      41.807  28.585  31.647  1.00  0.00    -0.248 NA
ATOM     32  C   UNL A   1      43.011  27.037  30.371  1.00  0.00     0.031 C 
ATOM     33  C   UNL A   1      42.969  29.777  35.817  1.00  0.00     0.029 A 
ATOM     34  C   UNL A   1      42.604  29.392  34.535  1.00  0.00     0.049 A 
ATOM     35  H   UNL A   1      40.963  30.042  33.382  1.00  0.00     0.167 HD
ATOM     36  C   UNL A   1      42.867  28.104  32.405  1.00  0.00     0.074 A 
ATOM     37  C   UNL A   1      43.551  27.127  31.577  1.00  0.00     0.031 C 
ATOM     38  C   UNL A   1      43.255  28.439  33.664  1.00  0.00     0.034 A 
BRANCH  25  39
ATOM     39  C   UNL A   1      39.613  32.620  36.524  1.00  0.00     0.023 A 
ATOM     40  C   UNL A   1      38.786  32.144  37.559  1.00  0.00     0.031 A 
ATOM     41  C   UNL A   1      40.016  33.966  36.573  1.00  0.00     0.131 A 
ATOM     42  C   UNL A   1      38.315  33.031  38.541  1.00  0.00     0.055 A 
ATOM     43  C   UNL A   1      39.610  34.822  37.598  1.00  0.00     0.041 A 
ATOM     44  F   UNL A   1      40.775  34.488  35.596  1.00  0.00    -0.206 F 
ATOM     45  C   UNL A   1      38.738  34.361  38.580  1.00  0.00     0.022 A 
BRANCH  42  46
ATOM     46  S   UNL A   1      36.993  32.472  39.658  1.00  0.00     0.124 S 
ATOM     47  O   UNL A   1      37.310  31.054  39.802  1.00  0.00    -0.237 OA
ATOM     48  O   UNL A   1      37.210  33.298  40.838  1.00  0.00    -0.237 OA
ATOM     49  O   UNL A   1      35.772  32.757  38.912  1.00  0.00    -0.744 OA
ENDBRANCH  42  46
ENDBRANCH  25  39
BRANCH  26  50
ATOM     50  C   UNL A   1      41.212  27.310  28.039  1.00  0.00     0.023 A 
ATOM     51  C   UNL A   1      40.903  25.941  27.985  1.00  0.00     0.031 A 
ATOM     52  C   UNL A   1      41.772  27.898  26.888  1.00  0.00     0.131 A 
ATOM     53  C   UNL A   1      41.184  25.204  26.822  1.00  0.00     0.055 A 
ATOM     54  C   UNL A   1      41.997  27.175  25.715  1.00  0.00     0.041 A 
ATOM     55  F   UNL A   1      42.102  29.200  26.880  1.00  0.00    -0.206 F 
ATOM     56  C   UNL A   1      41.714  25.815  25.682  1.00  0.00     0.022 A 
BRANCH  53  57
ATOM     57  S   UNL A   1      40.930  23.407  26.841  1.00  0.00     0.124 S 
ATOM     58  O   UNL A   1      41.831  22.966  25.782  1.00  0.00    -0.237 OA
ATOM     59  O   UNL A   1      41.321  23.060  28.203  1.00  0.00    -0.237 OA
ATOM     60  O   UNL A   1      39.506  23.261  26.547  1.00  0.00    -0.744 OA
ENDBRANCH  53  57
ENDBRANCH  26  50
BRANCH  38  61
ATOM     61  C   UNL A   1      44.458  27.711  34.200  1.00  0.00     0.023 A 
ATOM     62  C   UNL A   1      44.324  26.521  34.934  1.00  0.00     0.031 A 
ATOM     63  C   UNL A   1      45.746  28.232  33.995  1.00  0.00     0.131 A 
ATOM     64  C   UNL A   1      45.459  25.920  35.492  1.00  0.00     0.055 A 
ATOM     65  C   UNL A   1      46.877  27.597  34.503  1.00  0.00     0.041 A 
ATOM     66  F   UNL A   1      45.921  29.367  33.300  1.00  0.00    -0.206 F 
ATOM     67  C   UNL A   1      46.737  26.442  35.269  1.00  0.00     0.022 A 
BRANCH  64  68
ATOM     68  S   UNL A   1      45.234  24.498  36.594  1.00  0.00     0.124 S 
ATOM     69  O   UNL A   1      44.942  23.425  35.648  1.00  0.00    -0.237 OA
ATOM     70  O   UNL A   1      46.525  24.418  37.268  1.00  0.00    -0.237 OA
ATOM     71  O   UNL A   1      44.115  24.898  37.444  1.00  0.00    -0.744 OA
ENDBRANCH  64  68
ENDBRANCH  38  61
ENDBRANCH  12  13
ENDBRANCH   5   7
ENDBRANCH   4   5
ENDBRANCH   3   4
ENDBRANCH   2   3
ENDBRANCH   1   2
BRANCH   1  72
ATOM     72  C   UNL A   1      34.096  30.815  27.173  1.00  0.00     0.202 C 
BRANCH  72  73
ATOM     73  C   UNL A   1      34.704  29.416  27.239  1.00  0.00     0.261 C 
BRANCH  73  74
ATOM     74  O   UNL A   1      33.647  28.501  27.574  1.00  0.00    -0.459 OA
BRANCH  74  75
ATOM     75  C   UNL A   1      33.182  27.726  26.563  1.00  0.00     0.365 C 
ATOM     76  O   UNL A   1      33.839  26.866  25.985  1.00  0.00    -0.245 OA
BRANCH  75  77
ATOM     77  C   UNL A   1      31.730  28.055  26.180  1.00  0.00     0.298 C 
ATOM     78  C   UNL A   1      31.601  29.078  25.018  1.00  0.00     0.115 C 
ATOM     79  N   UNL A   1      30.915  26.810  26.140  1.00  0.00    -0.323 N 
ATOM     80  C   UNL A   1      30.421  28.816  24.174  1.00  0.00    -0.006 A 
ATOM     81  C   UNL A   1      30.428  26.357  24.836  1.00  0.00     0.262 C 
ATOM     82  H   UNL A   1      30.100  26.961  26.734  1.00  0.00     0.347 HD
ATOM     83  H   UNL A   1      31.553  26.075  26.447  1.00  0.00     0.347 HD
ATOM     84  C   UNL A   1      29.885  27.553  24.117  1.00  0.00     0.083 A 
ATOM     85  C   UNL A   1      29.697  29.657  23.300  1.00  0.00     0.003 A 
ATOM     86  N   UNL A   1      28.793  27.605  23.294  1.00  0.00    -0.353 N 
ATOM     87  C   UNL A   1      28.680  28.872  22.752  1.00  0.00     0.046 A 
ATOM     88  C   UNL A   1      29.812  31.005  22.911  1.00  0.00     0.010 A 
ATOM     89  H   UNL A   1      28.181  26.855  23.117  1.00  0.00     0.166 HD
ATOM     90  C   UNL A   1      27.764  29.384  21.824  1.00  0.00     0.026 A 
ATOM     91  C   UNL A   1      28.906  31.528  21.984  1.00  0.00     0.001 A 
ATOM     92  C   UNL A   1      27.899  30.727  21.451  1.00  0.00     0.002 A 
BRANCH  81  93
ATOM     93  C   UNL A   1      31.435  25.528  24.029  1.00  0.00     0.016 A 
ATOM     94  C   UNL A   1      31.709  24.183  24.335  1.00  0.00     0.014 A 
ATOM     95  C   UNL A   1      32.238  26.134  23.046  1.00  0.00     0.014 A 
ATOM     96  C   UNL A   1      32.766  23.498  23.727  1.00  0.00     0.047 A 
ATOM     97  C   UNL A   1      33.290  25.441  22.424  1.00  0.00     0.047 A 
ATOM     98  C   UNL A   1      33.581  24.129  22.789  1.00  0.00     0.129 A 
BRANCH  98  99
ATOM     99  O   UNL A   1      34.613  23.364  22.332  1.00  0.00    -0.406 OA
BRANCH  99 100
ATOM    100  C   UNL A   1      35.621  22.997  23.257  1.00  0.00     0.573 C 
ATOM    101  F   UNL A   1      36.767  22.676  22.622  1.00  0.00    -0.132 F 
ATOM    102  F   UNL A   1      35.858  23.980  24.153  1.00  0.00    -0.132 F 
ATOM    103  F   UNL A   1      35.202  21.908  23.942  1.00  0.00    -0.132 F 
ENDBRANCH  99 100
ENDBRANCH  98  99
ENDBRANCH  81  93
ENDBRANCH  75  77
ENDBRANCH  74  75
ENDBRANCH  73  74
ENDBRANCH  72  73
ENDBRANCH   1  72
TORSDOF 20
ENDMDL
MODEL 3
REMARK VINA RESULT:     -11.5      2.801      8.059
REMARK SMILES O=C(OCCOCCOC(=O)[C@H]1Cc2c([nH]c3ccccc23)[C@@H](c2ccc(OC(F)(F)F)cc2)[NH2+]1)c1ccc(-c2c3nc(c(-c4cc(S(=O)(=O)[O-])ccc4F)c4ccc([nH]4)c(-c4cc(S(=O)(=O)[O-])ccc4F)c4nc(c(-c5cc(S(=O)(=O)[O-])ccc5F)c5ccc2[nH]5)C=C4)C=C3)cc1
REMARK SMILES IDX 6 1 5 2 4 3 3 4 2 5 1 6 36 7 37 8 98 9 38 10 97 11 39 12
REMARK SMILES IDX 40 13 41 14 91 15 42 16 96 17 90 18 92 19 43 20 95 21 89 22
REMARK SMILES IDX 88 23 44 25 76 26 56 27 75 28 57 29 60 30 74 31 93 32 58 33
REMARK SMILES IDX 59 34 73 36 94 37 61 38 45 39 46 40 54 41 47 42 53 43 55 44
REMARK SMILES IDX 52 45 48 46 49 47 50 48 51 49 77 50 78 51 86 52 79 53 85 54
REMARK SMILES IDX 87 55 84 56 80 57 81 58 82 59 83 60 62 61 63 62 71 63 64 64
REMARK SMILES IDX 70 65 72 66 69 67 65 68 66 69 67 70 68 71 7 72 8 73 9 74
REMARK SMILES IDX 10 75 11 76 12 77 13 78 35 79 14 80 23 81 15 84 22 85 16 86
REMARK SMILES IDX 17 87 21 88 18 90 20 91 19 92 24 93 25 94 34 95 26 96 33 97
REMARK SMILES IDX 27 98 28 99 29 100 30 101 31 102 32 103
REMARK H PARENT 92 24 60 35 35 82 35 83 16 89
REMARK Flexibility Score: inf
ROOT
ATOM      1  O   UNL A   1      39.638  22.297  26.532  1.00  0.00    -0.374 OA
ENDROOT
BRANCH   1   2
ATOM      2  C   UNL A   1      40.637  21.525  27.202  1.00  0.00     0.202 C 
BRANCH   2   3
ATOM      3  C   UNL A   1      41.811  21.041  26.345  1.00  0.00     0.261 C 
BRANCH   3   4
ATOM      4  O   UNL A   1      42.148  22.042  25.366  1.00  0.00    -0.460 OA
BRANCH   4   5
ATOM      5  C   UNL A   1      43.197  22.899  25.377  1.00  0.00     0.338 C 
ATOM      6  O   UNL A   1      44.257  22.548  24.862  1.00  0.00    -0.246 OA
BRANCH   5   7
ATOM      7  C   UNL A   1      43.107  24.272  25.949  1.00  0.00     0.060 A 
ATOM      8  C   UNL A   1      42.817  25.412  25.206  1.00  0.00     0.016 A 
ATOM      9  C   UNL A   1      43.279  24.411  27.337  1.00  0.00     0.016 A 
ATOM     10  C   UNL A   1      42.822  26.667  25.776  1.00  0.00     0.010 A 
ATOM     11  C   UNL A   1      43.218  25.672  27.939  1.00  0.00     0.010 A 
ATOM     12  C   UNL A   1      43.023  26.806  27.143  1.00  0.00    -0.014 A 
BRANCH  12  13
ATOM     13  C   UNL A   1      43.151  28.185  27.639  1.00  0.00     0.031 A 
ATOM     14  C   UNL A   1      41.959  28.809  28.294  1.00  0.00     0.074 A 
ATOM     15  C   UNL A   1      44.378  28.733  27.707  1.00  0.00     0.049 A 
ATOM     16  N   UNL A   1      41.844  29.975  28.866  1.00  0.00    -0.248 NA
ATOM     17  C   UNL A   1      40.733  27.993  28.329  1.00  0.00     0.031 C 
ATOM     18  C   UNL A   1      45.610  28.087  27.237  1.00  0.00     0.029 A 
ATOM     19  N   UNL A   1      44.809  29.906  28.259  1.00  0.00    -0.354 N 
ATOM     20  C   UNL A   1      40.527  30.048  29.303  1.00  0.00     0.074 A 
ATOM     21  C   UNL A   1      39.883  28.809  28.929  1.00  0.00     0.031 C 
ATOM     22  C   UNL A   1      46.661  28.847  27.581  1.00  0.00     0.029 A 
ATOM     23  C   UNL A   1      46.174  30.069  28.208  1.00  0.00     0.049 A 
ATOM     24  H   UNL A   1      44.201  30.570  28.656  1.00  0.00     0.167 HD
ATOM     25  C   UNL A   1      39.918  31.074  29.945  1.00  0.00     0.034 A 
ATOM     26  C   UNL A   1      46.931  31.110  28.602  1.00  0.00     0.034 A 
ATOM     27  C   UNL A   1      40.608  32.295  30.276  1.00  0.00     0.049 A 
ATOM     28  C   UNL A   1      46.211  32.287  29.209  1.00  0.00     0.074 A 
ATOM     29  C   UNL A   1      40.104  33.466  30.810  1.00  0.00     0.029 A 
ATOM     30  N   UNL A   1      41.976  32.495  30.097  1.00  0.00    -0.354 N 
ATOM     31  N   UNL A   1      44.935  32.409  29.505  1.00  0.00    -0.248 NA
ATOM     32  C   UNL A   1      47.020  33.469  29.515  1.00  0.00     0.031 C 
ATOM     33  C   UNL A   1      41.154  34.390  30.898  1.00  0.00     0.029 A 
ATOM     34  C   UNL A   1      42.329  33.776  30.486  1.00  0.00     0.049 A 
ATOM     35  H   UNL A   1      42.602  31.821  29.745  1.00  0.00     0.167 HD
ATOM     36  C   UNL A   1      44.788  33.683  30.036  1.00  0.00     0.074 A 
ATOM     37  C   UNL A   1      46.114  34.274  30.050  1.00  0.00     0.031 C 
ATOM     38  C   UNL A   1      43.667  34.321  30.465  1.00  0.00     0.034 A 
BRANCH  25  39
ATOM     39  C   UNL A   1      38.433  30.937  30.176  1.00  0.00     0.023 A 
ATOM     40  C   UNL A   1      37.484  31.456  29.276  1.00  0.00     0.031 A 
ATOM     41  C   UNL A   1      37.965  30.402  31.389  1.00  0.00     0.131 A 
ATOM     42  C   UNL A   1      36.130  31.515  29.647  1.00  0.00     0.055 A 
ATOM     43  C   UNL A   1      36.608  30.389  31.715  1.00  0.00     0.041 A 
ATOM     44  F   UNL A   1      38.826  29.925  32.302  1.00  0.00    -0.206 F 
ATOM     45  C   UNL A   1      35.683  30.965  30.851  1.00  0.00     0.022 A 
BRANCH  42  46
ATOM     46  S   UNL A   1      34.986  32.486  28.620  1.00  0.00     0.124 S 
ATOM     47  O   UNL A   1      34.139  31.440  28.053  1.00  0.00    -0.237 OA
ATOM     48  O   UNL A   1      34.353  33.362  29.597  1.00  0.00    -0.237 OA
ATOM     49  O   UNL A   1      35.865  33.151  27.664  1.00  0.00    -0.744 OA
ENDBRANCH  42  46
ENDBRANCH  25  39
BRANCH  26  50
ATOM     50  C   UNL A   1      48.405  31.123  28.363  1.00  0.00     0.023 A 
ATOM     51  C   UNL A   1      48.980  31.889  27.335  1.00  0.00     0.031 A 
ATOM     52  C   UNL A   1      49.267  30.329  29.145  1.00  0.00     0.131 A 
ATOM     53  C   UNL A   1      50.364  31.820  27.099  1.00  0.00     0.055 A 
ATOM     54  C   UNL A   1      50.648  30.307  28.943  1.00  0.00     0.041 A 
ATOM     55  F   UNL A   1      48.778  29.564  30.135  1.00  0.00    -0.206 F 
ATOM     56  C   UNL A   1      51.203  31.047  27.906  1.00  0.00     0.022 A 
BRANCH  53  57
ATOM     57  S   UNL A   1      51.051  32.689  25.662  1.00  0.00     0.124 S 
ATOM     58  O   UNL A   1      52.249  33.301  26.227  1.00  0.00    -0.237 OA
ATOM     59  O   UNL A   1      51.271  31.593  24.723  1.00  0.00    -0.237 OA
ATOM     60  O   UNL A   1      49.991  33.623  25.289  1.00  0.00    -0.744 OA
ENDBRANCH  53  57
ENDBRANCH  26  50
BRANCH  38  61
ATOM     61  C   UNL A   1      43.863  35.713  31.000  1.00  0.00     0.023 A 
ATOM     62  C   UNL A   1      43.808  36.834  30.155  1.00  0.00     0.031 A 
ATOM     63  C   UNL A   1      44.133  35.914  32.364  1.00  0.00     0.131 A 
ATOM     64  C   UNL A   1      44.082  38.107  30.673  1.00  0.00     0.055 A 
ATOM     65  C   UNL A   1      44.346  37.188  32.884  1.00  0.00     0.041 A 
ATOM     66  F   UNL A   1      44.194  34.872  33.208  1.00  0.00    -0.206 F 
ATOM     67  C   UNL A   1      44.337  38.292  32.035  1.00  0.00     0.022 A 
BRANCH  64  68
ATOM     68  S   UNL A   1      44.196  39.504  29.524  1.00  0.00     0.124 S 
ATOM     69  O   UNL A   1      43.269  40.462  30.120  1.00  0.00    -0.237 OA
ATOM     70  O   UNL A   1      45.610  39.855  29.599  1.00  0.00    -0.237 OA
ATOM     71  O   UNL A   1      43.766  38.935  28.249  1.00  0.00    -0.744 OA
ENDBRANCH  64  68
ENDBRANCH  38  61
ENDBRANCH  12  13
ENDBRANCH   5   7
ENDBRANCH   4   5
ENDBRANCH   3   4
ENDBRANCH   2   3
ENDBRANCH   1   2
BRANCH   1  72
ATOM     72  C   UNL A   1      39.407  23.604  27.076  1.00  0.00     0.202 C 
BRANCH  72  73
ATOM     73  C   UNL A   1      38.260  24.283  26.330  1.00  0.00     0.261 C 
BRANCH  73  74
ATOM     74  O   UNL A   1      37.341  23.256  25.926  1.00  0.00    -0.459 OA
BRANCH  74  75
ATOM     75  C   UNL A   1      36.489  23.576  24.920  1.00  0.00     0.365 C 
ATOM     76  O   UNL A   1      36.642  23.252  23.747  1.00  0.00    -0.245 OA
BRANCH  75  77
ATOM     77  C   UNL A   1      35.301  24.429  25.394  1.00  0.00     0.298 C 
ATOM     78  C   UNL A   1      34.471  25.052  24.239  1.00  0.00     0.115 C 
ATOM     79  N   UNL A   1      34.590  23.744  26.508  1.00  0.00    -0.323 N 
ATOM     80  C   UNL A   1      33.040  25.159  24.577  1.00  0.00    -0.006 A 
ATOM     81  C   UNL A   1      33.237  23.247  26.248  1.00  0.00     0.262 C 
ATOM     82  H   UNL A   1      34.527  24.405  27.282  1.00  0.00     0.347 HD
ATOM     83  H   UNL A   1      35.142  22.905  26.690  1.00  0.00     0.347 HD
ATOM     84  C   UNL A   1      32.493  24.324  25.520  1.00  0.00     0.083 A 
ATOM     85  C   UNL A   1      32.018  25.979  24.050  1.00  0.00     0.003 A 
ATOM     86  N   UNL A   1      31.174  24.662  25.655  1.00  0.00    -0.353 N 
ATOM     87  C   UNL A   1      30.850  25.645  24.739  1.00  0.00     0.046 A 
ATOM     88  C   UNL A   1      31.968  26.965  23.046  1.00  0.00     0.010 A 
ATOM     89  H   UNL A   1      30.551  24.265  26.306  1.00  0.00     0.166 HD
ATOM     90  C   UNL A   1      29.623  26.262  24.465  1.00  0.00     0.026 A 
ATOM     91  C   UNL A   1      30.749  27.587  22.760  1.00  0.00     0.001 A 
ATOM     92  C   UNL A   1      29.596  27.239  23.462  1.00  0.00     0.002 A 
BRANCH  81  93
ATOM     93  C   UNL A   1      33.179  21.868  25.580  1.00  0.00     0.016 A 
ATOM     94  C   UNL A   1      32.815  21.707  24.231  1.00  0.00     0.014 A 
ATOM     95  C   UNL A   1      33.340  20.695  26.339  1.00  0.00     0.014 A 
ATOM     96  C   UNL A   1      32.571  20.442  23.687  1.00  0.00     0.047 A 
ATOM     97  C   UNL A   1      33.110  19.423  25.789  1.00  0.00     0.047 A 
ATOM     98  C   UNL A   1      32.689  19.294  24.468  1.00  0.00     0.129 A 
BRANCH  98  99
ATOM     99  O   UNL A   1      32.353  18.138  23.827  1.00  0.00    -0.406 OA
BRANCH  99 100
ATOM    100  C   UNL A   1      33.406  17.297  23.389  1.00  0.00     0.573 C 
ATOM    101  F   UNL A   1      34.599  17.747  23.831  1.00  0.00    -0.132 F 
ATOM    102  F   UNL A   1      33.224  16.020  23.791  1.00  0.00    -0.132 F 
ATOM    103  F   UNL A   1      33.429  17.304  22.037  1.00  0.00    -0.132 F 
ENDBRANCH  99 100
ENDBRANCH  98  99
ENDBRANCH  81  93
ENDBRANCH  75  77
ENDBRANCH  74  75
ENDBRANCH  73  74
ENDBRANCH  72  73
ENDBRANCH   1  72
TORSDOF 20
ENDMDL
