MODEL 1
REMARK VINA RESULT:     -11.8      0.000      0.000
REMARK SMILES O=C(OCCOCCOC(=O)[C@@H]1CCCC[C@@H]1NS(=O)(=O)c1ccc2ccccc2c1)c1ccc(-c2c3nc(c(-c4cc(S(=O)(=O)[O-])ccc4F)c4ccc([nH]4)c(-c4cc(S(=O)(=O)[O-])ccc4F)c4nc(c(-c5cc(S(=O)(=O)[O-])ccc5F)c5ccc2[nH]5)C=C4)C=C3)cc1
REMARK SMILES IDX 6 1 5 2 4 3 3 4 2 5 1 6 32 7 33 8 94 9 34 10 93 11 35 12
REMARK SMILES IDX 36 13 37 14 87 15 38 16 92 17 86 18 88 19 39 20 91 21 85 22
REMARK SMILES IDX 84 23 40 25 72 26 52 27 71 28 53 29 56 30 70 31 89 32 54 33
REMARK SMILES IDX 55 34 69 36 90 37 57 38 41 39 42 40 50 41 43 42 49 43 51 44
REMARK SMILES IDX 48 45 44 46 45 47 46 48 47 49 73 50 74 51 82 52 75 53 81 54
REMARK SMILES IDX 83 55 80 56 76 57 77 58 78 59 79 60 58 61 59 62 67 63 60 64
REMARK SMILES IDX 66 65 68 66 65 67 61 68 62 69 63 70 64 71 7 72 8 73 9 74
REMARK SMILES IDX 10 75 11 76 12 77 13 78 17 79 14 80 16 81 15 82 18 83 19 85
REMARK SMILES IDX 20 86 21 87 22 88 23 89 31 90 24 91 30 92 25 93 29 94 26 95
REMARK SMILES IDX 28 96 27 97
REMARK H PARENT 88 24 56 35 18 84
REMARK Flexibility Score: inf
ROOT
ATOM      1  O   UNL A   1      31.554  27.864  26.794  1.00  0.00    -0.374 OA
ENDROOT
BRANCH   1   2
ATOM      2  C   UNL A   1      31.765  29.145  26.191  1.00  0.00     0.202 C 
BRANCH   2   3
ATOM      3  C   UNL A   1      33.089  29.916  26.344  1.00  0.00     0.261 C 
BRANCH   3   4
ATOM      4  O   UNL A   1      33.153  30.789  27.488  1.00  0.00    -0.460 OA
BRANCH   4   5
ATOM      5  C   UNL A   1      34.094  31.754  27.731  1.00  0.00     0.338 C 
ATOM      6  O   UNL A   1      33.892  32.915  27.386  1.00  0.00    -0.246 OA
BRANCH   5   7
ATOM      7  C   UNL A   1      35.391  31.390  28.348  1.00  0.00     0.060 A 
ATOM      8  C   UNL A   1      35.573  30.148  28.932  1.00  0.00     0.016 A 
ATOM      9  C   UNL A   1      36.475  32.268  28.313  1.00  0.00     0.016 A 
ATOM     10  C   UNL A   1      36.651  29.844  29.693  1.00  0.00     0.010 A 
ATOM     11  C   UNL A   1      37.669  31.909  28.938  1.00  0.00     0.010 A 
ATOM     12  C   UNL A   1      37.729  30.698  29.632  1.00  0.00    -0.014 A 
BRANCH  12  13
ATOM     13  C   UNL A   1      38.907  30.163  30.287  1.00  0.00     0.031 A 
ATOM     14  C   UNL A   1      39.779  29.256  29.505  1.00  0.00     0.074 A 
ATOM     15  C   UNL A   1      39.253  30.745  31.447  1.00  0.00     0.049 A 
ATOM     16  N   UNL A   1      40.829  28.604  29.893  1.00  0.00    -0.248 NA
ATOM     17  C   UNL A   1      39.423  29.066  28.089  1.00  0.00     0.031 C 
ATOM     18  C   UNL A   1      38.506  31.839  32.098  1.00  0.00     0.029 A 
ATOM     19  N   UNL A   1      40.332  30.563  32.250  1.00  0.00    -0.354 N 
ATOM     20  C   UNL A   1      41.227  27.862  28.792  1.00  0.00     0.074 A 
ATOM     21  C   UNL A   1      40.316  28.166  27.711  1.00  0.00     0.031 C 
ATOM     22  C   UNL A   1      39.163  32.227  33.198  1.00  0.00     0.029 A 
ATOM     23  C   UNL A   1      40.292  31.333  33.386  1.00  0.00     0.049 A 
ATOM     24  H   UNL A   1      41.068  29.943  32.040  1.00  0.00     0.167 HD
ATOM     25  C   UNL A   1      42.259  26.989  28.745  1.00  0.00     0.034 A 
ATOM     26  C   UNL A   1      41.048  31.243  34.490  1.00  0.00     0.034 A 
ATOM     27  C   UNL A   1      43.105  26.775  29.894  1.00  0.00     0.049 A 
ATOM     28  C   UNL A   1      42.115  30.188  34.460  1.00  0.00     0.074 A 
ATOM     29  C   UNL A   1      44.140  25.879  30.064  1.00  0.00     0.029 A 
ATOM     30  N   UNL A   1      42.999  27.495  31.088  1.00  0.00    -0.354 N 
ATOM     31  N   UNL A   1      42.418  29.357  33.483  1.00  0.00    -0.248 NA
ATOM     32  C   UNL A   1      42.935  30.044  35.660  1.00  0.00     0.031 C 
ATOM     33  C   UNL A   1      44.614  26.015  31.375  1.00  0.00     0.029 A 
ATOM     34  C   UNL A   1      43.937  27.056  32.002  1.00  0.00     0.049 A 
ATOM     35  H   UNL A   1      42.347  28.215  31.254  1.00  0.00     0.167 HD
ATOM     36  C   UNL A   1      43.484  28.601  33.940  1.00  0.00     0.074 A 
ATOM     37  C   UNL A   1      43.775  29.093  35.279  1.00  0.00     0.031 C 
ATOM     38  C   UNL A   1      44.165  27.598  33.326  1.00  0.00     0.034 A 
BRANCH  25  39
ATOM     39  C   UNL A   1      42.394  26.156  27.496  1.00  0.00     0.023 A 
ATOM     40  C   UNL A   1      41.868  24.854  27.403  1.00  0.00     0.031 A 
ATOM     41  C   UNL A   1      43.180  26.620  26.427  1.00  0.00     0.131 A 
ATOM     42  C   UNL A   1      42.221  24.031  26.321  1.00  0.00     0.055 A 
ATOM     43  C   UNL A   1      43.446  25.830  25.306  1.00  0.00     0.041 A 
ATOM     44  F   UNL A   1      43.747  27.835  26.472  1.00  0.00    -0.206 F 
ATOM     45  C   UNL A   1      42.984  24.518  25.259  1.00  0.00     0.022 A 
BRANCH  42  46
ATOM     46  S   UNL A   1      41.843  22.258  26.428  1.00  0.00     0.124 S 
ATOM     47  O   UNL A   1      42.580  21.731  25.281  1.00  0.00    -0.237 OA
ATOM     48  O   UNL A   1      42.367  21.902  27.741  1.00  0.00    -0.237 OA
ATOM     49  O   UNL A   1      40.388  22.209  26.300  1.00  0.00    -0.744 OA
ENDBRANCH  42  46
ENDBRANCH  25  39
BRANCH  26  50
ATOM     50  C   UNL A   1      40.748  32.085  35.679  1.00  0.00     0.023 A 
ATOM     51  C   UNL A   1      39.577  31.899  36.422  1.00  0.00     0.031 A 
ATOM     52  C   UNL A   1      41.646  33.086  36.106  1.00  0.00     0.131 A 
ATOM     53  C   UNL A   1      39.318  32.717  37.533  1.00  0.00     0.055 A 
ATOM     54  C   UNL A   1      41.410  33.859  37.244  1.00  0.00     0.041 A 
ATOM     55  F   UNL A   1      42.789  33.307  35.437  1.00  0.00    -0.206 F 
ATOM     56  C   UNL A   1      40.232  33.684  37.959  1.00  0.00     0.022 A 
BRANCH  53  57
ATOM     57  S   UNL A   1      37.721  32.548  38.374  1.00  0.00     0.124 S 
ATOM     58  O   UNL A   1      37.918  33.379  39.556  1.00  0.00    -0.237 OA
ATOM     59  O   UNL A   1      36.797  33.066  37.371  1.00  0.00    -0.237 OA
ATOM     60  O   UNL A   1      37.622  31.112  38.629  1.00  0.00    -0.744 OA
ENDBRANCH  53  57
ENDBRANCH  26  50
BRANCH  38  61
ATOM     61  C   UNL A   1      45.322  27.031  34.097  1.00  0.00     0.023 A 
ATOM     62  C   UNL A   1      45.176  25.898  34.910  1.00  0.00     0.031 A 
ATOM     63  C   UNL A   1      46.582  27.645  34.012  1.00  0.00     0.131 A 
ATOM     64  C   UNL A   1      46.267  25.447  35.662  1.00  0.00     0.055 A 
ATOM     65  C   UNL A   1      47.683  27.144  34.702  1.00  0.00     0.041 A 
ATOM     66  F   UNL A   1      46.763  28.736  33.249  1.00  0.00    -0.206 F 
ATOM     67  C   UNL A   1      47.525  26.047  35.545  1.00  0.00     0.022 A 
BRANCH  64  68
ATOM     68  S   UNL A   1      45.988  24.135  36.878  1.00  0.00     0.124 S 
ATOM     69  O   UNL A   1      45.998  24.881  38.132  1.00  0.00    -0.237 OA
ATOM     70  O   UNL A   1      44.696  23.596  36.466  1.00  0.00    -0.237 OA
ATOM     71  O   UNL A   1      47.126  23.240  36.679  1.00  0.00    -0.744 OA
ENDBRANCH  64  68
ENDBRANCH  38  61
ENDBRANCH  12  13
ENDBRANCH   5   7
ENDBRANCH   4   5
ENDBRANCH   3   4
ENDBRANCH   2   3
ENDBRANCH   1   2
BRANCH   1  72
ATOM     72  C   UNL A   1      32.160  26.670  26.309  1.00  0.00     0.202 C 
BRANCH  72  73
ATOM     73  C   UNL A   1      31.307  25.414  26.305  1.00  0.00     0.261 C 
BRANCH  73  74
ATOM     74  O   UNL A   1      30.012  25.706  25.767  1.00  0.00    -0.463 OA
BRANCH  74  75
ATOM     75  C   UNL A   1      30.024  25.729  24.416  1.00  0.00     0.310 C 
ATOM     76  O   UNL A   1      30.158  24.745  23.693  1.00  0.00    -0.252 OA
BRANCH  75  77
ATOM     77  C   UNL A   1      29.964  27.113  23.837  1.00  0.00     0.117 C 
ATOM     78  C   UNL A   1      28.491  27.255  23.453  1.00  0.00     0.017 C 
ATOM     79  C   UNL A   1      31.034  27.713  22.854  1.00  0.00     0.084 C 
ATOM     80  C   UNL A   1      28.157  28.695  23.157  1.00  0.00     0.001 C 
ATOM     81  C   UNL A   1      30.530  29.118  22.451  1.00  0.00     0.021 C 
ATOM     82  C   UNL A   1      29.057  29.176  22.034  1.00  0.00     0.002 C 
BRANCH  79  83
ATOM     83  N   UNL A   1      31.425  26.879  21.689  1.00  0.00    -0.207 NA
ATOM     84  H   UNL A   1      31.222  27.461  20.876  1.00  0.00     0.141 HD
BRANCH  83  85
ATOM     85  S   UNL A   1      32.954  26.187  21.358  1.00  0.00     0.240 S 
ATOM     86  O   UNL A   1      32.826  25.656  20.022  1.00  0.00    -0.207 OA
ATOM     87  O   UNL A   1      33.994  27.158  21.646  1.00  0.00    -0.207 OA
BRANCH  85  88
ATOM     88  C   UNL A   1      33.265  24.794  22.449  1.00  0.00     0.083 A 
ATOM     89  C   UNL A   1      34.047  24.944  23.596  1.00  0.00     0.022 A 
ATOM     90  C   UNL A   1      32.799  23.511  22.107  1.00  0.00     0.030 A 
ATOM     91  C   UNL A   1      34.185  23.868  24.494  1.00  0.00     0.010 A 
ATOM     92  C   UNL A   1      32.927  22.422  23.006  1.00  0.00    -0.017 A 
ATOM     93  C   UNL A   1      33.574  22.624  24.244  1.00  0.00    -0.018 A 
ATOM     94  C   UNL A   1      32.350  21.163  22.742  1.00  0.00     0.009 A 
ATOM     95  C   UNL A   1      33.556  21.595  25.209  1.00  0.00     0.009 A 
ATOM     96  C   UNL A   1      32.339  20.152  23.710  1.00  0.00     0.001 A 
ATOM     97  C   UNL A   1      32.922  20.377  24.952  1.00  0.00     0.001 A 
ENDBRANCH  85  88
ENDBRANCH  83  85
ENDBRANCH  79  83
ENDBRANCH  75  77
ENDBRANCH  74  75
ENDBRANCH  73  74
ENDBRANCH  72  73
ENDBRANCH   1  72
TORSDOF 20
ENDMDL
MODEL 2
REMARK VINA RESULT:     -11.5      1.945      8.306
REMARK SMILES O=C(OCCOCCOC(=O)[C@@H]1CCCC[C@@H]1NS(=O)(=O)c1ccc2ccccc2c1)c1ccc(-c2c3nc(c(-c4cc(S(=O)(=O)[O-])ccc4F)c4ccc([nH]4)c(-c4cc(S(=O)(=O)[O-])ccc4F)c4nc(c(-c5cc(S(=O)(=O)[O-])ccc5F)c5ccc2[nH]5)C=C4)C=C3)cc1
REMARK SMILES IDX 6 1 5 2 4 3 3 4 2 5 1 6 32 7 33 8 94 9 34 10 93 11 35 12
REMARK SMILES IDX 36 13 37 14 87 15 38 16 92 17 86 18 88 19 39 20 91 21 85 22
REMARK SMILES IDX 84 23 40 25 72 26 52 27 71 28 53 29 56 30 70 31 89 32 54 33
REMARK SMILES IDX 55 34 69 36 90 37 57 38 41 39 42 40 50 41 43 42 49 43 51 44
REMARK SMILES IDX 48 45 44 46 45 47 46 48 47 49 73 50 74 51 82 52 75 53 81 54
REMARK SMILES IDX 83 55 80 56 76 57 77 58 78 59 79 60 58 61 59 62 67 63 60 64
REMARK SMILES IDX 66 65 68 66 65 67 61 68 62 69 63 70 64 71 7 72 8 73 9 74
REMARK SMILES IDX 10 75 11 76 12 77 13 78 17 79 14 80 16 81 15 82 18 83 19 85
REMARK SMILES IDX 20 86 21 87 22 88 23 89 31 90 24 91 30 92 25 93 29 94 26 95
REMARK SMILES IDX 28 96 27 97
REMARK H PARENT 88 24 56 35 18 84
REMARK Flexibility Score: inf
ROOT
ATOM      1  O   UNL A   1      32.230  29.887  26.245  1.00  0.00    -0.374 OA
ENDROOT
BRANCH   1   2
ATOM      2  C   UNL A   1      32.679  31.007  27.015  1.00  0.00     0.202 C 
BRANCH   2   3
ATOM      3  C   UNL A   1      31.913  32.342  27.047  1.00  0.00     0.261 C 
BRANCH   3   4
ATOM      4  O   UNL A   1      32.738  33.510  27.213  1.00  0.00    -0.460 OA
BRANCH   4   5
ATOM      5  C   UNL A   1      33.228  34.005  28.391  1.00  0.00     0.338 C 
ATOM      6  O   UNL A   1      32.677  34.955  28.940  1.00  0.00    -0.246 OA
BRANCH   5   7
ATOM      7  C   UNL A   1      34.468  33.443  28.977  1.00  0.00     0.060 A 
ATOM      8  C   UNL A   1      34.425  32.306  29.765  1.00  0.00     0.016 A 
ATOM      9  C   UNL A   1      35.713  34.013  28.708  1.00  0.00     0.016 A 
ATOM     10  C   UNL A   1      35.482  31.877  30.495  1.00  0.00     0.010 A 
ATOM     11  C   UNL A   1      36.855  33.481  29.306  1.00  0.00     0.010 A 
ATOM     12  C   UNL A   1      36.713  32.422  30.206  1.00  0.00    -0.014 A 
BRANCH  12  13
ATOM     13  C   UNL A   1      37.803  31.730  30.867  1.00  0.00     0.031 A 
ATOM     14  C   UNL A   1      37.991  31.965  32.316  1.00  0.00     0.074 A 
ATOM     15  C   UNL A   1      38.374  30.732  30.172  1.00  0.00     0.049 A 
ATOM     16  N   UNL A   1      38.928  31.525  33.096  1.00  0.00    -0.248 NA
ATOM     17  C   UNL A   1      36.980  32.805  32.980  1.00  0.00     0.031 C 
ATOM     18  C   UNL A   1      37.999  30.333  28.802  1.00  0.00     0.029 A 
ATOM     19  N   UNL A   1      39.328  29.833  30.524  1.00  0.00    -0.354 N 
ATOM     20  C   UNL A   1      38.669  32.090  34.335  1.00  0.00     0.074 A 
ATOM     21  C   UNL A   1      37.469  32.887  34.207  1.00  0.00     0.031 C 
ATOM     22  C   UNL A   1      38.718  29.264  28.442  1.00  0.00     0.029 A 
ATOM     23  C   UNL A   1      39.676  28.990  29.497  1.00  0.00     0.049 A 
ATOM     24  H   UNL A   1      39.730  29.789  31.422  1.00  0.00     0.167 HD
ATOM     25  C   UNL A   1      39.418  31.948  35.452  1.00  0.00     0.034 A 
ATOM     26  C   UNL A   1      40.723  28.156  29.412  1.00  0.00     0.034 A 
ATOM     27  C   UNL A   1      40.597  31.115  35.457  1.00  0.00     0.049 A 
ATOM     28  C   UNL A   1      41.607  28.100  30.623  1.00  0.00     0.074 A 
ATOM     29  C   UNL A   1      41.522  30.914  36.460  1.00  0.00     0.029 A 
ATOM     30  N   UNL A   1      41.004  30.331  34.373  1.00  0.00    -0.354 N 
ATOM     31  N   UNL A   1      41.475  28.747  31.764  1.00  0.00    -0.248 NA
ATOM     32  C   UNL A   1      42.774  27.224  30.549  1.00  0.00     0.031 C 
ATOM     33  C   UNL A   1      42.516  30.062  35.962  1.00  0.00     0.029 A 
ATOM     34  C   UNL A   1      42.171  29.658  34.677  1.00  0.00     0.049 A 
ATOM     35  H   UNL A   1      40.526  30.268  33.515  1.00  0.00     0.167 HD
ATOM     36  C   UNL A   1      42.532  28.339  32.560  1.00  0.00     0.074 A 
ATOM     37  C   UNL A   1      43.281  27.377  31.764  1.00  0.00     0.031 C 
ATOM     38  C   UNL A   1      42.863  28.713  33.824  1.00  0.00     0.034 A 
BRANCH  25  39
ATOM     39  C   UNL A   1      39.048  32.803  36.637  1.00  0.00     0.023 A 
ATOM     40  C   UNL A   1      39.655  34.048  36.882  1.00  0.00     0.031 A 
ATOM     41  C   UNL A   1      38.169  32.302  37.613  1.00  0.00     0.131 A 
ATOM     42  C   UNL A   1      39.458  34.694  38.114  1.00  0.00     0.055 A 
ATOM     43  C   UNL A   1      37.900  32.998  38.794  1.00  0.00     0.041 A 
ATOM     44  F   UNL A   1      37.591  31.100  37.462  1.00  0.00    -0.206 F 
ATOM     45  C   UNL A   1      38.564  34.192  39.061  1.00  0.00     0.022 A 
BRANCH  42  46
ATOM     46  S   UNL A   1      40.544  36.085  38.541  1.00  0.00     0.124 S 
ATOM     47  O   UNL A   1      40.301  37.000  37.426  1.00  0.00    -0.237 OA
ATOM     48  O   UNL A   1      40.024  36.506  39.836  1.00  0.00    -0.237 OA
ATOM     49  O   UNL A   1      41.876  35.486  38.565  1.00  0.00    -0.744 OA
ENDBRANCH  42  46
ENDBRANCH  25  39
BRANCH  26  50
ATOM     50  C   UNL A   1      41.006  27.430  28.145  1.00  0.00     0.023 A 
ATOM     51  C   UNL A   1      40.799  26.050  28.037  1.00  0.00     0.031 A 
ATOM     52  C   UNL A   1      41.476  28.116  27.004  1.00  0.00     0.131 A 
ATOM     53  C   UNL A   1      41.086  25.393  26.830  1.00  0.00     0.055 A 
ATOM     54  C   UNL A   1      41.707  27.467  25.791  1.00  0.00     0.041 A 
ATOM     55  F   UNL A   1      41.688  29.441  27.045  1.00  0.00    -0.206 F 
ATOM     56  C   UNL A   1      41.523  26.093  25.703  1.00  0.00     0.022 A 
BRANCH  53  57
ATOM     57  S   UNL A   1      40.952  23.587  26.780  1.00  0.00     0.124 S 
ATOM     58  O   UNL A   1      41.921  23.246  25.745  1.00  0.00    -0.237 OA
ATOM     59  O   UNL A   1      41.314  23.220  28.145  1.00  0.00    -0.237 OA
ATOM     60  O   UNL A   1      39.553  23.360  26.425  1.00  0.00    -0.744 OA
ENDBRANCH  53  57
ENDBRANCH  26  50
BRANCH  38  61
ATOM     61  C   UNL A   1      44.054  28.016  34.416  1.00  0.00     0.023 A 
ATOM     62  C   UNL A   1      43.925  26.799  35.101  1.00  0.00     0.031 A 
ATOM     63  C   UNL A   1      45.330  28.589  34.290  1.00  0.00     0.131 A 
ATOM     64  C   UNL A   1      45.054  26.221  35.693  1.00  0.00     0.055 A 
ATOM     65  C   UNL A   1      46.461  27.968  34.814  1.00  0.00     0.041 A 
ATOM     66  F   UNL A   1      45.496  29.756  33.646  1.00  0.00    -0.206 F 
ATOM     67  C   UNL A   1      46.324  26.784  35.533  1.00  0.00     0.022 A 
BRANCH  64  68
ATOM     68  S   UNL A   1      44.819  24.782  36.767  1.00  0.00     0.124 S 
ATOM     69  O   UNL A   1      46.151  24.616  37.341  1.00  0.00    -0.237 OA
ATOM     70  O   UNL A   1      43.782  25.244  37.684  1.00  0.00    -0.237 OA
ATOM     71  O   UNL A   1      44.406  23.730  35.842  1.00  0.00    -0.744 OA
ENDBRANCH  64  68
ENDBRANCH  38  61
ENDBRANCH  12  13
ENDBRANCH   5   7
ENDBRANCH   4   5
ENDBRANCH   3   4
ENDBRANCH   2   3
ENDBRANCH   1   2
BRANCH   1  72
ATOM     72  C   UNL A   1      31.890  28.632  26.828  1.00  0.00     0.202 C 
BRANCH  72  73
ATOM     73  C   UNL A   1      32.838  27.474  26.575  1.00  0.00     0.261 C 
BRANCH  73  74
ATOM     74  O   UNL A   1      32.264  26.572  25.622  1.00  0.00    -0.463 OA
BRANCH  74  75
ATOM     75  C   UNL A   1      32.247  25.301  26.081  1.00  0.00     0.310 C 
ATOM     76  O   UNL A   1      31.704  24.929  27.118  1.00  0.00    -0.252 OA
BRANCH  75  77
ATOM     77  C   UNL A   1      33.065  24.352  25.253  1.00  0.00     0.117 C 
ATOM     78  C   UNL A   1      34.252  24.042  26.167  1.00  0.00     0.017 C 
ATOM     79  C   UNL A   1      33.356  24.535  23.719  1.00  0.00     0.084 C 
ATOM     80  C   UNL A   1      35.021  22.853  25.651  1.00  0.00     0.001 C 
ATOM     81  C   UNL A   1      34.300  23.381  23.304  1.00  0.00     0.021 C 
ATOM     82  C   UNL A   1      35.491  23.159  24.241  1.00  0.00     0.002 C 
BRANCH  79  83
ATOM     83  N   UNL A   1      33.838  25.867  23.275  1.00  0.00    -0.207 NA
ATOM     84  H   UNL A   1      34.831  25.732  23.082  1.00  0.00     0.141 HD
BRANCH  83  85
ATOM     85  S   UNL A   1      33.265  26.809  21.967  1.00  0.00     0.240 S 
ATOM     86  O   UNL A   1      34.240  27.866  21.832  1.00  0.00    -0.207 OA
ATOM     87  O   UNL A   1      32.987  25.943  20.836  1.00  0.00    -0.207 OA
BRANCH  85  88
ATOM     88  C   UNL A   1      31.703  27.589  22.388  1.00  0.00     0.083 A 
ATOM     89  C   UNL A   1      31.501  28.953  22.164  1.00  0.00     0.022 A 
ATOM     90  C   UNL A   1      30.697  26.852  23.038  1.00  0.00     0.030 A 
ATOM     91  C   UNL A   1      30.233  29.519  22.397  1.00  0.00     0.010 A 
ATOM     92  C   UNL A   1      29.414  27.410  23.272  1.00  0.00    -0.017 A 
ATOM     93  C   UNL A   1      29.164  28.744  22.886  1.00  0.00    -0.018 A 
ATOM     94  C   UNL A   1      28.352  26.648  23.799  1.00  0.00     0.009 A 
ATOM     95  C   UNL A   1      27.849  29.250  22.962  1.00  0.00     0.009 A 
ATOM     96  C   UNL A   1      27.053  27.163  23.866  1.00  0.00     0.001 A 
ATOM     97  C   UNL A   1      26.797  28.456  23.426  1.00  0.00     0.001 A 
ENDBRANCH  85  88
ENDBRANCH  83  85
ENDBRANCH  79  83
ENDBRANCH  75  77
ENDBRANCH  74  75
ENDBRANCH  73  74
ENDBRANCH  72  73
ENDBRANCH   1  72
TORSDOF 20
ENDMDL
MODEL 3
REMARK VINA RESULT:     -11.5      9.532     14.113
REMARK SMILES O=C(OCCOCCOC(=O)[C@@H]1CCCC[C@@H]1NS(=O)(=O)c1ccc2ccccc2c1)c1ccc(-c2c3nc(c(-c4cc(S(=O)(=O)[O-])ccc4F)c4ccc([nH]4)c(-c4cc(S(=O)(=O)[O-])ccc4F)c4nc(c(-c5cc(S(=O)(=O)[O-])ccc5F)c5ccc2[nH]5)C=C4)C=C3)cc1
REMARK SMILES IDX 6 1 5 2 4 3 3 4 2 5 1 6 32 7 33 8 94 9 34 10 93 11 35 12
REMARK SMILES IDX 36 13 37 14 87 15 38 16 92 17 86 18 88 19 39 20 91 21 85 22
REMARK SMILES IDX 84 23 40 25 72 26 52 27 71 28 53 29 56 30 70 31 89 32 54 33
REMARK SMILES IDX 55 34 69 36 90 37 57 38 41 39 42 40 50 41 43 42 49 43 51 44
REMARK SMILES IDX 48 45 44 46 45 47 46 48 47 49 73 50 74 51 82 52 75 53 81 54
REMARK SMILES IDX 83 55 80 56 76 57 77 58 78 59 79 60 58 61 59 62 67 63 60 64
REMARK SMILES IDX 66 65 68 66 65 67 61 68 62 69 63 70 64 71 7 72 8 73 9 74
REMARK SMILES IDX 10 75 11 76 12 77 13 78 17 79 14 80 16 81 15 82 18 83 19 85
REMARK SMILES IDX 20 86 21 87 22 88 23 89 31 90 24 91 30 92 25 93 29 94 26 95
REMARK SMILES IDX 28 96 27 97
REMARK H PARENT 88 24 56 35 18 84
REMARK Flexibility Score: inf
ROOT
ATOM      1  O   UNL A   1      42.992  40.316  28.255  1.00  0.00    -0.374 OA
ENDROOT
BRANCH   1   2
ATOM      2  C   UNL A   1      43.679  39.076  28.063  1.00  0.00     0.202 C 
BRANCH   2   3
ATOM      3  C   UNL A   1      45.162  38.893  28.432  1.00  0.00     0.261 C 
BRANCH   3   4
ATOM      4  O   UNL A   1      45.467  37.671  29.131  1.00  0.00    -0.460 OA
BRANCH   4   5
ATOM      5  C   UNL A   1      46.272  36.655  28.691  1.00  0.00     0.338 C 
ATOM      6  O   UNL A   1      47.393  36.899  28.256  1.00  0.00    -0.246 OA
BRANCH   5   7
ATOM      7  C   UNL A   1      45.768  35.261  28.673  1.00  0.00     0.060 A 
ATOM      8  C   UNL A   1      45.080  34.772  27.576  1.00  0.00     0.016 A 
ATOM      9  C   UNL A   1      46.017  34.393  29.737  1.00  0.00     0.016 A 
ATOM     10  C   UNL A   1      44.417  33.591  27.590  1.00  0.00     0.010 A 
ATOM     11  C   UNL A   1      45.495  33.100  29.704  1.00  0.00     0.010 A 
ATOM     12  C   UNL A   1      44.688  32.726  28.627  1.00  0.00    -0.014 A 
BRANCH  12  13
ATOM     13  C   UNL A   1      44.117  31.409  28.423  1.00  0.00     0.031 A 
ATOM     14  C   UNL A   1      44.948  30.395  27.735  1.00  0.00     0.074 A 
ATOM     15  C   UNL A   1      42.995  31.140  29.112  1.00  0.00     0.049 A 
ATOM     16  N   UNL A   1      44.631  29.191  27.378  1.00  0.00    -0.248 NA
ATOM     17  C   UNL A   1      46.330  30.790  27.416  1.00  0.00     0.031 C 
ATOM     18  C   UNL A   1      42.306  32.089  30.007  1.00  0.00     0.029 A 
ATOM     19  N   UNL A   1      42.273  29.997  29.230  1.00  0.00    -0.354 N 
ATOM     20  C   UNL A   1      45.747  28.697  26.721  1.00  0.00     0.074 A 
ATOM     21  C   UNL A   1      46.761  29.729  26.753  1.00  0.00     0.031 C 
ATOM     22  C   UNL A   1      41.266  31.475  30.583  1.00  0.00     0.029 A 
ATOM     23  C   UNL A   1      41.149  30.149  30.005  1.00  0.00     0.049 A 
ATOM     24  H   UNL A   1      42.529  29.146  28.806  1.00  0.00     0.167 HD
ATOM     25  C   UNL A   1      45.859  27.486  26.130  1.00  0.00     0.034 A 
ATOM     26  C   UNL A   1      40.105  29.319  30.142  1.00  0.00     0.034 A 
ATOM     27  C   UNL A   1      44.774  26.535  26.172  1.00  0.00     0.049 A 
ATOM     28  C   UNL A   1      40.199  28.027  29.385  1.00  0.00     0.074 A 
ATOM     29  C   UNL A   1      44.670  25.300  25.567  1.00  0.00     0.029 A 
ATOM     30  N   UNL A   1      43.587  26.735  26.883  1.00  0.00    -0.354 N 
ATOM     31  N   UNL A   1      41.184  27.595  28.622  1.00  0.00    -0.248 NA
ATOM     32  C   UNL A   1      39.063  27.116  29.489  1.00  0.00     0.031 C 
ATOM     33  C   UNL A   1      43.400  24.785  25.860  1.00  0.00     0.029 A 
ATOM     34  C   UNL A   1      42.740  25.655  26.721  1.00  0.00     0.049 A 
ATOM     35  H   UNL A   1      43.384  27.533  27.423  1.00  0.00     0.167 HD
ATOM     36  C   UNL A   1      40.797  26.345  28.170  1.00  0.00     0.074 A 
ATOM     37  C   UNL A   1      39.492  26.093  28.764  1.00  0.00     0.031 C 
ATOM     38  C   UNL A   1      41.446  25.479  27.347  1.00  0.00     0.034 A 
BRANCH  25  39
ATOM     39  C   UNL A   1      47.102  27.235  25.315  1.00  0.00     0.023 A 
ATOM     40  C   UNL A   1      47.276  27.776  24.028  1.00  0.00     0.031 A 
ATOM     41  C   UNL A   1      48.070  26.327  25.778  1.00  0.00     0.131 A 
ATOM     42  C   UNL A   1      48.328  27.325  23.215  1.00  0.00     0.055 A 
ATOM     43  C   UNL A   1      49.170  25.958  25.000  1.00  0.00     0.041 A 
ATOM     44  F   UNL A   1      47.940  25.741  26.978  1.00  0.00    -0.206 F 
ATOM     45  C   UNL A   1      49.293  26.440  23.701  1.00  0.00     0.022 A 
BRANCH  42  46
ATOM     46  S   UNL A   1      48.297  27.751  21.450  1.00  0.00     0.124 S 
ATOM     47  O   UNL A   1      49.465  28.624  21.338  1.00  0.00    -0.237 OA
ATOM     48  O   UNL A   1      48.412  26.448  20.808  1.00  0.00    -0.237 OA
ATOM     49  O   UNL A   1      47.010  28.421  21.281  1.00  0.00    -0.744 OA
ENDBRANCH  42  46
ENDBRANCH  25  39
BRANCH  26  50
ATOM     50  C   UNL A   1      38.910  29.737  30.922  1.00  0.00     0.023 A 
ATOM     51  C   UNL A   1      38.030  30.711  30.437  1.00  0.00     0.031 A 
ATOM     52  C   UNL A   1      38.614  29.148  32.171  1.00  0.00     0.131 A 
ATOM     53  C   UNL A   1      36.917  31.091  31.203  1.00  0.00     0.055 A 
ATOM     54  C   UNL A   1      37.476  29.489  32.902  1.00  0.00     0.041 A 
ATOM     55  F   UNL A   1      39.418  28.204  32.686  1.00  0.00    -0.206 F 
ATOM     56  C   UNL A   1      36.625  30.476  32.423  1.00  0.00     0.022 A 
BRANCH  53  57
ATOM     57  S   UNL A   1      35.891  32.463  30.611  1.00  0.00     0.124 S 
ATOM     58  O   UNL A   1      36.622  33.619  31.117  1.00  0.00    -0.237 OA
ATOM     59  O   UNL A   1      35.926  32.263  29.166  1.00  0.00    -0.237 OA
ATOM     60  O   UNL A   1      34.596  32.216  31.242  1.00  0.00    -0.744 OA
ENDBRANCH  53  57
ENDBRANCH  26  50
BRANCH  38  61
ATOM     61  C   UNL A   1      40.756  24.166  27.112  1.00  0.00     0.023 A 
ATOM     62  C   UNL A   1      39.588  24.080  26.341  1.00  0.00     0.031 A 
ATOM     63  C   UNL A   1      41.282  22.992  27.675  1.00  0.00     0.131 A 
ATOM     64  C   UNL A   1      38.943  22.845  26.206  1.00  0.00     0.055 A 
ATOM     65  C   UNL A   1      40.679  21.754  27.471  1.00  0.00     0.041 A 
ATOM     66  F   UNL A   1      42.397  23.032  28.424  1.00  0.00    -0.206 F 
ATOM     67  C   UNL A   1      39.494  21.678  26.745  1.00  0.00     0.022 A 
BRANCH  64  68
ATOM     68  S   UNL A   1      37.318  22.808  25.409  1.00  0.00     0.124 S 
ATOM     69  O   UNL A   1      37.233  21.419  24.967  1.00  0.00    -0.237 OA
ATOM     70  O   UNL A   1      36.426  23.184  26.501  1.00  0.00    -0.237 OA
ATOM     71  O   UNL A   1      37.440  23.794  24.339  1.00  0.00    -0.744 OA
ENDBRANCH  64  68
ENDBRANCH  38  61
ENDBRANCH  12  13
ENDBRANCH   5   7
ENDBRANCH   4   5
ENDBRANCH   3   4
ENDBRANCH   2   3
ENDBRANCH   1   2
BRANCH   1  72
ATOM     72  C   UNL A   1      42.086  40.857  27.297  1.00  0.00     0.202 C 
BRANCH  72  73
ATOM     73  C   UNL A   1      42.424  40.646  25.832  1.00  0.00     0.261 C 
BRANCH  73  74
ATOM     74  O   UNL A   1      43.050  41.820  25.302  1.00  0.00    -0.463 OA
BRANCH  74  75
ATOM     75  C   UNL A   1      44.343  41.597  24.980  1.00  0.00     0.310 C 
ATOM     76  O   UNL A   1      44.981  40.588  25.269  1.00  0.00    -0.252 OA
BRANCH  75  77
ATOM     77  C   UNL A   1      45.005  42.764  24.306  1.00  0.00     0.117 C 
ATOM     78  C   UNL A   1      45.110  43.791  25.435  1.00  0.00     0.017 C 
ATOM     79  C   UNL A   1      44.632  43.292  22.873  1.00  0.00     0.084 C 
ATOM     80  C   UNL A   1      46.043  44.910  25.048  1.00  0.00     0.001 C 
ATOM     81  C   UNL A   1      45.499  44.549  22.622  1.00  0.00     0.021 C 
ATOM     82  C   UNL A   1      45.519  45.555  23.777  1.00  0.00     0.002 C 
BRANCH  79  83
ATOM     83  N   UNL A   1      43.192  43.513  22.587  1.00  0.00    -0.207 NA
ATOM     84  H   UNL A   1      43.110  44.519  22.437  1.00  0.00     0.141 HD
BRANCH  83  85
ATOM     85  S   UNL A   1      42.247  42.809  21.347  1.00  0.00     0.240 S 
ATOM     86  O   UNL A   1      42.973  41.618  20.975  1.00  0.00    -0.207 OA
ATOM     87  O   UNL A   1      40.871  42.698  21.795  1.00  0.00    -0.207 OA
BRANCH  85  88
ATOM     88  C   UNL A   1      42.212  43.874  19.900  1.00  0.00     0.083 A 
ATOM     89  C   UNL A   1      41.061  43.977  19.116  1.00  0.00     0.022 A 
ATOM     90  C   UNL A   1      43.377  44.544  19.486  1.00  0.00     0.030 A 
ATOM     91  C   UNL A   1      41.018  44.900  18.055  1.00  0.00     0.010 A 
ATOM     92  C   UNL A   1      43.345  45.481  18.423  1.00  0.00    -0.017 A 
ATOM     93  C   UNL A   1      42.130  45.706  17.741  1.00  0.00    -0.018 A 
ATOM     94  C   UNL A   1      44.467  46.262  18.079  1.00  0.00     0.009 A 
ATOM     95  C   UNL A   1      42.051  46.753  16.798  1.00  0.00     0.009 A 
ATOM     96  C   UNL A   1      44.372  47.297  17.143  1.00  0.00     0.001 A 
ATOM     97  C   UNL A   1      43.158  47.558  16.520  1.00  0.00     0.001 A 
ENDBRANCH  85  88
ENDBRANCH  83  85
ENDBRANCH  79  83
ENDBRANCH  75  77
ENDBRANCH  74  75
ENDBRANCH  73  74
ENDBRANCH  72  73
ENDBRANCH   1  72
TORSDOF 20
ENDMDL
