MODEL 1
REMARK VINA RESULT:      -9.1      0.000      0.000
REMARK SMILES COc1cccc([C@@H]2CN(C(=O)CCSC)C[C@H]2C(=O)OCCOCCOC(=O)c2ccc(-c3c4nc(c(-c5cc(S(=O)(=O)[O-])ccc5F)c5ccc([nH]5)c(-c5cc(S(=O)(=O)[O-])ccc5F)c5nc(c(-c6cc(S(=O)(=O)[O-])ccc6F)c6ccc3[nH]6)C=C5)C=C4)cc2)c1OC
REMARK SMILES IDX 23 1 22 2 21 3 19 4 20 5 18 6 8 7 9 8 10 9 17 10 7 11 3 12
REMARK SMILES IDX 4 13 93 14 5 15 6 16 2 17 1 18 94 19 95 20 11 21 12 22 13 23
REMARK SMILES IDX 14 24 15 25 16 26 24 27 25 28 26 29 27 30 28 31 29 32 30 33
REMARK SMILES IDX 31 34 92 35 32 36 91 37 33 38 34 39 35 40 85 41 36 42 90 43
REMARK SMILES IDX 84 44 86 45 37 46 89 47 83 48 82 49 38 51 70 52 50 53 69 54
REMARK SMILES IDX 51 55 54 56 68 57 87 58 52 59 53 60 67 62 88 63 55 64 39 65
REMARK SMILES IDX 40 66 48 67 41 68 47 69 49 70 46 71 42 72 43 73 44 74 45 75
REMARK SMILES IDX 71 76 72 77 80 78 73 79 79 80 81 81 78 82 74 83 75 84 76 85
REMARK SMILES IDX 77 86 56 87 57 88 65 89 58 90 64 91 66 92 63 93 59 94 60 95
REMARK SMILES IDX 61 96 62 97
REMARK H PARENT 86 50 54 61
REMARK Flexibility Score: inf
ROOT
ATOM      1  C   UNL A   1      39.310  22.438  26.142  1.00  0.00     0.202 C 
ENDROOT
BRANCH   1   2
ATOM      2  C   UNL A   1      38.095  21.601  25.735  1.00  0.00     0.261 C 
BRANCH   2   3
ATOM      3  O   UNL A   1      36.877  22.365  25.695  1.00  0.00    -0.463 OA
BRANCH   3   4
ATOM      4  C   UNL A   1      36.182  22.303  24.528  1.00  0.00     0.311 C 
ATOM      5  O   UNL A   1      36.627  22.610  23.427  1.00  0.00    -0.252 OA
BRANCH   4   6
ATOM      6  C   UNL A   1      34.747  21.884  24.718  1.00  0.00     0.128 C 
ATOM      7  C   UNL A   1      33.745  22.172  23.576  1.00  0.00     0.059 C 
ATOM      8  C   UNL A   1      32.765  20.988  23.634  1.00  0.00     0.129 C 
ATOM      9  N   UNL A   1      33.386  19.979  24.472  1.00  0.00    -0.341 N 
ATOM     10  C   UNL A   1      34.715  20.374  24.883  1.00  0.00     0.135 C 
BRANCH   7  11
ATOM     11  C   UNL A   1      32.951  23.481  23.547  1.00  0.00     0.004 A 
ATOM     12  C   UNL A   1      31.341  25.114  24.387  1.00  0.00     0.161 A 
ATOM     13  C   UNL A   1      31.476  25.867  23.217  1.00  0.00     0.050 A 
ATOM     14  C   UNL A   1      32.038  23.899  24.547  1.00  0.00     0.164 A 
ATOM     15  C   UNL A   1      32.332  25.439  22.211  1.00  0.00     0.004 A 
ATOM     16  C   UNL A   1      33.064  24.265  22.378  1.00  0.00     0.008 A 
BRANCH  12  17
ATOM     17  O   UNL A   1      30.423  25.539  25.316  1.00  0.00    -0.493 OA
ATOM     18  C   UNL A   1      30.941  26.614  26.102  1.00  0.00     0.278 C 
ENDBRANCH  12  17
BRANCH  14  19
ATOM     19  O   UNL A   1      31.833  23.009  25.566  1.00  0.00    -0.493 OA
ATOM     20  C   UNL A   1      32.371  23.295  26.849  1.00  0.00     0.278 C 
ENDBRANCH  14  19
ENDBRANCH   7  11
BRANCH   9  21
ATOM     21  C   UNL A   1      32.827  18.803  24.911  1.00  0.00     0.223 C 
ATOM     22  O   UNL A   1      32.519  18.630  26.091  1.00  0.00    -0.275 OA
BRANCH  21  23
ATOM     23  C   UNL A   1      32.557  17.718  23.890  1.00  0.00     0.111 C 
BRANCH  23  24
ATOM     24  C   UNL A   1      33.801  16.872  23.644  1.00  0.00     0.079 C 
BRANCH  24  25
ATOM     25  S   UNL A   1      34.311  15.871  25.088  1.00  0.00    -0.165 SA
ATOM     26  C   UNL A   1      32.775  14.962  25.395  1.00  0.00     0.085 C 
ENDBRANCH  24  25
ENDBRANCH  23  24
ENDBRANCH  21  23
ENDBRANCH   9  21
ENDBRANCH   4   6
ENDBRANCH   3   4
ENDBRANCH   2   3
ENDBRANCH   1   2
BRANCH   1  27
ATOM     27  O   UNL A   1      40.580  21.912  25.764  1.00  0.00    -0.374 OA
BRANCH  27  28
ATOM     28  C   UNL A   1      41.743  22.600  26.236  1.00  0.00     0.202 C 
BRANCH  28  29
ATOM     29  C   UNL A   1      42.626  23.221  25.152  1.00  0.00     0.261 C 
BRANCH  29  30
ATOM     30  O   UNL A   1      43.349  24.359  25.667  1.00  0.00    -0.460 OA
BRANCH  30  31
ATOM     31  C   UNL A   1      42.581  25.458  25.848  1.00  0.00     0.338 C 
ATOM     32  O   UNL A   1      41.715  25.877  25.089  1.00  0.00    -0.246 OA
BRANCH  31  33
ATOM     33  C   UNL A   1      42.792  26.024  27.189  1.00  0.00     0.060 A 
ATOM     34  C   UNL A   1      41.894  25.655  28.197  1.00  0.00     0.016 A 
ATOM     35  C   UNL A   1      43.755  27.010  27.420  1.00  0.00     0.016 A 
ATOM     36  C   UNL A   1      41.915  26.316  29.425  1.00  0.00     0.010 A 
ATOM     37  C   UNL A   1      43.770  27.674  28.654  1.00  0.00     0.010 A 
ATOM     38  C   UNL A   1      42.823  27.361  29.647  1.00  0.00    -0.014 A 
BRANCH  38  39
ATOM     39  C   UNL A   1      42.658  28.220  30.848  1.00  0.00     0.031 A 
ATOM     40  C   UNL A   1      41.668  29.355  30.809  1.00  0.00     0.074 A 
ATOM     41  C   UNL A   1      43.337  27.960  31.980  1.00  0.00     0.049 A 
ATOM     42  N   UNL A   1      41.355  30.221  31.739  1.00  0.00    -0.248 NA
ATOM     43  C   UNL A   1      40.933  29.537  29.547  1.00  0.00     0.031 C 
ATOM     44  C   UNL A   1      44.289  26.865  32.159  1.00  0.00     0.029 A 
ATOM     45  N   UNL A   1      43.327  28.599  33.196  1.00  0.00    -0.354 N 
ATOM     46  C   UNL A   1      40.385  31.048  31.180  1.00  0.00     0.074 A 
ATOM     47  C   UNL A   1      40.195  30.603  29.815  1.00  0.00     0.031 C 
ATOM     48  C   UNL A   1      44.775  26.911  33.411  1.00  0.00     0.029 A 
ATOM     49  C   UNL A   1      44.196  28.056  34.113  1.00  0.00     0.049 A 
ATOM     50  H   UNL A   1      42.751  29.373  33.393  1.00  0.00     0.167 HD
ATOM     51  C   UNL A   1      39.709  32.075  31.753  1.00  0.00     0.034 A 
ATOM     52  C   UNL A   1      44.504  28.448  35.366  1.00  0.00     0.034 A 
ATOM     53  C   UNL A   1      39.917  32.517  33.111  1.00  0.00     0.049 A 
ATOM     54  C   UNL A   1      43.801  29.647  35.956  1.00  0.00     0.074 A 
ATOM     55  C   UNL A   1      39.275  33.537  33.793  1.00  0.00     0.029 A 
ATOM     56  N   UNL A   1      40.845  31.976  33.991  1.00  0.00    -0.354 N 
ATOM     57  N   UNL A   1      42.879  30.412  35.418  1.00  0.00    -0.248 NA
ATOM     58  C   UNL A   1      44.174  30.028  37.325  1.00  0.00     0.031 C 
ATOM     59  C   UNL A   1      39.862  33.656  35.059  1.00  0.00     0.029 A 
ATOM     60  C   UNL A   1      40.817  32.664  35.195  1.00  0.00     0.049 A 
ATOM     61  H   UNL A   1      41.436  31.215  33.789  1.00  0.00     0.167 HD
ATOM     62  C   UNL A   1      42.543  31.346  36.397  1.00  0.00     0.074 A 
ATOM     63  C   UNL A   1      43.353  31.040  37.558  1.00  0.00     0.031 C 
ATOM     64  C   UNL A   1      41.641  32.359  36.342  1.00  0.00     0.034 A 
BRANCH  51  65
ATOM     65  C   UNL A   1      38.721  32.820  30.888  1.00  0.00     0.023 A 
ATOM     66  C   UNL A   1      37.339  32.570  30.955  1.00  0.00     0.031 A 
ATOM     67  C   UNL A   1      39.173  33.776  29.960  1.00  0.00     0.131 A 
ATOM     68  C   UNL A   1      36.466  33.216  30.066  1.00  0.00     0.055 A 
ATOM     69  C   UNL A   1      38.291  34.470  29.130  1.00  0.00     0.041 A 
ATOM     70  F   UNL A   1      40.483  34.041  29.835  1.00  0.00    -0.206 F 
ATOM     71  C   UNL A   1      36.930  34.182  29.170  1.00  0.00     0.022 A 
BRANCH  68  72
ATOM     72  S   UNL A   1      34.736  32.675  30.000  1.00  0.00     0.124 S 
ATOM     73  O   UNL A   1      34.798  31.606  29.007  1.00  0.00    -0.237 OA
ATOM     74  O   UNL A   1      34.484  32.258  31.375  1.00  0.00    -0.237 OA
ATOM     75  O   UNL A   1      34.019  33.873  29.570  1.00  0.00    -0.744 OA
ENDBRANCH  68  72
ENDBRANCH  51  65
BRANCH  52  76
ATOM     76  C   UNL A   1      45.557  27.732  36.141  1.00  0.00     0.023 A 
ATOM     77  C   UNL A   1      45.245  26.635  36.958  1.00  0.00     0.031 A 
ATOM     78  C   UNL A   1      46.893  28.174  36.112  1.00  0.00     0.131 A 
ATOM     79  C   UNL A   1      46.246  26.041  37.744  1.00  0.00     0.055 A 
ATOM     80  C   UNL A   1      47.893  27.551  36.858  1.00  0.00     0.041 A 
ATOM     81  F   UNL A   1      47.244  29.221  35.348  1.00  0.00    -0.206 F 
ATOM     82  C   UNL A   1      47.570  26.485  37.690  1.00  0.00     0.022 A 
BRANCH  79  83
ATOM     83  S   UNL A   1      45.777  24.727  38.902  1.00  0.00     0.124 S 
ATOM     84  O   UNL A   1      47.060  24.395  39.512  1.00  0.00    -0.237 OA
ATOM     85  O   UNL A   1      44.816  25.411  39.762  1.00  0.00    -0.237 OA
ATOM     86  O   UNL A   1      45.211  23.695  38.036  1.00  0.00    -0.744 OA
ENDBRANCH  79  83
ENDBRANCH  52  76
BRANCH  64  87
ATOM     87  C   UNL A   1      41.455  33.183  37.594  1.00  0.00     0.023 A 
ATOM     88  C   UNL A   1      40.552  32.804  38.603  1.00  0.00     0.031 A 
ATOM     89  C   UNL A   1      42.187  34.370  37.773  1.00  0.00     0.131 A 
ATOM     90  C   UNL A   1      40.367  33.631  39.721  1.00  0.00     0.055 A 
ATOM     91  C   UNL A   1      42.040  35.160  38.914  1.00  0.00     0.041 A 
ATOM     92  F   UNL A   1      43.062  34.780  36.841  1.00  0.00    -0.206 F 
ATOM     93  C   UNL A   1      41.116  34.798  39.890  1.00  0.00     0.022 A 
BRANCH  90  94
ATOM     94  S   UNL A   1      39.072  33.205  40.919  1.00  0.00     0.124 S 
ATOM     95  O   UNL A   1      38.437  32.055  40.282  1.00  0.00    -0.237 OA
ATOM     96  O   UNL A   1      39.843  32.919  42.124  1.00  0.00    -0.237 OA
ATOM     97  O   UNL A   1      38.250  34.411  40.982  1.00  0.00    -0.744 OA
ENDBRANCH  90  94
ENDBRANCH  64  87
ENDBRANCH  38  39
ENDBRANCH  31  33
ENDBRANCH  30  31
ENDBRANCH  29  30
ENDBRANCH  28  29
ENDBRANCH  27  28
ENDBRANCH   1  27
TORSDOF 24
ENDMDL
MODEL 2
REMARK VINA RESULT:      -8.5      4.497      7.766
REMARK SMILES COc1cccc([C@@H]2CN(C(=O)CCSC)C[C@H]2C(=O)OCCOCCOC(=O)c2ccc(-c3c4nc(c(-c5cc(S(=O)(=O)[O-])ccc5F)c5ccc([nH]5)c(-c5cc(S(=O)(=O)[O-])ccc5F)c5nc(c(-c6cc(S(=O)(=O)[O-])ccc6F)c6ccc3[nH]6)C=C5)C=C4)cc2)c1OC
REMARK SMILES IDX 23 1 22 2 21 3 19 4 20 5 18 6 8 7 9 8 10 9 17 10 7 11 3 12
REMARK SMILES IDX 4 13 93 14 5 15 6 16 2 17 1 18 94 19 95 20 11 21 12 22 13 23
REMARK SMILES IDX 14 24 15 25 16 26 24 27 25 28 26 29 27 30 28 31 29 32 30 33
REMARK SMILES IDX 31 34 92 35 32 36 91 37 33 38 34 39 35 40 85 41 36 42 90 43
REMARK SMILES IDX 84 44 86 45 37 46 89 47 83 48 82 49 38 51 70 52 50 53 69 54
REMARK SMILES IDX 51 55 54 56 68 57 87 58 52 59 53 60 67 62 88 63 55 64 39 65
REMARK SMILES IDX 40 66 48 67 41 68 47 69 49 70 46 71 42 72 43 73 44 74 45 75
REMARK SMILES IDX 71 76 72 77 80 78 73 79 79 80 81 81 78 82 74 83 75 84 76 85
REMARK SMILES IDX 77 86 56 87 57 88 65 89 58 90 64 91 66 92 63 93 59 94 60 95
REMARK SMILES IDX 61 96 62 97
REMARK H PARENT 86 50 54 61
REMARK Flexibility Score: inf
ROOT
ATOM      1  C   UNL A   1      38.925  23.121  26.549  1.00  0.00     0.202 C 
ENDROOT
BRANCH   1   2
ATOM      2  C   UNL A   1      37.471  22.902  26.126  1.00  0.00     0.261 C 
BRANCH   2   3
ATOM      3  O   UNL A   1      37.120  23.624  24.932  1.00  0.00    -0.463 OA
BRANCH   3   4
ATOM      4  C   UNL A   1      36.475  22.903  23.978  1.00  0.00     0.311 C 
ATOM      5  O   UNL A   1      36.956  22.574  22.899  1.00  0.00    -0.252 OA
BRANCH   4   6
ATOM      6  C   UNL A   1      35.044  22.598  24.337  1.00  0.00     0.128 C 
ATOM      7  C   UNL A   1      33.945  22.915  23.294  1.00  0.00     0.059 C 
ATOM      8  C   UNL A   1      32.899  21.809  23.509  1.00  0.00     0.129 C 
ATOM      9  N   UNL A   1      33.535  20.789  24.323  1.00  0.00    -0.341 N 
ATOM     10  C   UNL A   1      34.925  21.102  24.573  1.00  0.00     0.135 C 
BRANCH   7  11
ATOM     11  C   UNL A   1      33.245  24.277  23.289  1.00  0.00     0.004 A 
ATOM     12  C   UNL A   1      32.224  26.246  24.310  1.00  0.00     0.161 A 
ATOM     13  C   UNL A   1      31.816  26.701  23.053  1.00  0.00     0.050 A 
ATOM     14  C   UNL A   1      32.901  25.016  24.447  1.00  0.00     0.164 A 
ATOM     15  C   UNL A   1      32.106  25.957  21.917  1.00  0.00     0.004 A 
ATOM     16  C   UNL A   1      32.818  24.764  22.035  1.00  0.00     0.008 A 
BRANCH  12  17
ATOM     17  O   UNL A   1      31.842  26.977  25.408  1.00  0.00    -0.493 OA
ATOM     18  C   UNL A   1      31.487  28.313  25.042  1.00  0.00     0.278 C 
ENDBRANCH  12  17
BRANCH  14  19
ATOM     19  O   UNL A   1      33.176  24.405  25.639  1.00  0.00    -0.493 OA
ATOM     20  C   UNL A   1      32.106  23.864  26.401  1.00  0.00     0.278 C 
ENDBRANCH  14  19
ENDBRANCH   7  11
BRANCH   9  21
ATOM     21  C   UNL A   1      32.948  19.676  24.871  1.00  0.00     0.223 C 
ATOM     22  O   UNL A   1      32.833  19.534  26.089  1.00  0.00    -0.275 OA
BRANCH  21  23
ATOM     23  C   UNL A   1      32.400  18.624  23.931  1.00  0.00     0.111 C 
BRANCH  23  24
ATOM     24  C   UNL A   1      33.517  17.749  23.371  1.00  0.00     0.079 C 
BRANCH  24  25
ATOM     25  S   UNL A   1      34.332  16.698  24.628  1.00  0.00    -0.165 SA
ATOM     26  C   UNL A   1      32.897  15.780  25.244  1.00  0.00     0.085 C 
ENDBRANCH  24  25
ENDBRANCH  23  24
ENDBRANCH  21  23
ENDBRANCH   9  21
ENDBRANCH   4   6
ENDBRANCH   3   4
ENDBRANCH   2   3
ENDBRANCH   1   2
BRANCH   1  27
ATOM     27  O   UNL A   1      39.845  22.103  26.160  1.00  0.00    -0.374 OA
BRANCH  27  28
ATOM     28  C   UNL A   1      41.187  22.210  26.643  1.00  0.00     0.202 C 
BRANCH  28  29
ATOM     29  C   UNL A   1      42.176  21.192  26.070  1.00  0.00     0.261 C 
BRANCH  29  30
ATOM     30  O   UNL A   1      43.511  21.740  26.026  1.00  0.00    -0.460 OA
BRANCH  30  31
ATOM     31  C   UNL A   1      43.684  22.677  25.065  1.00  0.00     0.338 C 
ATOM     32  O   UNL A   1      43.469  22.543  23.866  1.00  0.00    -0.246 OA
BRANCH  31  33
ATOM     33  C   UNL A   1      44.013  23.980  25.665  1.00  0.00     0.060 A 
ATOM     34  C   UNL A   1      45.207  24.078  26.390  1.00  0.00     0.016 A 
ATOM     35  C   UNL A   1      43.104  25.040  25.646  1.00  0.00     0.016 A 
ATOM     36  C   UNL A   1      45.467  25.216  27.152  1.00  0.00     0.010 A 
ATOM     37  C   UNL A   1      43.368  26.181  26.416  1.00  0.00     0.010 A 
ATOM     38  C   UNL A   1      44.530  26.257  27.207  1.00  0.00    -0.014 A 
BRANCH  38  39
ATOM     39  C   UNL A   1      44.701  27.332  28.218  1.00  0.00     0.031 A 
ATOM     40  C   UNL A   1      44.469  27.014  29.673  1.00  0.00     0.074 A 
ATOM     41  C   UNL A   1      45.112  28.561  27.856  1.00  0.00     0.049 A 
ATOM     42  N   UNL A   1      44.570  27.790  30.722  1.00  0.00    -0.248 NA
ATOM     43  C   UNL A   1      44.069  25.633  29.984  1.00  0.00     0.031 C 
ATOM     44  C   UNL A   1      45.412  28.979  26.488  1.00  0.00     0.029 A 
ATOM     45  N   UNL A   1      45.351  29.682  28.612  1.00  0.00    -0.354 N 
ATOM     46  C   UNL A   1      44.251  26.995  31.818  1.00  0.00     0.074 A 
ATOM     47  C   UNL A   1      43.912  25.686  31.298  1.00  0.00     0.031 C 
ATOM     48  C   UNL A   1      45.792  30.268  26.501  1.00  0.00     0.029 A 
ATOM     49  C   UNL A   1      45.730  30.777  27.871  1.00  0.00     0.049 A 
ATOM     50  H   UNL A   1      45.260  29.701  29.591  1.00  0.00     0.167 HD
ATOM     51  C   UNL A   1      44.249  27.320  33.135  1.00  0.00     0.034 A 
ATOM     52  C   UNL A   1      45.981  32.047  28.249  1.00  0.00     0.034 A 
ATOM     53  C   UNL A   1      44.577  28.632  33.640  1.00  0.00     0.049 A 
ATOM     54  C   UNL A   1      45.891  32.410  29.712  1.00  0.00     0.074 A 
ATOM     55  C   UNL A   1      44.620  29.064  34.955  1.00  0.00     0.029 A 
ATOM     56  N   UNL A   1      44.904  29.729  32.854  1.00  0.00    -0.354 N 
ATOM     57  N   UNL A   1      45.597  31.643  30.738  1.00  0.00    -0.248 NA
ATOM     58  C   UNL A   1      46.175  33.807  30.068  1.00  0.00     0.031 C 
ATOM     59  C   UNL A   1      44.905  30.434  34.959  1.00  0.00     0.029 A 
ATOM     60  C   UNL A   1      45.114  30.844  33.653  1.00  0.00     0.049 A 
ATOM     61  H   UNL A   1      44.975  29.718  31.872  1.00  0.00     0.167 HD
ATOM     62  C   UNL A   1      45.692  32.462  31.862  1.00  0.00     0.074 A 
ATOM     63  C   UNL A   1      46.079  33.774  31.389  1.00  0.00     0.031 C 
ATOM     64  C   UNL A   1      45.485  32.153  33.168  1.00  0.00     0.034 A 
BRANCH  51  65
ATOM     65  C   UNL A   1      43.829  26.248  34.112  1.00  0.00     0.023 A 
ATOM     66  C   UNL A   1      44.718  25.247  34.542  1.00  0.00     0.031 A 
ATOM     67  C   UNL A   1      42.510  26.212  34.599  1.00  0.00     0.131 A 
ATOM     68  C   UNL A   1      44.260  24.215  35.375  1.00  0.00     0.055 A 
ATOM     69  C   UNL A   1      42.081  25.225  35.487  1.00  0.00     0.041 A 
ATOM     70  F   UNL A   1      41.612  27.128  34.206  1.00  0.00    -0.206 F 
ATOM     71  C   UNL A   1      42.953  24.210  35.869  1.00  0.00     0.022 A 
BRANCH  68  72
ATOM     72  S   UNL A   1      45.353  22.802  35.691  1.00  0.00     0.124 S 
ATOM     73  O   UNL A   1      44.625  21.714  35.045  1.00  0.00    -0.237 OA
ATOM     74  O   UNL A   1      46.594  23.214  35.044  1.00  0.00    -0.237 OA
ATOM     75  O   UNL A   1      45.404  22.728  37.149  1.00  0.00    -0.744 OA
ENDBRANCH  68  72
ENDBRANCH  51  65
BRANCH  52  76
ATOM     76  C   UNL A   1      46.298  33.087  27.230  1.00  0.00     0.023 A 
ATOM     77  C   UNL A   1      47.622  33.362  26.853  1.00  0.00     0.031 A 
ATOM     78  C   UNL A   1      45.274  33.862  26.655  1.00  0.00     0.131 A 
ATOM     79  C   UNL A   1      47.890  34.410  25.959  1.00  0.00     0.055 A 
ATOM     80  C   UNL A   1      45.543  34.871  25.730  1.00  0.00     0.041 A 
ATOM     81  F   UNL A   1      43.990  33.641  26.983  1.00  0.00    -0.206 F 
ATOM     82  C   UNL A   1      46.859  35.158  25.386  1.00  0.00     0.022 A 
BRANCH  79  83
ATOM     83  S   UNL A   1      49.619  34.836  25.613  1.00  0.00     0.124 S 
ATOM     84  O   UNL A   1      50.176  33.542  25.236  1.00  0.00    -0.237 OA
ATOM     85  O   UNL A   1      49.480  35.813  24.538  1.00  0.00    -0.237 OA
ATOM     86  O   UNL A   1      50.098  35.376  26.884  1.00  0.00    -0.744 OA
ENDBRANCH  79  83
ENDBRANCH  52  76
BRANCH  64  87
ATOM     87  C   UNL A   1      45.717  33.249  34.180  1.00  0.00     0.023 A 
ATOM     88  C   UNL A   1      44.679  34.093  34.610  1.00  0.00     0.031 A 
ATOM     89  C   UNL A   1      47.003  33.457  34.712  1.00  0.00     0.131 A 
ATOM     90  C   UNL A   1      44.954  35.138  35.506  1.00  0.00     0.055 A 
ATOM     91  C   UNL A   1      47.259  34.462  35.645  1.00  0.00     0.041 A 
ATOM     92  F   UNL A   1      48.031  32.681  34.335  1.00  0.00    -0.206 F 
ATOM     93  C   UNL A   1      46.233  35.318  36.038  1.00  0.00     0.022 A 
BRANCH  90  94
ATOM     94  S   UNL A   1      43.632  36.315  35.908  1.00  0.00     0.124 S 
ATOM     95  O   UNL A   1      42.446  35.465  35.862  1.00  0.00    -0.237 OA
ATOM     96  O   UNL A   1      44.026  36.787  37.230  1.00  0.00    -0.237 OA
ATOM     97  O   UNL A   1      43.722  37.311  34.842  1.00  0.00    -0.744 OA
ENDBRANCH  90  94
ENDBRANCH  64  87
ENDBRANCH  38  39
ENDBRANCH  31  33
ENDBRANCH  30  31
ENDBRANCH  29  30
ENDBRANCH  28  29
ENDBRANCH  27  28
ENDBRANCH   1  27
TORSDOF 24
ENDMDL
MODEL 3
REMARK VINA RESULT:      -8.2      5.567      7.642
REMARK SMILES COc1cccc([C@@H]2CN(C(=O)CCSC)C[C@H]2C(=O)OCCOCCOC(=O)c2ccc(-c3c4nc(c(-c5cc(S(=O)(=O)[O-])ccc5F)c5ccc([nH]5)c(-c5cc(S(=O)(=O)[O-])ccc5F)c5nc(c(-c6cc(S(=O)(=O)[O-])ccc6F)c6ccc3[nH]6)C=C5)C=C4)cc2)c1OC
REMARK SMILES IDX 23 1 22 2 21 3 19 4 20 5 18 6 8 7 9 8 10 9 17 10 7 11 3 12
REMARK SMILES IDX 4 13 93 14 5 15 6 16 2 17 1 18 94 19 95 20 11 21 12 22 13 23
REMARK SMILES IDX 14 24 15 25 16 26 24 27 25 28 26 29 27 30 28 31 29 32 30 33
REMARK SMILES IDX 31 34 92 35 32 36 91 37 33 38 34 39 35 40 85 41 36 42 90 43
REMARK SMILES IDX 84 44 86 45 37 46 89 47 83 48 82 49 38 51 70 52 50 53 69 54
REMARK SMILES IDX 51 55 54 56 68 57 87 58 52 59 53 60 67 62 88 63 55 64 39 65
REMARK SMILES IDX 40 66 48 67 41 68 47 69 49 70 46 71 42 72 43 73 44 74 45 75
REMARK SMILES IDX 71 76 72 77 80 78 73 79 79 80 81 81 78 82 74 83 75 84 76 85
REMARK SMILES IDX 77 86 56 87 57 88 65 89 58 90 64 91 66 92 63 93 59 94 60 95
REMARK SMILES IDX 61 96 62 97
REMARK H PARENT 86 50 54 61
REMARK Flexibility Score: inf
ROOT
ATOM      1  C   UNL A   1      47.624  28.282  25.763  1.00  0.00     0.202 C 
ENDROOT
BRANCH   1   2
ATOM      2  C   UNL A   1      46.144  28.253  25.377  1.00  0.00     0.261 C 
BRANCH   2   3
ATOM      3  O   UNL A   1      45.375  27.335  26.175  1.00  0.00    -0.463 OA
BRANCH   3   4
ATOM      4  C   UNL A   1      45.191  26.100  25.637  1.00  0.00     0.311 C 
ATOM      5  O   UNL A   1      45.694  25.708  24.589  1.00  0.00    -0.252 OA
BRANCH   4   6
ATOM      6  C   UNL A   1      44.224  25.254  26.422  1.00  0.00     0.128 C 
ATOM      7  C   UNL A   1      42.774  25.768  26.591  1.00  0.00     0.059 C 
ATOM      8  C   UNL A   1      41.924  24.486  26.596  1.00  0.00     0.129 C 
ATOM      9  N   UNL A   1      42.780  23.420  26.108  1.00  0.00    -0.341 N 
ATOM     10  C   UNL A   1      44.075  23.922  25.706  1.00  0.00     0.135 C 
BRANCH   7  11
ATOM     11  C   UNL A   1      42.390  26.632  27.796  1.00  0.00     0.004 A 
ATOM     12  C   UNL A   1      41.249  28.469  28.929  1.00  0.00     0.161 A 
ATOM     13  C   UNL A   1      41.941  28.185  30.111  1.00  0.00     0.050 A 
ATOM     14  C   UNL A   1      41.495  27.729  27.755  1.00  0.00     0.164 A 
ATOM     15  C   UNL A   1      42.857  27.143  30.146  1.00  0.00     0.004 A 
ATOM     16  C   UNL A   1      43.072  26.372  29.004  1.00  0.00     0.008 A 
BRANCH  12  17
ATOM     17  O   UNL A   1      40.415  29.560  28.926  1.00  0.00    -0.493 OA
ATOM     18  C   UNL A   1      39.087  29.198  29.312  1.00  0.00     0.278 C 
ENDBRANCH  12  17
BRANCH  14  19
ATOM     19  O   UNL A   1      41.008  28.045  26.516  1.00  0.00    -0.493 OA
ATOM     20  C   UNL A   1      41.738  28.947  25.697  1.00  0.00     0.278 C 
ENDBRANCH  14  19
ENDBRANCH   7  11
BRANCH   9  21
ATOM     21  C   UNL A   1      42.491  22.078  26.059  1.00  0.00     0.223 C 
ATOM     22  O   UNL A   1      41.339  21.666  25.906  1.00  0.00    -0.275 OA
BRANCH  21  23
ATOM     23  C   UNL A   1      43.639  21.098  26.161  1.00  0.00     0.111 C 
BRANCH  23  24
ATOM     24  C   UNL A   1      43.385  19.860  25.308  1.00  0.00     0.079 C 
BRANCH  24  25
ATOM     25  S   UNL A   1      44.808  19.378  24.264  1.00  0.00    -0.165 SA
ATOM     26  C   UNL A   1      45.809  18.497  25.490  1.00  0.00     0.085 C 
ENDBRANCH  24  25
ENDBRANCH  23  24
ENDBRANCH  21  23
ENDBRANCH   9  21
ENDBRANCH   4   6
ENDBRANCH   3   4
ENDBRANCH   2   3
ENDBRANCH   1   2
BRANCH   1  27
ATOM     27  O   UNL A   1      48.539  27.893  24.741  1.00  0.00    -0.374 OA
BRANCH  27  28
ATOM     28  C   UNL A   1      48.969  26.529  24.728  1.00  0.00     0.202 C 
BRANCH  28  29
ATOM     29  C   UNL A   1      50.415  26.289  25.164  1.00  0.00     0.261 C 
BRANCH  29  30
ATOM     30  O   UNL A   1      50.576  26.547  26.576  1.00  0.00    -0.460 OA
BRANCH  30  31
ATOM     31  C   UNL A   1      50.091  25.564  27.369  1.00  0.00     0.338 C 
ATOM     32  O   UNL A   1      50.405  24.380  27.340  1.00  0.00    -0.246 OA
BRANCH  31  33
ATOM     33  C   UNL A   1      49.234  26.124  28.425  1.00  0.00     0.060 A 
ATOM     34  C   UNL A   1      47.859  25.872  28.347  1.00  0.00     0.016 A 
ATOM     35  C   UNL A   1      49.742  27.002  29.387  1.00  0.00     0.016 A 
ATOM     36  C   UNL A   1      46.978  26.546  29.192  1.00  0.00     0.010 A 
ATOM     37  C   UNL A   1      48.853  27.679  30.232  1.00  0.00     0.010 A 
ATOM     38  C   UNL A   1      47.464  27.488  30.110  1.00  0.00    -0.014 A 
BRANCH  38  39
ATOM     39  C   UNL A   1      46.503  28.379  30.810  1.00  0.00     0.031 A 
ATOM     40  C   UNL A   1      46.169  29.719  30.206  1.00  0.00     0.074 A 
ATOM     41  C   UNL A   1      45.889  27.980  31.940  1.00  0.00     0.049 A 
ATOM     42  N   UNL A   1      45.354  30.648  30.637  1.00  0.00    -0.248 NA
ATOM     43  C   UNL A   1      46.849  30.053  28.945  1.00  0.00     0.031 C 
ATOM     44  C   UNL A   1      46.093  26.691  32.597  1.00  0.00     0.029 A 
ATOM     45  N   UNL A   1      44.967  28.620  32.730  1.00  0.00    -0.354 N 
ATOM     46  C   UNL A   1      45.418  31.675  29.701  1.00  0.00     0.074 A 
ATOM     47  C   UNL A   1      46.385  31.269  28.702  1.00  0.00     0.031 C 
ATOM     48  C   UNL A   1      45.320  26.636  33.697  1.00  0.00     0.029 A 
ATOM     49  C   UNL A   1      44.593  27.898  33.839  1.00  0.00     0.049 A 
ATOM     50  H   UNL A   1      44.607  29.512  32.523  1.00  0.00     0.167 HD
ATOM     51  C   UNL A   1      44.729  32.843  29.671  1.00  0.00     0.034 A 
ATOM     52  C   UNL A   1      43.775  28.222  34.861  1.00  0.00     0.034 A 
ATOM     53  C   UNL A   1      43.777  33.242  30.679  1.00  0.00     0.049 A 
ATOM     54  C   UNL A   1      43.082  29.563  34.851  1.00  0.00     0.074 A 
ATOM     55  C   UNL A   1      43.014  34.396  30.736  1.00  0.00     0.029 A 
ATOM     56  N   UNL A   1      43.465  32.506  31.815  1.00  0.00    -0.354 N 
ATOM     57  N   UNL A   1      43.145  30.520  33.953  1.00  0.00    -0.248 NA
ATOM     58  C   UNL A   1      42.200  29.863  35.988  1.00  0.00     0.031 C 
ATOM     59  C   UNL A   1      42.295  34.389  31.938  1.00  0.00     0.029 A 
ATOM     60  C   UNL A   1      42.550  33.198  32.596  1.00  0.00     0.049 A 
ATOM     61  H   UNL A   1      43.840  31.623  32.035  1.00  0.00     0.167 HD
ATOM     62  C   UNL A   1      42.287  31.521  34.406  1.00  0.00     0.074 A 
ATOM     63  C   UNL A   1      41.713  31.047  35.648  1.00  0.00     0.031 C 
ATOM     64  C   UNL A   1      41.996  32.721  33.841  1.00  0.00     0.034 A 
BRANCH  51  65
ATOM     65  C   UNL A   1      45.025  33.792  28.534  1.00  0.00     0.023 A 
ATOM     66  C   UNL A   1      45.828  34.933  28.709  1.00  0.00     0.031 A 
ATOM     67  C   UNL A   1      44.472  33.565  27.260  1.00  0.00     0.131 A 
ATOM     68  C   UNL A   1      45.999  35.838  27.650  1.00  0.00     0.055 A 
ATOM     69  C   UNL A   1      44.707  34.430  26.191  1.00  0.00     0.041 A 
ATOM     70  F   UNL A   1      43.679  32.504  27.039  1.00  0.00    -0.206 F 
ATOM     71  C   UNL A   1      45.463  35.582  26.386  1.00  0.00     0.022 A 
BRANCH  68  72
ATOM     72  S   UNL A   1      46.813  37.424  27.986  1.00  0.00     0.124 S 
ATOM     73  O   UNL A   1      46.482  38.186  26.785  1.00  0.00    -0.237 OA
ATOM     74  O   UNL A   1      46.163  37.857  29.218  1.00  0.00    -0.237 OA
ATOM     75  O   UNL A   1      48.223  37.065  28.117  1.00  0.00    -0.744 OA
ENDBRANCH  68  72
ENDBRANCH  51  65
BRANCH  52  76
ATOM     76  C   UNL A   1      43.593  27.285  36.005  1.00  0.00     0.023 A 
ATOM     77  C   UNL A   1      44.326  27.429  37.193  1.00  0.00     0.031 A 
ATOM     78  C   UNL A   1      42.712  26.192  35.902  1.00  0.00     0.131 A 
ATOM     79  C   UNL A   1      44.196  26.476  38.215  1.00  0.00     0.055 A 
ATOM     80  C   UNL A   1      42.551  25.274  36.940  1.00  0.00     0.041 A 
ATOM     81  F   UNL A   1      41.989  26.006  34.786  1.00  0.00    -0.206 F 
ATOM     82  C   UNL A   1      43.305  25.405  38.101  1.00  0.00     0.022 A 
BRANCH  79  83
ATOM     83  S   UNL A   1      45.271  26.609  39.670  1.00  0.00     0.124 S 
ATOM     84  O   UNL A   1      46.038  27.811  39.365  1.00  0.00    -0.237 OA
ATOM     85  O   UNL A   1      44.300  26.725  40.754  1.00  0.00    -0.237 OA
ATOM     86  O   UNL A   1      46.030  25.360  39.648  1.00  0.00    -0.744 OA
ENDBRANCH  79  83
ENDBRANCH  52  76
BRANCH  64  87
ATOM     87  C   UNL A   1      40.976  33.584  34.545  1.00  0.00     0.023 A 
ATOM     88  C   UNL A   1      41.330  34.431  35.609  1.00  0.00     0.031 A 
ATOM     89  C   UNL A   1      39.627  33.546  34.150  1.00  0.00     0.131 A 
ATOM     90  C   UNL A   1      40.338  35.169  36.274  1.00  0.00     0.055 A 
ATOM     91  C   UNL A   1      38.654  34.324  34.779  1.00  0.00     0.041 A 
ATOM     92  F   UNL A   1      39.233  32.753  33.140  1.00  0.00    -0.206 F 
ATOM     93  C   UNL A   1      39.006  35.133  35.856  1.00  0.00     0.022 A 
BRANCH  90  94
ATOM     94  S   UNL A   1      40.798  36.120  37.750  1.00  0.00     0.124 S 
ATOM     95  O   UNL A   1      40.957  35.068  38.750  1.00  0.00    -0.237 OA
ATOM     96  O   UNL A   1      42.025  36.783  37.324  1.00  0.00    -0.237 OA
ATOM     97  O   UNL A   1      39.655  37.006  37.959  1.00  0.00    -0.744 OA
ENDBRANCH  90  94
ENDBRANCH  64  87
ENDBRANCH  38  39
ENDBRANCH  31  33
ENDBRANCH  30  31
ENDBRANCH  29  30
ENDBRANCH  28  29
ENDBRANCH  27  28
ENDBRANCH   1  27
TORSDOF 24
ENDMDL
