MODEL 1
REMARK VINA RESULT:     -12.9      0.000      0.000
REMARK SMILES Cc1ccc(-c2nn(-c3ccccc3)cc2[C@@H]2[NH2+][C@H](C(=O)OCCOCCOC(=O)c3ccc(-c4c5nc(c(-c6cc(S(=O)(=O)[O-])ccc6F)c6ccc([nH]6)c(-c6cc(S(=O)(=O)[O-])ccc6F)c6nc(c(-c7cc(S(=O)(=O)[O-])ccc7F)c7ccc4[nH]7)C=C6)C=C5)cc3)CS2)cc1
REMARK SMILES IDX 26 1 25 2 24 3 23 4 22 5 20 6 21 7 19 8 17 9 18 10 95 11
REMARK SMILES IDX 94 14 16 15 6 16 7 17 8 18 15 19 5 20 1 21 2 22 3 23 97 24
REMARK SMILES IDX 4 25 96 26 9 27 10 28 14 29 11 30 13 31 12 32 27 33 28 34
REMARK SMILES IDX 29 35 30 36 31 37 32 38 93 39 33 40 92 41 34 42 35 43 36 44
REMARK SMILES IDX 86 45 37 46 91 47 85 48 87 49 38 50 90 51 84 52 83 53 39 55
REMARK SMILES IDX 71 56 51 57 70 58 52 59 55 60 69 61 88 62 53 63 54 64 68 66
REMARK SMILES IDX 89 67 56 68 40 69 41 70 49 71 42 72 48 73 50 74 47 75 43 76
REMARK SMILES IDX 44 77 45 78 46 79 72 80 73 81 81 82 74 83 80 84 82 85 79 86
REMARK SMILES IDX 75 87 76 88 77 89 78 90 57 91 58 92 66 93 59 94 65 95 67 96
REMARK SMILES IDX 64 97 60 98 61 99 62 100 63 101
REMARK H PARENT 18 12 18 13 87 54 55 65
REMARK Flexibility Score: inf
ROOT
ATOM      1  C   UNL A   1      33.673  30.161  26.631  1.00  0.00     0.202 C 
ENDROOT
BRANCH   1   2
ATOM      2  O   UNL A   1      33.487  29.180  25.655  1.00  0.00    -0.374 OA
BRANCH   2   3
ATOM      3  C   UNL A   1      33.570  27.891  26.223  1.00  0.00     0.202 C 
BRANCH   3   4
ATOM      4  C   UNL A   1      33.537  27.082  25.003  1.00  0.00     0.261 C 
BRANCH   4   5
ATOM      5  O   UNL A   1      32.389  26.301  24.942  1.00  0.00    -0.459 OA
BRANCH   5   6
ATOM      6  C   UNL A   1      32.374  25.481  23.869  1.00  0.00     0.365 C 
ATOM      7  O   UNL A   1      32.922  25.651  22.795  1.00  0.00    -0.245 OA
BRANCH   6   8
ATOM      8  C   UNL A   1      31.530  24.317  24.298  1.00  0.00     0.304 C 
ATOM      9  C   UNL A   1      32.865  22.315  24.725  1.00  0.00     0.278 C 
ATOM     10  N   UNL A   1      32.139  23.083  23.715  1.00  0.00    -0.319 N 
ATOM     11  S   UNL A   1      32.298  22.821  26.370  1.00  0.00    -0.087 SA
ATOM     12  H   UNL A   1      31.398  22.501  23.325  1.00  0.00     0.348 HD
ATOM     13  H   UNL A   1      32.800  23.365  22.990  1.00  0.00     0.348 HD
ATOM     14  C   UNL A   1      31.532  24.353  25.816  1.00  0.00     0.153 C 
BRANCH   9  15
ATOM     15  C   UNL A   1      34.405  22.071  24.626  1.00  0.00     0.067 A 
ATOM     16  C   UNL A   1      35.029  20.290  25.000  1.00  0.00     0.103 A 
ATOM     17  N   UNL A   1      36.683  20.217  25.395  1.00  0.00    -0.167 NA
ATOM     18  N   UNL A   1      37.443  21.934  25.279  1.00  0.00    -0.240 N 
ATOM     19  C   UNL A   1      35.877  23.117  24.708  1.00  0.00     0.126 A 
BRANCH  16  20
ATOM     20  C   UNL A   1      34.194  19.068  24.743  1.00  0.00     0.003 A 
ATOM     21  C   UNL A   1      32.489  15.138  25.380  1.00  0.00     0.044 C 
ATOM     22  C   UNL A   1      32.985  16.505  25.015  1.00  0.00    -0.051 A 
ATOM     23  C   UNL A   1      34.222  16.629  24.396  1.00  0.00     0.004 A 
ATOM     24  C   UNL A   1      32.316  17.673  25.408  1.00  0.00     0.004 A 
ATOM     25  C   UNL A   1      34.787  17.894  24.224  1.00  0.00     0.011 A 
ATOM     26  C   UNL A   1      32.918  18.942  25.285  1.00  0.00     0.011 A 
ENDBRANCH  16  20
BRANCH  18  27
ATOM     27  C   UNL A   1      38.965  21.944  25.622  1.00  0.00     0.065 A 
ATOM     28  C   UNL A   1      39.442  22.817  26.625  1.00  0.00     0.028 A 
ATOM     29  C   UNL A   1      39.698  20.766  25.384  1.00  0.00     0.028 A 
ATOM     30  C   UNL A   1      40.295  22.319  27.627  1.00  0.00     0.002 A 
ATOM     31  C   UNL A   1      40.557  20.276  26.386  1.00  0.00     0.002 A 
ATOM     32  C   UNL A   1      40.779  21.015  27.548  1.00  0.00     0.000 A 
ENDBRANCH  18  27
ENDBRANCH   9  15
ENDBRANCH   6   8
ENDBRANCH   5   6
ENDBRANCH   4   5
ENDBRANCH   3   4
ENDBRANCH   2   3
ENDBRANCH   1   2
BRANCH   1  33
ATOM     33  C   UNL A   1      34.743  29.705  27.637  1.00  0.00     0.261 C 
BRANCH  33  34
ATOM     34  O   UNL A   1      36.014  30.377  27.326  1.00  0.00    -0.460 OA
BRANCH  34  35
ATOM     35  C   UNL A   1      37.024  30.428  28.261  1.00  0.00     0.338 C 
ATOM     36  O   UNL A   1      37.150  31.294  29.107  1.00  0.00    -0.246 OA
BRANCH  35  37
ATOM     37  C   UNL A   1      38.003  29.279  28.081  1.00  0.00     0.060 A 
ATOM     38  C   UNL A   1      37.989  28.098  28.854  1.00  0.00     0.016 A 
ATOM     39  C   UNL A   1      39.136  29.525  27.340  1.00  0.00     0.016 A 
ATOM     40  C   UNL A   1      39.194  27.361  29.108  1.00  0.00     0.010 A 
ATOM     41  C   UNL A   1      40.315  28.898  27.723  1.00  0.00     0.010 A 
ATOM     42  C   UNL A   1      40.410  27.898  28.723  1.00  0.00    -0.014 A 
BRANCH  42  43
ATOM     43  C   UNL A   1      41.828  27.574  29.205  1.00  0.00     0.031 A 
ATOM     44  C   UNL A   1      42.249  26.285  28.618  1.00  0.00     0.074 A 
ATOM     45  C   UNL A   1      42.746  28.340  29.930  1.00  0.00     0.049 A 
ATOM     46  N   UNL A   1      42.887  25.367  29.257  1.00  0.00    -0.248 NA
ATOM     47  C   UNL A   1      41.778  25.789  27.302  1.00  0.00     0.031 C 
ATOM     48  C   UNL A   1      44.226  28.353  29.988  1.00  0.00     0.029 A 
ATOM     49  N   UNL A   1      42.539  29.454  30.743  1.00  0.00    -0.354 N 
ATOM     50  C   UNL A   1      43.369  24.575  28.240  1.00  0.00     0.074 A 
ATOM     51  C   UNL A   1      42.357  24.596  27.243  1.00  0.00     0.031 C 
ATOM     52  C   UNL A   1      44.692  29.179  30.970  1.00  0.00     0.029 A 
ATOM     53  C   UNL A   1      43.554  29.776  31.653  1.00  0.00     0.049 A 
ATOM     54  H   UNL A   1      41.716  29.991  30.679  1.00  0.00     0.167 HD
ATOM     55  C   UNL A   1      44.715  24.437  28.108  1.00  0.00     0.034 A 
ATOM     56  C   UNL A   1      43.275  30.014  32.976  1.00  0.00     0.034 A 
ATOM     57  C   UNL A   1      45.425  25.027  29.261  1.00  0.00     0.049 A 
ATOM     58  C   UNL A   1      43.694  28.650  33.583  1.00  0.00     0.074 A 
ATOM     59  C   UNL A   1      46.433  25.963  29.414  1.00  0.00     0.029 A 
ATOM     60  N   UNL A   1      44.905  24.839  30.542  1.00  0.00    -0.354 N 
ATOM     61  N   UNL A   1      44.043  27.640  32.824  1.00  0.00    -0.248 NA
ATOM     62  C   UNL A   1      43.842  28.313  34.992  1.00  0.00     0.031 C 
ATOM     63  C   UNL A   1      46.477  26.342  30.798  1.00  0.00     0.029 A 
ATOM     64  C   UNL A   1      45.490  25.650  31.487  1.00  0.00     0.049 A 
ATOM     65  H   UNL A   1      44.192  24.193  30.748  1.00  0.00     0.167 HD
ATOM     66  C   UNL A   1      44.561  26.614  33.533  1.00  0.00     0.074 A 
ATOM     67  C   UNL A   1      44.376  27.073  34.909  1.00  0.00     0.031 C 
ATOM     68  C   UNL A   1      45.085  25.516  32.893  1.00  0.00     0.034 A 
BRANCH  55  69
ATOM     69  C   UNL A   1      45.409  23.960  26.843  1.00  0.00     0.023 A 
ATOM     70  C   UNL A   1      45.110  22.652  26.435  1.00  0.00     0.031 A 
ATOM     71  C   UNL A   1      46.330  24.645  26.009  1.00  0.00     0.131 A 
ATOM     72  C   UNL A   1      45.665  22.092  25.274  1.00  0.00     0.055 A 
ATOM     73  C   UNL A   1      46.847  24.104  24.822  1.00  0.00     0.041 A 
ATOM     74  F   UNL A   1      46.829  25.854  26.290  1.00  0.00    -0.206 F 
ATOM     75  C   UNL A   1      46.514  22.817  24.445  1.00  0.00     0.022 A 
BRANCH  72  76
ATOM     76  S   UNL A   1      45.247  20.382  24.878  1.00  0.00     0.124 S 
ATOM     77  O   UNL A   1      44.781  20.499  23.499  1.00  0.00    -0.237 OA
ATOM     78  O   UNL A   1      46.521  19.701  25.077  1.00  0.00    -0.237 OA
ATOM     79  O   UNL A   1      44.211  20.054  25.856  1.00  0.00    -0.744 OA
ENDBRANCH  72  76
ENDBRANCH  55  69
BRANCH  56  80
ATOM     80  C   UNL A   1      41.865  30.699  33.155  1.00  0.00     0.023 A 
ATOM     81  C   UNL A   1      40.460  30.075  34.125  1.00  0.00     0.031 A 
ATOM     82  C   UNL A   1      42.168  32.376  33.256  1.00  0.00     0.131 A 
ATOM     83  C   UNL A   1      39.491  31.466  35.393  1.00  0.00     0.055 A 
ATOM     84  C   UNL A   1      41.370  33.482  34.255  1.00  0.00     0.041 A 
ATOM     85  F   UNL A   1      43.174  32.882  32.518  1.00  0.00    -0.206 F 
ATOM     86  C   UNL A   1      40.116  33.128  35.310  1.00  0.00     0.022 A 
BRANCH  83  87
ATOM     87  S   UNL A   1      38.283  31.677  36.995  1.00  0.00     0.124 S 
ATOM     88  O   UNL A   1      39.126  32.129  38.089  1.00  0.00    -0.237 OA
ATOM     89  O   UNL A   1      37.226  32.565  36.513  1.00  0.00    -0.237 OA
ATOM     90  O   UNL A   1      37.782  30.320  37.218  1.00  0.00    -0.744 OA
ENDBRANCH  83  87
ENDBRANCH  56  80
BRANCH  68  91
ATOM     91  C   UNL A   1      45.349  24.192  33.561  1.00  0.00     0.023 A 
ATOM     92  C   UNL A   1      46.540  23.960  34.235  1.00  0.00     0.031 A 
ATOM     93  C   UNL A   1      44.417  23.125  33.598  1.00  0.00     0.131 A 
ATOM     94  C   UNL A   1      46.870  22.698  34.722  1.00  0.00     0.055 A 
ATOM     95  C   UNL A   1      44.690  21.899  34.205  1.00  0.00     0.041 A 
ATOM     96  F   UNL A   1      43.189  23.212  33.071  1.00  0.00    -0.206 F 
ATOM     97  C   UNL A   1      45.949  21.659  34.731  1.00  0.00     0.022 A 
BRANCH  94  98
ATOM     98  S   UNL A   1      48.585  22.476  35.225  1.00  0.00     0.124 S 
ATOM     99  O   UNL A   1      49.300  23.172  34.158  1.00  0.00    -0.237 OA
ATOM    100  O   UNL A   1      48.612  23.134  36.528  1.00  0.00    -0.237 OA
ATOM    101  O   UNL A   1      48.750  21.026  35.248  1.00  0.00    -0.744 OA
ENDBRANCH  94  98
ENDBRANCH  68  91
ENDBRANCH  42  43
ENDBRANCH  35  37
ENDBRANCH  34  35
ENDBRANCH  33  34
ENDBRANCH   1  33
TORSDOF 20
ENDMDL
MODEL 2
REMARK VINA RESULT:     -12.6      2.082      3.818
REMARK SMILES Cc1ccc(-c2nn(-c3ccccc3)cc2[C@@H]2[NH2+][C@H](C(=O)OCCOCCOC(=O)c3ccc(-c4c5nc(c(-c6cc(S(=O)(=O)[O-])ccc6F)c6ccc([nH]6)c(-c6cc(S(=O)(=O)[O-])ccc6F)c6nc(c(-c7cc(S(=O)(=O)[O-])ccc7F)c7ccc4[nH]7)C=C6)C=C5)cc3)CS2)cc1
REMARK SMILES IDX 26 1 25 2 24 3 23 4 22 5 20 6 21 7 19 8 17 9 18 10 95 11
REMARK SMILES IDX 94 14 16 15 6 16 7 17 8 18 15 19 5 20 1 21 2 22 3 23 97 24
REMARK SMILES IDX 4 25 96 26 9 27 10 28 14 29 11 30 13 31 12 32 27 33 28 34
REMARK SMILES IDX 29 35 30 36 31 37 32 38 93 39 33 40 92 41 34 42 35 43 36 44
REMARK SMILES IDX 86 45 37 46 91 47 85 48 87 49 38 50 90 51 84 52 83 53 39 55
REMARK SMILES IDX 71 56 51 57 70 58 52 59 55 60 69 61 88 62 53 63 54 64 68 66
REMARK SMILES IDX 89 67 56 68 40 69 41 70 49 71 42 72 48 73 50 74 47 75 43 76
REMARK SMILES IDX 44 77 45 78 46 79 72 80 73 81 81 82 74 83 80 84 82 85 79 86
REMARK SMILES IDX 75 87 76 88 77 89 78 90 57 91 58 92 66 93 59 94 65 95 67 96
REMARK SMILES IDX 64 97 60 98 61 99 62 100 63 101
REMARK H PARENT 18 12 18 13 87 54 55 65
REMARK Flexibility Score: inf
ROOT
ATOM      1  C   UNL A   1      33.435  31.137  27.587  1.00  0.00     0.202 C 
ENDROOT
BRANCH   1   2
ATOM      2  O   UNL A   1      33.434  29.795  27.200  1.00  0.00    -0.374 OA
BRANCH   2   3
ATOM      3  C   UNL A   1      32.114  29.309  27.095  1.00  0.00     0.202 C 
BRANCH   3   4
ATOM      4  C   UNL A   1      32.185  28.688  25.771  1.00  0.00     0.261 C 
BRANCH   4   5
ATOM      5  O   UNL A   1      31.200  27.722  25.608  1.00  0.00    -0.459 OA
BRANCH   5   6
ATOM      6  C   UNL A   1      31.708  26.486  25.413  1.00  0.00     0.365 C 
ATOM      7  O   UNL A   1      31.290  25.431  25.856  1.00  0.00    -0.245 OA
BRANCH   6   8
ATOM      8  C   UNL A   1      32.902  26.706  24.531  1.00  0.00     0.304 C 
ATOM      9  C   UNL A   1      34.081  24.623  24.038  1.00  0.00     0.278 C 
ATOM     10  N   UNL A   1      33.962  25.747  24.966  1.00  0.00    -0.319 N 
ATOM     11  S   UNL A   1      33.326  25.084  22.455  1.00  0.00    -0.087 SA
ATOM     12  H   UNL A   1      34.855  26.237  25.008  1.00  0.00     0.348 HD
ATOM     13  H   UNL A   1      33.705  25.379  25.882  1.00  0.00     0.348 HD
ATOM     14  C   UNL A   1      32.404  26.483  23.114  1.00  0.00     0.153 C 
BRANCH   9  15
ATOM     15  C   UNL A   1      33.792  23.153  24.480  1.00  0.00     0.067 A 
ATOM     16  C   UNL A   1      35.311  21.988  24.670  1.00  0.00     0.103 A 
ATOM     17  N   UNL A   1      34.911  20.335  24.623  1.00  0.00    -0.167 NA
ATOM     18  N   UNL A   1      33.047  20.133  24.463  1.00  0.00    -0.240 N 
ATOM     19  C   UNL A   1      32.357  22.057  24.428  1.00  0.00     0.126 A 
BRANCH  16  20
ATOM     20  C   UNL A   1      36.675  22.490  25.050  1.00  0.00     0.003 A 
ATOM     21  C   UNL A   1      40.104  23.358  27.549  1.00  0.00     0.044 C 
ATOM     22  C   UNL A   1      39.006  23.129  26.555  1.00  0.00    -0.051 A 
ATOM     23  C   UNL A   1      37.939  24.016  26.515  1.00  0.00     0.004 A 
ATOM     24  C   UNL A   1      38.942  21.972  25.765  1.00  0.00     0.004 A 
ATOM     25  C   UNL A   1      36.818  23.717  25.738  1.00  0.00     0.011 A 
ATOM     26  C   UNL A   1      37.783  21.648  25.029  1.00  0.00     0.011 A 
ENDBRANCH  16  20
BRANCH  18  27
ATOM     27  C   UNL A   1      32.604  18.639  24.421  1.00  0.00     0.065 A 
ATOM     28  C   UNL A   1      32.841  17.880  23.253  1.00  0.00     0.028 A 
ATOM     29  C   UNL A   1      32.526  17.943  25.642  1.00  0.00     0.028 A 
ATOM     30  C   UNL A   1      33.431  16.607  23.364  1.00  0.00     0.002 A 
ATOM     31  C   UNL A   1      33.109  16.666  25.746  1.00  0.00     0.002 A 
ATOM     32  C   UNL A   1      33.644  16.042  24.619  1.00  0.00     0.000 A 
ENDBRANCH  18  27
ENDBRANCH   9  15
ENDBRANCH   6   8
ENDBRANCH   5   6
ENDBRANCH   4   5
ENDBRANCH   3   4
ENDBRANCH   2   3
ENDBRANCH   1   2
BRANCH   1  33
ATOM     33  C   UNL A   1      34.877  31.670  27.627  1.00  0.00     0.261 C 
BRANCH  33  34
ATOM     34  O   UNL A   1      35.808  30.535  27.716  1.00  0.00    -0.460 OA
BRANCH  34  35
ATOM     35  C   UNL A   1      36.652  30.408  28.797  1.00  0.00     0.338 C 
ATOM     36  O   UNL A   1      36.549  31.027  29.841  1.00  0.00    -0.246 OA
BRANCH  35  37
ATOM     37  C   UNL A   1      37.771  29.420  28.512  1.00  0.00     0.060 A 
ATOM     38  C   UNL A   1      37.858  28.134  29.086  1.00  0.00     0.016 A 
ATOM     39  C   UNL A   1      38.904  29.908  27.903  1.00  0.00     0.016 A 
ATOM     40  C   UNL A   1      39.128  27.504  29.310  1.00  0.00     0.010 A 
ATOM     41  C   UNL A   1      40.128  29.361  28.269  1.00  0.00     0.010 A 
ATOM     42  C   UNL A   1      40.290  28.228  29.103  1.00  0.00    -0.014 A 
BRANCH  42  43
ATOM     43  C   UNL A   1      41.708  27.988  29.632  1.00  0.00     0.031 A 
ATOM     44  C   UNL A   1      42.283  26.817  28.939  1.00  0.00     0.074 A 
ATOM     45  C   UNL A   1      42.508  28.753  30.485  1.00  0.00     0.049 A 
ATOM     46  N   UNL A   1      42.979  25.899  29.515  1.00  0.00    -0.248 NA
ATOM     47  C   UNL A   1      41.928  26.426  27.553  1.00  0.00     0.031 C 
ATOM     48  C   UNL A   1      43.975  28.900  30.631  1.00  0.00     0.029 A 
ATOM     49  N   UNL A   1      42.151  29.747  31.396  1.00  0.00    -0.354 N 
ATOM     50  C   UNL A   1      43.585  25.272  28.451  1.00  0.00     0.074 A 
ATOM     51  C   UNL A   1      42.626  25.306  27.404  1.00  0.00     0.031 C 
ATOM     52  C   UNL A   1      44.308  29.654  31.720  1.00  0.00     0.029 A 
ATOM     53  C   UNL A   1      43.084  30.062  32.393  1.00  0.00     0.049 A 
ATOM     54  H   UNL A   1      41.283  30.208  31.341  1.00  0.00     0.167 HD
ATOM     55  C   UNL A   1      44.944  25.277  28.384  1.00  0.00     0.034 A 
ATOM     56  C   UNL A   1      42.719  30.126  33.715  1.00  0.00     0.034 A 
ATOM     57  C   UNL A   1      45.534  25.802  29.632  1.00  0.00     0.049 A 
ATOM     58  C   UNL A   1      43.243  28.749  34.200  1.00  0.00     0.074 A 
ATOM     59  C   UNL A   1      46.435  26.806  29.941  1.00  0.00     0.029 A 
ATOM     60  N   UNL A   1      44.975  25.426  30.854  1.00  0.00    -0.354 N 
ATOM     61  N   UNL A   1      43.728  27.866  33.362  1.00  0.00    -0.248 NA
ATOM     62  C   UNL A   1      43.356  28.275  35.573  1.00  0.00     0.031 C 
ATOM     63  C   UNL A   1      46.375  27.033  31.358  1.00  0.00     0.029 A 
ATOM     64  C   UNL A   1      45.430  26.180  31.911  1.00  0.00     0.049 A 
ATOM     65  H   UNL A   1      44.321  24.697  30.950  1.00  0.00     0.167 HD
ATOM     66  C   UNL A   1      44.311  26.822  33.989  1.00  0.00     0.074 A 
ATOM     67  C   UNL A   1      44.015  27.108  35.392  1.00  0.00     0.031 C 
ATOM     68  C   UNL A   1      44.973  25.855  33.269  1.00  0.00     0.034 A 
BRANCH  55  69
ATOM     69  C   UNL A   1      45.742  25.009  27.119  1.00  0.00     0.023 A 
ATOM     70  C   UNL A   1      46.253  26.140  26.467  1.00  0.00     0.031 A 
ATOM     71  C   UNL A   1      46.042  23.774  26.489  1.00  0.00     0.131 A 
ATOM     72  C   UNL A   1      47.025  26.036  25.298  1.00  0.00     0.055 A 
ATOM     73  C   UNL A   1      46.854  23.666  25.349  1.00  0.00     0.041 A 
ATOM     74  F   UNL A   1      45.551  22.597  26.890  1.00  0.00    -0.206 F 
ATOM     75  C   UNL A   1      47.355  24.804  24.746  1.00  0.00     0.022 A 
BRANCH  72  76
ATOM     76  S   UNL A   1      47.585  27.564  24.519  1.00  0.00     0.124 S 
ATOM     77  O   UNL A   1      47.901  28.394  25.677  1.00  0.00    -0.237 OA
ATOM     78  O   UNL A   1      48.717  27.104  23.722  1.00  0.00    -0.237 OA
ATOM     79  O   UNL A   1      46.421  27.995  23.747  1.00  0.00    -0.744 OA
ENDBRANCH  72  76
ENDBRANCH  55  69
BRANCH  56  80
ATOM     80  C   UNL A   1      41.241  30.651  33.881  1.00  0.00     0.023 A 
ATOM     81  C   UNL A   1      39.995  30.056  35.063  1.00  0.00     0.031 A 
ATOM     82  C   UNL A   1      41.315  32.340  33.646  1.00  0.00     0.131 A 
ATOM     83  C   UNL A   1      38.917  31.534  36.130  1.00  0.00     0.055 A 
ATOM     84  C   UNL A   1      40.431  33.511  34.487  1.00  0.00     0.041 A 
ATOM     85  F   UNL A   1      42.196  32.816  32.747  1.00  0.00    -0.206 F 
ATOM     86  C   UNL A   1      39.301  33.213  35.690  1.00  0.00     0.022 A 
BRANCH  83  87
ATOM     87  S   UNL A   1      37.787  31.898  37.760  1.00  0.00     0.124 S 
ATOM     88  O   UNL A   1      36.876  32.971  37.397  1.00  0.00    -0.237 OA
ATOM     89  O   UNL A   1      37.228  30.588  38.090  1.00  0.00    -0.237 OA
ATOM     90  O   UNL A   1      38.766  32.329  38.758  1.00  0.00    -0.744 OA
ENDBRANCH  83  87
ENDBRANCH  56  80
BRANCH  68  91
ATOM     91  C   UNL A   1      45.336  24.497  33.810  1.00  0.00     0.023 A 
ATOM     92  C   UNL A   1      46.608  24.243  34.303  1.00  0.00     0.031 A 
ATOM     93  C   UNL A   1      44.426  23.414  33.903  1.00  0.00     0.131 A 
ATOM     94  C   UNL A   1      47.011  22.959  34.659  1.00  0.00     0.055 A 
ATOM     95  C   UNL A   1      44.789  22.158  34.388  1.00  0.00     0.041 A 
ATOM     96  F   UNL A   1      43.137  23.513  33.552  1.00  0.00    -0.206 F 
ATOM     97  C   UNL A   1      46.108  21.906  34.725  1.00  0.00     0.022 A 
BRANCH  94  98
ATOM     98  S   UNL A   1      48.780  22.736  34.913  1.00  0.00     0.124 S 
ATOM     99  O   UNL A   1      48.840  22.435  36.342  1.00  0.00    -0.237 OA
ATOM    100  O   UNL A   1      49.081  21.615  34.026  1.00  0.00    -0.237 OA
ATOM    101  O   UNL A   1      49.347  24.021  34.518  1.00  0.00    -0.744 OA
ENDBRANCH  94  98
ENDBRANCH  68  91
ENDBRANCH  42  43
ENDBRANCH  35  37
ENDBRANCH  34  35
ENDBRANCH  33  34
ENDBRANCH   1  33
TORSDOF 20
ENDMDL
MODEL 3
REMARK VINA RESULT:     -12.5      2.689      4.828
REMARK SMILES Cc1ccc(-c2nn(-c3ccccc3)cc2[C@@H]2[NH2+][C@H](C(=O)OCCOCCOC(=O)c3ccc(-c4c5nc(c(-c6cc(S(=O)(=O)[O-])ccc6F)c6ccc([nH]6)c(-c6cc(S(=O)(=O)[O-])ccc6F)c6nc(c(-c7cc(S(=O)(=O)[O-])ccc7F)c7ccc4[nH]7)C=C6)C=C5)cc3)CS2)cc1
REMARK SMILES IDX 26 1 25 2 24 3 23 4 22 5 20 6 21 7 19 8 17 9 18 10 95 11
REMARK SMILES IDX 94 14 16 15 6 16 7 17 8 18 15 19 5 20 1 21 2 22 3 23 97 24
REMARK SMILES IDX 4 25 96 26 9 27 10 28 14 29 11 30 13 31 12 32 27 33 28 34
REMARK SMILES IDX 29 35 30 36 31 37 32 38 93 39 33 40 92 41 34 42 35 43 36 44
REMARK SMILES IDX 86 45 37 46 91 47 85 48 87 49 38 50 90 51 84 52 83 53 39 55
REMARK SMILES IDX 71 56 51 57 70 58 52 59 55 60 69 61 88 62 53 63 54 64 68 66
REMARK SMILES IDX 89 67 56 68 40 69 41 70 49 71 42 72 48 73 50 74 47 75 43 76
REMARK SMILES IDX 44 77 45 78 46 79 72 80 73 81 81 82 74 83 80 84 82 85 79 86
REMARK SMILES IDX 75 87 76 88 77 89 78 90 57 91 58 92 66 93 59 94 65 95 67 96
REMARK SMILES IDX 64 97 60 98 61 99 62 100 63 101
REMARK H PARENT 18 12 18 13 87 54 55 65
REMARK Flexibility Score: inf
ROOT
ATOM      1  C   UNL A   1      33.665  30.915  27.560  1.00  0.00     0.202 C 
ENDROOT
BRANCH   1   2
ATOM      2  O   UNL A   1      33.810  30.200  26.370  1.00  0.00    -0.374 OA
BRANCH   2   3
ATOM      3  C   UNL A   1      33.843  28.813  26.623  1.00  0.00     0.202 C 
BRANCH   3   4
ATOM      4  C   UNL A   1      32.633  28.404  25.906  1.00  0.00     0.261 C 
BRANCH   4   5
ATOM      5  O   UNL A   1      32.168  27.174  26.355  1.00  0.00    -0.459 OA
BRANCH   5   6
ATOM      6  C   UNL A   1      31.865  26.331  25.344  1.00  0.00     0.365 C 
ATOM      7  O   UNL A   1      30.912  25.576  25.265  1.00  0.00    -0.245 OA
BRANCH   6   8
ATOM      8  C   UNL A   1      32.964  26.534  24.343  1.00  0.00     0.304 C 
ATOM      9  C   UNL A   1      34.077  24.439  23.756  1.00  0.00     0.278 C 
ATOM     10  N   UNL A   1      34.058  25.572  24.679  1.00  0.00    -0.319 N 
ATOM     11  S   UNL A   1      33.168  24.887  22.253  1.00  0.00    -0.087 SA
ATOM     12  H   UNL A   1      34.954  26.058  24.625  1.00  0.00     0.348 HD
ATOM     13  H   UNL A   1      33.893  25.216  25.620  1.00  0.00     0.348 HD
ATOM     14  C   UNL A   1      32.324  26.299  22.986  1.00  0.00     0.153 C 
BRANCH   9  15
ATOM     15  C   UNL A   1      33.827  22.975  24.242  1.00  0.00     0.067 A 
ATOM     16  C   UNL A   1      35.381  21.893  24.579  1.00  0.00     0.103 A 
ATOM     17  N   UNL A   1      35.061  20.222  24.578  1.00  0.00    -0.167 NA
ATOM     18  N   UNL A   1      33.222  19.925  24.308  1.00  0.00    -0.240 N 
ATOM     19  C   UNL A   1      32.449  21.810  24.145  1.00  0.00     0.126 A 
BRANCH  16  20
ATOM     20  C   UNL A   1      36.693  22.475  25.025  1.00  0.00     0.003 A 
ATOM     21  C   UNL A   1      39.912  23.594  27.696  1.00  0.00     0.044 C 
ATOM     22  C   UNL A   1      38.891  23.279  26.645  1.00  0.00    -0.051 A 
ATOM     23  C   UNL A   1      37.786  24.109  26.509  1.00  0.00     0.004 A 
ATOM     24  C   UNL A   1      38.932  22.095  25.894  1.00  0.00     0.004 A 
ATOM     25  C   UNL A   1      36.732  23.730  25.676  1.00  0.00     0.011 A 
ATOM     26  C   UNL A   1      37.839  21.690  25.100  1.00  0.00     0.011 A 
ENDBRANCH  16  20
BRANCH  18  27
ATOM     27  C   UNL A   1      32.851  18.410  24.302  1.00  0.00     0.065 A 
ATOM     28  C   UNL A   1      33.307  17.590  23.245  1.00  0.00     0.028 A 
ATOM     29  C   UNL A   1      32.602  17.791  25.541  1.00  0.00     0.028 A 
ATOM     30  C   UNL A   1      33.921  16.359  23.540  1.00  0.00     0.002 A 
ATOM     31  C   UNL A   1      33.210  16.555  25.828  1.00  0.00     0.002 A 
ATOM     32  C   UNL A   1      33.947  15.887  24.850  1.00  0.00     0.000 A 
ENDBRANCH  18  27
ENDBRANCH   9  15
ENDBRANCH   6   8
ENDBRANCH   5   6
ENDBRANCH   4   5
ENDBRANCH   3   4
ENDBRANCH   2   3
ENDBRANCH   1   2
BRANCH   1  33
ATOM     33  C   UNL A   1      35.037  31.110  28.227  1.00  0.00     0.261 C 
BRANCH  33  34
ATOM     34  O   UNL A   1      34.931  32.163  29.248  1.00  0.00    -0.460 OA
BRANCH  34  35
ATOM     35  C   UNL A   1      35.516  33.394  29.044  1.00  0.00     0.338 C 
ATOM     36  O   UNL A   1      35.066  34.272  28.330  1.00  0.00    -0.246 OA
BRANCH  35  37
ATOM     37  C   UNL A   1      36.832  33.512  29.795  1.00  0.00     0.060 A 
ATOM     38  C   UNL A   1      37.993  34.118  29.269  1.00  0.00     0.016 A 
ATOM     39  C   UNL A   1      36.991  32.731  30.917  1.00  0.00     0.016 A 
ATOM     40  C   UNL A   1      39.302  33.695  29.677  1.00  0.00     0.010 A 
ATOM     41  C   UNL A   1      38.256  32.222  31.183  1.00  0.00     0.010 A 
ATOM     42  C   UNL A   1      39.434  32.575  30.479  1.00  0.00    -0.014 A 
BRANCH  42  43
ATOM     43  C   UNL A   1      40.648  31.671  30.719  1.00  0.00     0.031 A 
ATOM     44  C   UNL A   1      40.420  30.376  30.045  1.00  0.00     0.074 A 
ATOM     45  C   UNL A   1      41.890  31.942  31.302  1.00  0.00     0.049 A 
ATOM     46  N   UNL A   1      40.710  29.230  30.554  1.00  0.00    -0.248 NA
ATOM     47  C   UNL A   1      39.609  30.224  28.812  1.00  0.00     0.031 C 
ATOM     48  C   UNL A   1      43.238  31.357  31.121  1.00  0.00     0.029 A 
ATOM     49  N   UNL A   1      42.270  32.973  32.161  1.00  0.00    -0.354 N 
ATOM     50  C   UNL A   1      40.679  28.400  29.456  1.00  0.00     0.074 A 
ATOM     51  C   UNL A   1      39.637  28.908  28.636  1.00  0.00     0.031 C 
ATOM     52  C   UNL A   1      44.133  31.842  32.032  1.00  0.00     0.029 A 
ATOM     53  C   UNL A   1      43.444  32.784  32.901  1.00  0.00     0.049 A 
ATOM     54  H   UNL A   1      41.738  33.798  32.241  1.00  0.00     0.167 HD
ATOM     55  C   UNL A   1      41.819  27.746  29.106  1.00  0.00     0.034 A 
ATOM     56  C   UNL A   1      43.473  33.001  34.257  1.00  0.00     0.034 A 
ATOM     57  C   UNL A   1      42.861  27.904  30.141  1.00  0.00     0.049 A 
ATOM     58  C   UNL A   1      43.379  31.536  34.760  1.00  0.00     0.074 A 
ATOM     59  C   UNL A   1      44.174  28.342  30.149  1.00  0.00     0.029 A 
ATOM     60  N   UNL A   1      42.493  27.832  31.485  1.00  0.00    -0.354 N 
ATOM     61  N   UNL A   1      43.177  30.540  33.934  1.00  0.00    -0.248 NA
ATOM     62  C   UNL A   1      43.571  31.050  36.120  1.00  0.00     0.031 C 
ATOM     63  C   UNL A   1      44.561  28.553  31.516  1.00  0.00     0.029 A 
ATOM     64  C   UNL A   1      43.483  28.258  32.340  1.00  0.00     0.049 A 
ATOM     65  H   UNL A   1      41.615  27.510  31.790  1.00  0.00     0.167 HD
ATOM     66  C   UNL A   1      43.323  29.337  34.528  1.00  0.00     0.074 A 
ATOM     67  C   UNL A   1      43.535  29.713  35.925  1.00  0.00     0.031 C 
ATOM     68  C   UNL A   1      43.258  28.178  33.789  1.00  0.00     0.034 A 
BRANCH  55  69
ATOM     69  C   UNL A   1      42.075  27.141  27.736  1.00  0.00     0.023 A 
ATOM     70  C   UNL A   1      42.628  25.853  27.728  1.00  0.00     0.031 A 
ATOM     71  C   UNL A   1      41.843  27.694  26.449  1.00  0.00     0.131 A 
ATOM     72  C   UNL A   1      42.897  25.168  26.532  1.00  0.00     0.055 A 
ATOM     73  C   UNL A   1      42.066  26.992  25.255  1.00  0.00     0.041 A 
ATOM     74  F   UNL A   1      41.430  28.950  26.245  1.00  0.00    -0.206 F 
ATOM     75  C   UNL A   1      42.595  25.716  25.291  1.00  0.00     0.022 A 
BRANCH  72  76
ATOM     76  S   UNL A   1      43.657  23.536  26.647  1.00  0.00     0.124 S 
ATOM     77  O   UNL A   1      44.874  23.715  25.862  1.00  0.00    -0.237 OA
ATOM     78  O   UNL A   1      43.833  23.380  28.087  1.00  0.00    -0.237 OA
ATOM     79  O   UNL A   1      42.657  22.655  26.047  1.00  0.00    -0.744 OA
ENDBRANCH  72  76
ENDBRANCH  55  69
BRANCH  56  80
ATOM     80  C   UNL A   1      42.506  34.175  34.675  1.00  0.00     0.023 A 
ATOM     81  C   UNL A   1      40.987  34.041  35.665  1.00  0.00     0.031 A 
ATOM     82  C   UNL A   1      43.511  35.514  35.008  1.00  0.00     0.131 A 
ATOM     83  C   UNL A   1      40.744  35.455  37.223  1.00  0.00     0.055 A 
ATOM     84  C   UNL A   1      43.292  36.651  36.240  1.00  0.00     0.041 A 
ATOM     85  F   UNL A   1      44.623  35.670  34.266  1.00  0.00    -0.206 F 
ATOM     86  C   UNL A   1      42.028  36.677  37.341  1.00  0.00     0.022 A 
BRANCH  83  87
ATOM     87  S   UNL A   1      39.778  35.862  38.946  1.00  0.00     0.124 S 
ATOM     88  O   UNL A   1      40.759  35.729  40.009  1.00  0.00    -0.237 OA
ATOM     89  O   UNL A   1      39.182  37.175  38.704  1.00  0.00    -0.237 OA
ATOM     90  O   UNL A   1      38.756  34.816  39.014  1.00  0.00    -0.744 OA
ENDBRANCH  83  87
ENDBRANCH  56  80
BRANCH  68  91
ATOM     91  C   UNL A   1      43.049  26.808  34.379  1.00  0.00     0.023 A 
ATOM     92  C   UNL A   1      43.922  25.769  34.091  1.00  0.00     0.031 A 
ATOM     93  C   UNL A   1      42.007  26.488  35.284  1.00  0.00     0.131 A 
ATOM     94  C   UNL A   1      43.661  24.462  34.496  1.00  0.00     0.055 A 
ATOM     95  C   UNL A   1      41.819  25.207  35.802  1.00  0.00     0.041 A 
ATOM     96  F   UNL A   1      41.128  27.393  35.734  1.00  0.00    -0.206 F 
ATOM     97  C   UNL A   1      42.622  24.166  35.367  1.00  0.00     0.022 A 
BRANCH  94  98
ATOM     98  S   UNL A   1      44.677  23.187  33.730  1.00  0.00     0.124 S 
ATOM     99  O   UNL A   1      44.305  22.005  34.504  1.00  0.00    -0.237 OA
ATOM    100  O   UNL A   1      44.204  23.203  32.348  1.00  0.00    -0.237 OA
ATOM    101  O   UNL A   1      46.040  23.668  33.934  1.00  0.00    -0.744 OA
ENDBRANCH  94  98
ENDBRANCH  68  91
ENDBRANCH  42  43
ENDBRANCH  35  37
ENDBRANCH  34  35
ENDBRANCH  33  34
ENDBRANCH   1  33
TORSDOF 20
ENDMDL
