MODEL 1
REMARK VINA RESULT:     -11.1      0.000      0.000
REMARK SMILES CC(C)(C)OC(=O)[C@@H]1[NH2+][C@H](C(=O)OCCOCCOC(=O)c2ccc(-c3c4nc(c(-c5cc(S(=O)(=O)[O-])ccc5F)c5ccc([nH]5)c(-c5cc(S(=O)(=O)[O-])ccc5F)c5nc(c(-c6cc(S(=O)(=O)[O-])ccc6F)c6ccc3[nH]6)C=C5)C=C4)cc2)C(C)(C)S1
REMARK SMILES IDX 16 1 15 2 14 3 13 4 11 5 12 6 10 7 8 8 9 9 88 10 85 13 86 14
REMARK SMILES IDX 87 15 6 16 7 17 5 18 2 19 1 20 3 21 4 22 17 23 18 24 19 25
REMARK SMILES IDX 20 26 21 27 22 28 23 29 84 30 24 31 83 32 25 33 26 34 27 35
REMARK SMILES IDX 77 36 28 37 82 38 76 39 78 40 29 41 81 42 75 43 74 44 30 46
REMARK SMILES IDX 62 47 42 48 61 49 43 50 46 51 60 52 79 53 44 54 45 55 59 57
REMARK SMILES IDX 80 58 47 59 31 60 32 61 40 62 33 63 39 64 41 65 38 66 34 67
REMARK SMILES IDX 35 68 36 69 37 70 63 71 64 72 72 73 65 74 71 75 73 76 70 77
REMARK SMILES IDX 66 78 67 79 68 80 69 81 48 82 49 83 57 84 50 85 56 86 58 87
REMARK SMILES IDX 55 88 51 89 52 90 53 91 54 92
REMARK H PARENT 9 11 9 12 78 45 46 56
REMARK Flexibility Score: inf
ROOT
ATOM      1  O   UNL A   1      32.068  30.394  26.105  1.00  0.00    -0.374 OA
ENDROOT
BRANCH   1   2
ATOM      2  C   UNL A   1      31.953  29.502  27.223  1.00  0.00     0.202 C 
BRANCH   2   3
ATOM      3  C   UNL A   1      31.672  28.018  26.918  1.00  0.00     0.261 C 
BRANCH   3   4
ATOM      4  O   UNL A   1      30.963  27.815  25.671  1.00  0.00    -0.459 OA
BRANCH   4   5
ATOM      5  C   UNL A   1      30.903  26.527  25.235  1.00  0.00     0.366 C 
ATOM      6  O   UNL A   1      30.480  25.602  25.921  1.00  0.00    -0.245 OA
BRANCH   5   7
ATOM      7  C   UNL A   1      31.498  26.320  23.817  1.00  0.00     0.310 C 
ATOM      8  C   UNL A   1      30.474  28.092  22.471  1.00  0.00     0.354 C 
ATOM      9  N   UNL A   1      30.426  26.645  22.806  1.00  0.00    -0.313 N 
ATOM     10  S   UNL A   1      32.158  28.667  22.772  1.00  0.00    -0.074 SA
ATOM     11  H   UNL A   1      30.582  26.097  21.959  1.00  0.00     0.348 HD
ATOM     12  H   UNL A   1      29.512  26.419  23.197  1.00  0.00     0.348 HD
ATOM     13  C   UNL A   1      32.788  27.039  23.345  1.00  0.00     0.079 C 
ATOM     14  C   UNL A   1      33.386  26.299  22.124  1.00  0.00     0.030 C 
ATOM     15  C   UNL A   1      33.962  27.170  24.326  1.00  0.00     0.030 C 
BRANCH   8  16
ATOM     16  C   UNL A   1      29.238  28.876  23.028  1.00  0.00     0.376 C 
ATOM     17  O   UNL A   1      28.151  28.303  23.135  1.00  0.00    -0.244 OA
BRANCH  16  18
ATOM     18  O   UNL A   1      29.407  30.198  23.355  1.00  0.00    -0.455 OA
BRANCH  18  19
ATOM     19  C   UNL A   1      28.476  31.206  22.802  1.00  0.00     0.104 C 
ATOM     20  C   UNL A   1      29.149  32.594  22.754  1.00  0.00     0.056 C 
ATOM     21  C   UNL A   1      27.249  31.359  23.715  1.00  0.00     0.056 C 
ATOM     22  C   UNL A   1      28.101  30.898  21.347  1.00  0.00     0.056 C 
ENDBRANCH  18  19
ENDBRANCH  16  18
ENDBRANCH   8  16
ENDBRANCH   5   7
ENDBRANCH   4   5
ENDBRANCH   3   4
ENDBRANCH   2   3
ENDBRANCH   1   2
BRANCH   1  23
ATOM     23  C   UNL A   1      31.190  31.512  26.192  1.00  0.00     0.202 C 
BRANCH  23  24
ATOM     24  C   UNL A   1      31.778  32.838  26.687  1.00  0.00     0.261 C 
BRANCH  24  25
ATOM     25  O   UNL A   1      32.642  32.551  27.778  1.00  0.00    -0.460 OA
BRANCH  25  26
ATOM     26  C   UNL A   1      33.569  33.519  27.929  1.00  0.00     0.338 C 
ATOM     27  O   UNL A   1      33.374  34.720  28.022  1.00  0.00    -0.246 OA
BRANCH  26  28
ATOM     28  C   UNL A   1      34.835  32.847  28.237  1.00  0.00     0.060 A 
ATOM     29  C   UNL A   1      34.786  31.464  28.420  1.00  0.00     0.016 A 
ATOM     30  C   UNL A   1      36.046  33.551  28.302  1.00  0.00     0.016 A 
ATOM     31  C   UNL A   1      35.936  30.789  28.782  1.00  0.00     0.010 A 
ATOM     32  C   UNL A   1      37.203  32.871  28.649  1.00  0.00     0.010 A 
ATOM     33  C   UNL A   1      37.126  31.504  28.954  1.00  0.00    -0.014 A 
BRANCH  33  34
ATOM     34  C   UNL A   1      38.232  30.861  29.679  1.00  0.00     0.031 A 
ATOM     35  C   UNL A   1      38.444  31.250  31.113  1.00  0.00     0.074 A 
ATOM     36  C   UNL A   1      38.965  29.916  29.075  1.00  0.00     0.049 A 
ATOM     37  N   UNL A   1      39.354  30.842  31.953  1.00  0.00    -0.248 NA
ATOM     38  C   UNL A   1      37.506  32.241  31.671  1.00  0.00     0.031 C 
ATOM     39  C   UNL A   1      38.780  29.459  27.697  1.00  0.00     0.029 A 
ATOM     40  N   UNL A   1      40.010  29.172  29.544  1.00  0.00    -0.354 N 
ATOM     41  C   UNL A   1      39.096  31.520  33.139  1.00  0.00     0.074 A 
ATOM     42  C   UNL A   1      37.984  32.409  32.892  1.00  0.00     0.031 C 
ATOM     43  C   UNL A   1      39.691  28.509  27.431  1.00  0.00     0.029 A 
ATOM     44  C   UNL A   1      40.545  28.329  28.603  1.00  0.00     0.049 A 
ATOM     45  H   UNL A   1      40.346  29.233  30.467  1.00  0.00     0.167 HD
ATOM     46  C   UNL A   1      39.725  31.389  34.331  1.00  0.00     0.034 A 
ATOM     47  C   UNL A   1      41.625  27.529  28.681  1.00  0.00     0.034 A 
ATOM     48  C   UNL A   1      40.841  30.502  34.531  1.00  0.00     0.049 A 
ATOM     49  C   UNL A   1      42.367  27.469  29.994  1.00  0.00     0.074 A 
ATOM     50  C   UNL A   1      41.578  30.285  35.680  1.00  0.00     0.029 A 
ATOM     51  N   UNL A   1      41.389  29.688  33.545  1.00  0.00    -0.354 N 
ATOM     52  N   UNL A   1      42.121  28.113  31.114  1.00  0.00    -0.248 NA
ATOM     53  C   UNL A   1      43.520  26.566  30.059  1.00  0.00     0.031 C 
ATOM     54  C   UNL A   1      42.615  29.401  35.370  1.00  0.00     0.029 A 
ATOM     55  C   UNL A   1      42.473  28.991  34.052  1.00  0.00     0.049 A 
ATOM     56  H   UNL A   1      41.056  29.618  32.621  1.00  0.00     0.167 HD
ATOM     57  C   UNL A   1      43.073  27.667  32.026  1.00  0.00     0.074 A 
ATOM     58  C   UNL A   1      43.882  26.687  31.328  1.00  0.00     0.031 C 
ATOM     59  C   UNL A   1      43.265  28.027  33.322  1.00  0.00     0.034 A 
BRANCH  46  60
ATOM     60  C   UNL A   1      39.244  32.257  35.469  1.00  0.00     0.023 A 
ATOM     61  C   UNL A   1      39.648  33.599  35.599  1.00  0.00     0.031 A 
ATOM     62  C   UNL A   1      38.403  31.725  36.462  1.00  0.00     0.131 A 
ATOM     63  C   UNL A   1      39.269  34.339  36.729  1.00  0.00     0.055 A 
ATOM     64  C   UNL A   1      37.960  32.493  37.541  1.00  0.00     0.041 A 
ATOM     65  F   UNL A   1      38.011  30.443  36.410  1.00  0.00    -0.206 F 
ATOM     66  C   UNL A   1      38.404  33.804  37.687  1.00  0.00     0.022 A 
BRANCH  63  67
ATOM     67  S   UNL A   1      40.040  35.957  37.006  1.00  0.00     0.124 S 
ATOM     68  O   UNL A   1      41.409  35.575  37.345  1.00  0.00    -0.237 OA
ATOM     69  O   UNL A   1      39.862  36.617  35.719  1.00  0.00    -0.237 OA
ATOM     70  O   UNL A   1      39.267  36.520  38.111  1.00  0.00    -0.744 OA
ENDBRANCH  63  67
ENDBRANCH  46  60
BRANCH  47  71
ATOM     71  C   UNL A   1      42.085  26.769  27.487  1.00  0.00     0.023 A 
ATOM     72  C   UNL A   1      41.823  25.398  27.348  1.00  0.00     0.031 A 
ATOM     73  C   UNL A   1      42.840  27.400  26.480  1.00  0.00     0.131 A 
ATOM     74  C   UNL A   1      42.356  24.693  26.257  1.00  0.00     0.055 A 
ATOM     75  C   UNL A   1      43.314  26.707  25.366  1.00  0.00     0.041 A 
ATOM     76  F   UNL A   1      43.119  28.711  26.561  1.00  0.00    -0.206 F 
ATOM     77  C   UNL A   1      43.085  25.341  25.258  1.00  0.00     0.022 A 
BRANCH  74  78
ATOM     78  S   UNL A   1      42.171  22.889  26.221  1.00  0.00     0.124 S 
ATOM     79  O   UNL A   1      42.813  22.551  24.957  1.00  0.00    -0.237 OA
ATOM     80  O   UNL A   1      42.883  22.489  27.431  1.00  0.00    -0.237 OA
ATOM     81  O   UNL A   1      40.722  22.697  26.259  1.00  0.00    -0.744 OA
ENDBRANCH  74  78
ENDBRANCH  47  71
BRANCH  59  82
ATOM     82  C   UNL A   1      44.365  27.316  34.070  1.00  0.00     0.023 A 
ATOM     83  C   UNL A   1      44.193  26.019  34.583  1.00  0.00     0.031 A 
ATOM     84  C   UNL A   1      45.603  27.952  34.275  1.00  0.00     0.131 A 
ATOM     85  C   UNL A   1      45.218  25.424  35.330  1.00  0.00     0.055 A 
ATOM     86  C   UNL A   1      46.646  27.325  34.957  1.00  0.00     0.041 A 
ATOM     87  F   UNL A   1      45.821  29.192  33.810  1.00  0.00    -0.206 F 
ATOM     88  C   UNL A   1      46.452  26.060  35.502  1.00  0.00     0.022 A 
BRANCH  85  89
ATOM     89  S   UNL A   1      44.880  23.854  36.171  1.00  0.00     0.124 S 
ATOM     90  O   UNL A   1      44.978  24.237  37.576  1.00  0.00    -0.237 OA
ATOM     91  O   UNL A   1      43.541  23.526  35.692  1.00  0.00    -0.237 OA
ATOM     92  O   UNL A   1      45.943  22.973  35.692  1.00  0.00    -0.744 OA
ENDBRANCH  85  89
ENDBRANCH  59  82
ENDBRANCH  33  34
ENDBRANCH  26  28
ENDBRANCH  25  26
ENDBRANCH  24  25
ENDBRANCH  23  24
ENDBRANCH   1  23
TORSDOF 20
ENDMDL
MODEL 2
REMARK VINA RESULT:     -10.8      5.433      8.989
REMARK SMILES CC(C)(C)OC(=O)[C@@H]1[NH2+][C@H](C(=O)OCCOCCOC(=O)c2ccc(-c3c4nc(c(-c5cc(S(=O)(=O)[O-])ccc5F)c5ccc([nH]5)c(-c5cc(S(=O)(=O)[O-])ccc5F)c5nc(c(-c6cc(S(=O)(=O)[O-])ccc6F)c6ccc3[nH]6)C=C5)C=C4)cc2)C(C)(C)S1
REMARK SMILES IDX 16 1 15 2 14 3 13 4 11 5 12 6 10 7 8 8 9 9 88 10 85 13 86 14
REMARK SMILES IDX 87 15 6 16 7 17 5 18 2 19 1 20 3 21 4 22 17 23 18 24 19 25
REMARK SMILES IDX 20 26 21 27 22 28 23 29 84 30 24 31 83 32 25 33 26 34 27 35
REMARK SMILES IDX 77 36 28 37 82 38 76 39 78 40 29 41 81 42 75 43 74 44 30 46
REMARK SMILES IDX 62 47 42 48 61 49 43 50 46 51 60 52 79 53 44 54 45 55 59 57
REMARK SMILES IDX 80 58 47 59 31 60 32 61 40 62 33 63 39 64 41 65 38 66 34 67
REMARK SMILES IDX 35 68 36 69 37 70 63 71 64 72 72 73 65 74 71 75 73 76 70 77
REMARK SMILES IDX 66 78 67 79 68 80 69 81 48 82 49 83 57 84 50 85 56 86 58 87
REMARK SMILES IDX 55 88 51 89 52 90 53 91 54 92
REMARK H PARENT 9 11 9 12 78 45 46 56
REMARK Flexibility Score: inf
ROOT
ATOM      1  O   UNL A   1      36.884  21.045  25.508  1.00  0.00    -0.374 OA
ENDROOT
BRANCH   1   2
ATOM      2  C   UNL A   1      36.895  22.325  24.860  1.00  0.00     0.202 C 
BRANCH   2   3
ATOM      3  C   UNL A   1      36.359  23.528  25.660  1.00  0.00     0.261 C 
BRANCH   3   4
ATOM      4  O   UNL A   1      35.313  24.253  24.970  1.00  0.00    -0.459 OA
BRANCH   4   5
ATOM      5  C   UNL A   1      34.064  24.120  25.494  1.00  0.00     0.366 C 
ATOM      6  O   UNL A   1      33.837  24.107  26.700  1.00  0.00    -0.245 OA
BRANCH   5   7
ATOM      7  C   UNL A   1      32.959  23.902  24.427  1.00  0.00     0.310 C 
ATOM      8  C   UNL A   1      32.495  21.499  24.523  1.00  0.00     0.354 C 
ATOM      9  N   UNL A   1      33.199  22.567  23.766  1.00  0.00    -0.313 N 
ATOM     10  S   UNL A   1      31.104  22.264  25.381  1.00  0.00    -0.074 SA
ATOM     11  H   UNL A   1      32.845  22.594  22.810  1.00  0.00     0.348 HD
ATOM     12  H   UNL A   1      34.200  22.370  23.756  1.00  0.00     0.348 HD
ATOM     13  C   UNL A   1      31.449  23.964  24.772  1.00  0.00     0.079 C 
ATOM     14  C   UNL A   1      30.623  24.188  23.482  1.00  0.00     0.030 C 
ATOM     15  C   UNL A   1      30.955  25.050  25.737  1.00  0.00     0.030 C 
BRANCH   8  16
ATOM     16  C   UNL A   1      33.484  20.545  25.273  1.00  0.00     0.376 C 
ATOM     17  O   UNL A   1      33.687  20.702  26.479  1.00  0.00    -0.244 OA
BRANCH  16  18
ATOM     18  O   UNL A   1      34.120  19.572  24.542  1.00  0.00    -0.455 OA
BRANCH  18  19
ATOM     19  C   UNL A   1      33.517  18.224  24.452  1.00  0.00     0.104 C 
ATOM     20  C   UNL A   1      32.634  18.110  23.192  1.00  0.00     0.056 C 
ATOM     21  C   UNL A   1      32.586  17.974  25.648  1.00  0.00     0.056 C 
ATOM     22  C   UNL A   1      34.583  17.134  24.288  1.00  0.00     0.056 C 
ENDBRANCH  18  19
ENDBRANCH  16  18
ENDBRANCH   8  16
ENDBRANCH   5   7
ENDBRANCH   4   5
ENDBRANCH   3   4
ENDBRANCH   2   3
ENDBRANCH   1   2
BRANCH   1  23
ATOM     23  C   UNL A   1      37.600  20.049  24.785  1.00  0.00     0.202 C 
BRANCH  23  24
ATOM     24  C   UNL A   1      38.905  19.528  25.397  1.00  0.00     0.261 C 
BRANCH  24  25
ATOM     25  O   UNL A   1      39.787  20.632  25.546  1.00  0.00    -0.460 OA
BRANCH  25  26
ATOM     26  C   UNL A   1      40.521  20.518  26.671  1.00  0.00     0.338 C 
ATOM     27  O   UNL A   1      41.067  19.513  27.098  1.00  0.00    -0.246 OA
BRANCH  26  28
ATOM     28  C   UNL A   1      40.778  21.880  27.149  1.00  0.00     0.060 A 
ATOM     29  C   UNL A   1      40.240  22.924  26.394  1.00  0.00     0.016 A 
ATOM     30  C   UNL A   1      41.490  22.123  28.332  1.00  0.00     0.016 A 
ATOM     31  C   UNL A   1      40.509  24.229  26.757  1.00  0.00     0.010 A 
ATOM     32  C   UNL A   1      41.746  23.434  28.706  1.00  0.00     0.010 A 
ATOM     33  C   UNL A   1      41.311  24.478  27.877  1.00  0.00    -0.014 A 
BRANCH  33  34
ATOM     34  C   UNL A   1      41.887  25.821  28.042  1.00  0.00     0.031 A 
ATOM     35  C   UNL A   1      41.047  26.860  28.724  1.00  0.00     0.074 A 
ATOM     36  C   UNL A   1      43.145  26.060  27.646  1.00  0.00     0.049 A 
ATOM     37  N   UNL A   1      41.320  28.112  28.970  1.00  0.00    -0.248 NA
ATOM     38  C   UNL A   1      39.714  26.430  29.184  1.00  0.00     0.031 C 
ATOM     39  C   UNL A   1      44.031  25.080  27.017  1.00  0.00     0.029 A 
ATOM     40  N   UNL A   1      43.893  27.201  27.716  1.00  0.00    -0.354 N 
ATOM     41  C   UNL A   1      40.198  28.616  29.617  1.00  0.00     0.074 A 
ATOM     42  C   UNL A   1      39.219  27.555  29.671  1.00  0.00     0.031 C 
ATOM     43  C   UNL A   1      45.209  25.668  26.754  1.00  0.00     0.029 A 
ATOM     44  C   UNL A   1      45.139  27.071  27.154  1.00  0.00     0.049 A 
ATOM     45  H   UNL A   1      43.571  28.034  28.129  1.00  0.00     0.167 HD
ATOM     46  C   UNL A   1      40.018  29.854  30.136  1.00  0.00     0.034 A 
ATOM     47  C   UNL A   1      46.094  27.999  26.962  1.00  0.00     0.034 A 
ATOM     48  C   UNL A   1      41.015  30.890  30.047  1.00  0.00     0.049 A 
ATOM     49  C   UNL A   1      45.835  29.398  27.468  1.00  0.00     0.074 A 
ATOM     50  C   UNL A   1      40.956  32.189  30.515  1.00  0.00     0.029 A 
ATOM     51  N   UNL A   1      42.255  30.742  29.434  1.00  0.00    -0.354 N 
ATOM     52  N   UNL A   1      44.771  29.873  28.078  1.00  0.00    -0.248 NA
ATOM     53  C   UNL A   1      46.906  30.379  27.272  1.00  0.00     0.031 C 
ATOM     54  C   UNL A   1      42.124  32.846  30.119  1.00  0.00     0.029 A 
ATOM     55  C   UNL A   1      42.956  31.934  29.486  1.00  0.00     0.049 A 
ATOM     56  H   UNL A   1      42.586  29.910  29.024  1.00  0.00     0.167 HD
ATOM     57  C   UNL A   1      45.060  31.203  28.367  1.00  0.00     0.074 A 
ATOM     58  C   UNL A   1      46.405  31.444  27.880  1.00  0.00     0.031 C 
ATOM     59  C   UNL A   1      44.294  32.142  28.980  1.00  0.00     0.034 A 
BRANCH  46  60
ATOM     60  C   UNL A   1      38.690  30.147  30.789  1.00  0.00     0.023 A 
ATOM     61  C   UNL A   1      37.673  30.851  30.117  1.00  0.00     0.031 A 
ATOM     62  C   UNL A   1      38.448  29.755  32.117  1.00  0.00     0.131 A 
ATOM     63  C   UNL A   1      36.495  31.200  30.795  1.00  0.00     0.055 A 
ATOM     64  C   UNL A   1      37.239  30.031  32.759  1.00  0.00     0.041 A 
ATOM     65  F   UNL A   1      39.392  29.110  32.821  1.00  0.00    -0.206 F 
ATOM     66  C   UNL A   1      36.260  30.770  32.103  1.00  0.00     0.022 A 
BRANCH  63  67
ATOM     67  S   UNL A   1      35.341  32.348  29.996  1.00  0.00     0.124 S 
ATOM     68  O   UNL A   1      34.852  31.543  28.879  1.00  0.00    -0.237 OA
ATOM     69  O   UNL A   1      34.378  32.618  31.057  1.00  0.00    -0.237 OA
ATOM     70  O   UNL A   1      36.187  33.478  29.617  1.00  0.00    -0.744 OA
ENDBRANCH  63  67
ENDBRANCH  46  60
BRANCH  47  71
ATOM     71  C   UNL A   1      47.345  27.651  26.233  1.00  0.00     0.023 A 
ATOM     72  C   UNL A   1      47.474  27.880  24.856  1.00  0.00     0.031 A 
ATOM     73  C   UNL A   1      48.421  27.039  26.904  1.00  0.00     0.131 A 
ATOM     74  C   UNL A   1      48.629  27.450  24.183  1.00  0.00     0.055 A 
ATOM     75  C   UNL A   1      49.592  26.672  26.241  1.00  0.00     0.041 A 
ATOM     76  F   UNL A   1      48.352  26.798  28.223  1.00  0.00    -0.206 F 
ATOM     77  C   UNL A   1      49.695  26.863  24.868  1.00  0.00     0.022 A 
BRANCH  74  78
ATOM     78  S   UNL A   1      48.672  27.575  22.374  1.00  0.00     0.124 S 
ATOM     79  O   UNL A   1      49.884  28.356  22.160  1.00  0.00    -0.237 OA
ATOM     80  O   UNL A   1      48.732  26.172  21.977  1.00  0.00    -0.237 OA
ATOM     81  O   UNL A   1      47.421  28.260  22.052  1.00  0.00    -0.744 OA
ENDBRANCH  74  78
ENDBRANCH  47  71
BRANCH  59  82
ATOM     82  C   UNL A   1      44.920  33.498  29.194  1.00  0.00     0.023 A 
ATOM     83  C   UNL A   1      44.847  34.509  28.220  1.00  0.00     0.031 A 
ATOM     84  C   UNL A   1      45.602  33.779  30.391  1.00  0.00     0.131 A 
ATOM     85  C   UNL A   1      45.502  35.729  28.432  1.00  0.00     0.055 A 
ATOM     86  C   UNL A   1      46.189  35.022  30.627  1.00  0.00     0.041 A 
ATOM     87  F   UNL A   1      45.705  32.849  31.354  1.00  0.00    -0.206 F 
ATOM     88  C   UNL A   1      46.154  36.000  29.639  1.00  0.00     0.022 A 
BRANCH  85  89
ATOM     89  S   UNL A   1      45.585  36.918  27.066  1.00  0.00     0.124 S 
ATOM     90  O   UNL A   1      46.403  37.981  27.642  1.00  0.00    -0.237 OA
ATOM     91  O   UNL A   1      46.213  36.133  26.008  1.00  0.00    -0.237 OA
ATOM     92  O   UNL A   1      44.186  37.269  26.831  1.00  0.00    -0.744 OA
ENDBRANCH  85  89
ENDBRANCH  59  82
ENDBRANCH  33  34
ENDBRANCH  26  28
ENDBRANCH  25  26
ENDBRANCH  24  25
ENDBRANCH  23  24
ENDBRANCH   1  23
TORSDOF 20
ENDMDL
MODEL 3
REMARK VINA RESULT:     -10.7      4.836     10.334
REMARK SMILES CC(C)(C)OC(=O)[C@@H]1[NH2+][C@H](C(=O)OCCOCCOC(=O)c2ccc(-c3c4nc(c(-c5cc(S(=O)(=O)[O-])ccc5F)c5ccc([nH]5)c(-c5cc(S(=O)(=O)[O-])ccc5F)c5nc(c(-c6cc(S(=O)(=O)[O-])ccc6F)c6ccc3[nH]6)C=C5)C=C4)cc2)C(C)(C)S1
REMARK SMILES IDX 16 1 15 2 14 3 13 4 11 5 12 6 10 7 8 8 9 9 88 10 85 13 86 14
REMARK SMILES IDX 87 15 6 16 7 17 5 18 2 19 1 20 3 21 4 22 17 23 18 24 19 25
REMARK SMILES IDX 20 26 21 27 22 28 23 29 84 30 24 31 83 32 25 33 26 34 27 35
REMARK SMILES IDX 77 36 28 37 82 38 76 39 78 40 29 41 81 42 75 43 74 44 30 46
REMARK SMILES IDX 62 47 42 48 61 49 43 50 46 51 60 52 79 53 44 54 45 55 59 57
REMARK SMILES IDX 80 58 47 59 31 60 32 61 40 62 33 63 39 64 41 65 38 66 34 67
REMARK SMILES IDX 35 68 36 69 37 70 63 71 64 72 72 73 65 74 71 75 73 76 70 77
REMARK SMILES IDX 66 78 67 79 68 80 69 81 48 82 49 83 57 84 50 85 56 86 58 87
REMARK SMILES IDX 55 88 51 89 52 90 53 91 54 92
REMARK H PARENT 9 11 9 12 78 45 46 56
REMARK Flexibility Score: inf
ROOT
ATOM      1  O   UNL A   1      36.534  21.818  23.955  1.00  0.00    -0.374 OA
ENDROOT
BRANCH   1   2
ATOM      2  C   UNL A   1      36.727  23.225  24.162  1.00  0.00     0.202 C 
BRANCH   2   3
ATOM      3  C   UNL A   1      36.153  23.836  25.455  1.00  0.00     0.261 C 
BRANCH   3   4
ATOM      4  O   UNL A   1      35.220  24.916  25.211  1.00  0.00    -0.459 OA
BRANCH   4   5
ATOM      5  C   UNL A   1      34.170  24.611  24.400  1.00  0.00     0.366 C 
ATOM      6  O   UNL A   1      34.040  25.063  23.267  1.00  0.00    -0.245 OA
BRANCH   5   7
ATOM      7  C   UNL A   1      33.108  23.701  25.072  1.00  0.00     0.310 C 
ATOM      8  C   UNL A   1      31.035  25.000  24.943  1.00  0.00     0.354 C 
ATOM      9  N   UNL A   1      32.149  24.581  25.835  1.00  0.00    -0.313 N 
ATOM     10  S   UNL A   1      30.866  23.747  23.655  1.00  0.00    -0.074 SA
ATOM     11  H   UNL A   1      31.770  24.063  26.627  1.00  0.00     0.348 HD
ATOM     12  H   UNL A   1      32.642  25.408  26.170  1.00  0.00     0.348 HD
ATOM     13  C   UNL A   1      32.246  22.697  24.264  1.00  0.00     0.079 C 
ATOM     14  C   UNL A   1      31.652  21.629  25.215  1.00  0.00     0.030 C 
ATOM     15  C   UNL A   1      32.911  21.885  23.144  1.00  0.00     0.030 C 
BRANCH   8  16
ATOM     16  C   UNL A   1      31.093  26.524  24.589  1.00  0.00     0.376 C 
ATOM     17  O   UNL A   1      31.405  26.874  23.448  1.00  0.00    -0.244 OA
BRANCH  16  18
ATOM     18  O   UNL A   1      30.817  27.428  25.585  1.00  0.00    -0.455 OA
BRANCH  18  19
ATOM     19  C   UNL A   1      31.859  28.393  25.996  1.00  0.00     0.104 C 
ATOM     20  C   UNL A   1      31.840  28.590  27.527  1.00  0.00     0.056 C 
ATOM     21  C   UNL A   1      31.579  29.775  25.386  1.00  0.00     0.056 C 
ATOM     22  C   UNL A   1      33.269  27.878  25.683  1.00  0.00     0.056 C 
ENDBRANCH  18  19
ENDBRANCH  16  18
ENDBRANCH   8  16
ENDBRANCH   5   7
ENDBRANCH   4   5
ENDBRANCH   3   4
ENDBRANCH   2   3
ENDBRANCH   1   2
BRANCH   1  23
ATOM     23  C   UNL A   1      36.726  21.050  25.138  1.00  0.00     0.202 C 
BRANCH  23  24
ATOM     24  C   UNL A   1      38.051  20.297  25.288  1.00  0.00     0.261 C 
BRANCH  24  25
ATOM     25  O   UNL A   1      39.097  21.258  25.320  1.00  0.00    -0.460 OA
BRANCH  25  26
ATOM     26  C   UNL A   1      39.958  21.004  26.327  1.00  0.00     0.338 C 
ATOM     27  O   UNL A   1      40.555  19.961  26.543  1.00  0.00    -0.246 OA
BRANCH  26  28
ATOM     28  C   UNL A   1      40.263  22.291  26.959  1.00  0.00     0.060 A 
ATOM     29  C   UNL A   1      39.505  23.389  26.547  1.00  0.00     0.016 A 
ATOM     30  C   UNL A   1      41.236  22.408  27.961  1.00  0.00     0.016 A 
ATOM     31  C   UNL A   1      39.796  24.640  27.057  1.00  0.00     0.010 A 
ATOM     32  C   UNL A   1      41.517  23.660  28.486  1.00  0.00     0.010 A 
ATOM     33  C   UNL A   1      40.840  24.780  27.978  1.00  0.00    -0.014 A 
BRANCH  33  34
ATOM     34  C   UNL A   1      41.376  26.125  28.232  1.00  0.00     0.031 A 
ATOM     35  C   UNL A   1      42.760  26.428  27.737  1.00  0.00     0.074 A 
ATOM     36  C   UNL A   1      40.608  27.048  28.827  1.00  0.00     0.049 A 
ATOM     37  N   UNL A   1      43.456  27.525  27.852  1.00  0.00    -0.248 NA
ATOM     38  C   UNL A   1      43.456  25.342  27.024  1.00  0.00     0.031 C 
ATOM     39  C   UNL A   1      39.237  26.830  29.290  1.00  0.00     0.029 A 
ATOM     40  N   UNL A   1      40.871  28.351  29.140  1.00  0.00    -0.354 N 
ATOM     41  C   UNL A   1      44.667  27.265  27.221  1.00  0.00     0.074 A 
ATOM     42  C   UNL A   1      44.635  25.889  26.780  1.00  0.00     0.031 C 
ATOM     43  C   UNL A   1      38.779  27.969  29.836  1.00  0.00     0.029 A 
ATOM     44  C   UNL A   1      39.840  28.973  29.799  1.00  0.00     0.049 A 
ATOM     45  H   UNL A   1      41.717  28.800  28.916  1.00  0.00     0.167 HD
ATOM     46  C   UNL A   1      45.702  28.113  27.015  1.00  0.00     0.034 A 
ATOM     47  C   UNL A   1      39.783  30.205  30.335  1.00  0.00     0.034 A 
ATOM     48  C   UNL A   1      45.701  29.474  27.485  1.00  0.00     0.049 A 
ATOM     49  C   UNL A   1      40.986  31.104  30.173  1.00  0.00     0.074 A 
ATOM     50  C   UNL A   1      46.688  30.434  27.358  1.00  0.00     0.029 A 
ATOM     51  N   UNL A   1      44.656  30.066  28.188  1.00  0.00    -0.354 N 
ATOM     52  N   UNL A   1      42.131  30.854  29.578  1.00  0.00    -0.248 NA
ATOM     53  C   UNL A   1      40.884  32.451  30.741  1.00  0.00     0.031 C 
ATOM     54  C   UNL A   1      46.273  31.577  28.048  1.00  0.00     0.029 A 
ATOM     55  C   UNL A   1      44.988  31.367  28.527  1.00  0.00     0.049 A 
ATOM     56  H   UNL A   1      43.805  29.624  28.412  1.00  0.00     0.167 HD
ATOM     57  C   UNL A   1      42.874  32.026  29.673  1.00  0.00     0.074 A 
ATOM     58  C   UNL A   1      42.037  32.986  30.366  1.00  0.00     0.031 C 
ATOM     59  C   UNL A   1      44.130  32.294  29.229  1.00  0.00     0.034 A 
BRANCH  46  60
ATOM     60  C   UNL A   1      46.915  27.569  26.299  1.00  0.00     0.023 A 
ATOM     61  C   UNL A   1      47.203  27.910  24.964  1.00  0.00     0.031 A 
ATOM     62  C   UNL A   1      47.775  26.664  26.946  1.00  0.00     0.131 A 
ATOM     63  C   UNL A   1      48.276  27.297  24.300  1.00  0.00     0.055 A 
ATOM     64  C   UNL A   1      48.891  26.123  26.305  1.00  0.00     0.041 A 
ATOM     65  F   UNL A   1      47.534  26.275  28.207  1.00  0.00    -0.206 F 
ATOM     66  C   UNL A   1      49.139  26.427  24.970  1.00  0.00     0.022 A 
BRANCH  63  67
ATOM     67  S   UNL A   1      48.440  27.538  22.510  1.00  0.00     0.124 S 
ATOM     68  O   UNL A   1      49.684  28.301  22.430  1.00  0.00    -0.237 OA
ATOM     69  O   UNL A   1      48.498  26.169  22.011  1.00  0.00    -0.237 OA
ATOM     70  O   UNL A   1      47.236  28.283  22.152  1.00  0.00    -0.744 OA
ENDBRANCH  63  67
ENDBRANCH  46  60
BRANCH  47  71
ATOM     71  C   UNL A   1      38.582  30.638  31.101  1.00  0.00     0.023 A 
ATOM     72  C   UNL A   1      37.502  31.270  30.468  1.00  0.00     0.031 A 
ATOM     73  C   UNL A   1      38.518  30.464  32.496  1.00  0.00     0.131 A 
ATOM     74  C   UNL A   1      36.429  31.752  31.235  1.00  0.00     0.055 A 
ATOM     75  C   UNL A   1      37.420  30.888  33.245  1.00  0.00     0.041 A 
ATOM     76  F   UNL A   1      39.523  29.864  33.154  1.00  0.00    -0.206 F 
ATOM     77  C   UNL A   1      36.373  31.551  32.616  1.00  0.00     0.022 A 
BRANCH  74  78
ATOM     78  S   UNL A   1      35.154  32.743  30.410  1.00  0.00     0.124 S 
ATOM     79  O   UNL A   1      34.755  31.862  29.318  1.00  0.00    -0.237 OA
ATOM     80  O   UNL A   1      34.177  32.926  31.478  1.00  0.00    -0.237 OA
ATOM     81  O   UNL A   1      35.871  33.951  30.008  1.00  0.00    -0.744 OA
ENDBRANCH  74  78
ENDBRANCH  47  71
BRANCH  59  82
ATOM     82  C   UNL A   1      44.644  33.696  29.444  1.00  0.00     0.023 A 
ATOM     83  C   UNL A   1      44.474  34.703  28.478  1.00  0.00     0.031 A 
ATOM     84  C   UNL A   1      45.316  34.026  30.635  1.00  0.00     0.131 A 
ATOM     85  C   UNL A   1      45.028  35.972  28.691  1.00  0.00     0.055 A 
ATOM     86  C   UNL A   1      45.800  35.312  30.872  1.00  0.00     0.041 A 
ATOM     87  F   UNL A   1      45.508  33.102  31.590  1.00  0.00    -0.206 F 
ATOM     88  C   UNL A   1      45.671  36.290  29.891  1.00  0.00     0.022 A 
BRANCH  85  89
ATOM     89  S   UNL A   1      44.995  37.172  27.332  1.00  0.00     0.124 S 
ATOM     90  O   UNL A   1      43.583  37.172  26.964  1.00  0.00    -0.237 OA
ATOM     91  O   UNL A   1      45.486  38.386  27.976  1.00  0.00    -0.237 OA
ATOM     92  O   UNL A   1      45.895  36.589  26.338  1.00  0.00    -0.744 OA
ENDBRANCH  85  89
ENDBRANCH  59  82
ENDBRANCH  33  34
ENDBRANCH  26  28
ENDBRANCH  25  26
ENDBRANCH  24  25
ENDBRANCH  23  24
ENDBRANCH   1  23
TORSDOF 20
ENDMDL
