MODEL 1
REMARK VINA RESULT:     -11.5      0.000      0.000
REMARK SMILES COCC[C@]1(C(=O)OCCOCCOC(=O)c2ccc(-c3c4nc(c(-c5cc(S(=O)(=O)[O-])ccc5F)c5ccc([nH]5)c(-c5cc(S(=O)(=O)[O-])ccc5F)c5nc(c(-c6cc(S(=O)(=O)[O-])ccc6F)c6ccc3[nH]6)C=C5)C=C4)cc2)CCCN(C(=O)c2ccc(=O)[nH]c2)C1
REMARK SMILES IDX 11 1 10 2 9 3 8 4 6 5 7 6 5 7 80 8 93 9 81 10 83 11 82 12
REMARK SMILES IDX 4 13 3 14 2 15 1 16 84 17 85 18 86 19 87 20 92 21 88 22
REMARK SMILES IDX 91 23 89 24 90 26 12 27 13 28 14 29 15 30 16 31 17 32 18 33
REMARK SMILES IDX 79 34 19 35 78 36 20 37 21 38 22 39 72 40 23 41 77 42 71 43
REMARK SMILES IDX 73 44 24 45 76 46 70 47 69 48 25 50 57 51 37 52 56 53 38 54
REMARK SMILES IDX 41 55 55 56 74 57 39 58 40 59 54 61 75 62 42 63 26 64 27 65
REMARK SMILES IDX 35 66 28 67 34 68 36 69 33 70 29 71 30 72 31 73 32 74 58 75
REMARK SMILES IDX 59 76 67 77 60 78 66 79 68 80 65 81 61 82 62 83 63 84 64 85
REMARK SMILES IDX 43 86 44 87 52 88 45 89 51 90 53 91 50 92 46 93 47 94 48 95
REMARK SMILES IDX 49 96
REMARK H PARENT 91 25 73 49 41 60
REMARK Flexibility Score: inf
ROOT
ATOM      1  O   UNL A   1      33.969  20.299  24.433  1.00  0.00    -0.374 OA
ENDROOT
BRANCH   1   2
ATOM      2  C   UNL A   1      33.097  21.257  23.842  1.00  0.00     0.202 C 
BRANCH   2   3
ATOM      3  C   UNL A   1      33.495  22.742  23.749  1.00  0.00     0.261 C 
BRANCH   3   4
ATOM      4  O   UNL A   1      32.443  23.653  23.373  1.00  0.00    -0.463 OA
BRANCH   4   5
ATOM      5  C   UNL A   1      32.929  24.810  22.851  1.00  0.00     0.314 C 
ATOM      6  O   UNL A   1      33.724  24.810  21.921  1.00  0.00    -0.252 OA
BRANCH   5   7
ATOM      7  C   UNL A   1      32.310  26.083  23.452  1.00  0.00     0.088 C 
ATOM      8  C   UNL A   1      33.449  26.989  24.029  1.00  0.00     0.022 C 
ATOM      9  C   UNL A   1      31.576  26.915  22.384  1.00  0.00     0.138 C 
ATOM     10  C   UNL A   1      32.972  28.365  24.510  1.00  0.00     0.023 C 
ATOM     11  N   UNL A   1      31.065  28.168  22.966  1.00  0.00    -0.337 N 
ATOM     12  C   UNL A   1      32.095  29.070  23.483  1.00  0.00     0.120 C 
BRANCH   7  13
ATOM     13  C   UNL A   1      31.362  25.632  24.616  1.00  0.00     0.049 C 
BRANCH  13  14
ATOM     14  C   UNL A   1      31.643  26.132  26.051  1.00  0.00     0.161 C 
BRANCH  14  15
ATOM     15  O   UNL A   1      31.364  25.204  27.086  1.00  0.00    -0.385 OA
ATOM     16  C   UNL A   1      31.589  23.844  26.733  1.00  0.00     0.194 C 
ENDBRANCH  14  15
ENDBRANCH  13  14
ENDBRANCH   7  13
BRANCH  11  17
ATOM     17  C   UNL A   1      29.695  28.380  23.024  1.00  0.00     0.255 C 
ATOM     18  O   UNL A   1      28.891  27.522  23.381  1.00  0.00    -0.269 OA
BRANCH  17  19
ATOM     19  C   UNL A   1      29.177  29.736  22.700  1.00  0.00     0.056 A 
ATOM     20  C   UNL A   1      28.813  30.688  23.728  1.00  0.00     0.021 A 
ATOM     21  C   UNL A   1      29.155  30.105  21.409  1.00  0.00     0.099 A 
ATOM     22  C   UNL A   1      28.427  31.930  23.398  1.00  0.00     0.072 A 
ATOM     23  N   UNL A   1      28.756  31.374  21.059  1.00  0.00    -0.328 N 
ATOM     24  C   UNL A   1      28.381  32.337  21.967  1.00  0.00     0.247 A 
ATOM     25  H   UNL A   1      28.736  31.606  20.102  1.00  0.00     0.169 HD
ATOM     26  O   UNL A   1      28.034  33.464  21.635  1.00  0.00    -0.270 OA
ENDBRANCH  17  19
ENDBRANCH  11  17
ENDBRANCH   5   7
ENDBRANCH   4   5
ENDBRANCH   3   4
ENDBRANCH   2   3
ENDBRANCH   1   2
BRANCH   1  27
ATOM     27  C   UNL A   1      34.948  20.753  25.363  1.00  0.00     0.202 C 
BRANCH  27  28
ATOM     28  C   UNL A   1      36.431  20.580  25.017  1.00  0.00     0.261 C 
BRANCH  28  29
ATOM     29  O   UNL A   1      37.240  21.669  25.492  1.00  0.00    -0.460 OA
BRANCH  29  30
ATOM     30  C   UNL A   1      38.486  21.311  25.890  1.00  0.00     0.338 C 
ATOM     31  O   UNL A   1      39.062  20.258  25.649  1.00  0.00    -0.246 OA
BRANCH  30  32
ATOM     32  C   UNL A   1      39.170  22.477  26.477  1.00  0.00     0.060 A 
ATOM     33  C   UNL A   1      38.716  23.751  26.105  1.00  0.00     0.016 A 
ATOM     34  C   UNL A   1      40.245  22.334  27.355  1.00  0.00     0.016 A 
ATOM     35  C   UNL A   1      39.351  24.890  26.591  1.00  0.00     0.010 A 
ATOM     36  C   UNL A   1      40.897  23.478  27.823  1.00  0.00     0.010 A 
ATOM     37  C   UNL A   1      40.467  24.758  27.426  1.00  0.00    -0.014 A 
BRANCH  37  38
ATOM     38  C   UNL A   1      41.264  25.955  27.781  1.00  0.00     0.031 A 
ATOM     39  C   UNL A   1      40.601  27.064  28.548  1.00  0.00     0.074 A 
ATOM     40  C   UNL A   1      42.560  26.042  27.435  1.00  0.00     0.049 A 
ATOM     41  N   UNL A   1      41.070  28.237  28.882  1.00  0.00    -0.248 NA
ATOM     42  C   UNL A   1      39.222  26.814  28.995  1.00  0.00     0.031 C 
ATOM     43  C   UNL A   1      43.319  24.996  26.751  1.00  0.00     0.029 A 
ATOM     44  N   UNL A   1      43.462  27.060  27.602  1.00  0.00    -0.354 N 
ATOM     45  C   UNL A   1      40.044  28.871  29.575  1.00  0.00     0.074 A 
ATOM     46  C   UNL A   1      38.917  27.961  29.582  1.00  0.00     0.031 C 
ATOM     47  C   UNL A   1      44.571  25.436  26.538  1.00  0.00     0.029 A 
ATOM     48  C   UNL A   1      44.685  26.809  27.024  1.00  0.00     0.049 A 
ATOM     49  H   UNL A   1      43.256  27.891  28.087  1.00  0.00     0.167 HD
ATOM     50  C   UNL A   1      40.046  30.097  30.153  1.00  0.00     0.034 A 
ATOM     51  C   UNL A   1      45.756  27.614  26.871  1.00  0.00     0.034 A 
ATOM     52  C   UNL A   1      41.177  30.993  30.118  1.00  0.00     0.049 A 
ATOM     53  C   UNL A   1      45.693  29.023  27.413  1.00  0.00     0.074 A 
ATOM     54  C   UNL A   1      41.300  32.249  30.683  1.00  0.00     0.029 A 
ATOM     55  N   UNL A   1      42.376  30.734  29.464  1.00  0.00    -0.354 N 
ATOM     56  N   UNL A   1      44.720  29.613  28.069  1.00  0.00    -0.248 NA
ATOM     57  C   UNL A   1      46.870  29.873  27.191  1.00  0.00     0.031 C 
ATOM     58  C   UNL A   1      42.535  32.783  30.300  1.00  0.00     0.029 A 
ATOM     59  C   UNL A   1      43.222  31.828  29.570  1.00  0.00     0.049 A 
ATOM     60  H   UNL A   1      42.594  29.897  28.995  1.00  0.00     0.167 HD
ATOM     61  C   UNL A   1      45.179  30.896  28.357  1.00  0.00     0.074 A 
ATOM     62  C   UNL A   1      46.521  30.986  27.821  1.00  0.00     0.031 C 
ATOM     63  C   UNL A   1      44.550  31.908  29.008  1.00  0.00     0.034 A 
BRANCH  50  64
ATOM     64  C   UNL A   1      38.770  30.560  30.812  1.00  0.00     0.023 A 
ATOM     65  C   UNL A   1      37.770  31.241  30.097  1.00  0.00     0.031 A 
ATOM     66  C   UNL A   1      38.560  30.334  32.183  1.00  0.00     0.131 A 
ATOM     67  C   UNL A   1      36.639  31.730  30.769  1.00  0.00     0.055 A 
ATOM     68  C   UNL A   1      37.396  30.752  32.830  1.00  0.00     0.041 A 
ATOM     69  F   UNL A   1      39.492  29.712  32.923  1.00  0.00    -0.206 F 
ATOM     70  C   UNL A   1      36.433  31.467  32.126  1.00  0.00     0.022 A 
BRANCH  67  71
ATOM     71  S   UNL A   1      35.509  32.834  29.878  1.00  0.00     0.124 S 
ATOM     72  O   UNL A   1      34.776  33.455  30.979  1.00  0.00    -0.237 OA
ATOM     73  O   UNL A   1      36.426  33.704  29.151  1.00  0.00    -0.237 OA
ATOM     74  O   UNL A   1      34.721  31.924  29.050  1.00  0.00    -0.744 OA
ENDBRANCH  67  71
ENDBRANCH  50  64
BRANCH  51  75
ATOM     75  C   UNL A   1      46.956  27.142  26.120  1.00  0.00     0.023 A 
ATOM     76  C   UNL A   1      48.023  26.512  26.779  1.00  0.00     0.031 A 
ATOM     77  C   UNL A   1      47.075  27.363  24.735  1.00  0.00     0.131 A 
ATOM     78  C   UNL A   1      49.180  26.167  26.062  1.00  0.00     0.055 A 
ATOM     79  C   UNL A   1      48.204  26.965  24.017  1.00  0.00     0.041 A 
ATOM     80  F   UNL A   1      46.086  27.967  24.055  1.00  0.00    -0.206 F 
ATOM     81  C   UNL A   1      49.272  26.374  24.684  1.00  0.00     0.022 A 
BRANCH  78  82
ATOM     82  S   UNL A   1      50.607  25.525  26.979  1.00  0.00     0.124 S 
ATOM     83  O   UNL A   1      50.041  24.341  27.615  1.00  0.00    -0.237 OA
ATOM     84  O   UNL A   1      51.570  25.282  25.910  1.00  0.00    -0.237 OA
ATOM     85  O   UNL A   1      50.948  26.620  27.886  1.00  0.00    -0.744 OA
ENDBRANCH  78  82
ENDBRANCH  51  75
BRANCH  63  86
ATOM     86  C   UNL A   1      45.325  33.191  29.196  1.00  0.00     0.023 A 
ATOM     87  C   UNL A   1      45.214  34.259  28.288  1.00  0.00     0.031 A 
ATOM     88  C   UNL A   1      46.185  33.348  30.298  1.00  0.00     0.131 A 
ATOM     89  C   UNL A   1      45.985  35.416  28.471  1.00  0.00     0.055 A 
ATOM     90  C   UNL A   1      46.903  34.526  30.509  1.00  0.00     0.041 A 
ATOM     91  F   UNL A   1      46.334  32.360  31.195  1.00  0.00    -0.206 F 
ATOM     92  C   UNL A   1      46.813  35.564  29.587  1.00  0.00     0.022 A 
BRANCH  89  93
ATOM     93  S   UNL A   1      45.955  36.696  27.186  1.00  0.00     0.124 S 
ATOM     94  O   UNL A   1      46.599  37.817  27.863  1.00  0.00    -0.237 OA
ATOM     95  O   UNL A   1      46.721  36.076  26.110  1.00  0.00    -0.237 OA
ATOM     96  O   UNL A   1      44.531  36.872  26.910  1.00  0.00    -0.744 OA
ENDBRANCH  89  93
ENDBRANCH  63  86
ENDBRANCH  37  38
ENDBRANCH  30  32
ENDBRANCH  29  30
ENDBRANCH  28  29
ENDBRANCH  27  28
ENDBRANCH   1  27
TORSDOF 22
ENDMDL
MODEL 2
REMARK VINA RESULT:     -11.4      5.120      8.485
REMARK SMILES COCC[C@]1(C(=O)OCCOCCOC(=O)c2ccc(-c3c4nc(c(-c5cc(S(=O)(=O)[O-])ccc5F)c5ccc([nH]5)c(-c5cc(S(=O)(=O)[O-])ccc5F)c5nc(c(-c6cc(S(=O)(=O)[O-])ccc6F)c6ccc3[nH]6)C=C5)C=C4)cc2)CCCN(C(=O)c2ccc(=O)[nH]c2)C1
REMARK SMILES IDX 11 1 10 2 9 3 8 4 6 5 7 6 5 7 80 8 93 9 81 10 83 11 82 12
REMARK SMILES IDX 4 13 3 14 2 15 1 16 84 17 85 18 86 19 87 20 92 21 88 22
REMARK SMILES IDX 91 23 89 24 90 26 12 27 13 28 14 29 15 30 16 31 17 32 18 33
REMARK SMILES IDX 79 34 19 35 78 36 20 37 21 38 22 39 72 40 23 41 77 42 71 43
REMARK SMILES IDX 73 44 24 45 76 46 70 47 69 48 25 50 57 51 37 52 56 53 38 54
REMARK SMILES IDX 41 55 55 56 74 57 39 58 40 59 54 61 75 62 42 63 26 64 27 65
REMARK SMILES IDX 35 66 28 67 34 68 36 69 33 70 29 71 30 72 31 73 32 74 58 75
REMARK SMILES IDX 59 76 67 77 60 78 66 79 68 80 65 81 61 82 62 83 63 84 64 85
REMARK SMILES IDX 43 86 44 87 52 88 45 89 51 90 53 91 50 92 46 93 47 94 48 95
REMARK SMILES IDX 49 96
REMARK H PARENT 91 25 73 49 41 60
REMARK Flexibility Score: inf
ROOT
ATOM      1  O   UNL A   1      32.005  28.800  26.263  1.00  0.00    -0.374 OA
ENDROOT
BRANCH   1   2
ATOM      2  C   UNL A   1      31.358  27.677  25.676  1.00  0.00     0.202 C 
BRANCH   2   3
ATOM      3  C   UNL A   1      31.147  26.376  26.473  1.00  0.00     0.261 C 
BRANCH   3   4
ATOM      4  O   UNL A   1      32.142  25.351  26.280  1.00  0.00    -0.463 OA
BRANCH   4   5
ATOM      5  C   UNL A   1      31.585  24.134  26.043  1.00  0.00     0.314 C 
ATOM      6  O   UNL A   1      30.495  23.827  26.504  1.00  0.00    -0.252 OA
BRANCH   5   7
ATOM      7  C   UNL A   1      32.386  23.251  25.073  1.00  0.00     0.088 C 
ATOM      8  C   UNL A   1      33.871  23.745  25.029  1.00  0.00     0.022 C 
ATOM      9  C   UNL A   1      32.419  21.782  25.537  1.00  0.00     0.138 C 
ATOM     10  C   UNL A   1      34.810  22.841  24.219  1.00  0.00     0.023 C 
ATOM     11  N   UNL A   1      33.260  20.974  24.637  1.00  0.00    -0.337 N 
ATOM     12  C   UNL A   1      34.668  21.371  24.593  1.00  0.00     0.120 C 
BRANCH   7  13
ATOM     13  C   UNL A   1      31.740  23.417  23.654  1.00  0.00     0.049 C 
BRANCH  13  14
ATOM     14  C   UNL A   1      31.121  24.778  23.265  1.00  0.00     0.161 C 
BRANCH  14  15
ATOM     15  O   UNL A   1      32.027  25.731  22.736  1.00  0.00    -0.385 OA
ATOM     16  C   UNL A   1      32.896  25.222  21.730  1.00  0.00     0.194 C 
ENDBRANCH  14  15
ENDBRANCH  13  14
ENDBRANCH   7  13
BRANCH  11  17
ATOM     17  C   UNL A   1      32.677  19.962  23.890  1.00  0.00     0.255 C 
ATOM     18  O   UNL A   1      31.959  20.168  22.913  1.00  0.00    -0.269 OA
BRANCH  17  19
ATOM     19  C   UNL A   1      32.988  18.553  24.247  1.00  0.00     0.056 A 
ATOM     20  C   UNL A   1      33.559  17.623  23.295  1.00  0.00     0.021 A 
ATOM     21  C   UNL A   1      32.826  18.182  25.527  1.00  0.00     0.099 A 
ATOM     22  C   UNL A   1      33.902  16.383  23.677  1.00  0.00     0.072 A 
ATOM     23  N   UNL A   1      33.168  16.912  25.929  1.00  0.00    -0.328 N 
ATOM     24  C   UNL A   1      33.704  15.962  25.090  1.00  0.00     0.247 A 
ATOM     25  H   UNL A   1      33.021  16.668  26.872  1.00  0.00     0.169 HD
ATOM     26  O   UNL A   1      34.009  14.837  25.469  1.00  0.00    -0.270 OA
ENDBRANCH  17  19
ENDBRANCH  11  17
ENDBRANCH   5   7
ENDBRANCH   4   5
ENDBRANCH   3   4
ENDBRANCH   2   3
ENDBRANCH   1   2
BRANCH   1  27
ATOM     27  C   UNL A   1      31.869  30.070  25.634  1.00  0.00     0.202 C 
BRANCH  27  28
ATOM     28  C   UNL A   1      31.911  31.333  26.502  1.00  0.00     0.261 C 
BRANCH  28  29
ATOM     29  O   UNL A   1      32.824  31.215  27.606  1.00  0.00    -0.460 OA
BRANCH  29  30
ATOM     30  C   UNL A   1      33.760  32.195  27.668  1.00  0.00     0.338 C 
ATOM     31  O   UNL A   1      33.571  33.400  27.572  1.00  0.00    -0.246 OA
BRANCH  30  32
ATOM     32  C   UNL A   1      35.045  31.621  28.106  1.00  0.00     0.060 A 
ATOM     33  C   UNL A   1      35.076  30.250  28.403  1.00  0.00     0.016 A 
ATOM     34  C   UNL A   1      36.190  32.405  28.246  1.00  0.00     0.016 A 
ATOM     35  C   UNL A   1      36.249  29.662  28.865  1.00  0.00     0.010 A 
ATOM     36  C   UNL A   1      37.361  31.817  28.733  1.00  0.00     0.010 A 
ATOM     37  C   UNL A   1      37.389  30.449  29.064  1.00  0.00    -0.014 A 
BRANCH  37  38
ATOM     38  C   UNL A   1      38.573  29.871  29.742  1.00  0.00     0.031 A 
ATOM     39  C   UNL A   1      38.940  30.374  31.109  1.00  0.00     0.074 A 
ATOM     40  C   UNL A   1      39.296  28.905  29.149  1.00  0.00     0.049 A 
ATOM     41  N   UNL A   1      39.980  30.086  31.846  1.00  0.00    -0.248 NA
ATOM     42  C   UNL A   1      38.010  31.332  31.723  1.00  0.00     0.031 C 
ATOM     43  C   UNL A   1      38.988  28.297  27.856  1.00  0.00     0.029 A 
ATOM     44  N   UNL A   1      40.444  28.275  29.554  1.00  0.00    -0.354 N 
ATOM     45  C   UNL A   1      39.835  30.831  33.011  1.00  0.00     0.074 A 
ATOM     46  C   UNL A   1      38.621  31.608  32.865  1.00  0.00     0.031 C 
ATOM     47  C   UNL A   1      39.938  27.392  27.564  1.00  0.00     0.029 A 
ATOM     48  C   UNL A   1      40.945  27.395  28.623  1.00  0.00     0.049 A 
ATOM     49  H   UNL A   1      40.870  28.436  30.427  1.00  0.00     0.167 HD
ATOM     50  C   UNL A   1      40.640  30.860  34.102  1.00  0.00     0.034 A 
ATOM     51  C   UNL A   1      42.104  26.706  28.611  1.00  0.00     0.034 A 
ATOM     52  C   UNL A   1      41.854  30.088  34.217  1.00  0.00     0.049 A 
ATOM     53  C   UNL A   1      43.048  26.849  29.782  1.00  0.00     0.074 A 
ATOM     54  C   UNL A   1      42.737  30.024  35.280  1.00  0.00     0.029 A 
ATOM     55  N   UNL A   1      42.367  29.260  33.226  1.00  0.00    -0.354 N 
ATOM     56  N   UNL A   1      42.901  27.553  30.881  1.00  0.00    -0.248 NA
ATOM     57  C   UNL A   1      44.313  26.107  29.709  1.00  0.00     0.031 C 
ATOM     58  C   UNL A   1      43.822  29.228  34.900  1.00  0.00     0.029 A 
ATOM     59  C   UNL A   1      43.578  28.723  33.634  1.00  0.00     0.049 A 
ATOM     60  H   UNL A   1      41.934  29.081  32.361  1.00  0.00     0.167 HD
ATOM     61  C   UNL A   1      44.046  27.319  31.639  1.00  0.00     0.074 A 
ATOM     62  C   UNL A   1      44.863  26.394  30.880  1.00  0.00     0.031 C 
ATOM     63  C   UNL A   1      44.391  27.819  32.853  1.00  0.00     0.034 A 
BRANCH  50  64
ATOM     64  C   UNL A   1      40.264  31.799  35.222  1.00  0.00     0.023 A 
ATOM     65  C   UNL A   1      39.356  31.428  36.229  1.00  0.00     0.031 A 
ATOM     66  C   UNL A   1      40.807  33.095  35.270  1.00  0.00     0.131 A 
ATOM     67  C   UNL A   1      38.969  32.363  37.201  1.00  0.00     0.055 A 
ATOM     68  C   UNL A   1      40.479  33.994  36.286  1.00  0.00     0.041 A 
ATOM     69  F   UNL A   1      41.659  33.514  34.321  1.00  0.00    -0.206 F 
ATOM     70  C   UNL A   1      39.545  33.635  37.252  1.00  0.00     0.022 A 
BRANCH  67  71
ATOM     71  S   UNL A   1      37.600  31.942  38.314  1.00  0.00     0.124 S 
ATOM     72  O   UNL A   1      36.616  32.966  37.969  1.00  0.00    -0.237 OA
ATOM     73  O   UNL A   1      37.273  30.580  37.911  1.00  0.00    -0.237 OA
ATOM     74  O   UNL A   1      38.186  32.076  39.646  1.00  0.00    -0.744 OA
ENDBRANCH  67  71
ENDBRANCH  50  64
BRANCH  51  75
ATOM     75  C   UNL A   1      42.476  25.871  27.432  1.00  0.00     0.023 A 
ATOM     76  C   UNL A   1      42.076  24.530  27.338  1.00  0.00     0.031 A 
ATOM     77  C   UNL A   1      43.285  26.392  26.405  1.00  0.00     0.131 A 
ATOM     78  C   UNL A   1      42.523  23.741  26.265  1.00  0.00     0.055 A 
ATOM     79  C   UNL A   1      43.678  25.619  25.311  1.00  0.00     0.041 A 
ATOM     80  F   UNL A   1      43.702  27.668  26.447  1.00  0.00    -0.206 F 
ATOM     81  C   UNL A   1      43.308  24.280  25.244  1.00  0.00     0.022 A 
BRANCH  78  82
ATOM     82  S   UNL A   1      42.138  21.969  26.274  1.00  0.00     0.124 S 
ATOM     83  O   UNL A   1      40.703  21.977  26.016  1.00  0.00    -0.237 OA
ATOM     84  O   UNL A   1      42.983  21.470  25.194  1.00  0.00    -0.237 OA
ATOM     85  O   UNL A   1      42.530  21.543  27.617  1.00  0.00    -0.744 OA
ENDBRANCH  78  82
ENDBRANCH  51  75
BRANCH  63  86
ATOM     86  C   UNL A   1      45.701  27.352  33.442  1.00  0.00     0.023 A 
ATOM     87  C   UNL A   1      45.790  26.170  34.197  1.00  0.00     0.031 A 
ATOM     88  C   UNL A   1      46.876  28.100  33.244  1.00  0.00     0.131 A 
ATOM     89  C   UNL A   1      47.016  25.795  34.767  1.00  0.00     0.055 A 
ATOM     90  C   UNL A   1      48.106  27.689  33.761  1.00  0.00     0.041 A 
ATOM     91  F   UNL A   1      46.850  29.240  32.536  1.00  0.00    -0.206 F 
ATOM     92  C   UNL A   1      48.178  26.536  34.537  1.00  0.00     0.022 A 
BRANCH  89  93
ATOM     93  S   UNL A   1      47.057  24.367  35.884  1.00  0.00     0.124 S 
ATOM     94  O   UNL A   1      48.387  24.482  36.473  1.00  0.00    -0.237 OA
ATOM     95  O   UNL A   1      45.938  24.638  36.781  1.00  0.00    -0.237 OA
ATOM     96  O   UNL A   1      46.871  23.226  34.990  1.00  0.00    -0.744 OA
ENDBRANCH  89  93
ENDBRANCH  63  86
ENDBRANCH  37  38
ENDBRANCH  30  32
ENDBRANCH  29  30
ENDBRANCH  28  29
ENDBRANCH  27  28
ENDBRANCH   1  27
TORSDOF 22
ENDMDL
MODEL 3
REMARK VINA RESULT:     -11.3      1.750      7.581
REMARK SMILES COCC[C@]1(C(=O)OCCOCCOC(=O)c2ccc(-c3c4nc(c(-c5cc(S(=O)(=O)[O-])ccc5F)c5ccc([nH]5)c(-c5cc(S(=O)(=O)[O-])ccc5F)c5nc(c(-c6cc(S(=O)(=O)[O-])ccc6F)c6ccc3[nH]6)C=C5)C=C4)cc2)CCCN(C(=O)c2ccc(=O)[nH]c2)C1
REMARK SMILES IDX 11 1 10 2 9 3 8 4 6 5 7 6 5 7 80 8 93 9 81 10 83 11 82 12
REMARK SMILES IDX 4 13 3 14 2 15 1 16 84 17 85 18 86 19 87 20 92 21 88 22
REMARK SMILES IDX 91 23 89 24 90 26 12 27 13 28 14 29 15 30 16 31 17 32 18 33
REMARK SMILES IDX 79 34 19 35 78 36 20 37 21 38 22 39 72 40 23 41 77 42 71 43
REMARK SMILES IDX 73 44 24 45 76 46 70 47 69 48 25 50 57 51 37 52 56 53 38 54
REMARK SMILES IDX 41 55 55 56 74 57 39 58 40 59 54 61 75 62 42 63 26 64 27 65
REMARK SMILES IDX 35 66 28 67 34 68 36 69 33 70 29 71 30 72 31 73 32 74 58 75
REMARK SMILES IDX 59 76 67 77 60 78 66 79 68 80 65 81 61 82 62 83 63 84 64 85
REMARK SMILES IDX 43 86 44 87 52 88 45 89 51 90 53 91 50 92 46 93 47 94 48 95
REMARK SMILES IDX 49 96
REMARK H PARENT 91 25 73 49 41 60
REMARK Flexibility Score: inf
ROOT
ATOM      1  O   UNL A   1      36.297  20.307  25.291  1.00  0.00    -0.374 OA
ENDROOT
BRANCH   1   2
ATOM      2  C   UNL A   1      35.457  21.451  25.389  1.00  0.00     0.202 C 
BRANCH   2   3
ATOM      3  C   UNL A   1      35.252  22.391  24.185  1.00  0.00     0.261 C 
BRANCH   3   4
ATOM      4  O   UNL A   1      33.905  22.859  23.974  1.00  0.00    -0.463 OA
BRANCH   4   5
ATOM      5  C   UNL A   1      33.872  24.135  23.508  1.00  0.00     0.314 C 
ATOM      6  O   UNL A   1      34.477  24.464  22.497  1.00  0.00    -0.252 OA
BRANCH   5   7
ATOM      7  C   UNL A   1      32.934  25.069  24.290  1.00  0.00     0.088 C 
ATOM      8  C   UNL A   1      33.742  25.778  25.429  1.00  0.00     0.022 C 
ATOM      9  C   UNL A   1      32.362  26.181  23.391  1.00  0.00     0.138 C 
ATOM     10  C   UNL A   1      32.953  26.860  26.177  1.00  0.00     0.023 C 
ATOM     11  N   UNL A   1      31.535  27.110  24.180  1.00  0.00    -0.337 N 
ATOM     12  C   UNL A   1      32.254  27.829  25.232  1.00  0.00     0.120 C 
BRANCH   7  13
ATOM     13  C   UNL A   1      31.814  24.175  24.924  1.00  0.00     0.049 C 
BRANCH  13  14
ATOM     14  C   UNL A   1      32.017  23.613  26.349  1.00  0.00     0.161 C 
BRANCH  14  15
ATOM     15  O   UNL A   1      30.951  23.846  27.255  1.00  0.00    -0.385 OA
ATOM     16  C   UNL A   1      29.805  23.032  27.035  1.00  0.00     0.194 C 
ENDBRANCH  14  15
ENDBRANCH  13  14
ENDBRANCH   7  13
BRANCH  11  17
ATOM     17  C   UNL A   1      30.177  27.203  23.913  1.00  0.00     0.255 C 
ATOM     18  O   UNL A   1      29.338  26.444  24.395  1.00  0.00    -0.269 OA
BRANCH  17  19
ATOM     19  C   UNL A   1      29.702  28.318  23.053  1.00  0.00     0.056 A 
ATOM     20  C   UNL A   1      28.308  28.699  22.982  1.00  0.00     0.021 A 
ATOM     21  C   UNL A   1      30.628  29.051  22.412  1.00  0.00     0.099 A 
ATOM     22  C   UNL A   1      27.929  29.763  22.257  1.00  0.00     0.072 A 
ATOM     23  N   UNL A   1      30.251  30.140  21.661  1.00  0.00    -0.328 N 
ATOM     24  C   UNL A   1      28.949  30.565  21.528  1.00  0.00     0.247 A 
ATOM     25  H   UNL A   1      30.953  30.645  21.191  1.00  0.00     0.169 HD
ATOM     26  O   UNL A   1      28.634  31.542  20.860  1.00  0.00    -0.270 OA
ENDBRANCH  17  19
ENDBRANCH  11  17
ENDBRANCH   5   7
ENDBRANCH   4   5
ENDBRANCH   3   4
ENDBRANCH   2   3
ENDBRANCH   1   2
BRANCH   1  27
ATOM     27  C   UNL A   1      37.622  20.475  24.796  1.00  0.00     0.202 C 
BRANCH  27  28
ATOM     28  C   UNL A   1      38.769  19.731  25.489  1.00  0.00     0.261 C 
BRANCH  28  29
ATOM     29  O   UNL A   1      39.940  20.549  25.652  1.00  0.00    -0.460 OA
BRANCH  29  30
ATOM     30  C   UNL A   1      40.425  20.590  26.918  1.00  0.00     0.338 C 
ATOM     31  O   UNL A   1      40.762  19.637  27.608  1.00  0.00    -0.246 OA
BRANCH  30  32
ATOM     32  C   UNL A   1      40.718  21.986  27.288  1.00  0.00     0.060 A 
ATOM     33  C   UNL A   1      40.089  22.999  26.549  1.00  0.00     0.016 A 
ATOM     34  C   UNL A   1      41.603  22.302  28.319  1.00  0.00     0.016 A 
ATOM     35  C   UNL A   1      40.361  24.336  26.823  1.00  0.00     0.010 A 
ATOM     36  C   UNL A   1      41.893  23.645  28.576  1.00  0.00     0.010 A 
ATOM     37  C   UNL A   1      41.291  24.665  27.816  1.00  0.00    -0.014 A 
BRANCH  37  38
ATOM     38  C   UNL A   1      41.732  26.070  27.973  1.00  0.00     0.031 A 
ATOM     39  C   UNL A   1      43.069  26.474  27.421  1.00  0.00     0.074 A 
ATOM     40  C   UNL A   1      40.944  26.971  28.587  1.00  0.00     0.049 A 
ATOM     41  N   UNL A   1      43.698  27.615  27.524  1.00  0.00    -0.248 NA
ATOM     42  C   UNL A   1      43.793  25.451  26.652  1.00  0.00     0.031 C 
ATOM     43  C   UNL A   1      39.600  26.702  29.098  1.00  0.00     0.029 A 
ATOM     44  N   UNL A   1      41.164  28.288  28.892  1.00  0.00    -0.354 N 
ATOM     45  C   UNL A   1      44.897  27.448  26.837  1.00  0.00     0.074 A 
ATOM     46  C   UNL A   1      44.917  26.084  26.352  1.00  0.00     0.031 C 
ATOM     47  C   UNL A   1      39.123  27.819  29.673  1.00  0.00     0.029 A 
ATOM     48  C   UNL A   1      40.145  28.862  29.616  1.00  0.00     0.049 A 
ATOM     49  H   UNL A   1      41.974  28.777  28.622  1.00  0.00     0.167 HD
ATOM     50  C   UNL A   1      45.885  28.354  26.631  1.00  0.00     0.034 A 
ATOM     51  C   UNL A   1      40.067  30.075  30.200  1.00  0.00     0.034 A 
ATOM     52  C   UNL A   1      45.849  29.703  27.140  1.00  0.00     0.049 A 
ATOM     53  C   UNL A   1      41.234  31.025  30.063  1.00  0.00     0.074 A 
ATOM     54  C   UNL A   1      46.783  30.711  26.978  1.00  0.00     0.029 A 
ATOM     55  N   UNL A   1      44.832  30.230  27.928  1.00  0.00    -0.354 N 
ATOM     56  N   UNL A   1      42.361  30.861  29.410  1.00  0.00    -0.248 NA
ATOM     57  C   UNL A   1      41.118  32.321  30.744  1.00  0.00     0.031 C 
ATOM     58  C   UNL A   1      46.374  31.813  27.736  1.00  0.00     0.029 A 
ATOM     59  C   UNL A   1      45.141  31.528  28.300  1.00  0.00     0.049 A 
ATOM     60  H   UNL A   1      44.011  29.750  28.183  1.00  0.00     0.167 HD
ATOM     61  C   UNL A   1      43.078  32.042  29.584  1.00  0.00     0.074 A 
ATOM     62  C   UNL A   1      42.247  32.916  30.386  1.00  0.00     0.031 C 
ATOM     63  C   UNL A   1      44.310  32.378  29.121  1.00  0.00     0.034 A 
BRANCH  50  64
ATOM     64  C   UNL A   1      47.108  27.891  25.878  1.00  0.00     0.023 A 
ATOM     65  C   UNL A   1      47.265  28.123  24.501  1.00  0.00     0.031 A 
ATOM     66  C   UNL A   1      48.125  27.187  26.546  1.00  0.00     0.131 A 
ATOM     67  C   UNL A   1      48.377  27.599  23.825  1.00  0.00     0.055 A 
ATOM     68  C   UNL A   1      49.269  26.737  25.883  1.00  0.00     0.041 A 
ATOM     69  F   UNL A   1      48.019  26.912  27.856  1.00  0.00    -0.206 F 
ATOM     70  C   UNL A   1      49.393  26.930  24.512  1.00  0.00     0.022 A 
BRANCH  67  71
ATOM     71  S   UNL A   1      48.409  27.681  22.013  1.00  0.00     0.124 S 
ATOM     72  O   UNL A   1      49.512  28.610  21.780  1.00  0.00    -0.237 OA
ATOM     73  O   UNL A   1      48.654  26.293  21.639  1.00  0.00    -0.237 OA
ATOM     74  O   UNL A   1      47.086  28.197  21.668  1.00  0.00    -0.744 OA
ENDBRANCH  67  71
ENDBRANCH  50  64
BRANCH  51  75
ATOM     75  C   UNL A   1      38.877  30.445  31.020  1.00  0.00     0.023 A 
ATOM     76  C   UNL A   1      37.907  31.333  30.532  1.00  0.00     0.031 A 
ATOM     77  C   UNL A   1      38.723  29.954  32.330  1.00  0.00     0.131 A 
ATOM     78  C   UNL A   1      36.851  31.739  31.364  1.00  0.00     0.055 A 
ATOM     79  C   UNL A   1      37.638  30.316  33.131  1.00  0.00     0.041 A 
ATOM     80  F   UNL A   1      39.625  29.106  32.850  1.00  0.00    -0.206 F 
ATOM     81  C   UNL A   1      36.701  31.225  32.653  1.00  0.00     0.022 A 
BRANCH  78  82
ATOM     82  S   UNL A   1      35.721  33.025  30.764  1.00  0.00     0.124 S 
ATOM     83  O   UNL A   1      36.115  33.135  29.364  1.00  0.00    -0.237 OA
ATOM     84  O   UNL A   1      34.416  32.424  31.019  1.00  0.00    -0.237 OA
ATOM     85  O   UNL A   1      36.048  34.179  31.599  1.00  0.00    -0.744 OA
ENDBRANCH  78  82
ENDBRANCH  51  75
BRANCH  63  86
ATOM     86  C   UNL A   1      44.817  33.761  29.455  1.00  0.00     0.023 A 
ATOM     87  C   UNL A   1      44.420  34.890  28.717  1.00  0.00     0.031 A 
ATOM     88  C   UNL A   1      45.708  33.951  30.526  1.00  0.00     0.131 A 
ATOM     89  C   UNL A   1      44.949  36.150  29.029  1.00  0.00     0.055 A 
ATOM     90  C   UNL A   1      46.183  35.218  30.871  1.00  0.00     0.041 A 
ATOM     91  F   UNL A   1      46.125  32.909  31.263  1.00  0.00    -0.206 F 
ATOM     92  C   UNL A   1      45.812  36.325  30.114  1.00  0.00     0.022 A 
BRANCH  89  93
ATOM     93  S   UNL A   1      44.560  37.551  27.945  1.00  0.00     0.124 S 
ATOM     94  O   UNL A   1      44.255  36.882  26.684  1.00  0.00    -0.237 OA
ATOM     95  O   UNL A   1      43.428  38.170  28.627  1.00  0.00    -0.237 OA
ATOM     96  O   UNL A   1      45.790  38.340  27.947  1.00  0.00    -0.744 OA
ENDBRANCH  89  93
ENDBRANCH  63  86
ENDBRANCH  37  38
ENDBRANCH  30  32
ENDBRANCH  29  30
ENDBRANCH  28  29
ENDBRANCH  27  28
ENDBRANCH   1  27
TORSDOF 22
ENDMDL
