MODEL 1
REMARK VINA RESULT:     -12.0      0.000      0.000
REMARK SMILES CC1=C([C@H](NC(=O)[C@@H]2[C@H](C)c3cc(F)ccc3N2C)C(=O)OCCOCCOC(=O)c2ccc(-c3c4nc(c(-c5cc(S(=O)(=O)[O-])ccc5F)c5ccc([nH]5)c(-c5cc(S(=O)(=O)[O-])ccc5F)c5nc(c(-c6cc(S(=O)(=O)[O-])ccc6F)c6ccc3[nH]6)C=C5)C=C4)cc2)[C@@H](C)N=N1
REMARK SMILES IDX 26 1 25 2 24 3 23 4 22 5 20 6 21 7 4 8 3 9 1 10 2 11 97 12
REMARK SMILES IDX 94 13 96 14 95 15 5 16 6 17 7 19 8 20 9 21 18 22 11 23 10 24
REMARK SMILES IDX 17 25 19 26 12 27 16 28 13 29 15 30 14 31 27 32 28 33 29 34
REMARK SMILES IDX 30 35 31 36 32 37 93 38 33 39 92 40 34 41 35 42 36 43 86 44
REMARK SMILES IDX 37 45 91 46 85 47 87 48 38 49 90 50 84 51 83 52 39 54 71 55
REMARK SMILES IDX 51 56 70 57 52 58 55 59 69 60 88 61 53 62 54 63 68 65 89 66
REMARK SMILES IDX 56 67 40 68 41 69 49 70 42 71 48 72 50 73 47 74 43 75 44 76
REMARK SMILES IDX 45 77 46 78 72 79 73 80 81 81 74 82 80 83 82 84 79 85 75 86
REMARK SMILES IDX 76 87 77 88 78 89 57 90 58 91 66 92 59 93 65 94 67 95 64 96
REMARK SMILES IDX 60 97 61 98 62 99 63 100
REMARK H PARENT 5 18 87 53 55 64
REMARK Flexibility Score: inf
ROOT
ATOM      1  C   UNL A   1      40.462  21.036  26.706  1.00  0.00     0.202 C 
ENDROOT
BRANCH   1   2
ATOM      2  O   UNL A   1      39.434  20.753  25.757  1.00  0.00    -0.374 OA
BRANCH   2   3
ATOM      3  C   UNL A   1      38.285  21.588  25.736  1.00  0.00     0.202 C 
BRANCH   3   4
ATOM      4  C   UNL A   1      37.399  21.526  24.497  1.00  0.00     0.261 C 
BRANCH   4   5
ATOM      5  O   UNL A   1      36.100  22.077  24.690  1.00  0.00    -0.461 OA
BRANCH   5   6
ATOM      6  C   UNL A   1      35.755  22.842  23.639  1.00  0.00     0.333 C 
ATOM      7  O   UNL A   1      36.465  23.016  22.650  1.00  0.00    -0.249 OA
BRANCH   6   8
ATOM      8  C   UNL A   1      34.351  23.432  23.729  1.00  0.00     0.223 C 
BRANCH   8   9
ATOM      9  C   UNL A   1      33.545  22.313  24.309  1.00  0.00     0.012 C 
ATOM     10  C   UNL A   1      31.954  20.542  21.915  1.00  0.00     0.069 C 
ATOM     11  C   UNL A   1      32.676  21.323  23.804  1.00  0.00     0.064 C 
ATOM     12  N   UNL A   1      32.344  20.666  25.102  1.00  0.00    -0.160 NA
ATOM     13  C   UNL A   1      33.846  22.080  25.790  1.00  0.00     0.156 C 
ATOM     14  N   UNL A   1      33.068  20.906  26.078  1.00  0.00    -0.181 NA
ATOM     15  C   UNL A   1      33.478  23.090  26.875  1.00  0.00     0.040 C 
ENDBRANCH   8   9
BRANCH   8  16
ATOM     16  N   UNL A   1      33.538  24.107  22.724  1.00  0.00    -0.337 N 
ATOM     17  C   UNL A   1      32.669  25.163  22.924  1.00  0.00     0.244 C 
ATOM     18  H   UNL A   1      33.615  23.772  21.801  1.00  0.00     0.164 HD
ATOM     19  O   UNL A   1      32.074  25.582  21.921  1.00  0.00    -0.273 OA
BRANCH  17  20
ATOM     20  C   UNL A   1      32.421  25.876  24.321  1.00  0.00     0.178 C 
ATOM     21  C   UNL A   1      31.034  25.542  24.981  1.00  0.00     0.050 C 
ATOM     22  N   UNL A   1      32.647  27.402  24.328  1.00  0.00    -0.362 N 
ATOM     23  C   UNL A   1      30.215  26.635  24.370  1.00  0.00    -0.016 A 
ATOM     24  C   UNL A   1      30.548  24.097  24.962  1.00  0.00     0.015 C 
ATOM     25  C   UNL A   1      31.373  28.005  24.337  1.00  0.00     0.041 A 
ATOM     26  C   UNL A   1      33.647  28.003  23.469  1.00  0.00     0.144 C 
ATOM     27  C   UNL A   1      28.515  26.849  23.772  1.00  0.00     0.045 A 
ATOM     28  C   UNL A   1      30.829  29.683  23.901  1.00  0.00     0.029 A 
ATOM     29  C   UNL A   1      27.974  28.486  23.212  1.00  0.00     0.123 A 
ATOM     30  C   UNL A   1      29.084  29.935  23.351  1.00  0.00     0.041 A 
ATOM     31  F   UNL A   1      26.712  28.646  22.792  1.00  0.00    -0.207 F 
ENDBRANCH  17  20
ENDBRANCH   8  16
ENDBRANCH   6   8
ENDBRANCH   5   6
ENDBRANCH   4   5
ENDBRANCH   3   4
ENDBRANCH   2   3
ENDBRANCH   1   2
BRANCH   1  32
ATOM     32  C   UNL A   1      41.943  21.063  26.259  1.00  0.00     0.261 C 
BRANCH  32  33
ATOM     33  O   UNL A   1      42.699  22.146  26.835  1.00  0.00    -0.460 OA
BRANCH  33  34
ATOM     34  C   UNL A   1      42.611  23.356  26.208  1.00  0.00     0.338 C 
ATOM     35  O   UNL A   1      42.757  23.571  25.018  1.00  0.00    -0.246 OA
BRANCH  34  36
ATOM     36  C   UNL A   1      41.927  24.276  27.153  1.00  0.00     0.060 A 
ATOM     37  C   UNL A   1      40.819  25.030  26.763  1.00  0.00     0.016 A 
ATOM     38  C   UNL A   1      42.636  24.601  28.322  1.00  0.00     0.016 A 
ATOM     39  C   UNL A   1      40.539  26.212  27.450  1.00  0.00     0.010 A 
ATOM     40  C   UNL A   1      42.389  25.810  28.968  1.00  0.00     0.010 A 
ATOM     41  C   UNL A   1      41.396  26.657  28.480  1.00  0.00    -0.014 A 
BRANCH  41  42
ATOM     42  C   UNL A   1      41.129  27.953  29.127  1.00  0.00     0.031 A 
ATOM     43  C   UNL A   1      42.083  28.981  28.620  1.00  0.00     0.074 A 
ATOM     44  C   UNL A   1      40.108  28.259  29.971  1.00  0.00     0.049 A 
ATOM     45  N   UNL A   1      43.025  29.580  29.269  1.00  0.00    -0.248 NA
ATOM     46  C   UNL A   1      42.136  29.190  27.161  1.00  0.00     0.031 C 
ATOM     47  C   UNL A   1      38.938  27.458  30.350  1.00  0.00     0.029 A 
ATOM     48  N   UNL A   1      39.868  29.427  30.653  1.00  0.00    -0.354 N 
ATOM     49  C   UNL A   1      43.661  30.400  28.338  1.00  0.00     0.074 A 
ATOM     50  C   UNL A   1      43.203  29.977  27.043  1.00  0.00     0.031 C 
ATOM     51  C   UNL A   1      38.029  28.225  31.001  1.00  0.00     0.029 A 
ATOM     52  C   UNL A   1      38.585  29.545  31.203  1.00  0.00     0.049 A 
ATOM     53  H   UNL A   1      40.549  30.132  30.748  1.00  0.00     0.167 HD
ATOM     54  C   UNL A   1      44.365  31.505  28.711  1.00  0.00     0.034 A 
ATOM     55  C   UNL A   1      38.002  30.655  31.745  1.00  0.00     0.034 A 
ATOM     56  C   UNL A   1      44.668  31.471  30.113  1.00  0.00     0.049 A 
ATOM     57  C   UNL A   1      39.087  31.611  32.063  1.00  0.00     0.074 A 
ATOM     58  C   UNL A   1      45.483  30.690  30.904  1.00  0.00     0.029 A 
ATOM     59  N   UNL A   1      43.777  32.078  30.962  1.00  0.00    -0.354 N 
ATOM     60  N   UNL A   1      39.969  31.400  32.998  1.00  0.00    -0.248 NA
ATOM     61  C   UNL A   1      39.482  32.517  30.995  1.00  0.00     0.031 C 
ATOM     62  C   UNL A   1      44.748  30.492  32.104  1.00  0.00     0.029 A 
ATOM     63  C   UNL A   1      43.572  31.242  32.028  1.00  0.00     0.049 A 
ATOM     64  H   UNL A   1      43.359  32.959  30.828  1.00  0.00     0.167 HD
ATOM     65  C   UNL A   1      41.169  31.756  32.408  1.00  0.00     0.074 A 
ATOM     66  C   UNL A   1      40.804  32.461  31.178  1.00  0.00     0.031 C 
ATOM     67  C   UNL A   1      42.346  31.194  32.798  1.00  0.00     0.034 A 
BRANCH  54  68
ATOM     68  C   UNL A   1      44.492  32.748  27.867  1.00  0.00     0.023 A 
ATOM     69  C   UNL A   1      43.770  33.930  28.125  1.00  0.00     0.031 A 
ATOM     70  C   UNL A   1      45.513  32.849  26.903  1.00  0.00     0.131 A 
ATOM     71  C   UNL A   1      44.039  35.121  27.440  1.00  0.00     0.055 A 
ATOM     72  C   UNL A   1      45.830  34.057  26.268  1.00  0.00     0.041 A 
ATOM     73  F   UNL A   1      46.271  31.788  26.582  1.00  0.00    -0.206 F 
ATOM     74  C   UNL A   1      45.090  35.202  26.534  1.00  0.00     0.022 A 
BRANCH  71  75
ATOM     75  S   UNL A   1      43.021  36.597  27.723  1.00  0.00     0.124 S 
ATOM     76  O   UNL A   1      43.159  36.790  29.162  1.00  0.00    -0.237 OA
ATOM     77  O   UNL A   1      43.698  37.584  26.885  1.00  0.00    -0.237 OA
ATOM     78  O   UNL A   1      41.698  36.195  27.257  1.00  0.00    -0.744 OA
ENDBRANCH  71  75
ENDBRANCH  54  68
BRANCH  55  79
ATOM     79  C   UNL A   1      36.630  31.173  31.455  1.00  0.00     0.023 A 
ATOM     80  C   UNL A   1      36.226  31.286  30.113  1.00  0.00     0.031 A 
ATOM     81  C   UNL A   1      35.879  31.890  32.410  1.00  0.00     0.131 A 
ATOM     82  C   UNL A   1      35.169  32.134  29.751  1.00  0.00     0.055 A 
ATOM     83  C   UNL A   1      34.795  32.709  32.048  1.00  0.00     0.041 A 
ATOM     84  F   UNL A   1      36.232  31.878  33.705  1.00  0.00    -0.206 F 
ATOM     85  C   UNL A   1      34.449  32.849  30.707  1.00  0.00     0.022 A 
BRANCH  82  86
ATOM     86  S   UNL A   1      34.811  32.428  27.996  1.00  0.00     0.124 S 
ATOM     87  O   UNL A   1      34.629  31.070  27.488  1.00  0.00    -0.237 OA
ATOM     88  O   UNL A   1      33.602  33.240  28.075  1.00  0.00    -0.237 OA
ATOM     89  O   UNL A   1      36.007  33.112  27.515  1.00  0.00    -0.744 OA
ENDBRANCH  82  86
ENDBRANCH  55  79
BRANCH  67  90
ATOM     90  C   UNL A   1      42.368  30.302  34.017  1.00  0.00     0.023 A 
ATOM     91  C   UNL A   1      42.639  30.945  35.233  1.00  0.00     0.031 A 
ATOM     92  C   UNL A   1      42.420  28.894  33.995  1.00  0.00     0.131 A 
ATOM     93  C   UNL A   1      43.047  30.210  36.348  1.00  0.00     0.055 A 
ATOM     94  C   UNL A   1      42.744  28.153  35.140  1.00  0.00     0.041 A 
ATOM     95  F   UNL A   1      42.261  28.207  32.856  1.00  0.00    -0.206 F 
ATOM     96  C   UNL A   1      43.091  28.814  36.317  1.00  0.00     0.022 A 
BRANCH  93  97
ATOM     97  S   UNL A   1      43.720  31.082  37.785  1.00  0.00     0.124 S 
ATOM     98  O   UNL A   1      44.447  32.186  37.164  1.00  0.00    -0.237 OA
ATOM     99  O   UNL A   1      42.512  31.456  38.517  1.00  0.00    -0.237 OA
ATOM    100  O   UNL A   1      44.554  30.083  38.447  1.00  0.00    -0.744 OA
ENDBRANCH  93  97
ENDBRANCH  67  90
ENDBRANCH  41  42
ENDBRANCH  34  36
ENDBRANCH  33  34
ENDBRANCH  32  33
ENDBRANCH   1  32
TORSDOF 20
ENDMDL
MODEL 2
REMARK VINA RESULT:     -11.8      1.753      2.218
REMARK SMILES CC1=C([C@H](NC(=O)[C@@H]2[C@H](C)c3cc(F)ccc3N2C)C(=O)OCCOCCOC(=O)c2ccc(-c3c4nc(c(-c5cc(S(=O)(=O)[O-])ccc5F)c5ccc([nH]5)c(-c5cc(S(=O)(=O)[O-])ccc5F)c5nc(c(-c6cc(S(=O)(=O)[O-])ccc6F)c6ccc3[nH]6)C=C5)C=C4)cc2)[C@@H](C)N=N1
REMARK SMILES IDX 26 1 25 2 24 3 23 4 22 5 20 6 21 7 4 8 3 9 1 10 2 11 97 12
REMARK SMILES IDX 94 13 96 14 95 15 5 16 6 17 7 19 8 20 9 21 18 22 11 23 10 24
REMARK SMILES IDX 17 25 19 26 12 27 16 28 13 29 15 30 14 31 27 32 28 33 29 34
REMARK SMILES IDX 30 35 31 36 32 37 93 38 33 39 92 40 34 41 35 42 36 43 86 44
REMARK SMILES IDX 37 45 91 46 85 47 87 48 38 49 90 50 84 51 83 52 39 54 71 55
REMARK SMILES IDX 51 56 70 57 52 58 55 59 69 60 88 61 53 62 54 63 68 65 89 66
REMARK SMILES IDX 56 67 40 68 41 69 49 70 42 71 48 72 50 73 47 74 43 75 44 76
REMARK SMILES IDX 45 77 46 78 72 79 73 80 81 81 74 82 80 83 82 84 79 85 75 86
REMARK SMILES IDX 76 87 77 88 78 89 57 90 58 91 66 92 59 93 65 94 67 95 64 96
REMARK SMILES IDX 60 97 61 98 62 99 63 100
REMARK H PARENT 5 18 87 53 55 64
REMARK Flexibility Score: inf
ROOT
ATOM      1  C   UNL A   1      38.679  21.446  25.953  1.00  0.00     0.202 C 
ENDROOT
BRANCH   1   2
ATOM      2  O   UNL A   1      37.980  22.423  25.183  1.00  0.00    -0.374 OA
BRANCH   2   3
ATOM      3  C   UNL A   1      36.996  21.979  24.259  1.00  0.00     0.202 C 
BRANCH   3   4
ATOM      4  C   UNL A   1      36.503  22.984  23.226  1.00  0.00     0.261 C 
BRANCH   4   5
ATOM      5  O   UNL A   1      35.737  24.050  23.778  1.00  0.00    -0.461 OA
BRANCH   5   6
ATOM      6  C   UNL A   1      34.425  23.839  23.575  1.00  0.00     0.333 C 
ATOM      7  O   UNL A   1      33.915  23.681  22.468  1.00  0.00    -0.249 OA
BRANCH   6   8
ATOM      8  C   UNL A   1      33.603  23.729  24.856  1.00  0.00     0.223 C 
BRANCH   8   9
ATOM      9  C   UNL A   1      33.343  22.260  24.973  1.00  0.00     0.012 C 
ATOM     10  C   UNL A   1      31.876  21.022  22.196  1.00  0.00     0.069 C 
ATOM     11  C   UNL A   1      32.735  21.273  24.171  1.00  0.00     0.064 C 
ATOM     12  N   UNL A   1      32.933  20.115  25.091  1.00  0.00    -0.160 NA
ATOM     13  C   UNL A   1      34.036  21.637  26.186  1.00  0.00     0.156 C 
ATOM     14  N   UNL A   1      33.751  20.238  26.014  1.00  0.00    -0.181 NA
ATOM     15  C   UNL A   1      33.633  21.962  27.622  1.00  0.00     0.040 C 
ENDBRANCH   8   9
BRANCH   8  16
ATOM     16  N   UNL A   1      32.402  24.440  25.279  1.00  0.00    -0.337 N 
ATOM     17  C   UNL A   1      32.056  25.745  24.984  1.00  0.00     0.244 C 
ATOM     18  H   UNL A   1      31.767  23.934  25.837  1.00  0.00     0.164 HD
ATOM     19  O   UNL A   1      30.982  26.147  25.453  1.00  0.00    -0.273 OA
BRANCH  17  20
ATOM     20  C   UNL A   1      32.915  26.723  24.075  1.00  0.00     0.178 C 
ATOM     21  C   UNL A   1      33.297  28.082  24.766  1.00  0.00     0.050 C 
ATOM     22  N   UNL A   1      32.332  26.997  22.673  1.00  0.00    -0.362 N 
ATOM     23  C   UNL A   1      32.103  28.891  24.367  1.00  0.00    -0.016 A 
ATOM     24  C   UNL A   1      33.772  28.053  26.214  1.00  0.00     0.015 C 
ATOM     25  C   UNL A   1      31.776  28.292  22.707  1.00  0.00     0.041 A 
ATOM     26  C   UNL A   1      31.570  25.979  21.980  1.00  0.00     0.144 C 
ATOM     27  C   UNL A   1      31.078  30.200  25.094  1.00  0.00     0.045 A 
ATOM     28  C   UNL A   1      30.555  29.109  21.638  1.00  0.00     0.029 A 
ATOM     29  C   UNL A   1      29.766  30.954  24.096  1.00  0.00     0.123 A 
ATOM     30  C   UNL A   1      29.545  30.489  22.339  1.00  0.00     0.041 A 
ATOM     31  F   UNL A   1      29.027  31.935  24.627  1.00  0.00    -0.207 F 
ENDBRANCH  17  20
ENDBRANCH   8  16
ENDBRANCH   6   8
ENDBRANCH   5   6
ENDBRANCH   4   5
ENDBRANCH   3   4
ENDBRANCH   2   3
ENDBRANCH   1   2
BRANCH   1  32
ATOM     32  C   UNL A   1      40.160  21.675  26.333  1.00  0.00     0.261 C 
BRANCH  32  33
ATOM     33  O   UNL A   1      40.334  22.395  27.570  1.00  0.00    -0.460 OA
BRANCH  33  34
ATOM     34  C   UNL A   1      41.613  22.735  27.907  1.00  0.00     0.338 C 
ATOM     35  O   UNL A   1      42.588  22.005  27.887  1.00  0.00    -0.246 OA
BRANCH  34  36
ATOM     36  C   UNL A   1      41.671  24.219  27.915  1.00  0.00     0.060 A 
ATOM     37  C   UNL A   1      42.719  24.904  28.533  1.00  0.00     0.016 A 
ATOM     38  C   UNL A   1      40.481  24.886  27.580  1.00  0.00     0.016 A 
ATOM     39  C   UNL A   1      42.496  26.210  28.973  1.00  0.00     0.010 A 
ATOM     40  C   UNL A   1      40.243  26.167  28.072  1.00  0.00     0.010 A 
ATOM     41  C   UNL A   1      41.218  26.797  28.843  1.00  0.00    -0.014 A 
BRANCH  41  42
ATOM     42  C   UNL A   1      40.985  28.141  29.398  1.00  0.00     0.031 A 
ATOM     43  C   UNL A   1      41.908  29.123  28.759  1.00  0.00     0.074 A 
ATOM     44  C   UNL A   1      40.011  28.516  30.270  1.00  0.00     0.049 A 
ATOM     45  N   UNL A   1      42.883  29.769  29.304  1.00  0.00    -0.248 NA
ATOM     46  C   UNL A   1      41.880  29.214  27.287  1.00  0.00     0.031 C 
ATOM     47  C   UNL A   1      38.866  27.752  30.775  1.00  0.00     0.029 A 
ATOM     48  N   UNL A   1      39.807  29.736  30.868  1.00  0.00    -0.354 N 
ATOM     49  C   UNL A   1      43.465  30.510  28.277  1.00  0.00     0.074 A 
ATOM     50  C   UNL A   1      42.937  29.986  27.047  1.00  0.00     0.031 C 
ATOM     51  C   UNL A   1      37.992  28.570  31.411  1.00  0.00     0.029 A 
ATOM     52  C   UNL A   1      38.556  29.901  31.476  1.00  0.00     0.049 A 
ATOM     53  H   UNL A   1      40.491  30.444  30.868  1.00  0.00     0.167 HD
ATOM     54  C   UNL A   1      44.187  31.639  28.521  1.00  0.00     0.034 A 
ATOM     55  C   UNL A   1      38.002  31.052  31.959  1.00  0.00     0.034 A 
ATOM     56  C   UNL A   1      44.567  31.717  29.903  1.00  0.00     0.049 A 
ATOM     57  C   UNL A   1      39.101  32.028  32.139  1.00  0.00     0.074 A 
ATOM     58  C   UNL A   1      45.426  31.000  30.708  1.00  0.00     0.029 A 
ATOM     59  N   UNL A   1      43.723  32.393  30.748  1.00  0.00    -0.354 N 
ATOM     60  N   UNL A   1      40.034  31.890  33.038  1.00  0.00    -0.248 NA
ATOM     61  C   UNL A   1      39.436  32.844  30.982  1.00  0.00     0.031 C 
ATOM     62  C   UNL A   1      44.758  30.900  31.958  1.00  0.00     0.029 A 
ATOM     63  C   UNL A   1      43.578  31.645  31.887  1.00  0.00     0.049 A 
ATOM     64  H   UNL A   1      43.296  33.261  30.567  1.00  0.00     0.167 HD
ATOM     65  C   UNL A   1      41.199  32.194  32.356  1.00  0.00     0.074 A 
ATOM     66  C   UNL A   1      40.766  32.799  31.096  1.00  0.00     0.031 C 
ATOM     67  C   UNL A   1      42.396  31.662  32.725  1.00  0.00     0.034 A 
BRANCH  54  68
ATOM     68  C   UNL A   1      44.265  32.810  27.575  1.00  0.00     0.023 A 
ATOM     69  C   UNL A   1      43.751  34.085  27.884  1.00  0.00     0.031 A 
ATOM     70  C   UNL A   1      45.059  32.733  26.414  1.00  0.00     0.131 A 
ATOM     71  C   UNL A   1      43.995  35.196  27.068  1.00  0.00     0.055 A 
ATOM     72  C   UNL A   1      45.363  33.856  25.635  1.00  0.00     0.041 A 
ATOM     73  F   UNL A   1      45.608  31.570  26.027  1.00  0.00    -0.206 F 
ATOM     74  C   UNL A   1      44.828  35.098  25.959  1.00  0.00     0.022 A 
BRANCH  71  75
ATOM     75  S   UNL A   1      43.232  36.799  27.439  1.00  0.00     0.124 S 
ATOM     76  O   UNL A   1      41.897  36.640  26.873  1.00  0.00    -0.237 OA
ATOM     77  O   UNL A   1      43.299  36.824  28.899  1.00  0.00    -0.237 OA
ATOM     78  O   UNL A   1      44.101  37.759  26.765  1.00  0.00    -0.744 OA
ENDBRANCH  71  75
ENDBRANCH  54  68
BRANCH  55  79
ATOM     79  C   UNL A   1      36.616  31.549  31.704  1.00  0.00     0.023 A 
ATOM     80  C   UNL A   1      36.164  31.624  30.375  1.00  0.00     0.031 A 
ATOM     81  C   UNL A   1      35.890  32.283  32.666  1.00  0.00     0.131 A 
ATOM     82  C   UNL A   1      35.086  32.452  30.029  1.00  0.00     0.055 A 
ATOM     83  C   UNL A   1      34.785  33.081  32.323  1.00  0.00     0.041 A 
ATOM     84  F   UNL A   1      36.288  32.306  33.948  1.00  0.00    -0.206 F 
ATOM     85  C   UNL A   1      34.391  33.184  30.992  1.00  0.00     0.022 A 
BRANCH  82  86
ATOM     86  S   UNL A   1      34.664  32.698  28.281  1.00  0.00     0.124 S 
ATOM     87  O   UNL A   1      33.917  31.482  27.971  1.00  0.00    -0.237 OA
ATOM     88  O   UNL A   1      33.877  33.925  28.338  1.00  0.00    -0.237 OA
ATOM     89  O   UNL A   1      35.965  32.806  27.629  1.00  0.00    -0.744 OA
ENDBRANCH  82  86
ENDBRANCH  55  79
BRANCH  67  90
ATOM     90  C   UNL A   1      42.487  30.870  34.008  1.00  0.00     0.023 A 
ATOM     91  C   UNL A   1      42.346  29.481  33.873  1.00  0.00     0.031 A 
ATOM     92  C   UNL A   1      42.418  31.412  35.307  1.00  0.00     0.131 A 
ATOM     93  C   UNL A   1      42.045  28.688  34.982  1.00  0.00     0.055 A 
ATOM     94  C   UNL A   1      42.202  30.602  36.430  1.00  0.00     0.041 A 
ATOM     95  F   UNL A   1      42.454  32.735  35.514  1.00  0.00    -0.206 F 
ATOM     96  C   UNL A   1      41.983  29.236  36.266  1.00  0.00     0.022 A 
BRANCH  93  97
ATOM     97  S   UNL A   1      41.529  26.972  34.729  1.00  0.00     0.124 S 
ATOM     98  O   UNL A   1      41.161  26.557  36.080  1.00  0.00    -0.237 OA
ATOM     99  O   UNL A   1      40.418  27.115  33.790  1.00  0.00    -0.237 OA
ATOM    100  O   UNL A   1      42.716  26.322  34.181  1.00  0.00    -0.744 OA
ENDBRANCH  93  97
ENDBRANCH  67  90
ENDBRANCH  41  42
ENDBRANCH  34  36
ENDBRANCH  33  34
ENDBRANCH  32  33
ENDBRANCH   1  32
TORSDOF 20
ENDMDL
MODEL 3
REMARK VINA RESULT:     -11.4      3.450      9.305
REMARK SMILES CC1=C([C@H](NC(=O)[C@@H]2[C@H](C)c3cc(F)ccc3N2C)C(=O)OCCOCCOC(=O)c2ccc(-c3c4nc(c(-c5cc(S(=O)(=O)[O-])ccc5F)c5ccc([nH]5)c(-c5cc(S(=O)(=O)[O-])ccc5F)c5nc(c(-c6cc(S(=O)(=O)[O-])ccc6F)c6ccc3[nH]6)C=C5)C=C4)cc2)[C@@H](C)N=N1
REMARK SMILES IDX 26 1 25 2 24 3 23 4 22 5 20 6 21 7 4 8 3 9 1 10 2 11 97 12
REMARK SMILES IDX 94 13 96 14 95 15 5 16 6 17 7 19 8 20 9 21 18 22 11 23 10 24
REMARK SMILES IDX 17 25 19 26 12 27 16 28 13 29 15 30 14 31 27 32 28 33 29 34
REMARK SMILES IDX 30 35 31 36 32 37 93 38 33 39 92 40 34 41 35 42 36 43 86 44
REMARK SMILES IDX 37 45 91 46 85 47 87 48 38 49 90 50 84 51 83 52 39 54 71 55
REMARK SMILES IDX 51 56 70 57 52 58 55 59 69 60 88 61 53 62 54 63 68 65 89 66
REMARK SMILES IDX 56 67 40 68 41 69 49 70 42 71 48 72 50 73 47 74 43 75 44 76
REMARK SMILES IDX 45 77 46 78 72 79 73 80 81 81 74 82 80 83 82 84 79 85 75 86
REMARK SMILES IDX 76 87 77 88 78 89 57 90 58 91 66 92 59 93 65 94 67 95 64 96
REMARK SMILES IDX 60 97 61 98 62 99 63 100
REMARK H PARENT 5 18 87 53 55 64
REMARK Flexibility Score: inf
ROOT
ATOM      1  C   UNL A   1      34.511  31.589  28.229  1.00  0.00     0.202 C 
ENDROOT
BRANCH   1   2
ATOM      2  O   UNL A   1      33.610  31.682  27.127  1.00  0.00    -0.374 OA
BRANCH   2   3
ATOM      3  C   UNL A   1      32.863  30.529  26.764  1.00  0.00     0.202 C 
BRANCH   3   4
ATOM      4  C   UNL A   1      33.088  29.265  27.585  1.00  0.00     0.261 C 
BRANCH   4   5
ATOM      5  O   UNL A   1      33.134  28.073  26.806  1.00  0.00    -0.461 OA
BRANCH   5   6
ATOM      6  C   UNL A   1      31.940  27.456  26.823  1.00  0.00     0.333 C 
ATOM      7  O   UNL A   1      31.002  27.789  27.545  1.00  0.00    -0.249 OA
BRANCH   6   8
ATOM      8  C   UNL A   1      31.802  26.332  25.800  1.00  0.00     0.223 C 
BRANCH   8   9
ATOM      9  C   UNL A   1      31.313  27.039  24.576  1.00  0.00     0.012 C 
ATOM     10  C   UNL A   1      28.014  26.530  24.068  1.00  0.00     0.069 C 
ATOM     11  C   UNL A   1      30.088  27.136  23.884  1.00  0.00     0.064 C 
ATOM     12  N   UNL A   1      30.544  28.047  22.794  1.00  0.00    -0.160 NA
ATOM     13  C   UNL A   1      32.342  28.022  24.016  1.00  0.00     0.156 C 
ATOM     14  N   UNL A   1      31.612  28.654  22.951  1.00  0.00    -0.181 NA
ATOM     15  C   UNL A   1      33.661  27.567  23.394  1.00  0.00     0.040 C 
ENDBRANCH   8   9
BRANCH   8  16
ATOM     16  N   UNL A   1      31.119  25.046  25.887  1.00  0.00    -0.337 N 
ATOM     17  C   UNL A   1      31.613  23.810  25.515  1.00  0.00     0.244 C 
ATOM     18  H   UNL A   1      30.204  25.060  26.251  1.00  0.00     0.164 HD
ATOM     19  O   UNL A   1      30.854  22.845  25.675  1.00  0.00    -0.273 OA
BRANCH  17  20
ATOM     20  C   UNL A   1      33.072  23.558  24.940  1.00  0.00     0.178 C 
ATOM     21  C   UNL A   1      33.124  23.317  23.388  1.00  0.00     0.050 C 
ATOM     22  N   UNL A   1      33.881  22.462  25.664  1.00  0.00    -0.362 N 
ATOM     23  C   UNL A   1      32.949  21.831  23.376  1.00  0.00    -0.016 A 
ATOM     24  C   UNL A   1      32.281  24.210  22.485  1.00  0.00     0.015 C 
ATOM     25  C   UNL A   1      33.874  21.328  24.828  1.00  0.00     0.041 A 
ATOM     26  C   UNL A   1      33.700  22.228  27.082  1.00  0.00     0.144 C 
ATOM     27  C   UNL A   1      32.141  20.594  22.322  1.00  0.00     0.045 A 
ATOM     28  C   UNL A   1      34.201  19.573  25.171  1.00  0.00     0.029 A 
ATOM     29  C   UNL A   1      32.343  18.835  22.708  1.00  0.00     0.123 A 
ATOM     30  C   UNL A   1      33.440  18.298  24.072  1.00  0.00     0.041 A 
ATOM     31  F   UNL A   1      31.764  17.924  21.916  1.00  0.00    -0.207 F 
ENDBRANCH  17  20
ENDBRANCH   8  16
ENDBRANCH   6   8
ENDBRANCH   5   6
ENDBRANCH   4   5
ENDBRANCH   3   4
ENDBRANCH   2   3
ENDBRANCH   1   2
BRANCH   1  32
ATOM     32  C   UNL A   1      34.468  32.647  29.357  1.00  0.00     0.261 C 
BRANCH  32  33
ATOM     33  O   UNL A   1      35.544  32.521  30.307  1.00  0.00    -0.460 OA
BRANCH  33  34
ATOM     34  C   UNL A   1      36.755  33.029  29.933  1.00  0.00     0.338 C 
ATOM     35  O   UNL A   1      36.988  34.175  29.590  1.00  0.00    -0.246 OA
BRANCH  34  36
ATOM     36  C   UNL A   1      37.784  32.062  30.393  1.00  0.00     0.060 A 
ATOM     37  C   UNL A   1      39.078  32.472  30.714  1.00  0.00     0.016 A 
ATOM     38  C   UNL A   1      37.500  30.704  30.167  1.00  0.00     0.016 A 
ATOM     39  C   UNL A   1      40.115  31.541  30.630  1.00  0.00     0.010 A 
ATOM     40  C   UNL A   1      38.544  29.793  30.026  1.00  0.00     0.010 A 
ATOM     41  C   UNL A   1      39.859  30.229  30.174  1.00  0.00    -0.014 A 
BRANCH  41  42
ATOM     42  C   UNL A   1      40.985  29.294  30.007  1.00  0.00     0.031 A 
ATOM     43  C   UNL A   1      41.440  28.803  31.339  1.00  0.00     0.074 A 
ATOM     44  C   UNL A   1      41.495  28.817  28.840  1.00  0.00     0.049 A 
ATOM     45  N   UNL A   1      42.562  29.038  31.932  1.00  0.00    -0.248 NA
ATOM     46  C   UNL A   1      40.429  28.167  32.204  1.00  0.00     0.031 C 
ATOM     47  C   UNL A   1      40.996  28.976  27.469  1.00  0.00     0.029 A 
ATOM     48  N   UNL A   1      42.586  28.008  28.639  1.00  0.00    -0.354 N 
ATOM     49  C   UNL A   1      42.476  28.401  33.169  1.00  0.00     0.074 A 
ATOM     50  C   UNL A   1      41.092  28.056  33.352  1.00  0.00     0.031 C 
ATOM     51  C   UNL A   1      41.639  28.128  26.630  1.00  0.00     0.029 A 
ATOM     52  C   UNL A   1      42.684  27.444  27.360  1.00  0.00     0.049 A 
ATOM     53  H   UNL A   1      43.253  27.837  29.343  1.00  0.00     0.167 HD
ATOM     54  C   UNL A   1      43.583  28.023  33.865  1.00  0.00     0.034 A 
ATOM     55  C   UNL A   1      43.529  26.457  26.940  1.00  0.00     0.034 A 
ATOM     56  C   UNL A   1      44.754  28.684  33.366  1.00  0.00     0.049 A 
ATOM     57  C   UNL A   1      44.631  26.371  27.925  1.00  0.00     0.074 A 
ATOM     58  C   UNL A   1      45.202  29.988  33.375  1.00  0.00     0.029 A 
ATOM     59  N   UNL A   1      45.471  28.039  32.391  1.00  0.00    -0.354 N 
ATOM     60  N   UNL A   1      45.520  27.311  28.081  1.00  0.00    -0.248 NA
ATOM     61  C   UNL A   1      44.409  25.497  29.067  1.00  0.00     0.031 C 
ATOM     62  C   UNL A   1      45.805  30.176  32.102  1.00  0.00     0.029 A 
ATOM     63  C   UNL A   1      45.789  28.956  31.423  1.00  0.00     0.049 A 
ATOM     64  H   UNL A   1      45.715  27.085  32.387  1.00  0.00     0.167 HD
ATOM     65  C   UNL A   1      45.622  27.446  29.454  1.00  0.00     0.074 A 
ATOM     66  C   UNL A   1      44.930  26.284  30.012  1.00  0.00     0.031 C 
ATOM     67  C   UNL A   1      45.986  28.626  30.026  1.00  0.00     0.034 A 
BRANCH  54  68
ATOM     68  C   UNL A   1      43.636  26.822  34.775  1.00  0.00     0.023 A 
ATOM     69  C   UNL A   1      44.337  25.643  34.453  1.00  0.00     0.031 A 
ATOM     70  C   UNL A   1      43.160  26.911  36.097  1.00  0.00     0.131 A 
ATOM     71  C   UNL A   1      44.521  24.616  35.388  1.00  0.00     0.055 A 
ATOM     72  C   UNL A   1      43.403  25.917  37.053  1.00  0.00     0.041 A 
ATOM     73  F   UNL A   1      42.485  27.993  36.518  1.00  0.00    -0.206 F 
ATOM     74  C   UNL A   1      44.086  24.759  36.700  1.00  0.00     0.022 A 
BRANCH  71  75
ATOM     75  S   UNL A   1      45.338  23.069  34.909  1.00  0.00     0.124 S 
ATOM     76  O   UNL A   1      45.430  23.209  33.460  1.00  0.00    -0.237 OA
ATOM     77  O   UNL A   1      46.602  23.168  35.635  1.00  0.00    -0.237 OA
ATOM     78  O   UNL A   1      44.428  22.035  35.393  1.00  0.00    -0.744 OA
ENDBRANCH  71  75
ENDBRANCH  54  68
BRANCH  55  79
ATOM     79  C   UNL A   1      43.159  25.245  26.147  1.00  0.00     0.023 A 
ATOM     80  C   UNL A   1      42.076  24.463  26.584  1.00  0.00     0.031 A 
ATOM     81  C   UNL A   1      44.046  24.648  25.226  1.00  0.00     0.131 A 
ATOM     82  C   UNL A   1      41.940  23.129  26.170  1.00  0.00     0.055 A 
ATOM     83  C   UNL A   1      43.886  23.323  24.783  1.00  0.00     0.041 A 
ATOM     84  F   UNL A   1      45.135  25.308  24.802  1.00  0.00    -0.206 F 
ATOM     85  C   UNL A   1      42.837  22.550  25.273  1.00  0.00     0.022 A 
BRANCH  82  86
ATOM     86  S   UNL A   1      40.661  22.080  26.916  1.00  0.00     0.124 S 
ATOM     87  O   UNL A   1      40.728  20.878  26.089  1.00  0.00    -0.237 OA
ATOM     88  O   UNL A   1      41.157  21.937  28.280  1.00  0.00    -0.237 OA
ATOM     89  O   UNL A   1      39.442  22.869  26.762  1.00  0.00    -0.744 OA
ENDBRANCH  82  86
ENDBRANCH  55  79
BRANCH  67  90
ATOM     90  C   UNL A   1      46.462  29.757  29.144  1.00  0.00     0.023 A 
ATOM     91  C   UNL A   1      45.452  30.527  28.549  1.00  0.00     0.031 A 
ATOM     92  C   UNL A   1      47.776  29.916  28.662  1.00  0.00     0.131 A 
ATOM     93  C   UNL A   1      45.735  31.340  27.450  1.00  0.00     0.055 A 
ATOM     94  C   UNL A   1      48.072  30.800  27.615  1.00  0.00     0.041 A 
ATOM     95  F   UNL A   1      48.782  29.156  29.114  1.00  0.00    -0.206 F 
ATOM     96  C   UNL A   1      47.043  31.494  26.983  1.00  0.00     0.022 A 
BRANCH  93  97
ATOM     97  S   UNL A   1      44.368  32.044  26.494  1.00  0.00     0.124 S 
ATOM     98  O   UNL A   1      45.039  32.486  25.275  1.00  0.00    -0.237 OA
ATOM     99  O   UNL A   1      43.472  30.899  26.342  1.00  0.00    -0.237 OA
ATOM    100  O   UNL A   1      43.856  33.115  27.345  1.00  0.00    -0.744 OA
ENDBRANCH  93  97
ENDBRANCH  67  90
ENDBRANCH  41  42
ENDBRANCH  34  36
ENDBRANCH  33  34
ENDBRANCH  32  33
ENDBRANCH   1  32
TORSDOF 20
ENDMDL
