MODEL 1
REMARK VINA RESULT:     -11.4      0.000      0.000
REMARK SMILES C[C@@H](C(=O)OCCOCCOC(=O)c1ccc(-c2c3nc(c(-c4cc(S(=O)(=O)[O-])ccc4F)c4ccc([nH]4)c(-c4cc(S(=O)(=O)[O-])ccc4F)c4nc(c(-c5cc(S(=O)(=O)[O-])ccc5F)c5ccc2[nH]5)C=C4)C=C3)cc1)c1ccc(C[C@H]2CCC[C@@H]2O)cc1Br
REMARK SMILES IDX 7 1 6 2 5 3 3 4 4 5 2 6 1 7 77 8 78 9 89 10 79 11 88 12
REMARK SMILES IDX 90 13 80 14 81 15 82 16 83 17 86 18 84 19 85 20 87 21 8 23
REMARK SMILES IDX 9 24 10 25 11 26 12 27 13 28 14 29 15 30 76 31 16 32 75 33
REMARK SMILES IDX 17 34 18 35 19 36 69 37 20 38 74 39 68 40 70 41 21 42 73 43
REMARK SMILES IDX 67 44 66 45 22 47 54 48 34 49 53 50 35 51 38 52 52 53 71 54
REMARK SMILES IDX 36 55 37 56 51 58 72 59 39 60 23 61 24 62 32 63 25 64 31 65
REMARK SMILES IDX 33 66 30 67 26 68 27 69 28 70 29 71 55 72 56 73 64 74 57 75
REMARK SMILES IDX 63 76 65 77 62 78 58 79 59 80 60 81 61 82 40 83 41 84 49 85
REMARK SMILES IDX 42 86 48 87 50 88 47 89 43 90 44 91 45 92 46 93
REMARK H PARENT 87 22 70 46 38 57
REMARK Flexibility Score: inf
ROOT
ATOM      1  C   UNL A   1      31.036  27.709  25.275  1.00  0.00     0.202 C 
ENDROOT
BRANCH   1   2
ATOM      2  C   UNL A   1      30.573  26.326  25.745  1.00  0.00     0.261 C 
BRANCH   2   3
ATOM      3  O   UNL A   1      31.492  25.328  25.282  1.00  0.00    -0.463 OA
BRANCH   3   4
ATOM      4  C   UNL A   1      32.242  24.694  26.224  1.00  0.00     0.313 C 
ATOM      5  O   UNL A   1      31.781  24.135  27.214  1.00  0.00    -0.252 OA
BRANCH   4   6
ATOM      6  C   UNL A   1      33.725  24.626  25.815  1.00  0.00     0.127 C 
ATOM      7  C   UNL A   1      34.069  25.799  24.879  1.00  0.00     0.025 C 
BRANCH   6   8
ATOM      8  C   UNL A   1      34.169  23.227  25.330  1.00  0.00    -0.020 A 
ATOM      9  C   UNL A   1      33.209  22.317  24.825  1.00  0.00     0.006 A 
ATOM     10  C   UNL A   1      35.482  22.729  25.451  1.00  0.00     0.022 A 
ATOM     11  C   UNL A   1      33.514  20.979  24.542  1.00  0.00     0.004 A 
ATOM     12  C   UNL A   1      35.786  21.388  25.148  1.00  0.00     0.019 A 
ATOM     13  Br  UNL A   1      36.955  23.727  26.120  1.00  0.00    -0.050 Br
ATOM     14  C   UNL A   1      34.794  20.485  24.760  1.00  0.00    -0.047 A 
BRANCH  14  15
ATOM     15  C   UNL A   1      35.092  19.006  24.677  1.00  0.00     0.041 C 
BRANCH  15  16
ATOM     16  C   UNL A   1      33.859  18.087  24.539  1.00  0.00     0.022 C 
ATOM     17  C   UNL A   1      34.009  16.870  23.607  1.00  0.00     0.007 C 
ATOM     18  C   UNL A   1      33.332  17.505  25.856  1.00  0.00     0.117 C 
ATOM     19  C   UNL A   1      33.312  15.702  24.310  1.00  0.00     0.003 C 
ATOM     20  C   UNL A   1      32.469  16.338  25.400  1.00  0.00     0.032 C 
BRANCH  18  21
ATOM     21  O   UNL A   1      32.569  18.465  26.564  1.00  0.00    -0.393 OA
ATOM     22  H   UNL A   1      31.831  18.025  27.013  1.00  0.00     0.210 HD
ENDBRANCH  18  21
ENDBRANCH  15  16
ENDBRANCH  14  15
ENDBRANCH   6   8
ENDBRANCH   4   6
ENDBRANCH   3   4
ENDBRANCH   2   3
ENDBRANCH   1   2
BRANCH   1  23
ATOM     23  O   UNL A   1      32.110  28.295  26.017  1.00  0.00    -0.374 OA
BRANCH  23  24
ATOM     24  C   UNL A   1      31.774  29.192  27.078  1.00  0.00     0.202 C 
BRANCH  24  25
ATOM     25  C   UNL A   1      32.131  30.673  26.897  1.00  0.00     0.261 C 
BRANCH  25  26
ATOM     26  O   UNL A   1      33.534  30.887  26.658  1.00  0.00    -0.460 OA
BRANCH  26  27
ATOM     27  C   UNL A   1      34.160  31.621  27.610  1.00  0.00     0.338 C 
ATOM     28  O   UNL A   1      33.675  32.535  28.268  1.00  0.00    -0.246 OA
BRANCH  27  29
ATOM     29  C   UNL A   1      35.491  31.064  27.906  1.00  0.00     0.060 A 
ATOM     30  C   UNL A   1      35.607  29.669  27.966  1.00  0.00     0.016 A 
ATOM     31  C   UNL A   1      36.582  31.879  28.218  1.00  0.00     0.016 A 
ATOM     32  C   UNL A   1      36.799  29.084  28.384  1.00  0.00     0.010 A 
ATOM     33  C   UNL A   1      37.778  31.287  28.646  1.00  0.00     0.010 A 
ATOM     34  C   UNL A   1      37.881  29.889  28.764  1.00  0.00    -0.014 A 
BRANCH  34  35
ATOM     35  C   UNL A   1      39.057  29.263  29.423  1.00  0.00     0.031 A 
ATOM     36  C   UNL A   1      39.493  29.771  30.772  1.00  0.00     0.074 A 
ATOM     37  C   UNL A   1      39.696  28.227  28.851  1.00  0.00     0.049 A 
ATOM     38  N   UNL A   1      40.501  29.393  31.516  1.00  0.00    -0.248 NA
ATOM     39  C   UNL A   1      38.682  30.849  31.356  1.00  0.00     0.031 C 
ATOM     40  C   UNL A   1      39.335  27.615  27.573  1.00  0.00     0.029 A 
ATOM     41  N   UNL A   1      40.786  27.506  29.272  1.00  0.00    -0.354 N 
ATOM     42  C   UNL A   1      40.446  30.186  32.658  1.00  0.00     0.074 A 
ATOM     43  C   UNL A   1      39.330  31.092  32.486  1.00  0.00     0.031 C 
ATOM     44  C   UNL A   1      40.196  26.618  27.309  1.00  0.00     0.029 A 
ATOM     45  C   UNL A   1      41.191  26.544  28.377  1.00  0.00     0.049 A 
ATOM     46  H   UNL A   1      41.236  27.663  30.134  1.00  0.00     0.167 HD
ATOM     47  C   UNL A   1      41.246  30.153  33.754  1.00  0.00     0.034 A 
ATOM     48  C   UNL A   1      42.257  25.718  28.403  1.00  0.00     0.034 A 
ATOM     49  C   UNL A   1      42.365  29.255  33.905  1.00  0.00     0.049 A 
ATOM     50  C   UNL A   1      43.190  25.763  29.591  1.00  0.00     0.074 A 
ATOM     51  C   UNL A   1      43.239  29.136  34.972  1.00  0.00     0.029 A 
ATOM     52  N   UNL A   1      42.775  28.327  32.955  1.00  0.00    -0.354 N 
ATOM     53  N   UNL A   1      43.127  26.517  30.665  1.00  0.00    -0.248 NA
ATOM     54  C   UNL A   1      44.333  24.839  29.573  1.00  0.00     0.031 C 
ATOM     55  C   UNL A   1      44.214  28.191  34.639  1.00  0.00     0.029 A 
ATOM     56  C   UNL A   1      43.906  27.658  33.398  1.00  0.00     0.049 A 
ATOM     57  H   UNL A   1      42.326  28.167  32.093  1.00  0.00     0.167 HD
ATOM     58  C   UNL A   1      44.204  26.135  31.461  1.00  0.00     0.074 A 
ATOM     59  C   UNL A   1      44.890  25.075  30.751  1.00  0.00     0.031 C 
ATOM     60  C   UNL A   1      44.589  26.611  32.673  1.00  0.00     0.034 A 
BRANCH  47  61
ATOM     61  C   UNL A   1      40.963  31.157  34.847  1.00  0.00     0.023 A 
ATOM     62  C   UNL A   1      39.860  31.023  35.708  1.00  0.00     0.031 A 
ATOM     63  C   UNL A   1      41.793  32.280  35.011  1.00  0.00     0.131 A 
ATOM     64  C   UNL A   1      39.576  32.029  36.645  1.00  0.00     0.055 A 
ATOM     65  C   UNL A   1      41.550  33.238  35.997  1.00  0.00     0.041 A 
ATOM     66  F   UNL A   1      42.847  32.474  34.203  1.00  0.00    -0.206 F 
ATOM     67  C   UNL A   1      40.428  33.123  36.812  1.00  0.00     0.022 A 
BRANCH  64  68
ATOM     68  S   UNL A   1      38.002  31.959  37.544  1.00  0.00     0.124 S 
ATOM     69  O   UNL A   1      37.611  30.566  37.345  1.00  0.00    -0.237 OA
ATOM     70  O   UNL A   1      38.397  32.324  38.900  1.00  0.00    -0.237 OA
ATOM     71  O   UNL A   1      37.168  32.939  36.851  1.00  0.00    -0.744 OA
ENDBRANCH  64  68
ENDBRANCH  47  61
BRANCH  48  72
ATOM     72  C   UNL A   1      42.539  24.812  27.252  1.00  0.00     0.023 A 
ATOM     73  C   UNL A   1      42.079  23.487  27.235  1.00  0.00     0.031 A 
ATOM     74  C   UNL A   1      43.327  25.250  26.172  1.00  0.00     0.131 A 
ATOM     75  C   UNL A   1      42.448  22.631  26.185  1.00  0.00     0.055 A 
ATOM     76  C   UNL A   1      43.647  24.411  25.102  1.00  0.00     0.041 A 
ATOM     77  F   UNL A   1      43.795  26.508  26.138  1.00  0.00    -0.206 F 
ATOM     78  C   UNL A   1      43.217  23.089  25.112  1.00  0.00     0.022 A 
BRANCH  75  79
ATOM     79  S   UNL A   1      41.982  20.880  26.283  1.00  0.00     0.124 S 
ATOM     80  O   UNL A   1      42.352  20.551  27.654  1.00  0.00    -0.237 OA
ATOM     81  O   UNL A   1      40.552  20.932  25.998  1.00  0.00    -0.237 OA
ATOM     82  O   UNL A   1      42.800  20.253  25.248  1.00  0.00    -0.744 OA
ENDBRANCH  75  79
ENDBRANCH  48  72
BRANCH  60  83
ATOM     83  C   UNL A   1      45.782  25.953  33.326  1.00  0.00     0.023 A 
ATOM     84  C   UNL A   1      45.637  24.904  34.252  1.00  0.00     0.031 A 
ATOM     85  C   UNL A   1      47.083  26.389  33.022  1.00  0.00     0.131 A 
ATOM     86  C   UNL A   1      46.770  24.365  34.880  1.00  0.00     0.055 A 
ATOM     87  C   UNL A   1      48.211  25.808  33.604  1.00  0.00     0.041 A 
ATOM     88  F   UNL A   1      47.282  27.388  32.146  1.00  0.00    -0.206 F 
ATOM     89  C   UNL A   1      48.056  24.798  34.550  1.00  0.00     0.022 A 
BRANCH  86  90
ATOM     90  S   UNL A   1      46.536  23.148  36.205  1.00  0.00     0.124 S 
ATOM     91  O   UNL A   1      46.669  23.973  37.403  1.00  0.00    -0.237 OA
ATOM     92  O   UNL A   1      45.198  22.637  35.929  1.00  0.00    -0.237 OA
ATOM     93  O   UNL A   1      47.621  22.192  35.989  1.00  0.00    -0.744 OA
ENDBRANCH  86  90
ENDBRANCH  60  83
ENDBRANCH  34  35
ENDBRANCH  27  29
ENDBRANCH  26  27
ENDBRANCH  25  26
ENDBRANCH  24  25
ENDBRANCH  23  24
ENDBRANCH   1  23
TORSDOF 21
ENDMDL
MODEL 2
REMARK VINA RESULT:     -10.9      2.165      7.946
REMARK SMILES C[C@@H](C(=O)OCCOCCOC(=O)c1ccc(-c2c3nc(c(-c4cc(S(=O)(=O)[O-])ccc4F)c4ccc([nH]4)c(-c4cc(S(=O)(=O)[O-])ccc4F)c4nc(c(-c5cc(S(=O)(=O)[O-])ccc5F)c5ccc2[nH]5)C=C4)C=C3)cc1)c1ccc(C[C@H]2CCC[C@@H]2O)cc1Br
REMARK SMILES IDX 7 1 6 2 5 3 3 4 4 5 2 6 1 7 77 8 78 9 89 10 79 11 88 12
REMARK SMILES IDX 90 13 80 14 81 15 82 16 83 17 86 18 84 19 85 20 87 21 8 23
REMARK SMILES IDX 9 24 10 25 11 26 12 27 13 28 14 29 15 30 76 31 16 32 75 33
REMARK SMILES IDX 17 34 18 35 19 36 69 37 20 38 74 39 68 40 70 41 21 42 73 43
REMARK SMILES IDX 67 44 66 45 22 47 54 48 34 49 53 50 35 51 38 52 52 53 71 54
REMARK SMILES IDX 36 55 37 56 51 58 72 59 39 60 23 61 24 62 32 63 25 64 31 65
REMARK SMILES IDX 33 66 30 67 26 68 27 69 28 70 29 71 55 72 56 73 64 74 57 75
REMARK SMILES IDX 63 76 65 77 62 78 58 79 59 80 60 81 61 82 40 83 41 84 49 85
REMARK SMILES IDX 42 86 48 87 50 88 47 89 43 90 44 91 45 92 46 93
REMARK H PARENT 87 22 70 46 38 57
REMARK Flexibility Score: inf
ROOT
ATOM      1  C   UNL A   1      30.158  29.257  23.699  1.00  0.00     0.202 C 
ENDROOT
BRANCH   1   2
ATOM      2  C   UNL A   1      29.795  27.916  23.051  1.00  0.00     0.261 C 
BRANCH   2   3
ATOM      3  O   UNL A   1      30.989  27.264  22.596  1.00  0.00    -0.463 OA
BRANCH   3   4
ATOM      4  C   UNL A   1      31.124  25.944  22.897  1.00  0.00     0.313 C 
ATOM      5  O   UNL A   1      30.231  25.245  23.364  1.00  0.00    -0.252 OA
BRANCH   4   6
ATOM      6  C   UNL A   1      32.486  25.395  22.431  1.00  0.00     0.127 C 
ATOM      7  C   UNL A   1      32.613  25.528  20.903  1.00  0.00     0.025 C 
BRANCH   6   8
ATOM      8  C   UNL A   1      32.825  24.004  23.015  1.00  0.00    -0.020 A 
ATOM      9  C   UNL A   1      32.577  22.838  22.252  1.00  0.00     0.006 A 
ATOM     10  C   UNL A   1      33.280  23.790  24.332  1.00  0.00     0.022 A 
ATOM     11  C   UNL A   1      32.689  21.548  22.786  1.00  0.00     0.004 A 
ATOM     12  C   UNL A   1      33.407  22.491  24.858  1.00  0.00     0.019 A 
ATOM     13  Br  UNL A   1      33.666  25.174  25.577  1.00  0.00    -0.050 Br
ATOM     14  C   UNL A   1      33.047  21.363  24.116  1.00  0.00    -0.047 A 
BRANCH  14  15
ATOM     15  C   UNL A   1      32.959  20.007  24.775  1.00  0.00     0.041 C 
BRANCH  15  16
ATOM     16  C   UNL A   1      33.632  18.850  24.003  1.00  0.00     0.022 C 
ATOM     17  C   UNL A   1      34.849  18.190  24.678  1.00  0.00     0.007 C 
ATOM     18  C   UNL A   1      32.705  17.683  23.645  1.00  0.00     0.117 C 
ATOM     19  C   UNL A   1      34.712  16.685  24.434  1.00  0.00     0.003 C 
ATOM     20  C   UNL A   1      33.675  16.553  23.333  1.00  0.00     0.032 C 
BRANCH  18  21
ATOM     21  O   UNL A   1      31.903  17.999  22.521  1.00  0.00    -0.393 OA
ATOM     22  H   UNL A   1      31.257  17.292  22.374  1.00  0.00     0.210 HD
ENDBRANCH  18  21
ENDBRANCH  15  16
ENDBRANCH  14  15
ENDBRANCH   6   8
ENDBRANCH   4   6
ENDBRANCH   3   4
ENDBRANCH   2   3
ENDBRANCH   1   2
BRANCH   1  23
ATOM     23  O   UNL A   1      31.437  29.317  24.336  1.00  0.00    -0.374 OA
BRANCH  23  24
ATOM     24  C   UNL A   1      31.469  29.320  25.765  1.00  0.00     0.202 C 
BRANCH  24  25
ATOM     25  C   UNL A   1      31.855  30.629  26.466  1.00  0.00     0.261 C 
BRANCH  25  26
ATOM     26  O   UNL A   1      33.272  30.881  26.443  1.00  0.00    -0.460 OA
BRANCH  26  27
ATOM     27  C   UNL A   1      33.690  31.815  27.332  1.00  0.00     0.338 C 
ATOM     28  O   UNL A   1      33.040  32.763  27.759  1.00  0.00    -0.246 OA
BRANCH  27  29
ATOM     29  C   UNL A   1      35.006  31.453  27.887  1.00  0.00     0.060 A 
ATOM     30  C   UNL A   1      35.192  30.125  28.290  1.00  0.00     0.016 A 
ATOM     31  C   UNL A   1      36.004  32.406  28.105  1.00  0.00     0.016 A 
ATOM     32  C   UNL A   1      36.357  29.753  28.955  1.00  0.00     0.010 A 
ATOM     33  C   UNL A   1      37.172  32.030  28.782  1.00  0.00     0.010 A 
ATOM     34  C   UNL A   1      37.339  30.710  29.240  1.00  0.00    -0.014 A 
BRANCH  34  35
ATOM     35  C   UNL A   1      38.461  30.353  30.146  1.00  0.00     0.031 A 
ATOM     36  C   UNL A   1      39.482  29.347  29.684  1.00  0.00     0.074 A 
ATOM     37  C   UNL A   1      38.597  30.953  31.343  1.00  0.00     0.049 A 
ATOM     38  N   UNL A   1      40.523  28.870  30.315  1.00  0.00    -0.248 NA
ATOM     39  C   UNL A   1      39.299  28.809  28.328  1.00  0.00     0.031 C 
ATOM     40  C   UNL A   1      37.703  31.978  31.878  1.00  0.00     0.029 A 
ATOM     41  N   UNL A   1      39.539  30.783  32.327  1.00  0.00    -0.354 N 
ATOM     42  C   UNL A   1      41.123  27.975  29.433  1.00  0.00     0.074 A 
ATOM     43  C   UNL A   1      40.302  27.948  28.241  1.00  0.00     0.031 C 
ATOM     44  C   UNL A   1      38.133  32.338  33.099  1.00  0.00     0.029 A 
ATOM     45  C   UNL A   1      39.309  31.544  33.449  1.00  0.00     0.049 A 
ATOM     46  H   UNL A   1      40.308  30.173  32.238  1.00  0.00     0.167 HD
ATOM     47  C   UNL A   1      42.259  27.252  29.600  1.00  0.00     0.034 A 
ATOM     48  C   UNL A   1      39.957  31.576  34.632  1.00  0.00     0.034 A 
ATOM     49  C   UNL A   1      43.059  27.277  30.800  1.00  0.00     0.049 A 
ATOM     50  C   UNL A   1      41.166  30.692  34.830  1.00  0.00     0.074 A 
ATOM     51  C   UNL A   1      44.228  26.587  31.074  1.00  0.00     0.029 A 
ATOM     52  N   UNL A   1      42.768  28.023  31.936  1.00  0.00    -0.354 N 
ATOM     53  N   UNL A   1      41.723  29.851  33.988  1.00  0.00    -0.248 NA
ATOM     54  C   UNL A   1      41.838  30.770  36.134  1.00  0.00     0.031 C 
ATOM     55  C   UNL A   1      44.601  26.860  32.394  1.00  0.00     0.029 A 
ATOM     56  C   UNL A   1      43.715  27.784  32.920  1.00  0.00     0.049 A 
ATOM     57  H   UNL A   1      42.001  28.634  32.027  1.00  0.00     0.167 HD
ATOM     58  C   UNL A   1      42.828  29.324  34.653  1.00  0.00     0.074 A 
ATOM     59  C   UNL A   1      42.865  29.952  35.958  1.00  0.00     0.031 C 
ATOM     60  C   UNL A   1      43.733  28.408  34.223  1.00  0.00     0.034 A 
BRANCH  47  61
ATOM     61  C   UNL A   1      42.667  26.336  28.470  1.00  0.00     0.023 A 
ATOM     62  C   UNL A   1      42.141  25.039  28.341  1.00  0.00     0.031 A 
ATOM     63  C   UNL A   1      43.618  26.758  27.523  1.00  0.00     0.131 A 
ATOM     64  C   UNL A   1      42.621  24.185  27.335  1.00  0.00     0.055 A 
ATOM     65  C   UNL A   1      44.033  25.931  26.476  1.00  0.00     0.041 A 
ATOM     66  F   UNL A   1      44.172  27.977  27.608  1.00  0.00    -0.206 F 
ATOM     67  C   UNL A   1      43.544  24.631  26.386  1.00  0.00     0.022 A 
BRANCH  64  68
ATOM     68  S   UNL A   1      42.126  22.440  27.368  1.00  0.00     0.124 S 
ATOM     69  O   UNL A   1      42.810  21.964  28.568  1.00  0.00    -0.237 OA
ATOM     70  O   UNL A   1      40.673  22.525  27.452  1.00  0.00    -0.237 OA
ATOM     71  O   UNL A   1      42.650  21.912  26.109  1.00  0.00    -0.744 OA
ENDBRANCH  64  68
ENDBRANCH  47  61
BRANCH  48  72
ATOM     72  C   UNL A   1      39.454  32.433  35.745  1.00  0.00     0.023 A 
ATOM     73  C   UNL A   1      39.916  33.745  35.923  1.00  0.00     0.031 A 
ATOM     74  C   UNL A   1      38.539  31.922  36.684  1.00  0.00     0.131 A 
ATOM     75  C   UNL A   1      39.499  34.488  37.039  1.00  0.00     0.055 A 
ATOM     76  C   UNL A   1      38.085  32.684  37.763  1.00  0.00     0.041 A 
ATOM     77  F   UNL A   1      38.066  30.672  36.562  1.00  0.00    -0.206 F 
ATOM     78  C   UNL A   1      38.576  33.971  37.952  1.00  0.00     0.022 A 
BRANCH  75  79
ATOM     79  S   UNL A   1      40.249  36.114  37.333  1.00  0.00     0.124 S 
ATOM     80  O   UNL A   1      41.492  35.750  38.002  1.00  0.00    -0.237 OA
ATOM     81  O   UNL A   1      40.378  36.636  35.976  1.00  0.00    -0.237 OA
ATOM     82  O   UNL A   1      39.265  36.796  38.171  1.00  0.00    -0.744 OA
ENDBRANCH  75  79
ENDBRANCH  48  72
BRANCH  60  83
ATOM     83  C   UNL A   1      44.869  28.069  35.160  1.00  0.00     0.023 A 
ATOM     84  C   UNL A   1      44.781  27.012  36.083  1.00  0.00     0.031 A 
ATOM     85  C   UNL A   1      46.056  28.824  35.133  1.00  0.00     0.131 A 
ATOM     86  C   UNL A   1      45.837  26.774  36.977  1.00  0.00     0.055 A 
ATOM     87  C   UNL A   1      47.127  28.544  35.982  1.00  0.00     0.041 A 
ATOM     88  F   UNL A   1      46.196  29.847  34.273  1.00  0.00    -0.206 F 
ATOM     89  C   UNL A   1      47.015  27.522  36.921  1.00  0.00     0.022 A 
BRANCH  86  90
ATOM     90  S   UNL A   1      45.615  25.529  38.277  1.00  0.00     0.124 S 
ATOM     91  O   UNL A   1      44.292  25.864  38.797  1.00  0.00    -0.237 OA
ATOM     92  O   UNL A   1      45.709  24.278  37.533  1.00  0.00    -0.237 OA
ATOM     93  O   UNL A   1      46.724  25.788  39.194  1.00  0.00    -0.744 OA
ENDBRANCH  86  90
ENDBRANCH  60  83
ENDBRANCH  34  35
ENDBRANCH  27  29
ENDBRANCH  26  27
ENDBRANCH  25  26
ENDBRANCH  24  25
ENDBRANCH  23  24
ENDBRANCH   1  23
TORSDOF 21
ENDMDL
MODEL 3
REMARK VINA RESULT:     -10.5      5.747      9.056
REMARK SMILES C[C@@H](C(=O)OCCOCCOC(=O)c1ccc(-c2c3nc(c(-c4cc(S(=O)(=O)[O-])ccc4F)c4ccc([nH]4)c(-c4cc(S(=O)(=O)[O-])ccc4F)c4nc(c(-c5cc(S(=O)(=O)[O-])ccc5F)c5ccc2[nH]5)C=C4)C=C3)cc1)c1ccc(C[C@H]2CCC[C@@H]2O)cc1Br
REMARK SMILES IDX 7 1 6 2 5 3 3 4 4 5 2 6 1 7 77 8 78 9 89 10 79 11 88 12
REMARK SMILES IDX 90 13 80 14 81 15 82 16 83 17 86 18 84 19 85 20 87 21 8 23
REMARK SMILES IDX 9 24 10 25 11 26 12 27 13 28 14 29 15 30 76 31 16 32 75 33
REMARK SMILES IDX 17 34 18 35 19 36 69 37 20 38 74 39 68 40 70 41 21 42 73 43
REMARK SMILES IDX 67 44 66 45 22 47 54 48 34 49 53 50 35 51 38 52 52 53 71 54
REMARK SMILES IDX 36 55 37 56 51 58 72 59 39 60 23 61 24 62 32 63 25 64 31 65
REMARK SMILES IDX 33 66 30 67 26 68 27 69 28 70 29 71 55 72 56 73 64 74 57 75
REMARK SMILES IDX 63 76 65 77 62 78 58 79 59 80 60 81 61 82 40 83 41 84 49 85
REMARK SMILES IDX 42 86 48 87 50 88 47 89 43 90 44 91 45 92 46 93
REMARK H PARENT 87 22 70 46 38 57
REMARK Flexibility Score: inf
ROOT
ATOM      1  C   UNL A   1      37.043  22.843  24.742  1.00  0.00     0.202 C 
ENDROOT
BRANCH   1   2
ATOM      2  C   UNL A   1      36.038  23.346  25.785  1.00  0.00     0.261 C 
BRANCH   2   3
ATOM      3  O   UNL A   1      34.718  22.915  25.426  1.00  0.00    -0.463 OA
BRANCH   3   4
ATOM      4  C   UNL A   1      33.797  22.851  26.426  1.00  0.00     0.313 C 
ATOM      5  O   UNL A   1      34.070  22.665  27.607  1.00  0.00    -0.252 OA
BRANCH   4   6
ATOM      6  C   UNL A   1      32.386  23.203  25.918  1.00  0.00     0.127 C 
ATOM      7  C   UNL A   1      31.927  22.165  24.877  1.00  0.00     0.025 C 
BRANCH   6   8
ATOM      8  C   UNL A   1      32.228  24.684  25.506  1.00  0.00    -0.020 A 
ATOM      9  C   UNL A   1      31.778  25.636  26.452  1.00  0.00     0.006 A 
ATOM     10  C   UNL A   1      32.401  25.161  24.190  1.00  0.00     0.022 A 
ATOM     11  C   UNL A   1      31.440  26.949  26.100  1.00  0.00     0.004 A 
ATOM     12  C   UNL A   1      32.076  26.486  23.846  1.00  0.00     0.019 A 
ATOM     13  Br  UNL A   1      32.971  24.094  22.724  1.00  0.00    -0.050 Br
ATOM     14  C   UNL A   1      31.527  27.370  24.778  1.00  0.00    -0.047 A 
BRANCH  14  15
ATOM     15  C   UNL A   1      30.962  28.699  24.336  1.00  0.00     0.041 C 
BRANCH  15  16
ATOM     16  C   UNL A   1      29.945  28.634  23.176  1.00  0.00     0.022 C 
ATOM     17  C   UNL A   1      28.571  28.018  23.500  1.00  0.00     0.007 C 
ATOM     18  C   UNL A   1      29.622  29.981  22.518  1.00  0.00     0.117 C 
ATOM     19  C   UNL A   1      27.532  28.882  22.780  1.00  0.00     0.003 C 
ATOM     20  C   UNL A   1      28.323  29.703  21.777  1.00  0.00     0.032 C 
BRANCH  18  21
ATOM     21  O   UNL A   1      30.652  30.369  21.626  1.00  0.00    -0.393 OA
ATOM     22  H   UNL A   1      30.636  29.796  20.844  1.00  0.00     0.210 HD
ENDBRANCH  18  21
ENDBRANCH  15  16
ENDBRANCH  14  15
ENDBRANCH   6   8
ENDBRANCH   4   6
ENDBRANCH   3   4
ENDBRANCH   2   3
ENDBRANCH   1   2
BRANCH   1  23
ATOM     23  O   UNL A   1      36.953  21.455  24.405  1.00  0.00    -0.374 OA
BRANCH  23  24
ATOM     24  C   UNL A   1      37.793  20.543  25.116  1.00  0.00     0.202 C 
BRANCH  24  25
ATOM     25  C   UNL A   1      39.074  21.101  25.749  1.00  0.00     0.261 C 
BRANCH  25  26
ATOM     26  O   UNL A   1      39.727  20.157  26.618  1.00  0.00    -0.460 OA
BRANCH  26  27
ATOM     27  C   UNL A   1      41.004  19.863  26.270  1.00  0.00     0.338 C 
ATOM     28  O   UNL A   1      41.402  18.826  25.753  1.00  0.00    -0.246 OA
BRANCH  27  29
ATOM     29  C   UNL A   1      41.870  21.044  26.424  1.00  0.00     0.060 A 
ATOM     30  C   UNL A   1      42.191  21.441  27.729  1.00  0.00     0.016 A 
ATOM     31  C   UNL A   1      42.280  21.809  25.330  1.00  0.00     0.016 A 
ATOM     32  C   UNL A   1      42.883  22.630  27.947  1.00  0.00     0.010 A 
ATOM     33  C   UNL A   1      42.969  23.009  25.553  1.00  0.00     0.010 A 
ATOM     34  C   UNL A   1      43.243  23.442  26.864  1.00  0.00    -0.014 A 
BRANCH  34  35
ATOM     35  C   UNL A   1      43.769  24.808  27.122  1.00  0.00     0.031 A 
ATOM     36  C   UNL A   1      42.839  25.857  27.672  1.00  0.00     0.074 A 
ATOM     37  C   UNL A   1      45.067  25.096  26.916  1.00  0.00     0.049 A 
ATOM     38  N   UNL A   1      43.074  27.113  27.947  1.00  0.00    -0.248 NA
ATOM     39  C   UNL A   1      41.460  25.426  27.945  1.00  0.00     0.031 C 
ATOM     40  C   UNL A   1      46.074  24.151  26.436  1.00  0.00     0.029 A 
ATOM     41  N   UNL A   1      45.760  26.269  27.084  1.00  0.00    -0.354 N 
ATOM     42  C   UNL A   1      41.872  27.627  28.428  1.00  0.00     0.074 A 
ATOM     43  C   UNL A   1      40.904  26.553  28.365  1.00  0.00     0.031 C 
ATOM     44  C   UNL A   1      47.254  24.785  26.336  1.00  0.00     0.029 A 
ATOM     45  C   UNL A   1      47.080  26.188  26.708  1.00  0.00     0.049 A 
ATOM     46  H   UNL A   1      45.350  27.092  27.438  1.00  0.00     0.167 HD
ATOM     47  C   UNL A   1      41.607  28.875  28.889  1.00  0.00     0.034 A 
ATOM     48  C   UNL A   1      48.032  27.142  26.646  1.00  0.00     0.034 A 
ATOM     49  C   UNL A   1      42.579  29.940  28.931  1.00  0.00     0.049 A 
ATOM     50  C   UNL A   1      47.689  28.549  27.076  1.00  0.00     0.074 A 
ATOM     51  C   UNL A   1      42.417  31.240  29.380  1.00  0.00     0.029 A 
ATOM     52  N   UNL A   1      43.894  29.835  28.496  1.00  0.00    -0.354 N 
ATOM     53  N   UNL A   1      46.549  29.021  27.529  1.00  0.00    -0.248 NA
ATOM     54  C   UNL A   1      48.762  29.549  26.995  1.00  0.00     0.031 C 
ATOM     55  C   UNL A   1      43.608  31.936  29.151  1.00  0.00     0.029 A 
ATOM     56  C   UNL A   1      44.542  31.053  28.636  1.00  0.00     0.049 A 
ATOM     57  H   UNL A   1      44.307  29.014  28.142  1.00  0.00     0.167 HD
ATOM     58  C   UNL A   1      46.782  30.365  27.815  1.00  0.00     0.074 A 
ATOM     59  C   UNL A   1      48.171  30.623  27.496  1.00  0.00     0.031 C 
ATOM     60  C   UNL A   1      45.926  31.301  28.302  1.00  0.00     0.034 A 
BRANCH  47  61
ATOM     61  C   UNL A   1      40.192  29.160  29.335  1.00  0.00     0.023 A 
ATOM     62  C   UNL A   1      39.825  29.150  30.692  1.00  0.00     0.031 A 
ATOM     63  C   UNL A   1      39.187  29.417  28.384  1.00  0.00     0.131 A 
ATOM     64  C   UNL A   1      38.481  29.321  31.056  1.00  0.00     0.055 A 
ATOM     65  C   UNL A   1      37.865  29.665  28.758  1.00  0.00     0.041 A 
ATOM     66  F   UNL A   1      39.471  29.417  27.073  1.00  0.00    -0.206 F 
ATOM     67  C   UNL A   1      37.502  29.604  30.100  1.00  0.00     0.022 A 
BRANCH  64  68
ATOM     68  S   UNL A   1      38.005  29.029  32.782  1.00  0.00     0.124 S 
ATOM     69  O   UNL A   1      38.074  27.572  32.864  1.00  0.00    -0.237 OA
ATOM     70  O   UNL A   1      39.028  29.761  33.520  1.00  0.00    -0.237 OA
ATOM     71  O   UNL A   1      36.656  29.587  32.865  1.00  0.00    -0.744 OA
ENDBRANCH  64  68
ENDBRANCH  47  61
BRANCH  48  72
ATOM     72  C   UNL A   1      49.388  26.823  26.111  1.00  0.00     0.023 A 
ATOM     73  C   UNL A   1      49.773  27.209  24.819  1.00  0.00     0.031 A 
ATOM     74  C   UNL A   1      50.299  26.071  26.874  1.00  0.00     0.131 A 
ATOM     75  C   UNL A   1      51.018  26.803  24.310  1.00  0.00     0.055 A 
ATOM     76  C   UNL A   1      51.558  25.716  26.384  1.00  0.00     0.041 A 
ATOM     77  F   UNL A   1      49.981  25.673  28.117  1.00  0.00    -0.206 F 
ATOM     78  C   UNL A   1      51.918  26.072  25.088  1.00  0.00     0.022 A 
BRANCH  75  79
ATOM     79  S   UNL A   1      51.411  27.170  22.577  1.00  0.00     0.124 S 
ATOM     80  O   UNL A   1      51.662  28.606  22.626  1.00  0.00    -0.237 OA
ATOM     81  O   UNL A   1      52.575  26.321  22.345  1.00  0.00    -0.237 OA
ATOM     82  O   UNL A   1      50.200  26.772  21.862  1.00  0.00    -0.744 OA
ENDBRANCH  75  79
ENDBRANCH  48  72
BRANCH  60  83
ATOM     83  C   UNL A   1      46.488  32.679  28.563  1.00  0.00     0.023 A 
ATOM     84  C   UNL A   1      46.530  33.666  27.563  1.00  0.00     0.031 A 
ATOM     85  C   UNL A   1      46.996  33.004  29.834  1.00  0.00     0.131 A 
ATOM     86  C   UNL A   1      47.119  34.911  27.835  1.00  0.00     0.055 A 
ATOM     87  C   UNL A   1      47.524  34.264  30.115  1.00  0.00     0.041 A 
ATOM     88  F   UNL A   1      46.983  32.100  30.827  1.00  0.00    -0.206 F 
ATOM     89  C   UNL A   1      47.600  35.222  29.108  1.00  0.00     0.022 A 
BRANCH  86  90
ATOM     90  S   UNL A   1      47.329  36.091  26.473  1.00  0.00     0.124 S 
ATOM     91  O   UNL A   1      48.111  37.149  27.105  1.00  0.00    -0.237 OA
ATOM     92  O   UNL A   1      48.027  35.293  25.471  1.00  0.00    -0.237 OA
ATOM     93  O   UNL A   1      45.958  36.460  26.124  1.00  0.00    -0.744 OA
ENDBRANCH  86  90
ENDBRANCH  60  83
ENDBRANCH  34  35
ENDBRANCH  27  29
ENDBRANCH  26  27
ENDBRANCH  25  26
ENDBRANCH  24  25
ENDBRANCH  23  24
ENDBRANCH   1  23
TORSDOF 21
ENDMDL
