MODEL 1
REMARK VINA RESULT:     -11.2      0.000      0.000
REMARK SMILES C[C@@H]1Oc2ccccc2N(CC(=O)OCCOCCOC(=O)c2ccc(-c3c4nc(c(-c5cc(S(=O)(=O)[O-])ccc5F)c5ccc([nH]5)c(-c5cc(S(=O)(=O)[O-])ccc5F)c5nc(c(-c6cc(S(=O)(=O)[O-])ccc6F)c6ccc3[nH]6)C=C5)C=C4)cc2)C1=O
REMARK SMILES IDX 18 1 17 2 16 3 15 4 14 5 12 6 13 7 11 8 10 9 1 10 2 11 3 12
REMARK SMILES IDX 86 13 4 14 87 15 5 16 9 17 6 18 8 19 7 20 19 21 20 22 21 23
REMARK SMILES IDX 22 24 23 25 24 26 85 27 25 28 84 29 26 30 27 31 28 32 78 33
REMARK SMILES IDX 29 34 83 35 77 36 79 37 30 38 82 39 76 40 75 41 31 43 63 44
REMARK SMILES IDX 43 45 62 46 44 47 47 48 61 49 80 50 45 51 46 52 60 54 81 55
REMARK SMILES IDX 48 56 32 57 33 58 41 59 34 60 40 61 42 62 39 63 35 64 36 65
REMARK SMILES IDX 37 66 38 67 64 68 65 69 73 70 66 71 72 72 74 73 71 74 67 75
REMARK SMILES IDX 68 76 69 77 70 78 49 79 50 80 58 81 51 82 57 83 59 84 56 85
REMARK SMILES IDX 52 86 53 87 54 88 55 89
REMARK H PARENT 79 42 47 53
REMARK Flexibility Score: inf
ROOT
ATOM      1  C   UNL A   1      35.967  20.871  25.299  1.00  0.00     0.202 C 
ENDROOT
BRANCH   1   2
ATOM      2  O   UNL A   1      35.591  21.833  26.280  1.00  0.00    -0.374 OA
BRANCH   2   3
ATOM      3  C   UNL A   1      34.288  21.708  26.846  1.00  0.00     0.202 C 
BRANCH   3   4
ATOM      4  C   UNL A   1      33.648  22.983  27.416  1.00  0.00     0.261 C 
BRANCH   4   5
ATOM      5  O   UNL A   1      32.220  22.878  27.595  1.00  0.00    -0.462 OA
BRANCH   5   6
ATOM      6  C   UNL A   1      31.461  23.744  26.863  1.00  0.00     0.326 C 
ATOM      7  O   UNL A   1      30.303  24.056  27.135  1.00  0.00    -0.250 OA
BRANCH   6   8
ATOM      8  C   UNL A   1      32.180  24.340  25.647  1.00  0.00     0.248 C 
BRANCH   8   9
ATOM      9  N   UNL A   1      31.587  25.538  25.060  1.00  0.00    -0.294 N 
ATOM     10  C   UNL A   1      31.579  26.589  21.979  1.00  0.00     0.064 C 
ATOM     11  C   UNL A   1      30.546  26.603  23.101  1.00  0.00     0.259 C 
ATOM     12  O   UNL A   1      30.561  27.875  23.720  1.00  0.00    -0.479 OA
ATOM     13  C   UNL A   1      30.786  25.354  23.944  1.00  0.00     0.268 C 
ATOM     14  C   UNL A   1      31.286  27.955  24.876  1.00  0.00     0.144 A 
ATOM     15  O   UNL A   1      30.383  24.247  23.582  1.00  0.00    -0.270 OA
ATOM     16  C   UNL A   1      31.477  29.259  25.350  1.00  0.00     0.049 A 
ATOM     17  C   UNL A   1      31.800  26.850  25.571  1.00  0.00     0.087 A 
ATOM     18  C   UNL A   1      32.163  29.483  26.540  1.00  0.00     0.004 A 
ATOM     19  C   UNL A   1      32.473  27.094  26.779  1.00  0.00     0.030 A 
ATOM     20  C   UNL A   1      32.650  28.399  27.261  1.00  0.00     0.002 A 
ENDBRANCH   8   9
ENDBRANCH   6   8
ENDBRANCH   5   6
ENDBRANCH   4   5
ENDBRANCH   3   4
ENDBRANCH   2   3
ENDBRANCH   1   2
BRANCH   1  21
ATOM     21  C   UNL A   1      37.467  20.665  25.050  1.00  0.00     0.261 C 
BRANCH  21  22
ATOM     22  O   UNL A   1      38.259  21.805  25.409  1.00  0.00    -0.460 OA
BRANCH  22  23
ATOM     23  C   UNL A   1      39.310  21.530  26.221  1.00  0.00     0.338 C 
ATOM     24  O   UNL A   1      39.878  20.457  26.355  1.00  0.00    -0.246 OA
BRANCH  23  25
ATOM     25  C   UNL A   1      39.809  22.787  26.802  1.00  0.00     0.060 A 
ATOM     26  C   UNL A   1      40.802  22.791  27.782  1.00  0.00     0.016 A 
ATOM     27  C   UNL A   1      39.265  23.986  26.331  1.00  0.00     0.016 A 
ATOM     28  C   UNL A   1      41.249  24.011  28.299  1.00  0.00     0.010 A 
ATOM     29  C   UNL A   1      39.721  25.200  26.840  1.00  0.00     0.010 A 
ATOM     30  C   UNL A   1      40.722  25.224  27.822  1.00  0.00    -0.014 A 
BRANCH  30  31
ATOM     31  C   UNL A   1      41.271  26.529  28.266  1.00  0.00     0.031 A 
ATOM     32  C   UNL A   1      40.384  27.558  28.903  1.00  0.00     0.074 A 
ATOM     33  C   UNL A   1      42.565  26.806  28.011  1.00  0.00     0.049 A 
ATOM     34  N   UNL A   1      40.670  28.785  29.246  1.00  0.00    -0.248 NA
ATOM     35  C   UNL A   1      38.994  27.164  29.186  1.00  0.00     0.031 C 
ATOM     36  C   UNL A   1      43.505  25.881  27.377  1.00  0.00     0.029 A 
ATOM     37  N   UNL A   1      43.308  27.942  28.223  1.00  0.00    -0.354 N 
ATOM     38  C   UNL A   1      39.501  29.317  29.778  1.00  0.00     0.074 A 
ATOM     39  C   UNL A   1      38.490  28.287  29.686  1.00  0.00     0.031 C 
ATOM     40  C   UNL A   1      44.695  26.484  27.247  1.00  0.00     0.029 A 
ATOM     41  C   UNL A   1      44.592  27.859  27.730  1.00  0.00     0.049 A 
ATOM     42  H   UNL A   1      42.958  28.739  28.684  1.00  0.00     0.167 HD
ATOM     43  C   UNL A   1      39.305  30.548  30.304  1.00  0.00     0.034 A 
ATOM     44  C   UNL A   1      45.565  28.790  27.642  1.00  0.00     0.034 A 
ATOM     45  C   UNL A   1      40.337  31.551  30.397  1.00  0.00     0.049 A 
ATOM     46  C   UNL A   1      45.309  30.163  28.211  1.00  0.00     0.074 A 
ATOM     47  C   UNL A   1      40.245  32.811  30.964  1.00  0.00     0.029 A 
ATOM     48  N   UNL A   1      41.632  31.421  29.920  1.00  0.00    -0.354 N 
ATOM     49  N   UNL A   1      44.225  30.621  28.790  1.00  0.00    -0.248 NA
ATOM     50  C   UNL A   1      46.400  31.147  28.131  1.00  0.00     0.031 C 
ATOM     51  C   UNL A   1      41.452  33.470  30.755  1.00  0.00     0.029 A 
ATOM     52  C   UNL A   1      42.336  32.591  30.150  1.00  0.00     0.049 A 
ATOM     53  H   UNL A   1      41.996  30.618  29.482  1.00  0.00     0.167 HD
ATOM     54  C   UNL A   1      44.515  31.926  29.177  1.00  0.00     0.074 A 
ATOM     55  C   UNL A   1      45.882  32.184  28.779  1.00  0.00     0.031 C 
ATOM     56  C   UNL A   1      43.716  32.826  29.800  1.00  0.00     0.034 A 
BRANCH  43  57
ATOM     57  C   UNL A   1      37.952  30.916  30.858  1.00  0.00     0.023 A 
ATOM     58  C   UNL A   1      37.033  31.609  30.047  1.00  0.00     0.031 A 
ATOM     59  C   UNL A   1      37.669  30.790  32.228  1.00  0.00     0.131 A 
ATOM     60  C   UNL A   1      35.911  32.212  30.626  1.00  0.00     0.055 A 
ATOM     61  C   UNL A   1      36.523  31.351  32.792  1.00  0.00     0.041 A 
ATOM     62  F   UNL A   1      38.518  30.143  33.043  1.00  0.00    -0.206 F 
ATOM     63  C   UNL A   1      35.648  32.085  31.994  1.00  0.00     0.022 A 
BRANCH  60  64
ATOM     64  S   UNL A   1      34.810  33.273  29.648  1.00  0.00     0.124 S 
ATOM     65  O   UNL A   1      35.753  34.221  29.056  1.00  0.00    -0.237 OA
ATOM     66  O   UNL A   1      34.217  32.319  28.715  1.00  0.00    -0.237 OA
ATOM     67  O   UNL A   1      33.901  33.842  30.636  1.00  0.00    -0.744 OA
ENDBRANCH  60  64
ENDBRANCH  43  57
BRANCH  44  68
ATOM     68  C   UNL A   1      46.869  28.427  27.008  1.00  0.00     0.023 A 
ATOM     69  C   UNL A   1      46.983  28.321  25.609  1.00  0.00     0.031 A 
ATOM     70  C   UNL A   1      47.989  28.090  27.787  1.00  0.00     0.131 A 
ATOM     71  C   UNL A   1      48.163  27.825  25.038  1.00  0.00     0.055 A 
ATOM     72  C   UNL A   1      49.191  27.676  27.208  1.00  0.00     0.041 A 
ATOM     73  F   UNL A   1      47.927  28.157  29.125  1.00  0.00    -0.206 F 
ATOM     74  C   UNL A   1      49.276  27.524  25.828  1.00  0.00     0.022 A 
BRANCH  71  75
ATOM     75  S   UNL A   1      48.240  27.420  23.271  1.00  0.00     0.124 S 
ATOM     76  O   UNL A   1      49.588  27.854  22.918  1.00  0.00    -0.237 OA
ATOM     77  O   UNL A   1      48.026  25.975  23.288  1.00  0.00    -0.237 OA
ATOM     78  O   UNL A   1      47.151  28.200  22.691  1.00  0.00    -0.744 OA
ENDBRANCH  71  75
ENDBRANCH  44  68
BRANCH  56  79
ATOM     79  C   UNL A   1      44.265  34.186  30.157  1.00  0.00     0.023 A 
ATOM     80  C   UNL A   1      44.181  35.232  29.215  1.00  0.00     0.031 A 
ATOM     81  C   UNL A   1      45.064  34.380  31.296  1.00  0.00     0.131 A 
ATOM     82  C   UNL A   1      44.949  36.388  29.387  1.00  0.00     0.055 A 
ATOM     83  C   UNL A   1      45.780  35.561  31.493  1.00  0.00     0.041 A 
ATOM     84  F   UNL A   1      45.184  33.409  32.217  1.00  0.00    -0.206 F 
ATOM     85  C   UNL A   1      45.744  36.562  30.525  1.00  0.00     0.022 A 
BRANCH  82  86
ATOM     86  S   UNL A   1      45.047  37.645  28.081  1.00  0.00     0.124 S 
ATOM     87  O   UNL A   1      45.893  38.662  28.703  1.00  0.00    -0.237 OA
ATOM     88  O   UNL A   1      45.668  36.902  26.988  1.00  0.00    -0.237 OA
ATOM     89  O   UNL A   1      43.660  38.041  27.867  1.00  0.00    -0.744 OA
ENDBRANCH  82  86
ENDBRANCH  56  79
ENDBRANCH  30  31
ENDBRANCH  23  25
ENDBRANCH  22  23
ENDBRANCH  21  22
ENDBRANCH   1  21
TORSDOF 18
ENDMDL
MODEL 2
REMARK VINA RESULT:     -11.0      3.998     10.144
REMARK SMILES C[C@@H]1Oc2ccccc2N(CC(=O)OCCOCCOC(=O)c2ccc(-c3c4nc(c(-c5cc(S(=O)(=O)[O-])ccc5F)c5ccc([nH]5)c(-c5cc(S(=O)(=O)[O-])ccc5F)c5nc(c(-c6cc(S(=O)(=O)[O-])ccc6F)c6ccc3[nH]6)C=C5)C=C4)cc2)C1=O
REMARK SMILES IDX 18 1 17 2 16 3 15 4 14 5 12 6 13 7 11 8 10 9 1 10 2 11 3 12
REMARK SMILES IDX 86 13 4 14 87 15 5 16 9 17 6 18 8 19 7 20 19 21 20 22 21 23
REMARK SMILES IDX 22 24 23 25 24 26 85 27 25 28 84 29 26 30 27 31 28 32 78 33
REMARK SMILES IDX 29 34 83 35 77 36 79 37 30 38 82 39 76 40 75 41 31 43 63 44
REMARK SMILES IDX 43 45 62 46 44 47 47 48 61 49 80 50 45 51 46 52 60 54 81 55
REMARK SMILES IDX 48 56 32 57 33 58 41 59 34 60 40 61 42 62 39 63 35 64 36 65
REMARK SMILES IDX 37 66 38 67 64 68 65 69 73 70 66 71 72 72 74 73 71 74 67 75
REMARK SMILES IDX 68 76 69 77 70 78 49 79 50 80 58 81 51 82 57 83 59 84 56 85
REMARK SMILES IDX 52 86 53 87 54 88 55 89
REMARK H PARENT 79 42 47 53
REMARK Flexibility Score: inf
ROOT
ATOM      1  C   UNL A   1      41.611  19.661  26.577  1.00  0.00     0.202 C 
ENDROOT
BRANCH   1   2
ATOM      2  O   UNL A   1      42.225  19.202  25.377  1.00  0.00    -0.374 OA
BRANCH   2   3
ATOM      3  C   UNL A   1      43.650  19.144  25.358  1.00  0.00     0.202 C 
BRANCH   3   4
ATOM      4  C   UNL A   1      44.400  20.450  25.058  1.00  0.00     0.261 C 
BRANCH   4   5
ATOM      5  O   UNL A   1      43.536  21.523  24.627  1.00  0.00    -0.462 OA
BRANCH   5   6
ATOM      6  C   UNL A   1      44.140  22.726  24.410  1.00  0.00     0.326 C 
ATOM      7  O   UNL A   1      44.936  22.952  23.502  1.00  0.00    -0.250 OA
BRANCH   6   8
ATOM      8  C   UNL A   1      43.731  23.825  25.400  1.00  0.00     0.248 C 
BRANCH   8   9
ATOM      9  N   UNL A   1      44.580  23.994  26.575  1.00  0.00    -0.294 N 
ATOM     10  C   UNL A   1      43.804  24.803  29.632  1.00  0.00     0.064 C 
ATOM     11  C   UNL A   1      44.810  23.834  29.020  1.00  0.00     0.259 C 
ATOM     12  O   UNL A   1      46.083  24.452  28.992  1.00  0.00    -0.479 OA
ATOM     13  C   UNL A   1      44.198  23.315  27.722  1.00  0.00     0.268 C 
ATOM     14  C   UNL A   1      46.437  25.009  27.795  1.00  0.00     0.144 A 
ATOM     15  O   UNL A   1      43.341  22.430  27.725  1.00  0.00    -0.270 OA
ATOM     16  C   UNL A   1      47.587  25.806  27.846  1.00  0.00     0.049 A 
ATOM     17  C   UNL A   1      45.746  24.811  26.590  1.00  0.00     0.087 A 
ATOM     18  C   UNL A   1      48.083  26.401  26.690  1.00  0.00     0.004 A 
ATOM     19  C   UNL A   1      46.272  25.404  25.431  1.00  0.00     0.030 A 
ATOM     20  C   UNL A   1      47.433  26.189  25.480  1.00  0.00     0.002 A 
ENDBRANCH   8   9
ENDBRANCH   6   8
ENDBRANCH   5   6
ENDBRANCH   4   5
ENDBRANCH   3   4
ENDBRANCH   2   3
ENDBRANCH   1   2
BRANCH   1  21
ATOM     21  C   UNL A   1      40.302  20.451  26.444  1.00  0.00     0.261 C 
BRANCH  21  22
ATOM     22  O   UNL A   1      40.427  21.821  26.850  1.00  0.00    -0.460 OA
BRANCH  22  23
ATOM     23  C   UNL A   1      39.381  22.611  26.501  1.00  0.00     0.338 C 
ATOM     24  O   UNL A   1      38.300  22.252  26.058  1.00  0.00    -0.246 OA
BRANCH  23  25
ATOM     25  C   UNL A   1      39.664  23.994  26.917  1.00  0.00     0.060 A 
ATOM     26  C   UNL A   1      39.386  24.436  28.210  1.00  0.00     0.016 A 
ATOM     27  C   UNL A   1      40.236  24.855  25.975  1.00  0.00     0.016 A 
ATOM     28  C   UNL A   1      39.679  25.757  28.561  1.00  0.00     0.010 A 
ATOM     29  C   UNL A   1      40.539  26.168  26.331  1.00  0.00     0.010 A 
ATOM     30  C   UNL A   1      40.270  26.628  27.629  1.00  0.00    -0.014 A 
BRANCH  30  31
ATOM     31  C   UNL A   1      40.703  27.993  28.018  1.00  0.00     0.031 A 
ATOM     32  C   UNL A   1      42.158  28.359  28.044  1.00  0.00     0.074 A 
ATOM     33  C   UNL A   1      39.770  28.874  28.429  1.00  0.00     0.049 A 
ATOM     34  N   UNL A   1      42.717  29.461  28.464  1.00  0.00    -0.248 NA
ATOM     35  C   UNL A   1      43.111  27.355  27.542  1.00  0.00     0.031 C 
ATOM     36  C   UNL A   1      38.331  28.608  28.461  1.00  0.00     0.029 A 
ATOM     37  N   UNL A   1      39.883  30.152  28.919  1.00  0.00    -0.354 N 
ATOM     38  C   UNL A   1      44.085  29.290  28.286  1.00  0.00     0.074 A 
ATOM     39  C   UNL A   1      44.276  27.962  27.746  1.00  0.00     0.031 C 
ATOM     40  C   UNL A   1      37.697  29.683  28.948  1.00  0.00     0.029 A 
ATOM     41  C   UNL A   1      38.683  30.695  29.323  1.00  0.00     0.049 A 
ATOM     42  H   UNL A   1      40.740  30.635  28.978  1.00  0.00     0.167 HD
ATOM     43  C   UNL A   1      45.079  30.171  28.541  1.00  0.00     0.034 A 
ATOM     44  C   UNL A   1      38.406  31.856  29.953  1.00  0.00     0.034 A 
ATOM     45  C   UNL A   1      44.858  31.496  29.065  1.00  0.00     0.049 A 
ATOM     46  C   UNL A   1      39.538  32.807  30.251  1.00  0.00     0.074 A 
ATOM     47  C   UNL A   1      45.802  32.480  29.305  1.00  0.00     0.029 A 
ATOM     48  N   UNL A   1      43.629  32.024  29.429  1.00  0.00    -0.354 N 
ATOM     49  N   UNL A   1      40.817  32.664  29.995  1.00  0.00    -0.248 NA
ATOM     50  C   UNL A   1      39.203  34.079  30.908  1.00  0.00     0.031 C 
ATOM     51  C   UNL A   1      45.158  33.566  29.891  1.00  0.00     0.029 A 
ATOM     52  C   UNL A   1      43.797  33.306  29.923  1.00  0.00     0.049 A 
ATOM     53  H   UNL A   1      42.766  31.556  29.348  1.00  0.00     0.167 HD
ATOM     54  C   UNL A   1      41.429  33.839  30.423  1.00  0.00     0.074 A 
ATOM     55  C   UNL A   1      40.381  34.689  30.942  1.00  0.00     0.031 C 
ATOM     56  C   UNL A   1      42.742  34.173  30.391  1.00  0.00     0.034 A 
BRANCH  43  57
ATOM     57  C   UNL A   1      46.508  29.790  28.246  1.00  0.00     0.023 A 
ATOM     58  C   UNL A   1      47.303  29.230  29.265  1.00  0.00     0.031 A 
ATOM     59  C   UNL A   1      47.135  30.187  27.053  1.00  0.00     0.131 A 
ATOM     60  C   UNL A   1      48.691  29.151  29.099  1.00  0.00     0.055 A 
ATOM     61  C   UNL A   1      48.513  30.060  26.875  1.00  0.00     0.041 A 
ATOM     62  F   UNL A   1      46.420  30.731  26.056  1.00  0.00    -0.206 F 
ATOM     63  C   UNL A   1      49.300  29.559  27.909  1.00  0.00     0.022 A 
BRANCH  60  64
ATOM     64  S   UNL A   1      49.765  28.615  30.461  1.00  0.00     0.124 S 
ATOM     65  O   UNL A   1      50.920  28.081  29.741  1.00  0.00    -0.237 OA
ATOM     66  O   UNL A   1      50.000  29.867  31.175  1.00  0.00    -0.237 OA
ATOM     67  O   UNL A   1      48.966  27.622  31.169  1.00  0.00    -0.744 OA
ENDBRANCH  60  64
ENDBRANCH  43  57
BRANCH  44  68
ATOM     68  C   UNL A   1      36.991  32.171  30.315  1.00  0.00     0.023 A 
ATOM     69  C   UNL A   1      36.127  32.775  29.383  1.00  0.00     0.031 A 
ATOM     70  C   UNL A   1      36.509  31.963  31.619  1.00  0.00     0.131 A 
ATOM     71  C   UNL A   1      34.857  33.210  29.783  1.00  0.00     0.055 A 
ATOM     72  C   UNL A   1      35.212  32.323  31.991  1.00  0.00     0.041 A 
ATOM     73  F   UNL A   1      37.298  31.408  32.551  1.00  0.00    -0.206 F 
ATOM     74  C   UNL A   1      34.385  32.966  31.076  1.00  0.00     0.022 A 
BRANCH  71  75
ATOM     75  S   UNL A   1      33.836  34.231  28.684  1.00  0.00     0.124 S 
ATOM     76  O   UNL A   1      33.476  33.281  27.635  1.00  0.00    -0.237 OA
ATOM     77  O   UNL A   1      32.749  34.632  29.574  1.00  0.00    -0.237 OA
ATOM     78  O   UNL A   1      34.735  35.308  28.281  1.00  0.00    -0.744 OA
ENDBRANCH  71  75
ENDBRANCH  44  68
BRANCH  56  79
ATOM     79  C   UNL A   1      43.175  35.533  30.883  1.00  0.00     0.023 A 
ATOM     80  C   UNL A   1      43.409  36.562  29.947  1.00  0.00     0.031 A 
ATOM     81  C   UNL A   1      43.579  35.739  32.212  1.00  0.00     0.131 A 
ATOM     82  C   UNL A   1      44.104  37.712  30.334  1.00  0.00     0.055 A 
ATOM     83  C   UNL A   1      44.217  36.916  32.607  1.00  0.00     0.041 A 
ATOM     84  F   UNL A   1      43.387  34.786  33.138  1.00  0.00    -0.206 F 
ATOM     85  C   UNL A   1      44.504  37.898  31.662  1.00  0.00     0.022 A 
BRANCH  82  86
ATOM     86  S   UNL A   1      44.628  38.942  29.107  1.00  0.00     0.124 S 
ATOM     87  O   UNL A   1      43.974  38.456  27.894  1.00  0.00    -0.237 OA
ATOM     88  O   UNL A   1      44.080  40.177  29.659  1.00  0.00    -0.237 OA
ATOM     89  O   UNL A   1      46.084  38.842  29.106  1.00  0.00    -0.744 OA
ENDBRANCH  82  86
ENDBRANCH  56  79
ENDBRANCH  30  31
ENDBRANCH  23  25
ENDBRANCH  22  23
ENDBRANCH  21  22
ENDBRANCH   1  21
TORSDOF 18
ENDMDL
MODEL 3
REMARK VINA RESULT:     -10.9      4.814      9.928
REMARK SMILES C[C@@H]1Oc2ccccc2N(CC(=O)OCCOCCOC(=O)c2ccc(-c3c4nc(c(-c5cc(S(=O)(=O)[O-])ccc5F)c5ccc([nH]5)c(-c5cc(S(=O)(=O)[O-])ccc5F)c5nc(c(-c6cc(S(=O)(=O)[O-])ccc6F)c6ccc3[nH]6)C=C5)C=C4)cc2)C1=O
REMARK SMILES IDX 18 1 17 2 16 3 15 4 14 5 12 6 13 7 11 8 10 9 1 10 2 11 3 12
REMARK SMILES IDX 86 13 4 14 87 15 5 16 9 17 6 18 8 19 7 20 19 21 20 22 21 23
REMARK SMILES IDX 22 24 23 25 24 26 85 27 25 28 84 29 26 30 27 31 28 32 78 33
REMARK SMILES IDX 29 34 83 35 77 36 79 37 30 38 82 39 76 40 75 41 31 43 63 44
REMARK SMILES IDX 43 45 62 46 44 47 47 48 61 49 80 50 45 51 46 52 60 54 81 55
REMARK SMILES IDX 48 56 32 57 33 58 41 59 34 60 40 61 42 62 39 63 35 64 36 65
REMARK SMILES IDX 37 66 38 67 64 68 65 69 73 70 66 71 72 72 74 73 71 74 67 75
REMARK SMILES IDX 68 76 69 77 70 78 49 79 50 80 58 81 51 82 57 83 59 84 56 85
REMARK SMILES IDX 52 86 53 87 54 88 55 89
REMARK H PARENT 79 42 47 53
REMARK Flexibility Score: inf
ROOT
ATOM      1  C   UNL A   1      31.896  29.803  25.364  1.00  0.00     0.202 C 
ENDROOT
BRANCH   1   2
ATOM      2  O   UNL A   1      33.198  29.434  24.920  1.00  0.00    -0.374 OA
BRANCH   2   3
ATOM      3  C   UNL A   1      33.481  28.039  24.829  1.00  0.00     0.202 C 
BRANCH   3   4
ATOM      4  C   UNL A   1      33.624  27.445  23.420  1.00  0.00     0.261 C 
BRANCH   4   5
ATOM      5  O   UNL A   1      33.413  26.018  23.373  1.00  0.00    -0.462 OA
BRANCH   5   6
ATOM      6  C   UNL A   1      33.218  25.483  22.133  1.00  0.00     0.326 C 
ATOM      7  O   UNL A   1      33.301  26.114  21.082  1.00  0.00    -0.250 OA
BRANCH   6   8
ATOM      8  C   UNL A   1      32.898  23.983  22.137  1.00  0.00     0.248 C 
BRANCH   8   9
ATOM      9  N   UNL A   1      32.601  23.383  23.435  1.00  0.00    -0.294 N 
ATOM     10  C   UNL A   1      31.047  24.618  26.016  1.00  0.00     0.064 C 
ATOM     11  C   UNL A   1      31.080  23.239  25.365  1.00  0.00     0.259 C 
ATOM     12  O   UNL A   1      31.984  22.417  26.079  1.00  0.00    -0.479 OA
ATOM     13  C   UNL A   1      31.286  23.457  23.869  1.00  0.00     0.268 C 
ATOM     14  C   UNL A   1      33.232  22.306  25.534  1.00  0.00     0.144 A 
ATOM     15  O   UNL A   1      30.353  23.785  23.133  1.00  0.00    -0.270 OA
ATOM     16  C   UNL A   1      34.172  21.681  26.363  1.00  0.00     0.049 A 
ATOM     17  C   UNL A   1      33.582  22.752  24.251  1.00  0.00     0.087 A 
ATOM     18  C   UNL A   1      35.472  21.467  25.917  1.00  0.00     0.004 A 
ATOM     19  C   UNL A   1      34.894  22.510  23.811  1.00  0.00     0.030 A 
ATOM     20  C   UNL A   1      35.829  21.869  24.635  1.00  0.00     0.002 A 
ENDBRANCH   8   9
ENDBRANCH   6   8
ENDBRANCH   5   6
ENDBRANCH   4   5
ENDBRANCH   3   4
ENDBRANCH   2   3
ENDBRANCH   1   2
BRANCH   1  21
ATOM     21  C   UNL A   1      31.796  30.930  26.400  1.00  0.00     0.261 C 
BRANCH  21  22
ATOM     22  O   UNL A   1      32.774  30.824  27.443  1.00  0.00    -0.460 OA
BRANCH  22  23
ATOM     23  C   UNL A   1      33.557  31.920  27.597  1.00  0.00     0.338 C 
ATOM     24  O   UNL A   1      33.214  33.090  27.516  1.00  0.00    -0.246 OA
BRANCH  23  25
ATOM     25  C   UNL A   1      34.884  31.499  28.075  1.00  0.00     0.060 A 
ATOM     26  C   UNL A   1      35.988  32.349  27.999  1.00  0.00     0.016 A 
ATOM     27  C   UNL A   1      35.006  30.218  28.621  1.00  0.00     0.016 A 
ATOM     28  C   UNL A   1      37.227  31.906  28.472  1.00  0.00     0.010 A 
ATOM     29  C   UNL A   1      36.239  29.784  29.103  1.00  0.00     0.010 A 
ATOM     30  C   UNL A   1      37.358  30.627  29.039  1.00  0.00    -0.014 A 
BRANCH  30  31
ATOM     31  C   UNL A   1      38.633  30.187  29.660  1.00  0.00     0.031 A 
ATOM     32  C   UNL A   1      39.472  29.122  29.017  1.00  0.00     0.074 A 
ATOM     33  C   UNL A   1      38.982  30.703  30.855  1.00  0.00     0.049 A 
ATOM     34  N   UNL A   1      40.548  28.541  29.475  1.00  0.00    -0.248 NA
ATOM     35  C   UNL A   1      39.045  28.639  27.693  1.00  0.00     0.031 C 
ATOM     36  C   UNL A   1      38.223  31.728  31.572  1.00  0.00     0.029 A 
ATOM     37  N   UNL A   1      40.037  30.426  31.689  1.00  0.00    -0.354 N 
ATOM     38  C   UNL A   1      40.928  27.620  28.506  1.00  0.00     0.074 A 
ATOM     39  C   UNL A   1      39.949  27.697  27.444  1.00  0.00     0.031 C 
ATOM     40  C   UNL A   1      38.831  31.990  32.737  1.00  0.00     0.029 A 
ATOM     41  C   UNL A   1      39.989  31.112  32.883  1.00  0.00     0.049 A 
ATOM     42  H   UNL A   1      40.759  29.798  31.456  1.00  0.00     0.167 HD
ATOM     43  C   UNL A   1      42.005  26.800  28.507  1.00  0.00     0.034 A 
ATOM     44  C   UNL A   1      40.764  31.021  33.984  1.00  0.00     0.034 A 
ATOM     45  C   UNL A   1      42.975  26.755  29.573  1.00  0.00     0.049 A 
ATOM     46  C   UNL A   1      41.941  30.078  33.968  1.00  0.00     0.074 A 
ATOM     47  C   UNL A   1      44.129  25.994  29.637  1.00  0.00     0.029 A 
ATOM     48  N   UNL A   1      42.913  27.487  30.749  1.00  0.00    -0.354 N 
ATOM     49  N   UNL A   1      42.336  29.278  33.007  1.00  0.00    -0.248 NA
ATOM     50  C   UNL A   1      42.787  30.025  35.170  1.00  0.00     0.031 C 
ATOM     51  C   UNL A   1      44.717  26.199  30.881  1.00  0.00     0.029 A 
ATOM     52  C   UNL A   1      43.991  27.167  31.556  1.00  0.00     0.049 A 
ATOM     53  H   UNL A   1      42.208  28.136  30.975  1.00  0.00     0.167 HD
ATOM     54  C   UNL A   1      43.493  28.659  33.471  1.00  0.00     0.074 A 
ATOM     55  C   UNL A   1      43.745  29.186  34.794  1.00  0.00     0.031 C 
ATOM     56  C   UNL A   1      44.268  27.735  32.854  1.00  0.00     0.034 A 
BRANCH  43  57
ATOM     57  C   UNL A   1      42.250  25.889  27.331  1.00  0.00     0.023 A 
ATOM     58  C   UNL A   1      41.724  24.583  27.340  1.00  0.00     0.031 A 
ATOM     59  C   UNL A   1      43.177  26.227  26.330  1.00  0.00     0.131 A 
ATOM     60  C   UNL A   1      42.185  23.641  26.414  1.00  0.00     0.055 A 
ATOM     61  C   UNL A   1      43.595  25.297  25.378  1.00  0.00     0.041 A 
ATOM     62  F   UNL A   1      43.710  27.458  26.283  1.00  0.00    -0.206 F 
ATOM     63  C   UNL A   1      43.114  23.991  25.430  1.00  0.00     0.022 A 
BRANCH  60  64
ATOM     64  S   UNL A   1      41.675  21.902  26.517  1.00  0.00     0.124 S 
ATOM     65  O   UNL A   1      42.190  21.514  27.829  1.00  0.00    -0.237 OA
ATOM     66  O   UNL A   1      40.222  22.004  26.423  1.00  0.00    -0.237 OA
ATOM     67  O   UNL A   1      42.341  21.273  25.382  1.00  0.00    -0.744 OA
ENDBRANCH  60  64
ENDBRANCH  43  57
BRANCH  44  68
ATOM     68  C   UNL A   1      40.447  31.871  35.172  1.00  0.00     0.023 A 
ATOM     69  C   UNL A   1      39.494  31.456  36.120  1.00  0.00     0.031 A 
ATOM     70  C   UNL A   1      41.019  33.145  35.329  1.00  0.00     0.131 A 
ATOM     71  C   UNL A   1      39.091  32.331  37.138  1.00  0.00     0.055 A 
ATOM     72  C   UNL A   1      40.675  33.981  36.394  1.00  0.00     0.041 A 
ATOM     73  F   UNL A   1      41.920  33.596  34.443  1.00  0.00    -0.206 F 
ATOM     74  C   UNL A   1      39.693  33.582  37.295  1.00  0.00     0.022 A 
BRANCH  71  75
ATOM     75  S   UNL A   1      37.675  31.930  38.200  1.00  0.00     0.124 S 
ATOM     76  O   UNL A   1      38.238  32.106  39.535  1.00  0.00    -0.237 OA
ATOM     77  O   UNL A   1      36.700  32.936  37.788  1.00  0.00    -0.237 OA
ATOM     78  O   UNL A   1      37.343  30.558  37.829  1.00  0.00    -0.744 OA
ENDBRANCH  71  75
ENDBRANCH  44  68
BRANCH  56  79
ATOM     79  C   UNL A   1      45.512  27.227  33.545  1.00  0.00     0.023 A 
ATOM     80  C   UNL A   1      45.413  26.119  34.413  1.00  0.00     0.031 A 
ATOM     81  C   UNL A   1      46.709  27.961  33.536  1.00  0.00     0.131 A 
ATOM     82  C   UNL A   1      46.460  25.832  35.295  1.00  0.00     0.055 A 
ATOM     83  C   UNL A   1      47.774  27.631  34.375  1.00  0.00     0.041 A 
ATOM     84  F   UNL A   1      46.847  29.030  32.734  1.00  0.00    -0.206 F 
ATOM     85  C   UNL A   1      47.643  26.577  35.277  1.00  0.00     0.022 A 
BRANCH  82  86
ATOM     86  S   UNL A   1      46.270  24.568  36.584  1.00  0.00     0.124 S 
ATOM     87  O   UNL A   1      44.843  24.264  36.501  1.00  0.00    -0.237 OA
ATOM     88  O   UNL A   1      47.161  23.512  36.110  1.00  0.00    -0.237 OA
ATOM     89  O   UNL A   1      46.688  25.244  37.807  1.00  0.00    -0.744 OA
ENDBRANCH  82  86
ENDBRANCH  56  79
ENDBRANCH  30  31
ENDBRANCH  23  25
ENDBRANCH  22  23
ENDBRANCH  21  22
ENDBRANCH   1  21
TORSDOF 18
ENDMDL
