MODEL 1
REMARK VINA RESULT:     -11.0      0.000      0.000
REMARK SMILES CN(C)S(=O)(=O)c1ccc(-n2c(CCC(=O)OCCOCCOC(=O)c3ccc(-c4c5nc(c(-c6cc(S(=O)(=O)[O-])ccc6F)c6ccc([nH]6)c(-c6cc(S(=O)(=O)[O-])ccc6F)c6nc(c(-c7cc(S(=O)(=O)[O-])ccc7F)c7ccc4[nH]7)C=C6)C=C5)cc3)ccc2-c2ccc(F)cc2)cc1
REMARK SMILES IDX 19 1 18 2 17 3 15 4 16 5 14 6 13 7 12 8 11 9 91 10 89 11
REMARK SMILES IDX 90 12 10 13 7 14 8 15 100 16 9 17 99 18 4 19 5 20 6 21 2 22
REMARK SMILES IDX 1 23 3 24 92 25 93 26 98 27 94 28 97 29 95 30 96 31 20 32
REMARK SMILES IDX 21 33 22 34 23 35 24 36 25 37 26 38 27 39 88 40 28 41 87 42
REMARK SMILES IDX 29 43 30 44 31 45 81 46 32 47 86 48 80 49 82 50 33 51 85 52
REMARK SMILES IDX 79 53 78 54 34 56 66 57 46 58 65 59 47 60 50 61 64 62 83 63
REMARK SMILES IDX 48 64 49 65 63 67 84 68 51 69 35 70 36 71 44 72 37 73 43 74
REMARK SMILES IDX 45 75 42 76 38 77 39 78 40 79 41 80 67 81 68 82 76 83 69 84
REMARK SMILES IDX 75 85 77 86 74 87 70 88 71 89 72 90 73 91 52 92 53 93 61 94
REMARK SMILES IDX 54 95 60 96 62 97 59 98 55 99 56 100 57 101 58 102
REMARK H PARENT 82 55 50 66
REMARK Flexibility Score: inf
ROOT
ATOM      1  C   UNL A   1      42.753  21.905  25.735  1.00  0.00     0.202 C 
ENDROOT
BRANCH   1   2
ATOM      2  C   UNL A   1      41.858  22.017  27.744  1.00  0.00     0.261 C 
BRANCH   2   3
ATOM      3  O   UNL A   1      40.543  23.064  28.165  1.00  0.00    -0.463 OA
BRANCH   3   4
ATOM      4  C   UNL A   1      40.230  24.266  27.591  1.00  0.00     0.306 C 
ATOM      5  O   UNL A   1      40.444  25.333  28.161  1.00  0.00    -0.252 OA
BRANCH   4   6
ATOM      6  C   UNL A   1      39.627  24.241  26.135  1.00  0.00     0.129 C 
BRANCH   6   7
ATOM      7  C   UNL A   1      38.128  24.127  25.757  1.00  0.00     0.066 C 
BRANCH   7   8
ATOM      8  C   UNL A   1      37.623  22.742  25.778  1.00  0.00     0.024 A 
ATOM      9  N   UNL A   1      36.278  22.417  25.703  1.00  0.00    -0.314 N 
ATOM     10  C   UNL A   1      36.225  21.050  25.339  1.00  0.00     0.053 A 
ATOM     11  C   UNL A   1      38.364  21.581  25.834  1.00  0.00     0.024 A 
ATOM     12  C   UNL A   1      37.496  20.526  25.526  1.00  0.00     0.029 A 
BRANCH   9  13
ATOM     13  C   UNL A   1      35.189  23.368  25.764  1.00  0.00     0.046 A 
ATOM     14  C   UNL A   1      31.941  24.954  25.585  1.00  0.00     0.082 A 
ATOM     15  C   UNL A   1      32.313  23.785  26.874  1.00  0.00     0.024 A 
ATOM     16  C   UNL A   1      33.154  25.370  24.343  1.00  0.00     0.024 A 
ATOM     17  C   UNL A   1      33.913  23.026  26.983  1.00  0.00     0.028 A 
ATOM     18  C   UNL A   1      34.807  24.608  24.443  1.00  0.00     0.028 A 
BRANCH  14  19
ATOM     19  S   UNL A   1      30.622  26.090  25.979  1.00  0.00     0.242 S 
ATOM     20  O   UNL A   1      31.167  27.083  26.881  1.00  0.00    -0.207 OA
ATOM     21  O   UNL A   1      29.496  25.272  26.374  1.00  0.00    -0.207 OA
BRANCH  19  22
ATOM     22  N   UNL A   1      30.242  26.874  24.506  1.00  0.00    -0.204 NA
ATOM     23  C   UNL A   1      28.849  26.628  24.080  1.00  0.00     0.124 C 
ATOM     24  C   UNL A   1      30.564  28.324  24.422  1.00  0.00     0.124 C 
ENDBRANCH  19  22
ENDBRANCH  14  19
ENDBRANCH   9  13
BRANCH  10  25
ATOM     25  C   UNL A   1      35.098  20.285  24.779  1.00  0.00    -0.001 A 
ATOM     26  C   UNL A   1      35.170  18.884  24.723  1.00  0.00     0.013 A 
ATOM     27  C   UNL A   1      33.938  20.919  24.300  1.00  0.00     0.013 A 
ATOM     28  C   UNL A   1      34.067  18.131  24.313  1.00  0.00     0.040 A 
ATOM     29  C   UNL A   1      32.818  20.163  23.932  1.00  0.00     0.040 A 
ATOM     30  C   UNL A   1      32.891  18.776  23.954  1.00  0.00     0.123 A 
ATOM     31  F   UNL A   1      31.809  18.055  23.632  1.00  0.00    -0.207 F 
ENDBRANCH  10  25
ENDBRANCH   7   8
ENDBRANCH   6   7
ENDBRANCH   4   6
ENDBRANCH   3   4
ENDBRANCH   2   3
ENDBRANCH   1   2
BRANCH   1  32
ATOM     32  O   UNL A   1      43.620  22.983  24.950  1.00  0.00    -0.374 OA
BRANCH  32  33
ATOM     33  C   UNL A   1      44.711  22.564  24.113  1.00  0.00     0.202 C 
BRANCH  33  34
ATOM     34  C   UNL A   1      46.127  22.870  24.551  1.00  0.00     0.261 C 
BRANCH  34  35
ATOM     35  O   UNL A   1      46.210  23.077  25.946  1.00  0.00    -0.460 OA
BRANCH  35  36
ATOM     36  C   UNL A   1      46.514  24.342  26.321  1.00  0.00     0.338 C 
ATOM     37  O   UNL A   1      47.012  25.221  25.643  1.00  0.00    -0.246 OA
BRANCH  36  38
ATOM     38  C   UNL A   1      46.236  24.442  27.755  1.00  0.00     0.060 A 
ATOM     39  C   UNL A   1      45.096  23.793  28.230  1.00  0.00     0.016 A 
ATOM     40  C   UNL A   1      46.822  25.521  28.421  1.00  0.00     0.016 A 
ATOM     41  C   UNL A   1      44.380  24.421  29.222  1.00  0.00     0.010 A 
ATOM     42  C   UNL A   1      46.040  26.225  29.289  1.00  0.00     0.010 A 
ATOM     43  C   UNL A   1      44.802  25.690  29.647  1.00  0.00    -0.014 A 
BRANCH  43  44
ATOM     44  C   UNL A   1      44.052  26.366  30.706  1.00  0.00     0.031 A 
ATOM     45  C   UNL A   1      44.586  25.680  32.047  1.00  0.00     0.074 A 
ATOM     46  C   UNL A   1      43.121  27.290  30.235  1.00  0.00     0.049 A 
ATOM     47  N   UNL A   1      43.955  25.225  33.084  1.00  0.00    -0.248 NA
ATOM     48  C   UNL A   1      46.046  25.279  32.165  1.00  0.00     0.031 C 
ATOM     49  C   UNL A   1      42.974  27.764  28.821  1.00  0.00     0.029 A 
ATOM     50  N   UNL A   1      42.133  28.082  30.793  1.00  0.00    -0.354 N 
ATOM     51  C   UNL A   1      44.941  24.871  34.051  1.00  0.00     0.074 A 
ATOM     52  C   UNL A   1      46.161  24.683  33.353  1.00  0.00     0.031 C 
ATOM     53  C   UNL A   1      41.892  28.578  28.646  1.00  0.00     0.029 A 
ATOM     54  C   UNL A   1      41.216  28.783  29.908  1.00  0.00     0.049 A 
ATOM     55  H   UNL A   1      42.053  28.170  31.770  1.00  0.00     0.167 HD
ATOM     56  C   UNL A   1      44.766  25.092  35.386  1.00  0.00     0.034 A 
ATOM     57  C   UNL A   1      40.000  29.396  30.239  1.00  0.00     0.034 A 
ATOM     58  C   UNL A   1      43.492  25.684  35.537  1.00  0.00     0.049 A 
ATOM     59  C   UNL A   1      39.979  29.260  31.713  1.00  0.00     0.074 A 
ATOM     60  C   UNL A   1      42.225  25.191  35.552  1.00  0.00     0.029 A 
ATOM     61  N   UNL A   1      43.477  27.052  35.417  1.00  0.00    -0.354 N 
ATOM     62  N   UNL A   1      40.827  29.810  32.528  1.00  0.00    -0.248 NA
ATOM     63  C   UNL A   1      39.272  28.058  32.153  1.00  0.00     0.031 C 
ATOM     64  C   UNL A   1      41.446  26.292  35.160  1.00  0.00     0.029 A 
ATOM     65  C   UNL A   1      42.274  27.394  34.878  1.00  0.00     0.049 A 
ATOM     66  H   UNL A   1      44.199  27.670  35.673  1.00  0.00     0.167 HD
ATOM     67  C   UNL A   1      41.030  28.825  33.467  1.00  0.00     0.074 A 
ATOM     68  C   UNL A   1      40.111  27.749  33.120  1.00  0.00     0.031 C 
ATOM     69  C   UNL A   1      42.179  28.656  34.170  1.00  0.00     0.034 A 
BRANCH  56  70
ATOM     70  C   UNL A   1      45.653  25.228  36.602  1.00  0.00     0.023 A 
ATOM     71  C   UNL A   1      45.840  26.564  37.052  1.00  0.00     0.031 A 
ATOM     72  C   UNL A   1      46.584  24.289  37.054  1.00  0.00     0.131 A 
ATOM     73  C   UNL A   1      46.996  26.961  37.729  1.00  0.00     0.055 A 
ATOM     74  C   UNL A   1      47.697  24.674  37.826  1.00  0.00     0.041 A 
ATOM     75  F   UNL A   1      46.512  23.000  36.694  1.00  0.00    -0.206 F 
ATOM     76  C   UNL A   1      47.932  26.018  38.127  1.00  0.00     0.022 A 
BRANCH  73  77
ATOM     77  S   UNL A   1      47.319  28.744  37.877  1.00  0.00     0.124 S 
ATOM     78  O   UNL A   1      46.498  29.294  36.804  1.00  0.00    -0.237 OA
ATOM     79  O   UNL A   1      46.862  29.025  39.235  1.00  0.00    -0.237 OA
ATOM     80  O   UNL A   1      48.762  28.843  37.677  1.00  0.00    -0.744 OA
ENDBRANCH  73  77
ENDBRANCH  56  70
BRANCH  57  81
ATOM     81  C   UNL A   1      38.635  29.844  29.627  1.00  0.00     0.023 A 
ATOM     82  C   UNL A   1      37.781  30.883  30.037  1.00  0.00     0.031 A 
ATOM     83  C   UNL A   1      38.152  29.166  28.443  1.00  0.00     0.131 A 
ATOM     84  C   UNL A   1      36.638  31.250  29.235  1.00  0.00     0.055 A 
ATOM     85  C   UNL A   1      37.124  29.606  27.603  1.00  0.00     0.041 A 
ATOM     86  F   UNL A   1      38.638  27.983  28.040  1.00  0.00    -0.206 F 
ATOM     87  C   UNL A   1      36.365  30.675  27.991  1.00  0.00     0.022 A 
BRANCH  84  88
ATOM     88  S   UNL A   1      35.414  32.475  29.812  1.00  0.00     0.124 S 
ATOM     89  O   UNL A   1      36.158  33.723  29.695  1.00  0.00    -0.237 OA
ATOM     90  O   UNL A   1      34.314  32.284  28.875  1.00  0.00    -0.237 OA
ATOM     91  O   UNL A   1      35.127  32.061  31.187  1.00  0.00    -0.744 OA
ENDBRANCH  84  88
ENDBRANCH  57  81
BRANCH  69  92
ATOM     92  C   UNL A   1      43.327  29.653  33.857  1.00  0.00     0.023 A 
ATOM     93  C   UNL A   1      44.317  29.364  32.903  1.00  0.00     0.031 A 
ATOM     94  C   UNL A   1      43.539  30.853  34.581  1.00  0.00     0.131 A 
ATOM     95  C   UNL A   1      45.422  30.232  32.698  1.00  0.00     0.055 A 
ATOM     96  C   UNL A   1      44.644  31.707  34.399  1.00  0.00     0.041 A 
ATOM     97  F   UNL A   1      42.671  31.251  35.509  1.00  0.00    -0.206 F 
ATOM     98  C   UNL A   1      45.593  31.399  33.443  1.00  0.00     0.022 A 
BRANCH  95  99
ATOM     99  S   UNL A   1      46.641  29.840  31.408  1.00  0.00     0.124 S 
ATOM    100  O   UNL A   1      47.474  31.037  31.386  1.00  0.00    -0.237 OA
ATOM    101  O   UNL A   1      47.266  28.628  31.927  1.00  0.00    -0.237 OA
ATOM    102  O   UNL A   1      45.823  29.639  30.211  1.00  0.00    -0.744 OA
ENDBRANCH  95  99
ENDBRANCH  69  92
ENDBRANCH  43  44
ENDBRANCH  36  38
ENDBRANCH  35  36
ENDBRANCH  34  35
ENDBRANCH  33  34
ENDBRANCH  32  33
ENDBRANCH   1  32
TORSDOF 23
ENDMDL
MODEL 2
REMARK VINA RESULT:     -10.5      1.760      2.055
REMARK SMILES CN(C)S(=O)(=O)c1ccc(-n2c(CCC(=O)OCCOCCOC(=O)c3ccc(-c4c5nc(c(-c6cc(S(=O)(=O)[O-])ccc6F)c6ccc([nH]6)c(-c6cc(S(=O)(=O)[O-])ccc6F)c6nc(c(-c7cc(S(=O)(=O)[O-])ccc7F)c7ccc4[nH]7)C=C6)C=C5)cc3)ccc2-c2ccc(F)cc2)cc1
REMARK SMILES IDX 19 1 18 2 17 3 15 4 16 5 14 6 13 7 12 8 11 9 91 10 89 11
REMARK SMILES IDX 90 12 10 13 7 14 8 15 100 16 9 17 99 18 4 19 5 20 6 21 2 22
REMARK SMILES IDX 1 23 3 24 92 25 93 26 98 27 94 28 97 29 95 30 96 31 20 32
REMARK SMILES IDX 21 33 22 34 23 35 24 36 25 37 26 38 27 39 88 40 28 41 87 42
REMARK SMILES IDX 29 43 30 44 31 45 81 46 32 47 86 48 80 49 82 50 33 51 85 52
REMARK SMILES IDX 79 53 78 54 34 56 66 57 46 58 65 59 47 60 50 61 64 62 83 63
REMARK SMILES IDX 48 64 49 65 63 67 84 68 51 69 35 70 36 71 44 72 37 73 43 74
REMARK SMILES IDX 45 75 42 76 38 77 39 78 40 79 41 80 67 81 68 82 76 83 69 84
REMARK SMILES IDX 75 85 77 86 74 87 70 88 71 89 72 90 73 91 52 92 53 93 61 94
REMARK SMILES IDX 54 95 60 96 62 97 59 98 55 99 56 100 57 101 58 102
REMARK H PARENT 82 55 50 66
REMARK Flexibility Score: inf
ROOT
ATOM      1  C   UNL A   1      42.470  21.821  26.024  1.00  0.00     0.202 C 
ENDROOT
BRANCH   1   2
ATOM      2  C   UNL A   1      41.280  22.275  27.821  1.00  0.00     0.261 C 
BRANCH   2   3
ATOM      3  O   UNL A   1      40.084  23.526  27.903  1.00  0.00    -0.463 OA
BRANCH   3   4
ATOM      4  C   UNL A   1      39.885  24.537  27.003  1.00  0.00     0.306 C 
ATOM      5  O   UNL A   1      40.265  25.685  27.222  1.00  0.00    -0.252 OA
BRANCH   4   6
ATOM      6  C   UNL A   1      39.193  24.169  25.636  1.00  0.00     0.129 C 
BRANCH   6   7
ATOM      7  C   UNL A   1      37.670  24.036  25.377  1.00  0.00     0.066 C 
BRANCH   7   8
ATOM      8  C   UNL A   1      37.165  22.661  25.550  1.00  0.00     0.024 A 
ATOM      9  N   UNL A   1      35.843  22.302  25.347  1.00  0.00    -0.314 N 
ATOM     10  C   UNL A   1      35.838  20.893  25.200  1.00  0.00     0.053 A 
ATOM     11  C   UNL A   1      37.890  21.539  25.887  1.00  0.00     0.024 A 
ATOM     12  C   UNL A   1      37.071  20.431  25.637  1.00  0.00     0.029 A 
BRANCH   9  13
ATOM     13  C   UNL A   1      34.756  23.228  25.110  1.00  0.00     0.046 A 
ATOM     14  C   UNL A   1      32.803  26.191  24.400  1.00  0.00     0.082 A 
ATOM     15  C   UNL A   1      33.708  25.367  23.109  1.00  0.00     0.024 A 
ATOM     16  C   UNL A   1      32.840  25.585  26.080  1.00  0.00     0.024 A 
ATOM     17  C   UNL A   1      34.644  23.898  23.445  1.00  0.00     0.028 A 
ATOM     18  C   UNL A   1      33.789  24.072  26.444  1.00  0.00     0.028 A 
BRANCH  14  19
ATOM     19  S   UNL A   1      31.434  27.181  23.825  1.00  0.00     0.242 S 
ATOM     20  O   UNL A   1      30.397  27.104  24.833  1.00  0.00    -0.207 OA
ATOM     21  O   UNL A   1      31.177  26.757  22.467  1.00  0.00    -0.207 OA
BRANCH  19  22
ATOM     22  N   UNL A   1      32.016  28.790  23.798  1.00  0.00    -0.204 NA
ATOM     23  C   UNL A   1      31.767  29.501  25.068  1.00  0.00     0.124 C 
ATOM     24  C   UNL A   1      33.427  28.980  23.362  1.00  0.00     0.124 C 
ENDBRANCH  19  22
ENDBRANCH  14  19
ENDBRANCH   9  13
BRANCH  10  25
ATOM     25  C   UNL A   1      34.796  20.027  24.622  1.00  0.00    -0.001 A 
ATOM     26  C   UNL A   1      35.044  18.654  24.465  1.00  0.00     0.013 A 
ATOM     27  C   UNL A   1      33.546  20.536  24.226  1.00  0.00     0.013 A 
ATOM     28  C   UNL A   1      34.030  17.793  24.037  1.00  0.00     0.040 A 
ATOM     29  C   UNL A   1      32.519  19.667  23.839  1.00  0.00     0.040 A 
ATOM     30  C   UNL A   1      32.769  18.303  23.761  1.00  0.00     0.123 A 
ATOM     31  F   UNL A   1      31.775  17.470  23.422  1.00  0.00    -0.207 F 
ENDBRANCH  10  25
ENDBRANCH   7   8
ENDBRANCH   6   7
ENDBRANCH   4   6
ENDBRANCH   3   4
ENDBRANCH   2   3
ENDBRANCH   1   2
BRANCH   1  32
ATOM     32  O   UNL A   1      43.357  22.787  25.125  1.00  0.00    -0.374 OA
BRANCH  32  33
ATOM     33  C   UNL A   1      44.445  22.258  24.349  1.00  0.00     0.202 C 
BRANCH  33  34
ATOM     34  C   UNL A   1      45.864  22.593  24.757  1.00  0.00     0.261 C 
BRANCH  34  35
ATOM     35  O   UNL A   1      45.975  22.796  26.150  1.00  0.00    -0.460 OA
BRANCH  35  36
ATOM     36  C   UNL A   1      46.454  24.007  26.517  1.00  0.00     0.338 C 
ATOM     37  O   UNL A   1      47.073  24.802  25.834  1.00  0.00    -0.246 OA
BRANCH  36  38
ATOM     38  C   UNL A   1      46.192  24.156  27.950  1.00  0.00     0.060 A 
ATOM     39  C   UNL A   1      45.027  23.573  28.449  1.00  0.00     0.016 A 
ATOM     40  C   UNL A   1      46.834  25.223  28.585  1.00  0.00     0.016 A 
ATOM     41  C   UNL A   1      44.349  24.259  29.429  1.00  0.00     0.010 A 
ATOM     42  C   UNL A   1      46.091  25.984  29.439  1.00  0.00     0.010 A 
ATOM     43  C   UNL A   1      44.833  25.517  29.819  1.00  0.00    -0.014 A 
BRANCH  43  44
ATOM     44  C   UNL A   1      44.123  26.253  30.865  1.00  0.00     0.031 A 
ATOM     45  C   UNL A   1      44.640  25.581  32.220  1.00  0.00     0.074 A 
ATOM     46  C   UNL A   1      43.229  27.204  30.377  1.00  0.00     0.049 A 
ATOM     47  N   UNL A   1      43.999  25.182  33.274  1.00  0.00    -0.248 NA
ATOM     48  C   UNL A   1      46.082  25.119  32.337  1.00  0.00     0.031 C 
ATOM     49  C   UNL A   1      43.090  27.646  28.952  1.00  0.00     0.029 A 
ATOM     50  N   UNL A   1      42.283  28.054  30.921  1.00  0.00    -0.354 N 
ATOM     51  C   UNL A   1      44.978  24.811  34.242  1.00  0.00     0.074 A 
ATOM     52  C   UNL A   1      46.181  24.551  33.540  1.00  0.00     0.031 C 
ATOM     53  C   UNL A   1      42.043  28.502  28.763  1.00  0.00     0.029 A 
ATOM     54  C   UNL A   1      41.388  28.771  30.025  1.00  0.00     0.049 A 
ATOM     55  H   UNL A   1      42.216  28.172  31.897  1.00  0.00     0.167 HD
ATOM     56  C   UNL A   1      44.825  25.076  35.572  1.00  0.00     0.034 A 
ATOM     57  C   UNL A   1      40.204  29.445  30.350  1.00  0.00     0.034 A 
ATOM     58  C   UNL A   1      43.580  25.727  35.718  1.00  0.00     0.049 A 
ATOM     59  C   UNL A   1      40.191  29.350  31.827  1.00  0.00     0.074 A 
ATOM     60  C   UNL A   1      42.293  25.291  35.756  1.00  0.00     0.029 A 
ATOM     61  N   UNL A   1      43.624  27.091  35.560  1.00  0.00    -0.354 N 
ATOM     62  N   UNL A   1      41.070  29.884  32.620  1.00  0.00    -0.248 NA
ATOM     63  C   UNL A   1      39.437  28.193  32.306  1.00  0.00     0.031 C 
ATOM     64  C   UNL A   1      41.559  26.414  35.341  1.00  0.00     0.029 A 
ATOM     65  C   UNL A   1      42.432  27.471  35.022  1.00  0.00     0.049 A 
ATOM     66  H   UNL A   1      44.374  27.683  35.793  1.00  0.00     0.167 HD
ATOM     67  C   UNL A   1      41.238  28.917  33.583  1.00  0.00     0.074 A 
ATOM     68  C   UNL A   1      40.270  27.873  33.274  1.00  0.00     0.031 C 
ATOM     69  C   UNL A   1      42.386  28.716  34.280  1.00  0.00     0.034 A 
BRANCH  56  70
ATOM     70  C   UNL A   1      45.729  25.205  36.776  1.00  0.00     0.023 A 
ATOM     71  C   UNL A   1      46.021  23.976  37.432  1.00  0.00     0.031 A 
ATOM     72  C   UNL A   1      45.958  26.368  37.517  1.00  0.00     0.131 A 
ATOM     73  C   UNL A   1      46.316  23.917  38.795  1.00  0.00     0.055 A 
ATOM     74  C   UNL A   1      46.356  26.310  38.866  1.00  0.00     0.041 A 
ATOM     75  F   UNL A   1      45.715  27.583  37.007  1.00  0.00    -0.206 F 
ATOM     76  C   UNL A   1      46.492  25.084  39.524  1.00  0.00     0.022 A 
BRANCH  73  77
ATOM     77  S   UNL A   1      46.252  22.290  39.605  1.00  0.00     0.124 S 
ATOM     78  O   UNL A   1      45.271  22.513  40.660  1.00  0.00    -0.237 OA
ATOM     79  O   UNL A   1      45.825  21.422  38.511  1.00  0.00    -0.237 OA
ATOM     80  O   UNL A   1      47.626  22.085  40.057  1.00  0.00    -0.744 OA
ENDBRANCH  73  77
ENDBRANCH  56  70
BRANCH  57  81
ATOM     81  C   UNL A   1      38.854  29.936  29.737  1.00  0.00     0.023 A 
ATOM     82  C   UNL A   1      38.168  31.143  29.963  1.00  0.00     0.031 A 
ATOM     83  C   UNL A   1      38.194  29.100  28.757  1.00  0.00     0.131 A 
ATOM     84  C   UNL A   1      37.011  31.486  29.170  1.00  0.00     0.055 A 
ATOM     85  C   UNL A   1      37.157  29.492  27.905  1.00  0.00     0.041 A 
ATOM     86  F   UNL A   1      38.500  27.805  28.591  1.00  0.00    -0.206 F 
ATOM     87  C   UNL A   1      36.566  30.709  28.097  1.00  0.00     0.022 A 
BRANCH  84  88
ATOM     88  S   UNL A   1      35.996  32.957  29.540  1.00  0.00     0.124 S 
ATOM     89  O   UNL A   1      36.920  33.774  30.318  1.00  0.00    -0.237 OA
ATOM     90  O   UNL A   1      35.657  33.447  28.209  1.00  0.00    -0.237 OA
ATOM     91  O   UNL A   1      34.866  32.419  30.301  1.00  0.00    -0.744 OA
ENDBRANCH  84  88
ENDBRANCH  57  81
BRANCH  69  92
ATOM     92  C   UNL A   1      43.573  29.652  33.932  1.00  0.00     0.023 A 
ATOM     93  C   UNL A   1      44.548  29.289  32.987  1.00  0.00     0.031 A 
ATOM     94  C   UNL A   1      43.837  30.868  34.611  1.00  0.00     0.131 A 
ATOM     95  C   UNL A   1      45.688  30.102  32.749  1.00  0.00     0.055 A 
ATOM     96  C   UNL A   1      44.976  31.668  34.398  1.00  0.00     0.041 A 
ATOM     97  F   UNL A   1      42.989  31.334  35.526  1.00  0.00    -0.206 F 
ATOM     98  C   UNL A   1      45.909  31.287  33.452  1.00  0.00     0.022 A 
BRANCH  95  99
ATOM     99  S   UNL A   1      46.886  29.614  31.473  1.00  0.00     0.124 S 
ATOM    100  O   UNL A   1      46.041  29.432  30.299  1.00  0.00    -0.237 OA
ATOM    101  O   UNL A   1      47.794  30.755  31.445  1.00  0.00    -0.237 OA
ATOM    102  O   UNL A   1      47.472  28.382  32.004  1.00  0.00    -0.744 OA
ENDBRANCH  95  99
ENDBRANCH  69  92
ENDBRANCH  43  44
ENDBRANCH  36  38
ENDBRANCH  35  36
ENDBRANCH  34  35
ENDBRANCH  33  34
ENDBRANCH  32  33
ENDBRANCH   1  32
TORSDOF 23
ENDMDL
MODEL 3
REMARK VINA RESULT:     -10.1      4.954     12.290
REMARK SMILES CN(C)S(=O)(=O)c1ccc(-n2c(CCC(=O)OCCOCCOC(=O)c3ccc(-c4c5nc(c(-c6cc(S(=O)(=O)[O-])ccc6F)c6ccc([nH]6)c(-c6cc(S(=O)(=O)[O-])ccc6F)c6nc(c(-c7cc(S(=O)(=O)[O-])ccc7F)c7ccc4[nH]7)C=C6)C=C5)cc3)ccc2-c2ccc(F)cc2)cc1
REMARK SMILES IDX 19 1 18 2 17 3 15 4 16 5 14 6 13 7 12 8 11 9 91 10 89 11
REMARK SMILES IDX 90 12 10 13 7 14 8 15 100 16 9 17 99 18 4 19 5 20 6 21 2 22
REMARK SMILES IDX 1 23 3 24 92 25 93 26 98 27 94 28 97 29 95 30 96 31 20 32
REMARK SMILES IDX 21 33 22 34 23 35 24 36 25 37 26 38 27 39 88 40 28 41 87 42
REMARK SMILES IDX 29 43 30 44 31 45 81 46 32 47 86 48 80 49 82 50 33 51 85 52
REMARK SMILES IDX 79 53 78 54 34 56 66 57 46 58 65 59 47 60 50 61 64 62 83 63
REMARK SMILES IDX 48 64 49 65 63 67 84 68 51 69 35 70 36 71 44 72 37 73 43 74
REMARK SMILES IDX 45 75 42 76 38 77 39 78 40 79 41 80 67 81 68 82 76 83 69 84
REMARK SMILES IDX 75 85 77 86 74 87 70 88 71 89 72 90 73 91 52 92 53 93 61 94
REMARK SMILES IDX 54 95 60 96 62 97 59 98 55 99 56 100 57 101 58 102
REMARK H PARENT 82 55 50 66
REMARK Flexibility Score: inf
ROOT
ATOM      1  C   UNL A   1      35.394  33.554  30.231  1.00  0.00     0.202 C 
ENDROOT
BRANCH   1   2
ATOM      2  C   UNL A   1      34.463  32.958  32.136  1.00  0.00     0.261 C 
BRANCH   2   3
ATOM      3  O   UNL A   1      35.144  33.287  33.695  1.00  0.00    -0.463 OA
BRANCH   3   4
ATOM      4  C   UNL A   1      36.460  33.521  33.986  1.00  0.00     0.306 C 
ATOM      5  O   UNL A   1      36.859  34.630  34.335  1.00  0.00    -0.252 OA
BRANCH   4   6
ATOM      6  C   UNL A   1      37.451  32.298  33.912  1.00  0.00     0.129 C 
BRANCH   6   7
ATOM      7  C   UNL A   1      38.977  32.360  33.646  1.00  0.00     0.066 C 
BRANCH   7   8
ATOM      8  C   UNL A   1      39.589  31.036  33.432  1.00  0.00     0.024 A 
ATOM      9  N   UNL A   1      40.729  30.605  34.090  1.00  0.00    -0.314 N 
ATOM     10  C   UNL A   1      40.756  29.197  33.945  1.00  0.00     0.053 A 
ATOM     11  C   UNL A   1      39.135  30.027  32.609  1.00  0.00     0.024 A 
ATOM     12  C   UNL A   1      39.842  28.869  32.953  1.00  0.00     0.029 A 
BRANCH   9  13
ATOM     13  C   UNL A   1      41.564  31.432  34.934  1.00  0.00     0.046 A 
ATOM     14  C   UNL A   1      44.208  32.663  37.078  1.00  0.00     0.082 A 
ATOM     15  C   UNL A   1      44.487  32.418  35.337  1.00  0.00     0.024 A 
ATOM     16  C   UNL A   1      42.621  32.301  37.814  1.00  0.00     0.024 A 
ATOM     17  C   UNL A   1      43.186  31.842  34.277  1.00  0.00     0.028 A 
ATOM     18  C   UNL A   1      41.270  31.717  36.740  1.00  0.00     0.028 A 
BRANCH  14  19
ATOM     19  S   UNL A   1      45.317  33.831  37.845  1.00  0.00     0.242 S 
ATOM     20  O   UNL A   1      45.162  35.090  37.147  1.00  0.00    -0.207 OA
ATOM     21  O   UNL A   1      46.604  33.176  37.909  1.00  0.00    -0.207 OA
BRANCH  19  22
ATOM     22  N   UNL A   1      44.727  34.041  39.437  1.00  0.00    -0.204 NA
ATOM     23  C   UNL A   1      45.394  33.148  40.407  1.00  0.00     0.124 C 
ATOM     24  C   UNL A   1      44.687  35.436  39.954  1.00  0.00     0.124 C 
ENDBRANCH  19  22
ENDBRANCH  14  19
ENDBRANCH   9  13
BRANCH  10  25
ATOM     25  C   UNL A   1      41.516  28.201  34.719  1.00  0.00    -0.001 A 
ATOM     26  C   UNL A   1      41.357  28.136  36.112  1.00  0.00     0.013 A 
ATOM     27  C   UNL A   1      42.401  27.300  34.099  1.00  0.00     0.013 A 
ATOM     28  C   UNL A   1      41.970  27.121  36.852  1.00  0.00     0.040 A 
ATOM     29  C   UNL A   1      42.979  26.258  34.834  1.00  0.00     0.040 A 
ATOM     30  C   UNL A   1      42.748  26.173  36.201  1.00  0.00     0.123 A 
ATOM     31  F   UNL A   1      43.276  25.157  36.896  1.00  0.00    -0.207 F 
ENDBRANCH  10  25
ENDBRANCH   7   8
ENDBRANCH   6   7
ENDBRANCH   4   6
ENDBRANCH   3   4
ENDBRANCH   2   3
ENDBRANCH   1   2
BRANCH   1  32
ATOM     32  O   UNL A   1      35.372  32.822  28.819  1.00  0.00    -0.374 OA
BRANCH  32  33
ATOM     33  C   UNL A   1      34.481  31.717  28.590  1.00  0.00     0.202 C 
BRANCH  33  34
ATOM     34  C   UNL A   1      35.062  30.387  28.165  1.00  0.00     0.261 C 
BRANCH  34  35
ATOM     35  O   UNL A   1      36.262  30.095  28.851  1.00  0.00    -0.460 OA
BRANCH  35  36
ATOM     36  C   UNL A   1      37.341  29.897  28.060  1.00  0.00     0.338 C 
ATOM     37  O   UNL A   1      37.379  29.870  26.843  1.00  0.00    -0.246 OA
BRANCH  36  38
ATOM     38  C   UNL A   1      38.471  29.600  28.942  1.00  0.00     0.060 A 
ATOM     39  C   UNL A   1      39.623  30.370  28.784  1.00  0.00     0.016 A 
ATOM     40  C   UNL A   1      38.490  28.323  29.510  1.00  0.00     0.016 A 
ATOM     41  C   UNL A   1      40.833  29.732  28.928  1.00  0.00     0.010 A 
ATOM     42  C   UNL A   1      39.675  27.648  29.501  1.00  0.00     0.010 A 
ATOM     43  C   UNL A   1      40.833  28.349  29.164  1.00  0.00    -0.014 A 
BRANCH  43  44
ATOM     44  C   UNL A   1      42.114  27.660  29.327  1.00  0.00     0.031 A 
ATOM     45  C   UNL A   1      41.972  26.370  28.394  1.00  0.00     0.074 A 
ATOM     46  C   UNL A   1      42.973  28.275  30.236  1.00  0.00     0.049 A 
ATOM     47  N   UNL A   1      42.262  25.125  28.609  1.00  0.00    -0.248 NA
ATOM     48  C   UNL A   1      41.219  26.463  27.078  1.00  0.00     0.031 C 
ATOM     49  C   UNL A   1      42.780  29.616  30.875  1.00  0.00     0.029 A 
ATOM     50  N   UNL A   1      44.202  27.983  30.800  1.00  0.00    -0.354 N 
ATOM     51  C   UNL A   1      42.083  24.436  27.373  1.00  0.00     0.074 A 
ATOM     52  C   UNL A   1      41.220  25.227  26.575  1.00  0.00     0.031 C 
ATOM     53  C   UNL A   1      43.728  29.895  31.817  1.00  0.00     0.029 A 
ATOM     54  C   UNL A   1      44.685  28.812  31.893  1.00  0.00     0.049 A 
ATOM     55  H   UNL A   1      44.740  27.228  30.467  1.00  0.00     0.167 HD
ATOM     56  C   UNL A   1      42.924  23.441  26.965  1.00  0.00     0.034 A 
ATOM     57  C   UNL A   1      45.736  28.541  32.779  1.00  0.00     0.034 A 
ATOM     58  C   UNL A   1      43.895  23.287  27.978  1.00  0.00     0.049 A 
ATOM     59  C   UNL A   1      46.291  27.287  32.222  1.00  0.00     0.074 A 
ATOM     60  C   UNL A   1      43.900  22.661  29.186  1.00  0.00     0.029 A 
ATOM     61  N   UNL A   1      44.987  24.113  27.858  1.00  0.00    -0.354 N 
ATOM     62  N   UNL A   1      46.843  27.166  31.052  1.00  0.00    -0.248 NA
ATOM     63  C   UNL A   1      45.716  26.096  32.845  1.00  0.00     0.031 C 
ATOM     64  C   UNL A   1      44.893  23.350  29.902  1.00  0.00     0.029 A 
ATOM     65  C   UNL A   1      45.418  24.394  29.118  1.00  0.00     0.049 A 
ATOM     66  H   UNL A   1      45.383  24.439  27.019  1.00  0.00     0.167 HD
ATOM     67  C   UNL A   1      46.378  25.944  30.622  1.00  0.00     0.074 A 
ATOM     68  C   UNL A   1      45.622  25.390  31.738  1.00  0.00     0.031 C 
ATOM     69  C   UNL A   1      46.182  25.610  29.321  1.00  0.00     0.034 A 
BRANCH  56  70
ATOM     70  C   UNL A   1      43.296  22.789  25.654  1.00  0.00     0.023 A 
ATOM     71  C   UNL A   1      43.314  21.366  25.684  1.00  0.00     0.031 A 
ATOM     72  C   UNL A   1      43.985  23.391  24.597  1.00  0.00     0.131 A 
ATOM     73  C   UNL A   1      44.138  20.619  24.840  1.00  0.00     0.055 A 
ATOM     74  C   UNL A   1      44.735  22.628  23.682  1.00  0.00     0.041 A 
ATOM     75  F   UNL A   1      44.042  24.724  24.466  1.00  0.00    -0.206 F 
ATOM     76  C   UNL A   1      44.852  21.243  23.827  1.00  0.00     0.022 A 
BRANCH  73  77
ATOM     77  S   UNL A   1      44.397  18.866  25.247  1.00  0.00     0.124 S 
ATOM     78  O   UNL A   1      43.460  18.665  26.345  1.00  0.00    -0.237 OA
ATOM     79  O   UNL A   1      44.055  18.208  23.988  1.00  0.00    -0.237 OA
ATOM     80  O   UNL A   1      45.811  18.810  25.610  1.00  0.00    -0.744 OA
ENDBRANCH  73  77
ENDBRANCH  56  70
BRANCH  57  81
ATOM     81  C   UNL A   1      46.275  28.893  34.202  1.00  0.00     0.023 A 
ATOM     82  C   UNL A   1      45.637  28.757  35.447  1.00  0.00     0.031 A 
ATOM     83  C   UNL A   1      47.630  29.386  34.326  1.00  0.00     0.131 A 
ATOM     84  C   UNL A   1      46.367  28.983  36.672  1.00  0.00     0.055 A 
ATOM     85  C   UNL A   1      48.369  29.477  35.510  1.00  0.00     0.041 A 
ATOM     86  F   UNL A   1      48.325  29.858  33.280  1.00  0.00    -0.206 F 
ATOM     87  C   UNL A   1      47.738  29.254  36.702  1.00  0.00     0.022 A 
BRANCH  84  88
ATOM     88  S   UNL A   1      45.538  28.981  38.298  1.00  0.00     0.124 S 
ATOM     89  O   UNL A   1      46.212  30.076  38.983  1.00  0.00    -0.237 OA
ATOM     90  O   UNL A   1      44.142  29.201  37.938  1.00  0.00    -0.237 OA
ATOM     91  O   UNL A   1      45.828  27.651  38.836  1.00  0.00    -0.744 OA
ENDBRANCH  84  88
ENDBRANCH  57  81
BRANCH  69  92
ATOM     92  C   UNL A   1      46.502  26.710  28.275  1.00  0.00     0.023 A 
ATOM     93  C   UNL A   1      45.639  27.800  28.061  1.00  0.00     0.031 A 
ATOM     94  C   UNL A   1      47.599  26.644  27.380  1.00  0.00     0.131 A 
ATOM     95  C   UNL A   1      45.884  28.745  27.030  1.00  0.00     0.055 A 
ATOM     96  C   UNL A   1      47.835  27.565  26.341  1.00  0.00     0.041 A 
ATOM     97  F   UNL A   1      48.499  25.668  27.478  1.00  0.00    -0.206 F 
ATOM     98  C   UNL A   1      46.975  28.632  26.167  1.00  0.00     0.022 A 
BRANCH  95  99
ATOM     99  S   UNL A   1      44.770  30.168  26.837  1.00  0.00     0.124 S 
ATOM    100  O   UNL A   1      43.539  29.544  26.365  1.00  0.00    -0.237 OA
ATOM    101  O   UNL A   1      44.737  30.724  28.185  1.00  0.00    -0.237 OA
ATOM    102  O   UNL A   1      45.450  31.006  25.848  1.00  0.00    -0.744 OA
ENDBRANCH  95  99
ENDBRANCH  69  92
ENDBRANCH  43  44
ENDBRANCH  36  38
ENDBRANCH  35  36
ENDBRANCH  34  35
ENDBRANCH  33  34
ENDBRANCH  32  33
ENDBRANCH   1  32
TORSDOF 23
ENDMDL
