MODEL 1
REMARK VINA RESULT:     -11.4      0.000      0.000
REMARK SMILES CC(C)(C)c1cc2c(cc1Cl)C=C(C(=O)OCCOCCOC(=O)c1ccc(-c3c4nc(c(-c5cc(S(=O)(=O)[O-])ccc5F)c5ccc([nH]5)c(-c5cc(S(=O)(=O)[O-])ccc5F)c5nc(c(-c6cc(S(=O)(=O)[O-])ccc6F)c6ccc3[nH]6)C=C5)C=C4)cc1)[C@@H](C(F)(F)F)O2
REMARK SMILES IDX 20 1 19 2 18 3 17 4 16 5 14 6 15 7 13 8 5 9 6 10 10 11 7 12
REMARK SMILES IDX 9 13 11 14 8 15 93 16 12 17 88 18 2 19 1 20 3 21 4 22 89 23
REMARK SMILES IDX 90 24 91 25 92 26 21 27 22 28 23 29 24 30 25 31 26 32 87 33
REMARK SMILES IDX 27 34 86 35 28 36 29 37 30 38 80 39 31 40 85 41 79 42 81 43
REMARK SMILES IDX 32 44 84 45 78 46 77 47 33 49 65 50 45 51 64 52 46 53 49 54
REMARK SMILES IDX 63 55 82 56 47 57 48 58 62 60 83 61 50 62 34 63 35 64 43 65
REMARK SMILES IDX 36 66 42 67 44 68 41 69 37 70 38 71 39 72 40 73 66 74 67 75
REMARK SMILES IDX 75 76 68 77 74 78 76 79 73 80 69 81 70 82 71 83 72 84 51 85
REMARK SMILES IDX 52 86 60 87 53 88 59 89 61 90 58 91 54 92 55 93 56 94 57 95
REMARK H PARENT 81 48 49 59
REMARK Flexibility Score: inf
ROOT
ATOM      1  C   UNL A   1      33.919  31.836  27.616  1.00  0.00     0.202 C 
ENDROOT
BRANCH   1   2
ATOM      2  O   UNL A   1      33.545  30.522  27.206  1.00  0.00    -0.374 OA
BRANCH   2   3
ATOM      3  C   UNL A   1      32.159  30.221  27.063  1.00  0.00     0.202 C 
BRANCH   3   4
ATOM      4  C   UNL A   1      31.639  29.876  25.663  1.00  0.00     0.261 C 
BRANCH   4   5
ATOM      5  O   UNL A   1      31.017  28.584  25.614  1.00  0.00    -0.460 OA
BRANCH   5   6
ATOM      6  C   UNL A   1      30.849  28.097  24.362  1.00  0.00     0.338 C 
ATOM      7  O   UNL A   1      30.109  28.537  23.497  1.00  0.00    -0.246 OA
BRANCH   6   8
ATOM      8  C   UNL A   1      31.814  27.011  24.111  1.00  0.00     0.087 C 
ATOM      9  C   UNL A   1      35.104  23.244  24.868  1.00  0.00    -0.020 A 
ATOM     10  C   UNL A   1      34.801  24.138  23.800  1.00  0.00     0.053 A 
ATOM     11  C   UNL A   1      34.204  23.259  25.954  1.00  0.00     0.045 A 
ATOM     12  C   UNL A   1      33.741  25.048  23.847  1.00  0.00     0.128 A 
ATOM     13  C   UNL A   1      33.134  24.170  25.993  1.00  0.00     0.032 A 
ATOM     14  Cl  UNL A   1      34.261  22.213  27.329  1.00  0.00    -0.084 Cl
ATOM     15  C   UNL A   1      32.922  25.081  24.962  1.00  0.00     0.019 A 
ATOM     16  O   UNL A   1      33.580  25.866  22.765  1.00  0.00    -0.475 OA
ATOM     17  C   UNL A   1      31.894  26.092  25.080  1.00  0.00     0.027 C 
ATOM     18  C   UNL A   1      32.655  26.992  22.863  1.00  0.00     0.316 C 
BRANCH   9  19
ATOM     19  C   UNL A   1      36.371  22.366  24.710  1.00  0.00    -0.012 C 
ATOM     20  C   UNL A   1      36.223  20.847  24.946  1.00  0.00     0.016 C 
ATOM     21  C   UNL A   1      37.457  22.820  25.726  1.00  0.00     0.016 C 
ATOM     22  C   UNL A   1      36.917  22.544  23.276  1.00  0.00     0.016 C 
ENDBRANCH   9  19
BRANCH  18  23
ATOM     23  C   UNL A   1      33.450  28.294  22.677  1.00  0.00     0.430 C 
ATOM     24  F   UNL A   1      34.431  28.142  21.755  1.00  0.00    -0.167 F 
ATOM     25  F   UNL A   1      32.662  29.307  22.250  1.00  0.00    -0.167 F 
ATOM     26  F   UNL A   1      34.035  28.693  23.830  1.00  0.00    -0.167 F 
ENDBRANCH  18  23
ENDBRANCH   6   8
ENDBRANCH   5   6
ENDBRANCH   4   5
ENDBRANCH   3   4
ENDBRANCH   2   3
ENDBRANCH   1   2
BRANCH   1  27
ATOM     27  C   UNL A   1      32.871  32.957  27.571  1.00  0.00     0.261 C 
BRANCH  27  28
ATOM     28  O   UNL A   1      33.449  34.271  27.627  1.00  0.00    -0.460 OA
BRANCH  28  29
ATOM     29  C   UNL A   1      33.422  34.853  28.854  1.00  0.00     0.338 C 
ATOM     30  O   UNL A   1      32.536  35.560  29.311  1.00  0.00    -0.246 OA
BRANCH  29  31
ATOM     31  C   UNL A   1      34.538  34.330  29.662  1.00  0.00     0.060 A 
ATOM     32  C   UNL A   1      34.307  33.662  30.865  1.00  0.00     0.016 A 
ATOM     33  C   UNL A   1      35.841  34.486  29.170  1.00  0.00     0.016 A 
ATOM     34  C   UNL A   1      35.390  33.125  31.565  1.00  0.00     0.010 A 
ATOM     35  C   UNL A   1      36.919  33.953  29.873  1.00  0.00     0.010 A 
ATOM     36  C   UNL A   1      36.701  33.250  31.066  1.00  0.00    -0.014 A 
BRANCH  36  37
ATOM     37  C   UNL A   1      37.820  32.514  31.703  1.00  0.00     0.031 A 
ATOM     38  C   UNL A   1      38.460  31.331  31.042  1.00  0.00     0.074 A 
ATOM     39  C   UNL A   1      38.224  32.909  32.926  1.00  0.00     0.049 A 
ATOM     40  N   UNL A   1      39.466  30.607  31.461  1.00  0.00    -0.248 NA
ATOM     41  C   UNL A   1      37.900  30.898  29.754  1.00  0.00     0.031 C 
ATOM     42  C   UNL A   1      37.634  34.020  33.674  1.00  0.00     0.029 A 
ATOM     43  N   UNL A   1      39.208  32.432  33.755  1.00  0.00    -0.354 N 
ATOM     44  C   UNL A   1      39.674  29.642  30.483  1.00  0.00     0.074 A 
ATOM     45  C   UNL A   1      38.657  29.843  29.474  1.00  0.00     0.031 C 
ATOM     46  C   UNL A   1      38.282  34.156  34.839  1.00  0.00     0.029 A 
ATOM     47  C   UNL A   1      39.304  33.115  34.945  1.00  0.00     0.049 A 
ATOM     48  H   UNL A   1      39.789  31.672  33.521  1.00  0.00     0.167 HD
ATOM     49  C   UNL A   1      40.641  28.695  30.434  1.00  0.00     0.034 A 
ATOM     50  C   UNL A   1      40.116  32.928  36.007  1.00  0.00     0.034 A 
ATOM     51  C   UNL A   1      41.638  28.510  31.461  1.00  0.00     0.049 A 
ATOM     52  C   UNL A   1      41.160  31.844  35.941  1.00  0.00     0.074 A 
ATOM     53  C   UNL A   1      42.690  27.611  31.473  1.00  0.00     0.029 A 
ATOM     54  N   UNL A   1      41.705  29.214  32.655  1.00  0.00    -0.354 N 
ATOM     55  N   UNL A   1      41.420  31.012  34.959  1.00  0.00    -0.248 NA
ATOM     56  C   UNL A   1      42.033  31.676  37.111  1.00  0.00     0.031 C 
ATOM     57  C   UNL A   1      43.336  27.710  32.703  1.00  0.00     0.029 A 
ATOM     58  C   UNL A   1      42.755  28.740  33.425  1.00  0.00     0.049 A 
ATOM     59  H   UNL A   1      41.096  29.943  32.916  1.00  0.00     0.167 HD
ATOM     60  C   UNL A   1      42.502  30.244  35.380  1.00  0.00     0.074 A 
ATOM     61  C   UNL A   1      42.862  30.724  36.697  1.00  0.00     0.031 C 
ATOM     62  C   UNL A   1      43.133  29.234  34.730  1.00  0.00     0.034 A 
BRANCH  49  63
ATOM     63  C   UNL A   1      40.714  27.784  29.230  1.00  0.00     0.023 A 
ATOM     64  C   UNL A   1      41.631  28.054  28.196  1.00  0.00     0.031 A 
ATOM     65  C   UNL A   1      39.765  26.765  29.027  1.00  0.00     0.131 A 
ATOM     66  C   UNL A   1      41.545  27.350  26.987  1.00  0.00     0.055 A 
ATOM     67  C   UNL A   1      39.718  26.033  27.840  1.00  0.00     0.041 A 
ATOM     68  F   UNL A   1      38.863  26.474  29.978  1.00  0.00    -0.206 F 
ATOM     69  C   UNL A   1      40.599  26.336  26.807  1.00  0.00     0.022 A 
BRANCH  66  70
ATOM     70  S   UNL A   1      42.596  27.783  25.573  1.00  0.00     0.124 S 
ATOM     71  O   UNL A   1      41.949  28.996  25.079  1.00  0.00    -0.237 OA
ATOM     72  O   UNL A   1      43.895  27.984  26.209  1.00  0.00    -0.237 OA
ATOM     73  O   UNL A   1      42.496  26.623  24.693  1.00  0.00    -0.744 OA
ENDBRANCH  66  70
ENDBRANCH  49  63
BRANCH  50  74
ATOM     74  C   UNL A   1      39.994  33.844  37.179  1.00  0.00     0.023 A 
ATOM     75  C   UNL A   1      40.843  34.959  37.313  1.00  0.00     0.031 A 
ATOM     76  C   UNL A   1      39.121  33.549  38.239  1.00  0.00     0.131 A 
ATOM     77  C   UNL A   1      40.855  35.686  38.510  1.00  0.00     0.055 A 
ATOM     78  C   UNL A   1      39.079  34.327  39.398  1.00  0.00     0.041 A 
ATOM     79  F   UNL A   1      38.304  32.486  38.166  1.00  0.00    -0.206 F 
ATOM     80  C   UNL A   1      39.965  35.390  39.545  1.00  0.00     0.022 A 
BRANCH  77  81
ATOM     81  S   UNL A   1      42.127  36.943  38.819  1.00  0.00     0.124 S 
ATOM     82  O   UNL A   1      42.702  37.128  37.491  1.00  0.00    -0.237 OA
ATOM     83  O   UNL A   1      41.327  38.057  39.323  1.00  0.00    -0.237 OA
ATOM     84  O   UNL A   1      43.001  36.314  39.804  1.00  0.00    -0.744 OA
ENDBRANCH  77  81
ENDBRANCH  50  74
BRANCH  62  85
ATOM     85  C   UNL A   1      44.308  28.553  35.396  1.00  0.00     0.023 A 
ATOM     86  C   UNL A   1      44.079  27.514  36.320  1.00  0.00     0.031 A 
ATOM     87  C   UNL A   1      45.616  29.052  35.269  1.00  0.00     0.131 A 
ATOM     88  C   UNL A   1      45.126  27.055  37.128  1.00  0.00     0.055 A 
ATOM     89  C   UNL A   1      46.668  28.548  36.035  1.00  0.00     0.041 A 
ATOM     90  F   UNL A   1      45.886  30.049  34.411  1.00  0.00    -0.206 F 
ATOM     91  C   UNL A   1      46.422  27.560  36.985  1.00  0.00     0.022 A 
BRANCH  88  92
ATOM     92  S   UNL A   1      44.821  25.874  38.472  1.00  0.00     0.124 S 
ATOM     93  O   UNL A   1      43.948  24.897  37.824  1.00  0.00    -0.237 OA
ATOM     94  O   UNL A   1      46.169  25.400  38.775  1.00  0.00    -0.237 OA
ATOM     95  O   UNL A   1      44.187  26.677  39.512  1.00  0.00    -0.744 OA
ENDBRANCH  88  92
ENDBRANCH  62  85
ENDBRANCH  36  37
ENDBRANCH  29  31
ENDBRANCH  28  29
ENDBRANCH  27  28
ENDBRANCH   1  27
TORSDOF 19
ENDMDL
MODEL 2
REMARK VINA RESULT:     -11.3      2.227      3.032
REMARK SMILES CC(C)(C)c1cc2c(cc1Cl)C=C(C(=O)OCCOCCOC(=O)c1ccc(-c3c4nc(c(-c5cc(S(=O)(=O)[O-])ccc5F)c5ccc([nH]5)c(-c5cc(S(=O)(=O)[O-])ccc5F)c5nc(c(-c6cc(S(=O)(=O)[O-])ccc6F)c6ccc3[nH]6)C=C5)C=C4)cc1)[C@@H](C(F)(F)F)O2
REMARK SMILES IDX 20 1 19 2 18 3 17 4 16 5 14 6 15 7 13 8 5 9 6 10 10 11 7 12
REMARK SMILES IDX 9 13 11 14 8 15 93 16 12 17 88 18 2 19 1 20 3 21 4 22 89 23
REMARK SMILES IDX 90 24 91 25 92 26 21 27 22 28 23 29 24 30 25 31 26 32 87 33
REMARK SMILES IDX 27 34 86 35 28 36 29 37 30 38 80 39 31 40 85 41 79 42 81 43
REMARK SMILES IDX 32 44 84 45 78 46 77 47 33 49 65 50 45 51 64 52 46 53 49 54
REMARK SMILES IDX 63 55 82 56 47 57 48 58 62 60 83 61 50 62 34 63 35 64 43 65
REMARK SMILES IDX 36 66 42 67 44 68 41 69 37 70 38 71 39 72 40 73 66 74 67 75
REMARK SMILES IDX 75 76 68 77 74 78 76 79 73 80 69 81 70 82 71 83 72 84 51 85
REMARK SMILES IDX 52 86 60 87 53 88 59 89 61 90 58 91 54 92 55 93 56 94 57 95
REMARK H PARENT 81 48 49 59
REMARK Flexibility Score: inf
ROOT
ATOM      1  C   UNL A   1      30.749  30.934  25.088  1.00  0.00     0.202 C 
ENDROOT
BRANCH   1   2
ATOM      2  O   UNL A   1      29.660  31.127  24.186  1.00  0.00    -0.374 OA
BRANCH   2   3
ATOM      3  C   UNL A   1      29.135  29.993  23.500  1.00  0.00     0.202 C 
BRANCH   3   4
ATOM      4  C   UNL A   1      30.019  29.319  22.444  1.00  0.00     0.261 C 
BRANCH   4   5
ATOM      5  O   UNL A   1      30.791  28.238  22.987  1.00  0.00    -0.460 OA
BRANCH   5   6
ATOM      6  C   UNL A   1      32.120  28.333  22.750  1.00  0.00     0.338 C 
ATOM      7  O   UNL A   1      32.719  29.298  22.303  1.00  0.00    -0.246 OA
BRANCH   6   8
ATOM      8  C   UNL A   1      32.808  27.130  23.253  1.00  0.00     0.087 C 
ATOM      9  C   UNL A   1      33.762  22.329  24.530  1.00  0.00    -0.020 A 
ATOM     10  C   UNL A   1      34.295  23.604  24.876  1.00  0.00     0.053 A 
ATOM     11  C   UNL A   1      32.842  22.319  23.462  1.00  0.00     0.045 A 
ATOM     12  C   UNL A   1      33.875  24.794  24.274  1.00  0.00     0.128 A 
ATOM     13  C   UNL A   1      32.428  23.517  22.853  1.00  0.00     0.032 A 
ATOM     14  Cl  UNL A   1      32.121  20.913  22.760  1.00  0.00    -0.084 Cl
ATOM     15  C   UNL A   1      32.916  24.750  23.277  1.00  0.00     0.019 A 
ATOM     16  O   UNL A   1      34.449  25.950  24.721  1.00  0.00    -0.475 OA
ATOM     17  C   UNL A   1      32.384  25.976  22.724  1.00  0.00     0.027 C 
ATOM     18  C   UNL A   1      33.875  27.229  24.307  1.00  0.00     0.316 C 
BRANCH   9  19
ATOM     19  C   UNL A   1      34.255  21.115  25.357  1.00  0.00    -0.012 C 
ATOM     20  C   UNL A   1      34.332  19.747  24.643  1.00  0.00     0.016 C 
ATOM     21  C   UNL A   1      33.305  20.878  26.564  1.00  0.00     0.016 C 
ATOM     22  C   UNL A   1      35.673  21.424  25.886  1.00  0.00     0.016 C 
ENDBRANCH   9  19
BRANCH  18  23
ATOM     23  C   UNL A   1      33.388  27.972  25.562  1.00  0.00     0.430 C 
ATOM     24  F   UNL A   1      32.092  27.686  25.828  1.00  0.00    -0.167 F 
ATOM     25  F   UNL A   1      34.101  27.627  26.658  1.00  0.00    -0.167 F 
ATOM     26  F   UNL A   1      33.487  29.314  25.418  1.00  0.00    -0.167 F 
ENDBRANCH  18  23
ENDBRANCH   6   8
ENDBRANCH   5   6
ENDBRANCH   4   5
ENDBRANCH   3   4
ENDBRANCH   2   3
ENDBRANCH   1   2
BRANCH   1  27
ATOM     27  C   UNL A   1      31.049  32.015  26.135  1.00  0.00     0.261 C 
BRANCH  27  28
ATOM     28  O   UNL A   1      32.134  31.667  27.010  1.00  0.00    -0.460 OA
BRANCH  28  29
ATOM     29  C   UNL A   1      32.874  32.719  27.444  1.00  0.00     0.338 C 
ATOM     30  O   UNL A   1      32.492  33.868  27.606  1.00  0.00    -0.246 OA
BRANCH  29  31
ATOM     31  C   UNL A   1      34.185  32.229  27.909  1.00  0.00     0.060 A 
ATOM     32  C   UNL A   1      35.244  33.108  28.138  1.00  0.00     0.016 A 
ATOM     33  C   UNL A   1      34.329  30.856  28.153  1.00  0.00     0.016 A 
ATOM     34  C   UNL A   1      36.447  32.607  28.641  1.00  0.00     0.010 A 
ATOM     35  C   UNL A   1      35.533  30.360  28.650  1.00  0.00     0.010 A 
ATOM     36  C   UNL A   1      36.595  31.235  28.919  1.00  0.00    -0.014 A 
BRANCH  36  37
ATOM     37  C   UNL A   1      37.796  30.738  29.633  1.00  0.00     0.031 A 
ATOM     38  C   UNL A   1      38.734  29.755  29.002  1.00  0.00     0.074 A 
ATOM     39  C   UNL A   1      38.003  31.159  30.896  1.00  0.00     0.049 A 
ATOM     40  N   UNL A   1      39.840  29.253  29.489  1.00  0.00    -0.248 NA
ATOM     41  C   UNL A   1      38.390  29.264  27.660  1.00  0.00     0.031 C 
ATOM     42  C   UNL A   1      37.122  32.080  31.617  1.00  0.00     0.029 A 
ATOM     43  N   UNL A   1      38.999  30.875  31.796  1.00  0.00    -0.354 N 
ATOM     44  C   UNL A   1      40.335  28.401  28.510  1.00  0.00     0.074 A 
ATOM     45  C   UNL A   1      39.382  28.416  27.421  1.00  0.00     0.031 C 
ATOM     46  C   UNL A   1      37.629  32.305  32.836  1.00  0.00     0.029 A 
ATOM     47  C   UNL A   1      38.846  31.512  33.006  1.00  0.00     0.049 A 
ATOM     48  H   UNL A   1      39.752  30.273  31.595  1.00  0.00     0.167 HD
ATOM     49  C   UNL A   1      41.490  27.692  28.522  1.00  0.00     0.034 A 
ATOM     50  C   UNL A   1      39.591  31.462  34.130  1.00  0.00     0.034 A 
ATOM     51  C   UNL A   1      42.418  27.687  29.627  1.00  0.00     0.049 A 
ATOM     52  C   UNL A   1      40.853  30.639  34.128  1.00  0.00     0.074 A 
ATOM     53  C   UNL A   1      43.640  27.043  29.710  1.00  0.00     0.029 A 
ATOM     54  N   UNL A   1      42.231  28.338  30.840  1.00  0.00    -0.354 N 
ATOM     55  N   UNL A   1      41.369  29.928  33.153  1.00  0.00    -0.248 NA
ATOM     56  C   UNL A   1      41.646  30.617  35.365  1.00  0.00     0.031 C 
ATOM     57  C   UNL A   1      44.147  27.229  30.994  1.00  0.00     0.029 A 
ATOM     58  C   UNL A   1      43.296  28.074  31.687  1.00  0.00     0.049 A 
ATOM     59  H   UNL A   1      41.456  28.902  31.064  1.00  0.00     0.167 HD
ATOM     60  C   UNL A   1      42.559  29.400  33.648  1.00  0.00     0.074 A 
ATOM     61  C   UNL A   1      42.696  29.891  35.003  1.00  0.00     0.031 C 
ATOM     62  C   UNL A   1      43.448  28.583  33.031  1.00  0.00     0.034 A 
BRANCH  49  63
ATOM     63  C   UNL A   1      41.860  26.872  27.308  1.00  0.00     0.023 A 
ATOM     64  C   UNL A   1      41.660  25.478  27.311  1.00  0.00     0.031 A 
ATOM     65  C   UNL A   1      42.566  27.438  26.232  1.00  0.00     0.131 A 
ATOM     66  C   UNL A   1      42.206  24.693  26.287  1.00  0.00     0.055 A 
ATOM     67  C   UNL A   1      43.064  26.657  25.188  1.00  0.00     0.041 A 
ATOM     68  F   UNL A   1      42.792  28.762  26.185  1.00  0.00    -0.206 F 
ATOM     69  C   UNL A   1      42.899  25.276  25.222  1.00  0.00     0.022 A 
BRANCH  66  70
ATOM     70  S   UNL A   1      42.116  22.882  26.343  1.00  0.00     0.124 S 
ATOM     71  O   UNL A   1      40.695  22.660  26.599  1.00  0.00    -0.237 OA
ATOM     72  O   UNL A   1      42.573  22.513  25.006  1.00  0.00    -0.237 OA
ATOM     73  O   UNL A   1      43.009  22.520  27.439  1.00  0.00    -0.744 OA
ENDBRANCH  66  70
ENDBRANCH  49  63
BRANCH  50  74
ATOM     74  C   UNL A   1      39.176  32.278  35.309  1.00  0.00     0.023 A 
ATOM     75  C   UNL A   1      39.648  33.593  35.478  1.00  0.00     0.031 A 
ATOM     76  C   UNL A   1      38.407  31.715  36.341  1.00  0.00     0.131 A 
ATOM     77  C   UNL A   1      39.416  34.267  36.683  1.00  0.00     0.055 A 
ATOM     78  C   UNL A   1      38.109  32.423  37.507  1.00  0.00     0.041 A 
ATOM     79  F   UNL A   1      37.947  30.459  36.235  1.00  0.00    -0.206 F 
ATOM     80  C   UNL A   1      38.633  33.699  37.691  1.00  0.00     0.022 A 
BRANCH  77  81
ATOM     81  S   UNL A   1      40.247  35.840  37.040  1.00  0.00     0.124 S 
ATOM     82  O   UNL A   1      39.648  36.733  36.053  1.00  0.00    -0.237 OA
ATOM     83  O   UNL A   1      39.853  36.075  38.427  1.00  0.00    -0.237 OA
ATOM     84  O   UNL A   1      41.660  35.537  36.842  1.00  0.00    -0.744 OA
ENDBRANCH  77  81
ENDBRANCH  50  74
BRANCH  62  85
ATOM     85  C   UNL A   1      44.689  28.149  33.780  1.00  0.00     0.023 A 
ATOM     86  C   UNL A   1      44.665  26.963  34.540  1.00  0.00     0.031 A 
ATOM     87  C   UNL A   1      45.808  28.992  33.900  1.00  0.00     0.131 A 
ATOM     88  C   UNL A   1      45.706  26.686  35.436  1.00  0.00     0.055 A 
ATOM     89  C   UNL A   1      46.871  28.680  34.750  1.00  0.00     0.041 A 
ATOM     90  F   UNL A   1      45.876  30.139  33.206  1.00  0.00    -0.206 F 
ATOM     91  C   UNL A   1      46.813  27.534  35.538  1.00  0.00     0.022 A 
BRANCH  88  92
ATOM     92  S   UNL A   1      45.605  25.283  36.582  1.00  0.00     0.124 S 
ATOM     93  O   UNL A   1      44.161  25.132  36.749  1.00  0.00    -0.237 OA
ATOM     94  O   UNL A   1      46.258  24.220  35.823  1.00  0.00    -0.237 OA
ATOM     95  O   UNL A   1      46.321  25.742  37.768  1.00  0.00    -0.744 OA
ENDBRANCH  88  92
ENDBRANCH  62  85
ENDBRANCH  36  37
ENDBRANCH  29  31
ENDBRANCH  28  29
ENDBRANCH  27  28
ENDBRANCH   1  27
TORSDOF 19
ENDMDL
MODEL 3
REMARK VINA RESULT:     -11.2      2.723      8.141
REMARK SMILES CC(C)(C)c1cc2c(cc1Cl)C=C(C(=O)OCCOCCOC(=O)c1ccc(-c3c4nc(c(-c5cc(S(=O)(=O)[O-])ccc5F)c5ccc([nH]5)c(-c5cc(S(=O)(=O)[O-])ccc5F)c5nc(c(-c6cc(S(=O)(=O)[O-])ccc6F)c6ccc3[nH]6)C=C5)C=C4)cc1)[C@@H](C(F)(F)F)O2
REMARK SMILES IDX 20 1 19 2 18 3 17 4 16 5 14 6 15 7 13 8 5 9 6 10 10 11 7 12
REMARK SMILES IDX 9 13 11 14 8 15 93 16 12 17 88 18 2 19 1 20 3 21 4 22 89 23
REMARK SMILES IDX 90 24 91 25 92 26 21 27 22 28 23 29 24 30 25 31 26 32 87 33
REMARK SMILES IDX 27 34 86 35 28 36 29 37 30 38 80 39 31 40 85 41 79 42 81 43
REMARK SMILES IDX 32 44 84 45 78 46 77 47 33 49 65 50 45 51 64 52 46 53 49 54
REMARK SMILES IDX 63 55 82 56 47 57 48 58 62 60 83 61 50 62 34 63 35 64 43 65
REMARK SMILES IDX 36 66 42 67 44 68 41 69 37 70 38 71 39 72 40 73 66 74 67 75
REMARK SMILES IDX 75 76 68 77 74 78 76 79 73 80 69 81 70 82 71 83 72 84 51 85
REMARK SMILES IDX 52 86 60 87 53 88 59 89 61 90 58 91 54 92 55 93 56 94 57 95
REMARK H PARENT 81 48 49 59
REMARK Flexibility Score: inf
ROOT
ATOM      1  C   UNL A   1      31.722  30.076  24.825  1.00  0.00     0.202 C 
ENDROOT
BRANCH   1   2
ATOM      2  O   UNL A   1      30.660  29.626  23.984  1.00  0.00    -0.374 OA
BRANCH   2   3
ATOM      3  C   UNL A   1      30.506  28.225  23.772  1.00  0.00     0.202 C 
BRANCH   3   4
ATOM      4  C   UNL A   1      31.593  27.292  24.314  1.00  0.00     0.261 C 
BRANCH   4   5
ATOM      5  O   UNL A   1      31.767  26.123  23.501  1.00  0.00    -0.460 OA
BRANCH   5   6
ATOM      6  C   UNL A   1      30.973  25.083  23.849  1.00  0.00     0.338 C 
ATOM      7  O   UNL A   1      29.754  25.074  23.897  1.00  0.00    -0.246 OA
BRANCH   6   8
ATOM      8  C   UNL A   1      31.788  23.868  24.033  1.00  0.00     0.087 C 
ATOM      9  C   UNL A   1      33.325  19.051  23.876  1.00  0.00    -0.020 A 
ATOM     10  C   UNL A   1      33.643  20.201  24.655  1.00  0.00     0.053 A 
ATOM     11  C   UNL A   1      32.496  19.278  22.758  1.00  0.00     0.045 A 
ATOM     12  C   UNL A   1      33.101  21.465  24.403  1.00  0.00     0.128 A 
ATOM     13  C   UNL A   1      31.960  20.553  22.503  1.00  0.00     0.032 A 
ATOM     14  Cl  UNL A   1      32.037  18.098  21.581  1.00  0.00    -0.084 Cl
ATOM     15  C   UNL A   1      32.234  21.633  23.338  1.00  0.00     0.019 A 
ATOM     16  O   UNL A   1      33.470  22.475  25.245  1.00  0.00    -0.475 OA
ATOM     17  C   UNL A   1      31.574  22.903  23.131  1.00  0.00     0.027 C 
ATOM     18  C   UNL A   1      32.751  23.745  25.182  1.00  0.00     0.316 C 
BRANCH   9  19
ATOM     19  C   UNL A   1      33.925  17.701  24.341  1.00  0.00    -0.012 C 
ATOM     20  C   UNL A   1      33.984  16.551  23.311  1.00  0.00     0.016 C 
ATOM     21  C   UNL A   1      33.090  17.131  25.521  1.00  0.00     0.016 C 
ATOM     22  C   UNL A   1      35.373  17.945  24.820  1.00  0.00     0.016 C 
ENDBRANCH   9  19
BRANCH  18  23
ATOM     23  C   UNL A   1      32.072  23.989  26.539  1.00  0.00     0.430 C 
ATOM     24  F   UNL A   1      32.098  25.301  26.872  1.00  0.00    -0.167 F 
ATOM     25  F   UNL A   1      30.773  23.612  26.526  1.00  0.00    -0.167 F 
ATOM     26  F   UNL A   1      32.684  23.305  27.534  1.00  0.00    -0.167 F 
ENDBRANCH  18  23
ENDBRANCH   6   8
ENDBRANCH   5   6
ENDBRANCH   4   5
ENDBRANCH   3   4
ENDBRANCH   2   3
ENDBRANCH   1   2
BRANCH   1  27
ATOM     27  C   UNL A   1      31.396  30.998  26.007  1.00  0.00     0.261 C 
BRANCH  27  28
ATOM     28  O   UNL A   1      32.339  30.888  27.085  1.00  0.00    -0.460 OA
BRANCH  28  29
ATOM     29  C   UNL A   1      33.090  31.999  27.300  1.00  0.00     0.338 C 
ATOM     30  O   UNL A   1      32.714  33.160  27.248  1.00  0.00    -0.246 OA
BRANCH  29  31
ATOM     31  C   UNL A   1      34.407  31.598  27.827  1.00  0.00     0.060 A 
ATOM     32  C   UNL A   1      35.400  32.544  28.083  1.00  0.00     0.016 A 
ATOM     33  C   UNL A   1      34.624  30.241  28.104  1.00  0.00     0.016 A 
ATOM     34  C   UNL A   1      36.610  32.127  28.644  1.00  0.00     0.010 A 
ATOM     35  C   UNL A   1      35.833  29.828  28.658  1.00  0.00     0.010 A 
ATOM     36  C   UNL A   1      36.828  30.771  28.954  1.00  0.00    -0.014 A 
BRANCH  36  37
ATOM     37  C   UNL A   1      38.026  30.360  29.726  1.00  0.00     0.031 A 
ATOM     38  C   UNL A   1      38.290  30.884  31.104  1.00  0.00     0.074 A 
ATOM     39  C   UNL A   1      38.909  29.531  29.135  1.00  0.00     0.049 A 
ATOM     40  N   UNL A   1      39.276  30.594  31.914  1.00  0.00    -0.248 NA
ATOM     41  C   UNL A   1      37.335  31.862  31.645  1.00  0.00     0.031 C 
ATOM     42  C   UNL A   1      38.766  29.002  27.777  1.00  0.00     0.029 A 
ATOM     43  N   UNL A   1      40.088  28.993  29.582  1.00  0.00    -0.354 N 
ATOM     44  C   UNL A   1      39.055  31.338  33.066  1.00  0.00     0.074 A 
ATOM     45  C   UNL A   1      37.868  32.131  32.831  1.00  0.00     0.031 C 
ATOM     46  C   UNL A   1      39.803  28.196  27.512  1.00  0.00     0.029 A 
ATOM     47  C   UNL A   1      40.710  28.184  28.659  1.00  0.00     0.049 A 
ATOM     48  H   UNL A   1      40.456  29.168  30.478  1.00  0.00     0.167 HD
ATOM     49  C   UNL A   1      39.773  31.335  34.215  1.00  0.00     0.034 A 
ATOM     50  C   UNL A   1      41.878  27.511  28.719  1.00  0.00     0.034 A 
ATOM     51  C   UNL A   1      40.961  30.541  34.419  1.00  0.00     0.049 A 
ATOM     52  C   UNL A   1      42.675  27.553  29.998  1.00  0.00     0.074 A 
ATOM     53  C   UNL A   1      41.724  30.432  35.568  1.00  0.00     0.029 A 
ATOM     54  N   UNL A   1      41.567  29.737  33.463  1.00  0.00    -0.354 N 
ATOM     55  N   UNL A   1      42.394  28.171  31.121  1.00  0.00    -0.248 NA
ATOM     56  C   UNL A   1      43.936  26.800  30.031  1.00  0.00     0.031 C 
ATOM     57  C   UNL A   1      42.833  29.638  35.282  1.00  0.00     0.029 A 
ATOM     58  C   UNL A   1      42.715  29.164  33.986  1.00  0.00     0.049 A 
ATOM     59  H   UNL A   1      41.230  29.596  32.548  1.00  0.00     0.167 HD
ATOM     60  C   UNL A   1      43.425  27.857  32.002  1.00  0.00     0.074 A 
ATOM     61  C   UNL A   1      44.326  26.978  31.288  1.00  0.00     0.031 C 
ATOM     62  C   UNL A   1      43.603  28.266  33.283  1.00  0.00     0.034 A 
BRANCH  49  63
ATOM     63  C   UNL A   1      39.306  32.187  35.373  1.00  0.00     0.023 A 
ATOM     64  C   UNL A   1      39.764  33.513  35.503  1.00  0.00     0.031 A 
ATOM     65  C   UNL A   1      38.560  31.636  36.430  1.00  0.00     0.131 A 
ATOM     66  C   UNL A   1      39.515  34.223  36.684  1.00  0.00     0.055 A 
ATOM     67  C   UNL A   1      38.273  32.366  37.584  1.00  0.00     0.041 A 
ATOM     68  F   UNL A   1      38.108  30.373  36.360  1.00  0.00    -0.206 F 
ATOM     69  C   UNL A   1      38.766  33.660  37.722  1.00  0.00     0.022 A 
BRANCH  66  70
ATOM     70  S   UNL A   1      40.230  35.868  36.959  1.00  0.00     0.124 S 
ATOM     71  O   UNL A   1      41.662  35.582  36.924  1.00  0.00    -0.237 OA
ATOM     72  O   UNL A   1      39.717  36.618  35.815  1.00  0.00    -0.237 OA
ATOM     73  O   UNL A   1      39.707  36.266  38.262  1.00  0.00    -0.744 OA
ENDBRANCH  66  70
ENDBRANCH  49  63
BRANCH  50  74
ATOM     74  C   UNL A   1      42.305  26.697  27.543  1.00  0.00     0.023 A 
ATOM     75  C   UNL A   1      41.884  25.361  27.401  1.00  0.00     0.031 A 
ATOM     76  C   UNL A   1      43.233  27.198  26.617  1.00  0.00     0.131 A 
ATOM     77  C   UNL A   1      42.453  24.553  26.409  1.00  0.00     0.055 A 
ATOM     78  C   UNL A   1      43.736  26.411  25.579  1.00  0.00     0.041 A 
ATOM     79  F   UNL A   1      43.678  28.460  26.719  1.00  0.00    -0.206 F 
ATOM     80  C   UNL A   1      43.361  25.074  25.484  1.00  0.00     0.022 A 
BRANCH  77  81
ATOM     81  S   UNL A   1      42.146  22.765  26.381  1.00  0.00     0.124 S 
ATOM     82  O   UNL A   1      40.688  22.705  26.372  1.00  0.00    -0.237 OA
ATOM     83  O   UNL A   1      42.803  22.371  25.137  1.00  0.00    -0.237 OA
ATOM     84  O   UNL A   1      42.790  22.285  27.599  1.00  0.00    -0.744 OA
ENDBRANCH  77  81
ENDBRANCH  50  74
BRANCH  62  85
ATOM     85  C   UNL A   1      44.810  27.774  34.050  1.00  0.00     0.023 A 
ATOM     86  C   UNL A   1      44.679  26.680  34.929  1.00  0.00     0.031 A 
ATOM     87  C   UNL A   1      46.018  28.492  34.062  1.00  0.00     0.131 A 
ATOM     88  C   UNL A   1      45.709  26.380  35.829  1.00  0.00     0.055 A 
ATOM     89  C   UNL A   1      47.065  28.150  34.919  1.00  0.00     0.041 A 
ATOM     90  F   UNL A   1      46.191  29.549  33.252  1.00  0.00    -0.206 F 
ATOM     91  C   UNL A   1      46.905  27.103  35.823  1.00  0.00     0.022 A 
BRANCH  88  92
ATOM     92  S   UNL A   1      45.488  25.119  37.115  1.00  0.00     0.124 S 
ATOM     93  O   UNL A   1      46.452  25.545  38.127  1.00  0.00    -0.237 OA
ATOM     94  O   UNL A   1      44.085  25.295  37.479  1.00  0.00    -0.237 OA
ATOM     95  O   UNL A   1      45.811  23.865  36.441  1.00  0.00    -0.744 OA
ENDBRANCH  88  92
ENDBRANCH  62  85
ENDBRANCH  36  37
ENDBRANCH  29  31
ENDBRANCH  28  29
ENDBRANCH  27  28
ENDBRANCH   1  27
TORSDOF 19
ENDMDL
