MODEL 1
REMARK VINA RESULT:     -12.2      0.000      0.000
REMARK SMILES Cc1nc(-c2ccccc2Cl)nc2sc(C(=O)OCCOCCOC(=O)c3ccc(-c4c5nc(c(-c6cc(S(=O)(=O)[O-])ccc6F)c6ccc([nH]6)c(-c6cc(S(=O)(=O)[O-])ccc6F)c6nc(c(-c7cc(S(=O)(=O)[O-])ccc7F)c7ccc4[nH]7)C=C6)C=C5)cc3)c(N)c12
REMARK SMILES IDX 22 1 21 2 20 3 19 4 18 5 16 6 17 7 15 8 1 9 2 10 3 11 92 12
REMARK SMILES IDX 4 13 13 14 90 15 12 16 14 17 5 18 6 19 10 20 7 21 9 22 11 23
REMARK SMILES IDX 8 24 91 25 23 28 24 29 25 30 26 31 27 32 28 33 89 34 29 35
REMARK SMILES IDX 88 36 30 37 31 38 32 39 82 40 33 41 87 42 81 43 83 44 34 45
REMARK SMILES IDX 86 46 80 47 79 48 35 50 67 51 47 52 66 53 48 54 51 55 65 56
REMARK SMILES IDX 84 57 49 58 50 59 64 61 85 62 52 63 36 64 37 65 45 66 38 67
REMARK SMILES IDX 44 68 46 69 43 70 39 71 40 72 41 73 42 74 68 75 69 76 77 77
REMARK SMILES IDX 70 78 76 79 78 80 75 81 71 82 72 83 73 84 74 85 53 86 54 87
REMARK SMILES IDX 62 88 55 89 61 90 63 91 60 92 56 93 57 94 58 95 59 96
REMARK H PARENT 91 26 91 27 83 49 51 60
REMARK Flexibility Score: inf
ROOT
ATOM      1  C   UNL A   1      33.653  30.057  27.250  1.00  0.00     0.202 C 
ENDROOT
BRANCH   1   2
ATOM      2  O   UNL A   1      32.675  29.809  26.244  1.00  0.00    -0.374 OA
BRANCH   2   3
ATOM      3  C   UNL A   1      33.098  29.351  24.960  1.00  0.00     0.202 C 
BRANCH   3   4
ATOM      4  C   UNL A   1      32.861  27.874  24.648  1.00  0.00     0.261 C 
BRANCH   4   5
ATOM      5  O   UNL A   1      32.375  27.679  23.313  1.00  0.00    -0.459 OA
BRANCH   5   6
ATOM      6  C   UNL A   1      31.148  27.089  23.197  1.00  0.00     0.350 C 
ATOM      7  O   UNL A   1      30.148  27.646  22.767  1.00  0.00    -0.245 OA
BRANCH   6   8
ATOM      8  C   UNL A   1      31.226  25.678  23.528  1.00  0.00     0.138 A 
ATOM      9  C   UNL A   1      30.043  22.679  26.888  1.00  0.00     0.067 C 
ATOM     10  C   UNL A   1      30.856  22.595  25.630  1.00  0.00     0.052 A 
ATOM     11  N   UNL A   1      31.486  21.400  25.419  1.00  0.00    -0.233 NA
ATOM     12  C   UNL A   1      31.049  23.638  24.696  1.00  0.00     0.057 A 
ATOM     13  C   UNL A   1      32.248  21.236  24.324  1.00  0.00     0.162 A 
ATOM     14  C   UNL A   1      31.880  23.327  23.631  1.00  0.00     0.130 A 
ATOM     15  C   UNL A   1      30.609  25.007  24.573  1.00  0.00     0.069 A 
ATOM     16  N   UNL A   1      32.489  22.162  23.396  1.00  0.00    -0.217 NA
ATOM     17  S   UNL A   1      32.155  24.617  22.571  1.00  0.00    -0.106 S 
BRANCH  13  18
ATOM     18  C   UNL A   1      33.029  20.007  24.174  1.00  0.00     0.038 A 
ATOM     19  C   UNL A   1      32.430  18.914  23.505  1.00  0.00     0.013 A 
ATOM     20  C   UNL A   1      34.305  19.815  24.724  1.00  0.00     0.052 A 
ATOM     21  C   UNL A   1      33.063  17.675  23.406  1.00  0.00     0.001 A 
ATOM     22  C   UNL A   1      34.940  18.568  24.626  1.00  0.00     0.021 A 
ATOM     23  Cl  UNL A   1      35.133  21.055  25.601  1.00  0.00    -0.084 Cl
ATOM     24  C   UNL A   1      34.318  17.502  23.975  1.00  0.00     0.002 A 
ENDBRANCH  13  18
BRANCH  15  25
ATOM     25  N   UNL A   1      29.708  25.606  25.384  1.00  0.00    -0.397 N 
ATOM     26  H   UNL A   1      28.890  26.001  25.004  1.00  0.00     0.156 HD
ATOM     27  H   UNL A   1      29.870  25.648  26.355  1.00  0.00     0.156 HD
ENDBRANCH  15  25
ENDBRANCH   6   8
ENDBRANCH   5   6
ENDBRANCH   4   5
ENDBRANCH   3   4
ENDBRANCH   2   3
ENDBRANCH   1   2
BRANCH   1  28
ATOM     28  C   UNL A   1      33.960  31.496  27.627  1.00  0.00     0.261 C 
BRANCH  28  29
ATOM     29  O   UNL A   1      35.312  31.673  28.019  1.00  0.00    -0.460 OA
BRANCH  29  30
ATOM     30  C   UNL A   1      35.456  31.982  29.332  1.00  0.00     0.338 C 
ATOM     31  O   UNL A   1      34.930  32.903  29.927  1.00  0.00    -0.246 OA
BRANCH  30  32
ATOM     32  C   UNL A   1      36.516  31.132  29.885  1.00  0.00     0.060 A 
ATOM     33  C   UNL A   1      37.747  31.745  30.113  1.00  0.00     0.016 A 
ATOM     34  C   UNL A   1      36.367  29.736  29.880  1.00  0.00     0.016 A 
ATOM     35  C   UNL A   1      38.873  30.951  30.123  1.00  0.00     0.010 A 
ATOM     36  C   UNL A   1      37.493  28.949  29.871  1.00  0.00     0.010 A 
ATOM     37  C   UNL A   1      38.736  29.571  29.908  1.00  0.00    -0.014 A 
BRANCH  37  38
ATOM     38  C   UNL A   1      39.925  28.747  29.961  1.00  0.00     0.031 A 
ATOM     39  C   UNL A   1      40.316  28.505  31.366  1.00  0.00     0.074 A 
ATOM     40  C   UNL A   1      40.530  28.208  28.884  1.00  0.00     0.049 A 
ATOM     41  N   UNL A   1      41.254  29.113  32.011  1.00  0.00    -0.248 NA
ATOM     42  C   UNL A   1      39.404  27.731  32.228  1.00  0.00     0.031 C 
ATOM     43  C   UNL A   1      40.101  28.233  27.485  1.00  0.00     0.029 A 
ATOM     44  N   UNL A   1      41.664  27.453  28.832  1.00  0.00    -0.354 N 
ATOM     45  C   UNL A   1      41.238  28.550  33.277  1.00  0.00     0.074 A 
ATOM     46  C   UNL A   1      39.944  27.944  33.428  1.00  0.00     0.031 C 
ATOM     47  C   UNL A   1      40.841  27.349  26.769  1.00  0.00     0.029 A 
ATOM     48  C   UNL A   1      41.879  26.791  27.621  1.00  0.00     0.049 A 
ATOM     49  H   UNL A   1      42.284  27.379  29.592  1.00  0.00     0.167 HD
ATOM     50  C   UNL A   1      42.408  28.329  33.932  1.00  0.00     0.034 A 
ATOM     51  C   UNL A   1      42.835  25.849  27.362  1.00  0.00     0.034 A 
ATOM     52  C   UNL A   1      43.473  29.134  33.371  1.00  0.00     0.049 A 
ATOM     53  C   UNL A   1      43.915  26.078  28.355  1.00  0.00     0.074 A 
ATOM     54  C   UNL A   1      43.659  30.489  33.171  1.00  0.00     0.029 A 
ATOM     55  N   UNL A   1      44.367  28.509  32.530  1.00  0.00    -0.354 N 
ATOM     56  N   UNL A   1      44.643  27.162  28.375  1.00  0.00    -0.248 NA
ATOM     57  C   UNL A   1      43.833  25.358  29.617  1.00  0.00     0.031 C 
ATOM     58  C   UNL A   1      44.292  30.594  31.896  1.00  0.00     0.029 A 
ATOM     59  C   UNL A   1      44.547  29.304  31.426  1.00  0.00     0.049 A 
ATOM     60  H   UNL A   1      44.801  27.640  32.694  1.00  0.00     0.167 HD
ATOM     61  C   UNL A   1      44.732  27.502  29.716  1.00  0.00     0.074 A 
ATOM     62  C   UNL A   1      44.280  26.312  30.439  1.00  0.00     0.031 C 
ATOM     63  C   UNL A   1      44.878  28.803  30.105  1.00  0.00     0.034 A 
BRANCH  50  64
ATOM     64  C   UNL A   1      42.674  27.087  34.750  1.00  0.00     0.023 A 
ATOM     65  C   UNL A   1      43.465  26.089  34.158  1.00  0.00     0.031 A 
ATOM     66  C   UNL A   1      41.978  26.707  35.923  1.00  0.00     0.131 A 
ATOM     67  C   UNL A   1      43.477  24.782  34.673  1.00  0.00     0.055 A 
ATOM     68  C   UNL A   1      42.039  25.422  36.464  1.00  0.00     0.041 A 
ATOM     69  F   UNL A   1      41.125  27.514  36.563  1.00  0.00    -0.206 F 
ATOM     70  C   UNL A   1      42.769  24.442  35.823  1.00  0.00     0.022 A 
BRANCH  67  71
ATOM     71  S   UNL A   1      44.332  23.497  33.731  1.00  0.00     0.124 S 
ATOM     72  O   UNL A   1      43.546  23.462  32.504  1.00  0.00    -0.237 OA
ATOM     73  O   UNL A   1      45.677  24.052  33.620  1.00  0.00    -0.237 OA
ATOM     74  O   UNL A   1      44.215  22.318  34.587  1.00  0.00    -0.744 OA
ENDBRANCH  67  71
ENDBRANCH  50  64
BRANCH  51  75
ATOM     75  C   UNL A   1      42.724  24.572  26.583  1.00  0.00     0.023 A 
ATOM     76  C   UNL A   1      43.777  24.077  25.769  1.00  0.00     0.031 A 
ATOM     77  C   UNL A   1      41.675  23.668  26.853  1.00  0.00     0.131 A 
ATOM     78  C   UNL A   1      43.757  22.742  25.289  1.00  0.00     0.055 A 
ATOM     79  C   UNL A   1      41.663  22.351  26.381  1.00  0.00     0.041 A 
ATOM     80  F   UNL A   1      40.662  24.001  27.666  1.00  0.00    -0.206 F 
ATOM     81  C   UNL A   1      42.711  21.877  25.608  1.00  0.00     0.022 A 
BRANCH  78  82
ATOM     82  S   UNL A   1      45.155  22.056  24.329  1.00  0.00     0.124 S 
ATOM     83  O   UNL A   1      45.628  23.225  23.594  1.00  0.00    -0.237 OA
ATOM     84  O   UNL A   1      46.038  21.544  25.370  1.00  0.00    -0.237 OA
ATOM     85  O   UNL A   1      44.527  21.025  23.502  1.00  0.00    -0.744 OA
ENDBRANCH  78  82
ENDBRANCH  51  75
BRANCH  63  86
ATOM     86  C   UNL A   1      45.263  29.835  29.062  1.00  0.00     0.023 A 
ATOM     87  C   UNL A   1      46.583  30.212  28.716  1.00  0.00     0.031 A 
ATOM     88  C   UNL A   1      44.212  30.352  28.286  1.00  0.00     0.131 A 
ATOM     89  C   UNL A   1      46.800  31.076  27.618  1.00  0.00     0.055 A 
ATOM     90  C   UNL A   1      44.432  31.186  27.192  1.00  0.00     0.041 A 
ATOM     91  F   UNL A   1      42.940  30.010  28.553  1.00  0.00    -0.206 F 
ATOM     92  C   UNL A   1      45.728  31.551  26.854  1.00  0.00     0.022 A 
BRANCH  89  93
ATOM     93  S   UNL A   1      48.488  31.582  27.140  1.00  0.00     0.124 S 
ATOM     94  O   UNL A   1      49.099  31.955  28.411  1.00  0.00    -0.237 OA
ATOM     95  O   UNL A   1      49.017  30.378  26.503  1.00  0.00    -0.237 OA
ATOM     96  O   UNL A   1      48.264  32.701  26.222  1.00  0.00    -0.744 OA
ENDBRANCH  89  93
ENDBRANCH  63  86
ENDBRANCH  37  38
ENDBRANCH  30  32
ENDBRANCH  29  30
ENDBRANCH  28  29
ENDBRANCH   1  28
TORSDOF 19
ENDMDL
MODEL 2
REMARK VINA RESULT:     -12.1      1.982      2.622
REMARK SMILES Cc1nc(-c2ccccc2Cl)nc2sc(C(=O)OCCOCCOC(=O)c3ccc(-c4c5nc(c(-c6cc(S(=O)(=O)[O-])ccc6F)c6ccc([nH]6)c(-c6cc(S(=O)(=O)[O-])ccc6F)c6nc(c(-c7cc(S(=O)(=O)[O-])ccc7F)c7ccc4[nH]7)C=C6)C=C5)cc3)c(N)c12
REMARK SMILES IDX 22 1 21 2 20 3 19 4 18 5 16 6 17 7 15 8 1 9 2 10 3 11 92 12
REMARK SMILES IDX 4 13 13 14 90 15 12 16 14 17 5 18 6 19 10 20 7 21 9 22 11 23
REMARK SMILES IDX 8 24 91 25 23 28 24 29 25 30 26 31 27 32 28 33 89 34 29 35
REMARK SMILES IDX 88 36 30 37 31 38 32 39 82 40 33 41 87 42 81 43 83 44 34 45
REMARK SMILES IDX 86 46 80 47 79 48 35 50 67 51 47 52 66 53 48 54 51 55 65 56
REMARK SMILES IDX 84 57 49 58 50 59 64 61 85 62 52 63 36 64 37 65 45 66 38 67
REMARK SMILES IDX 44 68 46 69 43 70 39 71 40 72 41 73 42 74 68 75 69 76 77 77
REMARK SMILES IDX 70 78 76 79 78 80 75 81 71 82 72 83 73 84 74 85 53 86 54 87
REMARK SMILES IDX 62 88 55 89 61 90 63 91 60 92 56 93 57 94 58 95 59 96
REMARK H PARENT 91 26 91 27 83 49 51 60
REMARK Flexibility Score: inf
ROOT
ATOM      1  C   UNL A   1      33.948  34.077  28.115  1.00  0.00     0.202 C 
ENDROOT
BRANCH   1   2
ATOM      2  O   UNL A   1      32.808  33.328  27.704  1.00  0.00    -0.374 OA
BRANCH   2   3
ATOM      3  C   UNL A   1      32.961  31.944  27.390  1.00  0.00     0.202 C 
BRANCH   3   4
ATOM      4  C   UNL A   1      31.819  31.287  26.617  1.00  0.00     0.261 C 
BRANCH   4   5
ATOM      5  O   UNL A   1      32.105  29.918  26.298  1.00  0.00    -0.459 OA
BRANCH   5   6
ATOM      6  C   UNL A   1      31.582  29.450  25.125  1.00  0.00     0.350 C 
ATOM      7  O   UNL A   1      30.682  29.993  24.502  1.00  0.00    -0.245 OA
BRANCH   6   8
ATOM      8  C   UNL A   1      32.332  28.300  24.655  1.00  0.00     0.138 A 
ATOM      9  C   UNL A   1      32.755  25.532  20.934  1.00  0.00     0.067 C 
ATOM     10  C   UNL A   1      33.306  25.524  22.329  1.00  0.00     0.052 A 
ATOM     11  N   UNL A   1      34.046  24.423  22.659  1.00  0.00    -0.233 NA
ATOM     12  C   UNL A   1      33.092  26.517  23.311  1.00  0.00     0.057 A 
ATOM     13  C   UNL A   1      34.570  24.322  23.894  1.00  0.00     0.162 A 
ATOM     14  C   UNL A   1      33.674  26.262  24.542  1.00  0.00     0.130 A 
ATOM     15  C   UNL A   1      32.370  27.766  23.375  1.00  0.00     0.069 A 
ATOM     16  N   UNL A   1      34.415  25.204  24.881  1.00  0.00    -0.217 NA
ATOM     17  S   UNL A   1      33.337  27.428  25.721  1.00  0.00    -0.106 S 
BRANCH  13  18
ATOM     18  C   UNL A   1      35.241  23.082  24.286  1.00  0.00     0.038 A 
ATOM     19  C   UNL A   1      36.641  22.995  24.102  1.00  0.00     0.013 A 
ATOM     20  C   UNL A   1      34.573  21.942  24.755  1.00  0.00     0.052 A 
ATOM     21  C   UNL A   1      37.345  21.817  24.354  1.00  0.00     0.001 A 
ATOM     22  C   UNL A   1      35.282  20.757  25.006  1.00  0.00     0.021 A 
ATOM     23  Cl  UNL A   1      32.860  21.899  24.986  1.00  0.00    -0.084 Cl
ATOM     24  C   UNL A   1      36.661  20.694  24.800  1.00  0.00     0.002 A 
ENDBRANCH  13  18
BRANCH  15  25
ATOM     25  N   UNL A   1      31.769  28.368  22.323  1.00  0.00    -0.397 N 
ATOM     26  H   UNL A   1      31.824  29.345  22.219  1.00  0.00     0.156 HD
ATOM     27  H   UNL A   1      31.277  27.828  21.662  1.00  0.00     0.156 HD
ENDBRANCH  15  25
ENDBRANCH   6   8
ENDBRANCH   5   6
ENDBRANCH   4   5
ENDBRANCH   3   4
ENDBRANCH   2   3
ENDBRANCH   1   2
BRANCH   1  28
ATOM     28  C   UNL A   1      35.322  33.446  27.973  1.00  0.00     0.261 C 
BRANCH  28  29
ATOM     29  O   UNL A   1      36.043  33.444  29.195  1.00  0.00    -0.460 OA
BRANCH  29  30
ATOM     30  C   UNL A   1      35.973  32.265  29.860  1.00  0.00     0.338 C 
ATOM     31  O   UNL A   1      35.197  31.973  30.750  1.00  0.00    -0.246 OA
BRANCH  30  32
ATOM     32  C   UNL A   1      37.126  31.450  29.463  1.00  0.00     0.060 A 
ATOM     33  C   UNL A   1      36.878  30.100  29.219  1.00  0.00     0.016 A 
ATOM     34  C   UNL A   1      38.427  31.950  29.630  1.00  0.00     0.016 A 
ATOM     35  C   UNL A   1      37.924  29.214  29.358  1.00  0.00     0.010 A 
ATOM     36  C   UNL A   1      39.464  31.063  29.787  1.00  0.00     0.010 A 
ATOM     37  C   UNL A   1      39.185  29.702  29.732  1.00  0.00    -0.014 A 
BRANCH  37  38
ATOM     38  C   UNL A   1      40.282  28.762  29.834  1.00  0.00     0.031 A 
ATOM     39  C   UNL A   1      40.656  28.566  31.250  1.00  0.00     0.074 A 
ATOM     40  C   UNL A   1      40.818  28.097  28.790  1.00  0.00     0.049 A 
ATOM     41  N   UNL A   1      41.657  29.110  31.856  1.00  0.00    -0.248 NA
ATOM     42  C   UNL A   1      39.675  27.946  32.159  1.00  0.00     0.031 C 
ATOM     43  C   UNL A   1      40.383  28.082  27.393  1.00  0.00     0.029 A 
ATOM     44  N   UNL A   1      41.865  27.225  28.783  1.00  0.00    -0.354 N 
ATOM     45  C   UNL A   1      41.593  28.630  33.153  1.00  0.00     0.074 A 
ATOM     46  C   UNL A   1      40.244  28.174  33.344  1.00  0.00     0.031 C 
ATOM     47  C   UNL A   1      41.020  27.084  26.732  1.00  0.00     0.029 A 
ATOM     48  C   UNL A   1      42.001  26.472  27.615  1.00  0.00     0.049 A 
ATOM     49  H   UNL A   1      42.481  27.133  29.546  1.00  0.00     0.167 HD
ATOM     50  C   UNL A   1      42.738  28.327  33.819  1.00  0.00     0.034 A 
ATOM     51  C   UNL A   1      42.851  25.420  27.413  1.00  0.00     0.034 A 
ATOM     52  C   UNL A   1      43.877  28.980  33.208  1.00  0.00     0.049 A 
ATOM     53  C   UNL A   1      43.956  25.595  28.389  1.00  0.00     0.074 A 
ATOM     54  C   UNL A   1      44.203  30.293  32.925  1.00  0.00     0.029 A 
ATOM     55  N   UNL A   1      44.694  28.214  32.406  1.00  0.00    -0.354 N 
ATOM     56  N   UNL A   1      44.794  26.595  28.341  1.00  0.00    -0.248 NA
ATOM     57  C   UNL A   1      43.809  24.966  29.692  1.00  0.00     0.031 C 
ATOM     58  C   UNL A   1      44.833  30.253  31.645  1.00  0.00     0.029 A 
ATOM     59  C   UNL A   1      44.948  28.918  31.255  1.00  0.00     0.049 A 
ATOM     60  H   UNL A   1      45.036  27.316  32.622  1.00  0.00     0.167 HD
ATOM     61  C   UNL A   1      44.928  27.005  29.658  1.00  0.00     0.074 A 
ATOM     62  C   UNL A   1      44.360  25.915  30.454  1.00  0.00     0.031 C 
ATOM     63  C   UNL A   1      45.214  28.304  29.966  1.00  0.00     0.034 A 
BRANCH  50  64
ATOM     64  C   UNL A   1      42.879  27.116  34.711  1.00  0.00     0.023 A 
ATOM     65  C   UNL A   1      43.623  26.036  34.210  1.00  0.00     0.031 A 
ATOM     66  C   UNL A   1      42.105  26.848  35.867  1.00  0.00     0.131 A 
ATOM     67  C   UNL A   1      43.520  24.761  34.791  1.00  0.00     0.055 A 
ATOM     68  C   UNL A   1      42.052  25.594  36.475  1.00  0.00     0.041 A 
ATOM     69  F   UNL A   1      41.284  27.746  36.423  1.00  0.00    -0.206 F 
ATOM     70  C   UNL A   1      42.739  24.532  35.921  1.00  0.00     0.022 A 
BRANCH  67  71
ATOM     71  S   UNL A   1      44.323  23.371  33.959  1.00  0.00     0.124 S 
ATOM     72  O   UNL A   1      43.471  23.200  32.788  1.00  0.00    -0.237 OA
ATOM     73  O   UNL A   1      45.660  23.902  33.712  1.00  0.00    -0.237 OA
ATOM     74  O   UNL A   1      44.253  22.299  34.949  1.00  0.00    -0.744 OA
ENDBRANCH  67  71
ENDBRANCH  50  64
BRANCH  51  75
ATOM     75  C   UNL A   1      42.599  24.117  26.714  1.00  0.00     0.023 A 
ATOM     76  C   UNL A   1      43.588  23.466  25.930  1.00  0.00     0.031 A 
ATOM     77  C   UNL A   1      41.464  23.346  27.042  1.00  0.00     0.131 A 
ATOM     78  C   UNL A   1      43.425  22.114  25.532  1.00  0.00     0.055 A 
ATOM     79  C   UNL A   1      41.310  22.011  26.652  1.00  0.00     0.041 A 
ATOM     80  F   UNL A   1      40.499  23.832  27.835  1.00  0.00    -0.206 F 
ATOM     81  C   UNL A   1      42.296  21.385  25.906  1.00  0.00     0.022 A 
BRANCH  78  82
ATOM     82  S   UNL A   1      44.735  21.228  24.613  1.00  0.00     0.124 S 
ATOM     83  O   UNL A   1      45.898  21.420  25.473  1.00  0.00    -0.237 OA
ATOM     84  O   UNL A   1      44.207  19.872  24.530  1.00  0.00    -0.237 OA
ATOM     85  O   UNL A   1      44.795  21.938  23.335  1.00  0.00    -0.744 OA
ENDBRANCH  78  82
ENDBRANCH  51  75
BRANCH  63  86
ATOM     86  C   UNL A   1      45.696  29.225  28.861  1.00  0.00     0.023 A 
ATOM     87  C   UNL A   1      44.993  30.341  28.346  1.00  0.00     0.031 A 
ATOM     88  C   UNL A   1      47.013  29.021  28.416  1.00  0.00     0.131 A 
ATOM     89  C   UNL A   1      45.627  31.202  27.422  1.00  0.00     0.055 A 
ATOM     90  C   UNL A   1      47.640  29.885  27.522  1.00  0.00     0.041 A 
ATOM     91  F   UNL A   1      47.737  27.991  28.888  1.00  0.00    -0.206 F 
ATOM     92  C   UNL A   1      46.949  30.980  27.021  1.00  0.00     0.022 A 
BRANCH  89  93
ATOM     93  S   UNL A   1      44.754  32.653  26.738  1.00  0.00     0.124 S 
ATOM     94  O   UNL A   1      43.719  32.920  27.731  1.00  0.00    -0.237 OA
ATOM     95  O   UNL A   1      45.817  33.650  26.636  1.00  0.00    -0.237 OA
ATOM     96  O   UNL A   1      44.250  32.175  25.448  1.00  0.00    -0.744 OA
ENDBRANCH  89  93
ENDBRANCH  63  86
ENDBRANCH  37  38
ENDBRANCH  30  32
ENDBRANCH  29  30
ENDBRANCH  28  29
ENDBRANCH   1  28
TORSDOF 19
ENDMDL
MODEL 3
REMARK VINA RESULT:     -12.1      2.335      7.015
REMARK SMILES Cc1nc(-c2ccccc2Cl)nc2sc(C(=O)OCCOCCOC(=O)c3ccc(-c4c5nc(c(-c6cc(S(=O)(=O)[O-])ccc6F)c6ccc([nH]6)c(-c6cc(S(=O)(=O)[O-])ccc6F)c6nc(c(-c7cc(S(=O)(=O)[O-])ccc7F)c7ccc4[nH]7)C=C6)C=C5)cc3)c(N)c12
REMARK SMILES IDX 22 1 21 2 20 3 19 4 18 5 16 6 17 7 15 8 1 9 2 10 3 11 92 12
REMARK SMILES IDX 4 13 13 14 90 15 12 16 14 17 5 18 6 19 10 20 7 21 9 22 11 23
REMARK SMILES IDX 8 24 91 25 23 28 24 29 25 30 26 31 27 32 28 33 89 34 29 35
REMARK SMILES IDX 88 36 30 37 31 38 32 39 82 40 33 41 87 42 81 43 83 44 34 45
REMARK SMILES IDX 86 46 80 47 79 48 35 50 67 51 47 52 66 53 48 54 51 55 65 56
REMARK SMILES IDX 84 57 49 58 50 59 64 61 85 62 52 63 36 64 37 65 45 66 38 67
REMARK SMILES IDX 44 68 46 69 43 70 39 71 40 72 41 73 42 74 68 75 69 76 77 77
REMARK SMILES IDX 70 78 76 79 78 80 75 81 71 82 72 83 73 84 74 85 53 86 54 87
REMARK SMILES IDX 62 88 55 89 61 90 63 91 60 92 56 93 57 94 58 95 59 96
REMARK H PARENT 91 26 91 27 83 49 51 60
REMARK Flexibility Score: inf
ROOT
ATOM      1  C   UNL A   1      33.763  30.353  27.186  1.00  0.00     0.202 C 
ENDROOT
BRANCH   1   2
ATOM      2  O   UNL A   1      32.608  29.941  26.462  1.00  0.00    -0.374 OA
BRANCH   2   3
ATOM      3  C   UNL A   1      32.748  29.535  25.100  1.00  0.00     0.202 C 
BRANCH   3   4
ATOM      4  C   UNL A   1      31.459  29.217  24.344  1.00  0.00     0.261 C 
BRANCH   4   5
ATOM      5  O   UNL A   1      31.069  27.846  24.503  1.00  0.00    -0.459 OA
BRANCH   5   6
ATOM      6  C   UNL A   1      30.980  27.106  23.357  1.00  0.00     0.350 C 
ATOM      7  O   UNL A   1      30.936  27.578  22.230  1.00  0.00    -0.245 OA
BRANCH   6   8
ATOM      8  C   UNL A   1      31.082  25.690  23.654  1.00  0.00     0.138 A 
ATOM      9  C   UNL A   1      29.921  22.588  26.927  1.00  0.00     0.067 C 
ATOM     10  C   UNL A   1      30.747  22.549  25.676  1.00  0.00     0.052 A 
ATOM     11  N   UNL A   1      31.401  21.371  25.443  1.00  0.00    -0.233 NA
ATOM     12  C   UNL A   1      30.930  23.618  24.769  1.00  0.00     0.057 A 
ATOM     13  C   UNL A   1      32.177  21.248  24.351  1.00  0.00     0.162 A 
ATOM     14  C   UNL A   1      31.777  23.348  23.706  1.00  0.00     0.130 A 
ATOM     15  C   UNL A   1      30.467  24.982  24.676  1.00  0.00     0.069 A 
ATOM     16  N   UNL A   1      32.410  22.201  23.449  1.00  0.00    -0.217 NA
ATOM     17  S   UNL A   1      32.039  24.669  22.680  1.00  0.00    -0.106 S 
BRANCH  13  18
ATOM     18  C   UNL A   1      32.981  20.038  24.179  1.00  0.00     0.038 A 
ATOM     19  C   UNL A   1      32.413  18.955  23.467  1.00  0.00     0.013 A 
ATOM     20  C   UNL A   1      34.249  19.851  24.747  1.00  0.00     0.052 A 
ATOM     21  C   UNL A   1      33.070  17.731  23.343  1.00  0.00     0.001 A 
ATOM     22  C   UNL A   1      34.907  18.618  24.625  1.00  0.00     0.021 A 
ATOM     23  Cl  UNL A   1      35.040  21.077  25.676  1.00  0.00    -0.084 Cl
ATOM     24  C   UNL A   1      34.317  17.561  23.930  1.00  0.00     0.002 A 
ENDBRANCH  13  18
BRANCH  15  25
ATOM     25  N   UNL A   1      29.547  25.545  25.492  1.00  0.00    -0.397 N 
ATOM     26  H   UNL A   1      29.568  25.360  26.459  1.00  0.00     0.156 HD
ATOM     27  H   UNL A   1      28.855  26.139  25.119  1.00  0.00     0.156 HD
ENDBRANCH  15  25
ENDBRANCH   6   8
ENDBRANCH   5   6
ENDBRANCH   4   5
ENDBRANCH   3   4
ENDBRANCH   2   3
ENDBRANCH   1   2
BRANCH   1  28
ATOM     28  C   UNL A   1      34.851  29.330  27.461  1.00  0.00     0.261 C 
BRANCH  28  29
ATOM     29  O   UNL A   1      36.149  29.906  27.442  1.00  0.00    -0.460 OA
BRANCH  29  30
ATOM     30  C   UNL A   1      36.821  29.756  28.610  1.00  0.00     0.338 C 
ATOM     31  O   UNL A   1      36.579  30.306  29.667  1.00  0.00    -0.246 OA
BRANCH  30  32
ATOM     32  C   UNL A   1      38.025  28.963  28.342  1.00  0.00     0.060 A 
ATOM     33  C   UNL A   1      38.408  28.062  29.335  1.00  0.00     0.016 A 
ATOM     34  C   UNL A   1      38.886  29.328  27.295  1.00  0.00     0.016 A 
ATOM     35  C   UNL A   1      39.734  27.692  29.397  1.00  0.00     0.010 A 
ATOM     36  C   UNL A   1      40.211  28.973  27.371  1.00  0.00     0.010 A 
ATOM     37  C   UNL A   1      40.636  28.229  28.466  1.00  0.00    -0.014 A 
BRANCH  37  38
ATOM     38  C   UNL A   1      42.017  27.798  28.522  1.00  0.00     0.031 A 
ATOM     39  C   UNL A   1      42.200  26.568  27.723  1.00  0.00     0.074 A 
ATOM     40  C   UNL A   1      43.004  28.477  29.140  1.00  0.00     0.049 A 
ATOM     41  N   UNL A   1      42.276  25.365  28.184  1.00  0.00    -0.248 NA
ATOM     42  C   UNL A   1      41.990  26.636  26.266  1.00  0.00     0.031 C 
ATOM     43  C   UNL A   1      42.951  29.791  29.782  1.00  0.00     0.029 A 
ATOM     44  N   UNL A   1      44.317  28.137  29.274  1.00  0.00    -0.354 N 
ATOM     45  C   UNL A   1      42.443  24.565  27.066  1.00  0.00     0.074 A 
ATOM     46  C   UNL A   1      41.983  25.341  25.948  1.00  0.00     0.031 C 
ATOM     47  C   UNL A   1      44.211  30.222  30.036  1.00  0.00     0.029 A 
ATOM     48  C   UNL A   1      45.156  29.168  29.700  1.00  0.00     0.049 A 
ATOM     49  H   UNL A   1      44.650  27.230  29.083  1.00  0.00     0.167 HD
ATOM     50  C   UNL A   1      43.269  23.488  27.124  1.00  0.00     0.034 A 
ATOM     51  C   UNL A   1      46.522  29.145  29.753  1.00  0.00     0.034 A 
ATOM     52  C   UNL A   1      43.506  23.093  28.497  1.00  0.00     0.049 A 
ATOM     53  C   UNL A   1      46.903  27.712  29.842  1.00  0.00     0.074 A 
ATOM     54  C   UNL A   1      42.692  22.723  29.551  1.00  0.00     0.029 A 
ATOM     55  N   UNL A   1      44.706  23.456  29.065  1.00  0.00    -0.354 N 
ATOM     56  N   UNL A   1      46.608  26.962  30.869  1.00  0.00    -0.248 NA
ATOM     57  C   UNL A   1      47.138  27.001  28.595  1.00  0.00     0.031 C 
ATOM     58  C   UNL A   1      43.270  23.338  30.702  1.00  0.00     0.029 A 
ATOM     59  C   UNL A   1      44.453  23.968  30.313  1.00  0.00     0.049 A 
ATOM     60  H   UNL A   1      45.593  23.364  28.647  1.00  0.00     0.167 HD
ATOM     61  C   UNL A   1      46.181  25.763  30.317  1.00  0.00     0.074 A 
ATOM     62  C   UNL A   1      46.604  25.818  28.917  1.00  0.00     0.031 C 
ATOM     63  C   UNL A   1      45.274  24.973  30.964  1.00  0.00     0.034 A 
BRANCH  50  64
ATOM     64  C   UNL A   1      44.194  23.095  25.996  1.00  0.00     0.023 A 
ATOM     65  C   UNL A   1      44.168  21.752  25.585  1.00  0.00     0.031 A 
ATOM     66  C   UNL A   1      45.278  23.868  25.510  1.00  0.00     0.131 A 
ATOM     67  C   UNL A   1      45.212  21.217  24.812  1.00  0.00     0.055 A 
ATOM     68  C   UNL A   1      46.281  23.345  24.693  1.00  0.00     0.041 A 
ATOM     69  F   UNL A   1      45.489  25.139  25.867  1.00  0.00    -0.206 F 
ATOM     70  C   UNL A   1      46.268  22.005  24.363  1.00  0.00     0.022 A 
BRANCH  67  71
ATOM     71  S   UNL A   1      45.232  19.434  24.515  1.00  0.00     0.124 S 
ATOM     72  O   UNL A   1      44.191  18.974  25.426  1.00  0.00    -0.237 OA
ATOM     73  O   UNL A   1      44.920  19.364  23.091  1.00  0.00    -0.237 OA
ATOM     74  O   UNL A   1      46.595  19.048  24.873  1.00  0.00    -0.744 OA
ENDBRANCH  67  71
ENDBRANCH  50  64
BRANCH  51  75
ATOM     75  C   UNL A   1      47.506  30.212  29.374  1.00  0.00     0.023 A 
ATOM     76  C   UNL A   1      47.347  31.023  28.220  1.00  0.00     0.031 A 
ATOM     77  C   UNL A   1      48.474  30.644  30.305  1.00  0.00     0.131 A 
ATOM     78  C   UNL A   1      48.119  32.202  28.050  1.00  0.00     0.055 A 
ATOM     79  C   UNL A   1      49.229  31.810  30.135  1.00  0.00     0.041 A 
ATOM     80  F   UNL A   1      48.662  29.997  31.464  1.00  0.00    -0.206 F 
ATOM     81  C   UNL A   1      49.045  32.602  29.013  1.00  0.00     0.022 A 
BRANCH  78  82
ATOM     82  S   UNL A   1      47.854  33.314  26.622  1.00  0.00     0.124 S 
ATOM     83  O   UNL A   1      46.531  32.909  26.157  1.00  0.00    -0.237 OA
ATOM     84  O   UNL A   1      47.953  34.637  27.224  1.00  0.00    -0.237 OA
ATOM     85  O   UNL A   1      48.951  32.973  25.716  1.00  0.00    -0.744 OA
ENDBRANCH  78  82
ENDBRANCH  51  75
BRANCH  63  86
ATOM     86  C   UNL A   1      44.977  25.253  32.425  1.00  0.00     0.023 A 
ATOM     87  C   UNL A   1      43.922  26.059  32.917  1.00  0.00     0.031 A 
ATOM     88  C   UNL A   1      45.740  24.533  33.360  1.00  0.00     0.131 A 
ATOM     89  C   UNL A   1      43.669  26.109  34.306  1.00  0.00     0.055 A 
ATOM     90  C   UNL A   1      45.473  24.570  34.726  1.00  0.00     0.041 A 
ATOM     91  F   UNL A   1      46.740  23.735  32.949  1.00  0.00    -0.206 F 
ATOM     92  C   UNL A   1      44.435  25.359  35.205  1.00  0.00     0.022 A 
BRANCH  89  93
ATOM     93  S   UNL A   1      42.315  27.135  34.978  1.00  0.00     0.124 S 
ATOM     94  O   UNL A   1      42.845  27.594  36.257  1.00  0.00    -0.237 OA
ATOM     95  O   UNL A   1      42.146  28.159  33.950  1.00  0.00    -0.237 OA
ATOM     96  O   UNL A   1      41.194  26.197  35.086  1.00  0.00    -0.744 OA
ENDBRANCH  89  93
ENDBRANCH  63  86
ENDBRANCH  37  38
ENDBRANCH  30  32
ENDBRANCH  29  30
ENDBRANCH  28  29
ENDBRANCH   1  28
TORSDOF 19
ENDMDL
