MODEL 1
REMARK VINA RESULT:     -11.9      0.000      0.000
REMARK SMILES CC1(C)[C@H](C(=O)Nc2cccc3[nH]ccc23)[C@H]1C(=O)OCCOCCOC(=O)c1ccc(-c2c3nc(c(-c4cc(S(=O)(=O)[O-])ccc4F)c4ccc([nH]4)c(-c4cc(S(=O)(=O)[O-])ccc4F)c4nc(c(-c5cc(S(=O)(=O)[O-])ccc5F)c5ccc2[nH]5)C=C4)C=C3)cc1
REMARK SMILES IDX 24 1 23 2 22 3 21 4 20 5 18 6 19 7 17 8 1 9 2 10 3 11 4 12
REMARK SMILES IDX 5 13 6 14 7 15 8 17 9 18 16 19 10 20 12 21 15 22 11 23 13 24
REMARK SMILES IDX 14 25 25 27 26 28 27 29 28 30 29 31 30 32 91 33 31 34 90 35
REMARK SMILES IDX 32 36 33 37 34 38 84 39 35 40 89 41 83 42 85 43 36 44 88 45
REMARK SMILES IDX 82 46 81 47 37 49 69 50 49 51 68 52 50 53 53 54 67 55 86 56
REMARK SMILES IDX 51 57 52 58 66 60 87 61 54 62 38 63 39 64 47 65 40 66 46 67
REMARK SMILES IDX 48 68 45 69 41 70 42 71 43 72 44 73 70 74 71 75 79 76 72 77
REMARK SMILES IDX 78 78 80 79 77 80 73 81 74 82 75 83 76 84 55 85 56 86 64 87
REMARK SMILES IDX 57 88 63 89 65 90 62 91 58 92 59 93 60 94 61 95
REMARK H PARENT 7 16 13 26 85 48 53 59
REMARK Flexibility Score: inf
ROOT
ATOM      1  C   UNL A   1      36.462  19.431  24.984  1.00  0.00     0.202 C 
ENDROOT
BRANCH   1   2
ATOM      2  O   UNL A   1      35.134  19.917  25.188  1.00  0.00    -0.374 OA
BRANCH   2   3
ATOM      3  C   UNL A   1      34.060  19.199  24.572  1.00  0.00     0.202 C 
BRANCH   3   4
ATOM      4  C   UNL A   1      32.651  19.661  24.955  1.00  0.00     0.261 C 
BRANCH   4   5
ATOM      5  O   UNL A   1      32.185  20.605  23.983  1.00  0.00    -0.463 OA
BRANCH   5   6
ATOM      6  C   UNL A   1      32.586  21.884  24.162  1.00  0.00     0.310 C 
ATOM      7  O   UNL A   1      32.954  22.664  23.295  1.00  0.00    -0.252 OA
BRANCH   6   8
ATOM      8  C   UNL A   1      32.363  22.339  25.552  1.00  0.00     0.118 C 
ATOM      9  C   UNL A   1      34.855  23.067  26.032  1.00  0.00     0.013 C 
ATOM     10  C   UNL A   1      33.424  22.911  26.488  1.00  0.00    -0.009 C 
ATOM     11  C   UNL A   1      33.334  22.522  27.943  1.00  0.00     0.013 C 
ATOM     12  C   UNL A   1      32.381  23.820  25.828  1.00  0.00     0.100 C 
BRANCH  12  13
ATOM     13  C   UNL A   1      31.261  24.529  26.516  1.00  0.00     0.228 C 
ATOM     14  O   UNL A   1      30.393  23.870  27.078  1.00  0.00    -0.274 OA
ATOM     15  N   UNL A   1      31.415  25.879  26.729  1.00  0.00    -0.325 N 
ATOM     16  H   UNL A   1      31.791  26.162  27.594  1.00  0.00     0.169 HD
BRANCH  15  17
ATOM     17  C   UNL A   1      31.076  26.888  25.810  1.00  0.00     0.050 A 
ATOM     18  C   UNL A   1      30.341  26.600  24.654  1.00  0.00     0.027 A 
ATOM     19  C   UNL A   1      31.483  28.225  26.031  1.00  0.00     0.023 A 
ATOM     20  C   UNL A   1      30.127  27.561  23.668  1.00  0.00     0.004 A 
ATOM     21  C   UNL A   1      31.252  29.169  25.025  1.00  0.00     0.047 A 
ATOM     22  C   UNL A   1      32.153  28.912  27.087  1.00  0.00     0.030 A 
ATOM     23  C   UNL A   1      30.607  28.859  23.823  1.00  0.00     0.027 A 
ATOM     24  N   UNL A   1      31.779  30.365  25.456  1.00  0.00    -0.361 N 
ATOM     25  C   UNL A   1      32.300  30.227  26.713  1.00  0.00     0.083 A 
ATOM     26  H   UNL A   1      31.781  31.200  24.933  1.00  0.00     0.166 HD
ENDBRANCH  15  17
ENDBRANCH  12  13
ENDBRANCH   6   8
ENDBRANCH   5   6
ENDBRANCH   4   5
ENDBRANCH   3   4
ENDBRANCH   2   3
ENDBRANCH   1   2
BRANCH   1  27
ATOM     27  C   UNL A   1      37.497  20.434  24.460  1.00  0.00     0.261 C 
BRANCH  27  28
ATOM     28  O   UNL A   1      37.878  21.417  25.436  1.00  0.00    -0.460 OA
BRANCH  28  29
ATOM     29  C   UNL A   1      39.054  21.160  26.066  1.00  0.00     0.338 C 
ATOM     30  O   UNL A   1      39.677  20.112  26.057  1.00  0.00    -0.246 OA
BRANCH  29  31
ATOM     31  C   UNL A   1      39.594  22.401  26.655  1.00  0.00     0.060 A 
ATOM     32  C   UNL A   1      39.086  23.617  26.182  1.00  0.00     0.016 A 
ATOM     33  C   UNL A   1      40.625  22.381  27.595  1.00  0.00     0.016 A 
ATOM     34  C   UNL A   1      39.626  24.822  26.630  1.00  0.00     0.010 A 
ATOM     35  C   UNL A   1      41.174  23.591  28.034  1.00  0.00     0.010 A 
ATOM     36  C   UNL A   1      40.693  24.816  27.538  1.00  0.00    -0.014 A 
BRANCH  36  37
ATOM     37  C   UNL A   1      41.376  26.088  27.879  1.00  0.00     0.031 A 
ATOM     38  C   UNL A   1      40.610  27.162  28.602  1.00  0.00     0.074 A 
ATOM     39  C   UNL A   1      42.669  26.277  27.564  1.00  0.00     0.049 A 
ATOM     40  N   UNL A   1      40.992  28.363  28.953  1.00  0.00    -0.248 NA
ATOM     41  C   UNL A   1      39.226  26.833  28.979  1.00  0.00     0.031 C 
ATOM     42  C   UNL A   1      43.527  25.292  26.906  1.00  0.00     0.029 A 
ATOM     43  N   UNL A   1      43.485  27.365  27.746  1.00  0.00    -0.354 N 
ATOM     44  C   UNL A   1      39.898  28.936  29.593  1.00  0.00     0.074 A 
ATOM     45  C   UNL A   1      38.829  27.961  29.549  1.00  0.00     0.031 C 
ATOM     46  C   UNL A   1      44.748  25.828  26.727  1.00  0.00     0.029 A 
ATOM     47  C   UNL A   1      44.744  27.204  27.220  1.00  0.00     0.049 A 
ATOM     48  H   UNL A   1      43.195  28.183  28.211  1.00  0.00     0.167 HD
ATOM     49  C   UNL A   1      39.800  30.159  30.172  1.00  0.00     0.034 A 
ATOM     50  C   UNL A   1      45.767  28.078  27.118  1.00  0.00     0.034 A 
ATOM     51  C   UNL A   1      40.869  31.129  30.189  1.00  0.00     0.049 A 
ATOM     52  C   UNL A   1      45.596  29.473  27.665  1.00  0.00     0.074 A 
ATOM     53  C   UNL A   1      40.884  32.387  30.767  1.00  0.00     0.029 A 
ATOM     54  N   UNL A   1      42.108  30.958  29.583  1.00  0.00    -0.354 N 
ATOM     55  N   UNL A   1      44.562  30.001  28.280  1.00  0.00    -0.248 NA
ATOM     56  C   UNL A   1      46.731  30.392  27.503  1.00  0.00     0.031 C 
ATOM     57  C   UNL A   1      42.101  33.002  30.449  1.00  0.00     0.029 A 
ATOM     58  C   UNL A   1      42.876  32.103  29.734  1.00  0.00     0.049 A 
ATOM     59  H   UNL A   1      42.397  30.143  29.115  1.00  0.00     0.167 HD
ATOM     60  C   UNL A   1      44.932  31.306  28.594  1.00  0.00     0.074 A 
ATOM     61  C   UNL A   1      46.288  31.480  28.116  1.00  0.00     0.031 C 
ATOM     62  C   UNL A   1      44.217  32.273  29.225  1.00  0.00     0.034 A 
BRANCH  49  63
ATOM     63  C   UNL A   1      38.469  30.529  30.781  1.00  0.00     0.023 A 
ATOM     64  C   UNL A   1      37.478  31.200  30.043  1.00  0.00     0.031 A 
ATOM     65  C   UNL A   1      38.202  30.236  32.130  1.00  0.00     0.131 A 
ATOM     66  C   UNL A   1      36.298  31.620  30.677  1.00  0.00     0.055 A 
ATOM     67  C   UNL A   1      36.995  30.591  32.736  1.00  0.00     0.041 A 
ATOM     68  F   UNL A   1      39.119  29.616  32.890  1.00  0.00    -0.206 F 
ATOM     69  C   UNL A   1      36.040  31.300  32.012  1.00  0.00     0.022 A 
BRANCH  66  70
ATOM     70  S   UNL A   1      35.169  32.713  29.772  1.00  0.00     0.124 S 
ATOM     71  O   UNL A   1      34.490  31.770  28.887  1.00  0.00    -0.237 OA
ATOM     72  O   UNL A   1      34.358  33.282  30.842  1.00  0.00    -0.237 OA
ATOM     73  O   UNL A   1      36.065  33.652  29.101  1.00  0.00    -0.744 OA
ENDBRANCH  66  70
ENDBRANCH  49  63
BRANCH  50  74
ATOM     74  C   UNL A   1      47.024  27.688  26.419  1.00  0.00     0.023 A 
ATOM     75  C   UNL A   1      47.182  27.887  25.039  1.00  0.00     0.031 A 
ATOM     76  C   UNL A   1      48.070  27.059  27.120  1.00  0.00     0.131 A 
ATOM     77  C   UNL A   1      48.342  27.426  24.395  1.00  0.00     0.055 A 
ATOM     78  C   UNL A   1      49.241  26.646  26.484  1.00  0.00     0.041 A 
ATOM     79  F   UNL A   1      47.967  26.844  28.442  1.00  0.00    -0.206 F 
ATOM     80  C   UNL A   1      49.377  26.819  25.110  1.00  0.00     0.022 A 
BRANCH  77  81
ATOM     81  S   UNL A   1      48.447  27.566  22.590  1.00  0.00     0.124 S 
ATOM     82  O   UNL A   1      48.529  26.167  22.187  1.00  0.00    -0.237 OA
ATOM     83  O   UNL A   1      47.202  28.255  22.266  1.00  0.00    -0.237 OA
ATOM     84  O   UNL A   1      49.662  28.349  22.380  1.00  0.00    -0.744 OA
ENDBRANCH  77  81
ENDBRANCH  50  74
BRANCH  62  85
ATOM     85  C   UNL A   1      44.908  33.596  29.451  1.00  0.00     0.023 A 
ATOM     86  C   UNL A   1      44.835  34.635  28.507  1.00  0.00     0.031 A 
ATOM     87  C   UNL A   1      45.659  33.814  30.621  1.00  0.00     0.131 A 
ATOM     88  C   UNL A   1      45.542  35.828  28.725  1.00  0.00     0.055 A 
ATOM     89  C   UNL A   1      46.313  35.024  30.857  1.00  0.00     0.041 A 
ATOM     90  F   UNL A   1      45.763  32.855  31.554  1.00  0.00    -0.206 F 
ATOM     91  C   UNL A   1      46.268  36.035  29.901  1.00  0.00     0.022 A 
BRANCH  88  92
ATOM     92  S   UNL A   1      45.566  37.080  27.413  1.00  0.00     0.124 S 
ATOM     93  O   UNL A   1      45.975  36.296  26.252  1.00  0.00    -0.237 OA
ATOM     94  O   UNL A   1      44.186  37.556  27.408  1.00  0.00    -0.237 OA
ATOM     95  O   UNL A   1      46.553  38.052  27.884  1.00  0.00    -0.744 OA
ENDBRANCH  88  92
ENDBRANCH  62  85
ENDBRANCH  36  37
ENDBRANCH  29  31
ENDBRANCH  28  29
ENDBRANCH  27  28
ENDBRANCH   1  27
TORSDOF 19
ENDMDL
MODEL 2
REMARK VINA RESULT:     -11.7      1.350      7.538
REMARK SMILES CC1(C)[C@H](C(=O)Nc2cccc3[nH]ccc23)[C@H]1C(=O)OCCOCCOC(=O)c1ccc(-c2c3nc(c(-c4cc(S(=O)(=O)[O-])ccc4F)c4ccc([nH]4)c(-c4cc(S(=O)(=O)[O-])ccc4F)c4nc(c(-c5cc(S(=O)(=O)[O-])ccc5F)c5ccc2[nH]5)C=C4)C=C3)cc1
REMARK SMILES IDX 24 1 23 2 22 3 21 4 20 5 18 6 19 7 17 8 1 9 2 10 3 11 4 12
REMARK SMILES IDX 5 13 6 14 7 15 8 17 9 18 16 19 10 20 12 21 15 22 11 23 13 24
REMARK SMILES IDX 14 25 25 27 26 28 27 29 28 30 29 31 30 32 91 33 31 34 90 35
REMARK SMILES IDX 32 36 33 37 34 38 84 39 35 40 89 41 83 42 85 43 36 44 88 45
REMARK SMILES IDX 82 46 81 47 37 49 69 50 49 51 68 52 50 53 53 54 67 55 86 56
REMARK SMILES IDX 51 57 52 58 66 60 87 61 54 62 38 63 39 64 47 65 40 66 46 67
REMARK SMILES IDX 48 68 45 69 41 70 42 71 43 72 44 73 70 74 71 75 79 76 72 77
REMARK SMILES IDX 78 78 80 79 77 80 73 81 74 82 75 83 76 84 55 85 56 86 64 87
REMARK SMILES IDX 57 88 63 89 65 90 62 91 58 92 59 93 60 94 61 95
REMARK H PARENT 7 16 13 26 85 48 53 59
REMARK Flexibility Score: inf
ROOT
ATOM      1  C   UNL A   1      36.532  19.191  24.962  1.00  0.00     0.202 C 
ENDROOT
BRANCH   1   2
ATOM      2  O   UNL A   1      35.245  19.796  24.831  1.00  0.00    -0.374 OA
BRANCH   2   3
ATOM      3  C   UNL A   1      34.122  18.935  24.618  1.00  0.00     0.202 C 
BRANCH   3   4
ATOM      4  C   UNL A   1      32.880  19.250  25.456  1.00  0.00     0.261 C 
BRANCH   4   5
ATOM      5  O   UNL A   1      31.948  19.989  24.656  1.00  0.00    -0.463 OA
BRANCH   5   6
ATOM      6  C   UNL A   1      32.192  21.314  24.537  1.00  0.00     0.310 C 
ATOM      7  O   UNL A   1      32.279  21.951  23.497  1.00  0.00    -0.252 OA
BRANCH   6   8
ATOM      8  C   UNL A   1      32.169  21.996  25.849  1.00  0.00     0.118 C 
ATOM      9  C   UNL A   1      34.673  22.831  25.795  1.00  0.00     0.013 C 
ATOM     10  C   UNL A   1      33.338  22.735  26.495  1.00  0.00    -0.009 C 
ATOM     11  C   UNL A   1      33.492  22.598  27.990  1.00  0.00     0.013 C 
ATOM     12  C   UNL A   1      32.168  23.502  25.869  1.00  0.00     0.100 C 
BRANCH  12  13
ATOM     13  C   UNL A   1      31.141  24.301  26.601  1.00  0.00     0.228 C 
ATOM     14  O   UNL A   1      30.261  23.716  27.223  1.00  0.00    -0.274 OA
ATOM     15  N   UNL A   1      31.400  25.641  26.775  1.00  0.00    -0.325 N 
ATOM     16  H   UNL A   1      31.843  25.913  27.612  1.00  0.00     0.169 HD
BRANCH  15  17
ATOM     17  C   UNL A   1      31.082  26.654  25.853  1.00  0.00     0.050 A 
ATOM     18  C   UNL A   1      30.362  26.374  24.686  1.00  0.00     0.027 A 
ATOM     19  C   UNL A   1      31.495  27.988  26.084  1.00  0.00     0.023 A 
ATOM     20  C   UNL A   1      30.170  27.338  23.700  1.00  0.00     0.004 A 
ATOM     21  C   UNL A   1      31.286  28.935  25.077  1.00  0.00     0.047 A 
ATOM     22  C   UNL A   1      32.154  28.667  27.151  1.00  0.00     0.030 A 
ATOM     23  C   UNL A   1      30.657  28.633  23.864  1.00  0.00     0.027 A 
ATOM     24  N   UNL A   1      31.815  30.127  25.517  1.00  0.00    -0.361 N 
ATOM     25  C   UNL A   1      32.316  29.983  26.782  1.00  0.00     0.083 A 
ATOM     26  H   UNL A   1      31.830  30.963  24.997  1.00  0.00     0.166 HD
ENDBRANCH  15  17
ENDBRANCH  12  13
ENDBRANCH   6   8
ENDBRANCH   5   6
ENDBRANCH   4   5
ENDBRANCH   3   4
ENDBRANCH   2   3
ENDBRANCH   1   2
BRANCH   1  27
ATOM     27  C   UNL A   1      37.749  20.060  24.620  1.00  0.00     0.261 C 
BRANCH  27  28
ATOM     28  O   UNL A   1      38.053  21.033  25.633  1.00  0.00    -0.460 OA
BRANCH  28  29
ATOM     29  C   UNL A   1      39.295  20.919  26.169  1.00  0.00     0.338 C 
ATOM     30  O   UNL A   1      40.022  19.940  26.136  1.00  0.00    -0.246 OA
BRANCH  29  31
ATOM     31  C   UNL A   1      39.748  22.228  26.679  1.00  0.00     0.060 A 
ATOM     32  C   UNL A   1      39.170  23.375  26.121  1.00  0.00     0.016 A 
ATOM     33  C   UNL A   1      40.766  22.337  27.628  1.00  0.00     0.016 A 
ATOM     34  C   UNL A   1      39.627  24.639  26.492  1.00  0.00     0.010 A 
ATOM     35  C   UNL A   1      41.232  23.606  27.989  1.00  0.00     0.010 A 
ATOM     36  C   UNL A   1      40.680  24.762  27.408  1.00  0.00    -0.014 A 
BRANCH  36  37
ATOM     37  C   UNL A   1      41.276  26.095  27.670  1.00  0.00     0.031 A 
ATOM     38  C   UNL A   1      42.687  26.370  27.225  1.00  0.00     0.074 A 
ATOM     39  C   UNL A   1      40.561  27.056  28.282  1.00  0.00     0.049 A 
ATOM     40  N   UNL A   1      43.418  27.441  27.395  1.00  0.00    -0.248 NA
ATOM     41  C   UNL A   1      43.360  25.287  26.491  1.00  0.00     0.031 C 
ATOM     42  C   UNL A   1      39.171  26.924  28.715  1.00  0.00     0.029 A 
ATOM     43  N   UNL A   1      40.909  28.331  28.653  1.00  0.00    -0.354 N 
ATOM     44  C   UNL A   1      44.639  27.166  26.789  1.00  0.00     0.074 A 
ATOM     45  C   UNL A   1      44.557  25.812  26.279  1.00  0.00     0.031 C 
ATOM     46  C   UNL A   1      38.788  28.069  29.307  1.00  0.00     0.029 A 
ATOM     47  C   UNL A   1      39.916  28.997  29.330  1.00  0.00     0.049 A 
ATOM     48  H   UNL A   1      41.787  28.729  28.452  1.00  0.00     0.167 HD
ATOM     49  C   UNL A   1      45.723  27.970  26.661  1.00  0.00     0.034 A 
ATOM     50  C   UNL A   1      39.927  30.206  29.929  1.00  0.00     0.034 A 
ATOM     51  C   UNL A   1      45.797  29.310  27.193  1.00  0.00     0.049 A 
ATOM     52  C   UNL A   1      41.184  31.039  29.876  1.00  0.00     0.074 A 
ATOM     53  C   UNL A   1      46.836  30.220  27.101  1.00  0.00     0.029 A 
ATOM     54  N   UNL A   1      44.797  29.927  27.936  1.00  0.00    -0.354 N 
ATOM     55  N   UNL A   1      42.329  30.774  29.288  1.00  0.00    -0.248 NA
ATOM     56  C   UNL A   1      41.150  32.335  30.568  1.00  0.00     0.031 C 
ATOM     57  C   UNL A   1      46.495  31.355  27.848  1.00  0.00     0.029 A 
ATOM     58  C   UNL A   1      45.214  31.185  28.346  1.00  0.00     0.049 A 
ATOM     59  H   UNL A   1      43.922  29.528  28.141  1.00  0.00     0.167 HD
ATOM     60  C   UNL A   1      43.142  31.880  29.525  1.00  0.00     0.074 A 
ATOM     61  C   UNL A   1      42.352  32.819  30.294  1.00  0.00     0.031 C 
ATOM     62  C   UNL A   1      44.425  32.101  29.139  1.00  0.00     0.034 A 
BRANCH  49  63
ATOM     63  C   UNL A   1      46.932  27.394  25.966  1.00  0.00     0.023 A 
ATOM     64  C   UNL A   1      47.943  26.722  26.674  1.00  0.00     0.031 A 
ATOM     65  C   UNL A   1      47.093  27.551  24.577  1.00  0.00     0.131 A 
ATOM     66  C   UNL A   1      49.101  26.295  26.006  1.00  0.00     0.055 A 
ATOM     67  C   UNL A   1      48.213  27.058  23.905  1.00  0.00     0.041 A 
ATOM     68  F   UNL A   1      46.171  28.203  23.852  1.00  0.00    -0.206 F 
ATOM     69  C   UNL A   1      49.233  26.439  24.622  1.00  0.00     0.022 A 
BRANCH  66  70
ATOM     70  S   UNL A   1      50.495  25.679  26.990  1.00  0.00     0.124 S 
ATOM     71  O   UNL A   1      49.936  24.457  27.562  1.00  0.00    -0.237 OA
ATOM     72  O   UNL A   1      51.534  25.496  25.983  1.00  0.00    -0.237 OA
ATOM     73  O   UNL A   1      50.738  26.753  27.950  1.00  0.00    -0.744 OA
ENDBRANCH  66  70
ENDBRANCH  49  63
BRANCH  50  74
ATOM     74  C   UNL A   1      38.735  30.683  30.686  1.00  0.00     0.023 A 
ATOM     75  C   UNL A   1      37.661  31.307  30.033  1.00  0.00     0.031 A 
ATOM     76  C   UNL A   1      38.680  30.567  32.087  1.00  0.00     0.131 A 
ATOM     77  C   UNL A   1      36.594  31.826  30.785  1.00  0.00     0.055 A 
ATOM     78  C   UNL A   1      37.595  31.042  32.825  1.00  0.00     0.041 A 
ATOM     79  F   UNL A   1      39.684  29.980  32.759  1.00  0.00    -0.206 F 
ATOM     80  C   UNL A   1      36.549  31.686  32.173  1.00  0.00     0.022 A 
BRANCH  77  81
ATOM     81  S   UNL A   1      35.297  32.755  29.923  1.00  0.00     0.124 S 
ATOM     82  O   UNL A   1      36.029  33.927  29.457  1.00  0.00    -0.237 OA
ATOM     83  O   UNL A   1      34.878  31.808  28.895  1.00  0.00    -0.237 OA
ATOM     84  O   UNL A   1      34.310  33.011  30.970  1.00  0.00    -0.744 OA
ENDBRANCH  77  81
ENDBRANCH  50  74
BRANCH  62  85
ATOM     85  C   UNL A   1      45.037  33.424  29.527  1.00  0.00     0.023 A 
ATOM     86  C   UNL A   1      44.839  34.582  28.755  1.00  0.00     0.031 A 
ATOM     87  C   UNL A   1      45.840  33.524  30.678  1.00  0.00     0.131 A 
ATOM     88  C   UNL A   1      45.476  35.780  29.115  1.00  0.00     0.055 A 
ATOM     89  C   UNL A   1      46.425  34.732  31.062  1.00  0.00     0.041 A 
ATOM     90  F   UNL A   1      46.064  32.449  31.451  1.00  0.00    -0.206 F 
ATOM     91  C   UNL A   1      46.255  35.866  30.273  1.00  0.00     0.022 A 
BRANCH  88  92
ATOM     92  S   UNL A   1      45.338  37.209  28.008  1.00  0.00     0.124 S 
ATOM     93  O   UNL A   1      44.242  36.810  27.131  1.00  0.00    -0.237 OA
ATOM     94  O   UNL A   1      45.048  38.298  28.935  1.00  0.00    -0.237 OA
ATOM     95  O   UNL A   1      46.652  37.276  27.368  1.00  0.00    -0.744 OA
ENDBRANCH  88  92
ENDBRANCH  62  85
ENDBRANCH  36  37
ENDBRANCH  29  31
ENDBRANCH  28  29
ENDBRANCH  27  28
ENDBRANCH   1  27
TORSDOF 19
ENDMDL
MODEL 3
REMARK VINA RESULT:     -11.6      1.744      2.217
REMARK SMILES CC1(C)[C@H](C(=O)Nc2cccc3[nH]ccc23)[C@H]1C(=O)OCCOCCOC(=O)c1ccc(-c2c3nc(c(-c4cc(S(=O)(=O)[O-])ccc4F)c4ccc([nH]4)c(-c4cc(S(=O)(=O)[O-])ccc4F)c4nc(c(-c5cc(S(=O)(=O)[O-])ccc5F)c5ccc2[nH]5)C=C4)C=C3)cc1
REMARK SMILES IDX 24 1 23 2 22 3 21 4 20 5 18 6 19 7 17 8 1 9 2 10 3 11 4 12
REMARK SMILES IDX 5 13 6 14 7 15 8 17 9 18 16 19 10 20 12 21 15 22 11 23 13 24
REMARK SMILES IDX 14 25 25 27 26 28 27 29 28 30 29 31 30 32 91 33 31 34 90 35
REMARK SMILES IDX 32 36 33 37 34 38 84 39 35 40 89 41 83 42 85 43 36 44 88 45
REMARK SMILES IDX 82 46 81 47 37 49 69 50 49 51 68 52 50 53 53 54 67 55 86 56
REMARK SMILES IDX 51 57 52 58 66 60 87 61 54 62 38 63 39 64 47 65 40 66 46 67
REMARK SMILES IDX 48 68 45 69 41 70 42 71 43 72 44 73 70 74 71 75 79 76 72 77
REMARK SMILES IDX 78 78 80 79 77 80 73 81 74 82 75 83 76 84 55 85 56 86 64 87
REMARK SMILES IDX 57 88 63 89 65 90 62 91 58 92 59 93 60 94 61 95
REMARK H PARENT 7 16 13 26 85 48 53 59
REMARK Flexibility Score: inf
ROOT
ATOM      1  C   UNL A   1      35.299  20.555  24.693  1.00  0.00     0.202 C 
ENDROOT
BRANCH   1   2
ATOM      2  O   UNL A   1      34.413  19.440  24.585  1.00  0.00    -0.374 OA
BRANCH   2   3
ATOM      3  C   UNL A   1      33.212  19.464  25.363  1.00  0.00     0.202 C 
BRANCH   3   4
ATOM      4  C   UNL A   1      33.050  20.672  26.290  1.00  0.00     0.261 C 
BRANCH   4   5
ATOM      5  O   UNL A   1      32.116  21.590  25.708  1.00  0.00    -0.463 OA
BRANCH   5   6
ATOM      6  C   UNL A   1      31.974  22.773  26.348  1.00  0.00     0.310 C 
ATOM      7  O   UNL A   1      31.610  22.942  27.502  1.00  0.00    -0.252 OA
BRANCH   6   8
ATOM      8  C   UNL A   1      32.496  23.898  25.541  1.00  0.00     0.118 C 
ATOM      9  C   UNL A   1      35.002  23.707  26.348  1.00  0.00     0.013 C 
ATOM     10  C   UNL A   1      33.942  24.384  25.512  1.00  0.00    -0.009 C 
ATOM     11  C   UNL A   1      34.161  25.874  25.420  1.00  0.00     0.013 C 
ATOM     12  C   UNL A   1      33.357  23.579  24.347  1.00  0.00     0.100 C 
BRANCH  12  13
ATOM     13  C   UNL A   1      33.062  24.093  22.976  1.00  0.00     0.228 C 
ATOM     14  O   UNL A   1      33.883  23.918  22.083  1.00  0.00    -0.274 OA
ATOM     15  N   UNL A   1      31.766  24.480  22.721  1.00  0.00    -0.325 N 
ATOM     16  H   UNL A   1      31.162  23.809  22.327  1.00  0.00     0.169 HD
BRANCH  15  17
ATOM     17  C   UNL A   1      31.237  25.757  22.977  1.00  0.00     0.050 A 
ATOM     18  C   UNL A   1      29.944  25.917  23.490  1.00  0.00     0.027 A 
ATOM     19  C   UNL A   1      32.003  26.916  22.713  1.00  0.00     0.023 A 
ATOM     20  C   UNL A   1      29.359  27.176  23.609  1.00  0.00     0.004 A 
ATOM     21  C   UNL A   1      31.390  28.167  22.844  1.00  0.00     0.047 A 
ATOM     22  C   UNL A   1      33.339  27.162  22.278  1.00  0.00     0.030 A 
ATOM     23  C   UNL A   1      30.063  28.325  23.259  1.00  0.00     0.027 A 
ATOM     24  N   UNL A   1      32.317  29.118  22.486  1.00  0.00    -0.361 N 
ATOM     25  C   UNL A   1      33.508  28.524  22.170  1.00  0.00     0.083 A 
ATOM     26  H   UNL A   1      32.148  30.088  22.460  1.00  0.00     0.166 HD
ENDBRANCH  15  17
ENDBRANCH  12  13
ENDBRANCH   6   8
ENDBRANCH   5   6
ENDBRANCH   4   5
ENDBRANCH   3   4
ENDBRANCH   2   3
ENDBRANCH   1   2
BRANCH   1  27
ATOM     27  C   UNL A   1      36.780  20.247  24.946  1.00  0.00     0.261 C 
BRANCH  27  28
ATOM     28  O   UNL A   1      37.407  21.180  25.841  1.00  0.00    -0.460 OA
BRANCH  28  29
ATOM     29  C   UNL A   1      38.747  21.012  25.983  1.00  0.00     0.338 C 
ATOM     30  O   UNL A   1      39.415  20.072  25.584  1.00  0.00    -0.246 OA
BRANCH  29  31
ATOM     31  C   UNL A   1      39.351  22.228  26.560  1.00  0.00     0.060 A 
ATOM     32  C   UNL A   1      38.876  23.465  26.107  1.00  0.00     0.016 A 
ATOM     33  C   UNL A   1      40.410  22.165  27.468  1.00  0.00     0.016 A 
ATOM     34  C   UNL A   1      39.475  24.647  26.542  1.00  0.00     0.010 A 
ATOM     35  C   UNL A   1      41.018  23.352  27.893  1.00  0.00     0.010 A 
ATOM     36  C   UNL A   1      40.568  24.597  27.416  1.00  0.00    -0.014 A 
BRANCH  36  37
ATOM     37  C   UNL A   1      41.309  25.840  27.741  1.00  0.00     0.031 A 
ATOM     38  C   UNL A   1      40.604  26.942  28.485  1.00  0.00     0.074 A 
ATOM     39  C   UNL A   1      42.600  25.979  27.392  1.00  0.00     0.049 A 
ATOM     40  N   UNL A   1      41.042  28.126  28.827  1.00  0.00    -0.248 NA
ATOM     41  C   UNL A   1      39.219  26.666  28.897  1.00  0.00     0.031 C 
ATOM     42  C   UNL A   1      43.401  24.963  26.711  1.00  0.00     0.029 A 
ATOM     43  N   UNL A   1      43.462  27.034  27.554  1.00  0.00    -0.354 N 
ATOM     44  C   UNL A   1      39.989  28.741  29.496  1.00  0.00     0.074 A 
ATOM     45  C   UNL A   1      38.881  27.807  29.479  1.00  0.00     0.031 C 
ATOM     46  C   UNL A   1      44.637  25.451  26.501  1.00  0.00     0.029 A 
ATOM     47  C   UNL A   1      44.700  26.825  26.995  1.00  0.00     0.049 A 
ATOM     48  H   UNL A   1      43.216  27.862  28.027  1.00  0.00     0.167 HD
ATOM     49  C   UNL A   1      39.953  29.965  30.078  1.00  0.00     0.034 A 
ATOM     50  C   UNL A   1      45.753  27.658  26.867  1.00  0.00     0.034 A 
ATOM     51  C   UNL A   1      41.059  30.892  30.068  1.00  0.00     0.049 A 
ATOM     52  C   UNL A   1      45.651  29.059  27.420  1.00  0.00     0.074 A 
ATOM     53  C   UNL A   1      41.139  32.147  30.647  1.00  0.00     0.029 A 
ATOM     54  N   UNL A   1      42.274  30.674  29.430  1.00  0.00    -0.354 N 
ATOM     55  N   UNL A   1      44.655  29.625  28.062  1.00  0.00    -0.248 NA
ATOM     56  C   UNL A   1      46.816  29.933  27.229  1.00  0.00     0.031 C 
ATOM     57  C   UNL A   1      42.370  32.716  30.297  1.00  0.00     0.029 A 
ATOM     58  C   UNL A   1      43.090  31.789  29.562  1.00  0.00     0.049 A 
ATOM     59  H   UNL A   1      42.519  29.849  28.954  1.00  0.00     0.167 HD
ATOM     60  C   UNL A   1      45.083  30.914  28.368  1.00  0.00     0.074 A 
ATOM     61  C   UNL A   1      46.432  31.036  27.854  1.00  0.00     0.031 C 
ATOM     62  C   UNL A   1      44.424  31.907  29.018  1.00  0.00     0.034 A 
BRANCH  49  63
ATOM     63  C   UNL A   1      38.654  30.385  30.721  1.00  0.00     0.023 A 
ATOM     64  C   UNL A   1      37.625  30.994  29.983  1.00  0.00     0.031 A 
ATOM     65  C   UNL A   1      38.457  30.205  32.102  1.00  0.00     0.131 A 
ATOM     66  C   UNL A   1      36.477  31.466  30.639  1.00  0.00     0.055 A 
ATOM     67  C   UNL A   1      37.282  30.610  32.738  1.00  0.00     0.041 A 
ATOM     68  F   UNL A   1      39.414  29.649  32.863  1.00  0.00    -0.206 F 
ATOM     69  C   UNL A   1      36.289  31.258  32.008  1.00  0.00     0.022 A 
BRANCH  66  70
ATOM     70  S   UNL A   1      35.300  32.482  29.707  1.00  0.00     0.124 S 
ATOM     71  O   UNL A   1      34.858  31.550  28.673  1.00  0.00    -0.237 OA
ATOM     72  O   UNL A   1      34.310  32.828  30.721  1.00  0.00    -0.237 OA
ATOM     73  O   UNL A   1      36.114  33.596  29.224  1.00  0.00    -0.744 OA
ENDBRANCH  66  70
ENDBRANCH  49  63
BRANCH  50  74
ATOM     74  C   UNL A   1      46.975  27.221  26.135  1.00  0.00     0.023 A 
ATOM     75  C   UNL A   1      48.037  26.591  26.802  1.00  0.00     0.031 A 
ATOM     76  C   UNL A   1      47.118  27.479  24.759  1.00  0.00     0.131 A 
ATOM     77  C   UNL A   1      49.211  26.274  26.101  1.00  0.00     0.055 A 
ATOM     78  C   UNL A   1      48.269  27.117  24.057  1.00  0.00     0.041 A 
ATOM     79  F   UNL A   1      46.132  28.081  24.075  1.00  0.00    -0.206 F 
ATOM     80  C   UNL A   1      49.329  26.521  24.732  1.00  0.00     0.022 A 
BRANCH  77  81
ATOM     81  S   UNL A   1      50.617  25.596  27.025  1.00  0.00     0.124 S 
ATOM     82  O   UNL A   1      50.069  24.340  27.522  1.00  0.00    -0.237 OA
ATOM     83  O   UNL A   1      51.637  25.485  25.987  1.00  0.00    -0.237 OA
ATOM     84  O   UNL A   1      50.876  26.611  28.044  1.00  0.00    -0.744 OA
ENDBRANCH  77  81
ENDBRANCH  50  74
BRANCH  62  85
ATOM     85  C   UNL A   1      45.171  33.201  29.226  1.00  0.00     0.023 A 
ATOM     86  C   UNL A   1      45.187  34.208  28.246  1.00  0.00     0.031 A 
ATOM     87  C   UNL A   1      45.885  33.425  30.418  1.00  0.00     0.131 A 
ATOM     88  C   UNL A   1      45.945  35.372  28.452  1.00  0.00     0.055 A 
ATOM     89  C   UNL A   1      46.590  34.608  30.640  1.00  0.00     0.041 A 
ATOM     90  F   UNL A   1      45.905  32.496  31.387  1.00  0.00    -0.206 F 
ATOM     91  C   UNL A   1      46.634  35.585  29.650  1.00  0.00     0.022 A 
BRANCH  88  92
ATOM     92  S   UNL A   1      46.084  36.574  27.101  1.00  0.00     0.124 S 
ATOM     93  O   UNL A   1      47.351  37.230  27.406  1.00  0.00    -0.237 OA
ATOM     94  O   UNL A   1      46.077  35.719  25.918  1.00  0.00    -0.237 OA
ATOM     95  O   UNL A   1      44.897  37.413  27.264  1.00  0.00    -0.744 OA
ENDBRANCH  88  92
ENDBRANCH  62  85
ENDBRANCH  36  37
ENDBRANCH  29  31
ENDBRANCH  28  29
ENDBRANCH  27  28
ENDBRANCH   1  27
TORSDOF 19
ENDMDL
