MODEL 1
REMARK VINA RESULT:     -11.7      0.000      0.000
REMARK SMILES Cc1ccc(S(=O)(=O)Nc2cc3c(cc2C(=O)OCCOCCOC(=O)c2ccc(-c4c5nc(c(-c6cc(S(=O)(=O)[O-])ccc6F)c6ccc([nH]6)c(-c6cc(S(=O)(=O)[O-])ccc6F)c6nc(c(-c7cc(S(=O)(=O)[O-])ccc7F)c7ccc4[nH]7)C=C6)C=C5)cc2)OCCO3)s1
REMARK SMILES IDX 21 1 20 2 19 3 18 4 16 5 17 6 15 7 10 8 11 9 12 10 14 11
REMARK SMILES IDX 13 12 93 13 90 14 92 15 91 16 9 17 6 19 7 20 8 21 5 22 1 23
REMARK SMILES IDX 2 24 3 25 94 26 4 27 22 28 23 29 24 30 25 31 26 32 27 33
REMARK SMILES IDX 28 34 89 35 29 36 88 37 30 38 31 39 32 40 82 41 33 42 87 43
REMARK SMILES IDX 81 44 83 45 34 46 86 47 80 48 79 49 35 51 67 52 47 53 66 54
REMARK SMILES IDX 48 55 51 56 65 57 84 58 49 59 50 60 64 62 85 63 52 64 36 65
REMARK SMILES IDX 37 66 45 67 38 68 44 69 46 70 43 71 39 72 40 73 41 74 42 75
REMARK SMILES IDX 68 76 69 77 77 78 70 79 76 80 78 81 75 82 71 83 72 84 73 85
REMARK SMILES IDX 74 86 53 87 54 88 62 89 55 90 61 91 63 92 60 93 56 94 57 95
REMARK SMILES IDX 58 96 59 97
REMARK H PARENT 9 18 83 50 51 61
REMARK Flexibility Score: inf
ROOT
ATOM      1  O   UNL A   1      34.086  21.147  24.300  1.00  0.00    -0.374 OA
ENDROOT
BRANCH   1   2
ATOM      2  C   UNL A   1      33.002  21.775  23.623  1.00  0.00     0.202 C 
BRANCH   2   3
ATOM      3  C   UNL A   1      33.334  22.791  22.528  1.00  0.00     0.261 C 
BRANCH   3   4
ATOM      4  O   UNL A   1      32.330  23.820  22.380  1.00  0.00    -0.460 OA
BRANCH   4   5
ATOM      5  C   UNL A   1      32.772  25.088  22.558  1.00  0.00     0.340 C 
ATOM      6  O   UNL A   1      33.911  25.500  22.405  1.00  0.00    -0.246 OA
BRANCH   5   7
ATOM      7  C   UNL A   1      31.690  25.985  23.007  1.00  0.00     0.088 A 
ATOM      8  C   UNL A   1      30.735  25.524  23.932  1.00  0.00     0.067 A 
ATOM      9  C   UNL A   1      29.500  26.168  24.007  1.00  0.00     0.078 A 
ATOM     10  C   UNL A   1      29.305  27.369  23.332  1.00  0.00     0.163 A 
ATOM     11  C   UNL A   1      31.519  27.220  22.371  1.00  0.00     0.068 A 
ATOM     12  C   UNL A   1      30.341  27.933  22.580  1.00  0.00     0.162 A 
ATOM     13  O   UNL A   1      28.078  27.961  23.486  1.00  0.00    -0.486 OA
ATOM     14  O   UNL A   1      30.243  29.167  21.990  1.00  0.00    -0.486 OA
ATOM     15  C   UNL A   1      27.894  29.033  22.555  1.00  0.00     0.271 C 
ATOM     16  C   UNL A   1      29.134  29.909  22.517  1.00  0.00     0.271 C 
BRANCH   8  17
ATOM     17  N   UNL A   1      31.025  24.395  24.762  1.00  0.00    -0.278 N 
ATOM     18  H   UNL A   1      30.699  23.500  24.511  1.00  0.00     0.180 HD
BRANCH  17  19
ATOM     19  S   UNL A   1      31.937  24.603  26.183  1.00  0.00     0.271 S 
ATOM     20  O   UNL A   1      33.265  24.129  25.868  1.00  0.00    -0.200 OA
ATOM     21  O   UNL A   1      31.191  24.049  27.294  1.00  0.00    -0.200 OA
BRANCH  19  22
ATOM     22  C   UNL A   1      32.056  26.356  26.533  1.00  0.00     0.140 A 
ATOM     23  C   UNL A   1      33.474  29.936  25.821  1.00  0.00     0.056 C 
ATOM     24  C   UNL A   1      32.793  28.704  26.311  1.00  0.00     0.003 A 
ATOM     25  C   UNL A   1      31.594  28.603  26.983  1.00  0.00     0.016 A 
ATOM     26  S   UNL A   1      33.496  27.158  26.061  1.00  0.00    -0.127 S 
ATOM     27  C   UNL A   1      31.192  27.247  27.148  1.00  0.00     0.034 A 
ENDBRANCH  19  22
ENDBRANCH  17  19
ENDBRANCH   8  17
ENDBRANCH   5   7
ENDBRANCH   4   5
ENDBRANCH   3   4
ENDBRANCH   2   3
ENDBRANCH   1   2
BRANCH   1  28
ATOM     28  C   UNL A   1      35.356  21.774  24.292  1.00  0.00     0.202 C 
BRANCH  28  29
ATOM     29  C   UNL A   1      36.575  21.001  24.808  1.00  0.00     0.261 C 
BRANCH  29  30
ATOM     30  O   UNL A   1      37.276  21.570  25.908  1.00  0.00    -0.460 OA
BRANCH  30  31
ATOM     31  C   UNL A   1      38.606  21.325  25.915  1.00  0.00     0.338 C 
ATOM     32  O   UNL A   1      39.190  20.353  25.475  1.00  0.00    -0.246 OA
BRANCH  31  33
ATOM     33  C   UNL A   1      39.269  22.511  26.471  1.00  0.00     0.060 A 
ATOM     34  C   UNL A   1      38.818  23.763  26.051  1.00  0.00     0.016 A 
ATOM     35  C   UNL A   1      40.316  22.387  27.389  1.00  0.00     0.016 A 
ATOM     36  C   UNL A   1      39.436  24.908  26.541  1.00  0.00     0.010 A 
ATOM     37  C   UNL A   1      40.934  23.539  27.880  1.00  0.00     0.010 A 
ATOM     38  C   UNL A   1      40.505  24.802  27.444  1.00  0.00    -0.014 A 
BRANCH  38  39
ATOM     39  C   UNL A   1      41.189  26.041  27.876  1.00  0.00     0.031 A 
ATOM     40  C   UNL A   1      42.610  26.282  27.458  1.00  0.00     0.074 A 
ATOM     41  C   UNL A   1      40.498  26.963  28.570  1.00  0.00     0.049 A 
ATOM     42  N   UNL A   1      43.345  27.352  27.607  1.00  0.00    -0.248 NA
ATOM     43  C   UNL A   1      43.292  25.170  26.780  1.00  0.00     0.031 C 
ATOM     44  C   UNL A   1      39.112  26.808  29.017  1.00  0.00     0.029 A 
ATOM     45  N   UNL A   1      40.852  28.214  29.003  1.00  0.00    -0.354 N 
ATOM     46  C   UNL A   1      44.572  27.052  27.025  1.00  0.00     0.074 A 
ATOM     47  C   UNL A   1      44.495  25.681  26.565  1.00  0.00     0.031 C 
ATOM     48  C   UNL A   1      38.728  27.932  29.646  1.00  0.00     0.029 A 
ATOM     49  C   UNL A   1      39.842  28.875  29.662  1.00  0.00     0.049 A 
ATOM     50  H   UNL A   1      41.744  28.602  28.856  1.00  0.00     0.167 HD
ATOM     51  C   UNL A   1      45.654  27.857  26.880  1.00  0.00     0.034 A 
ATOM     52  C   UNL A   1      39.823  30.105  30.212  1.00  0.00     0.034 A 
ATOM     53  C   UNL A   1      45.705  29.212  27.375  1.00  0.00     0.049 A 
ATOM     54  C   UNL A   1      41.053  30.967  30.068  1.00  0.00     0.074 A 
ATOM     55  C   UNL A   1      46.737  30.129  27.283  1.00  0.00     0.029 A 
ATOM     56  N   UNL A   1      44.679  29.840  28.073  1.00  0.00    -0.354 N 
ATOM     57  N   UNL A   1      42.191  30.690  29.471  1.00  0.00    -0.248 NA
ATOM     58  C   UNL A   1      40.990  32.311  30.651  1.00  0.00     0.031 C 
ATOM     59  C   UNL A   1      46.362  31.282  27.983  1.00  0.00     0.029 A 
ATOM     60  C   UNL A   1      45.066  31.117  28.448  1.00  0.00     0.049 A 
ATOM     61  H   UNL A   1      43.803  29.436  28.272  1.00  0.00     0.167 HD
ATOM     62  C   UNL A   1      42.972  31.834  29.591  1.00  0.00     0.074 A 
ATOM     63  C   UNL A   1      42.162  32.813  30.290  1.00  0.00     0.031 C 
ATOM     64  C   UNL A   1      44.244  32.062  29.168  1.00  0.00     0.034 A 
BRANCH  51  65
ATOM     65  C   UNL A   1      46.873  27.270  26.209  1.00  0.00     0.023 A 
ATOM     66  C   UNL A   1      47.870  26.596  26.937  1.00  0.00     0.031 A 
ATOM     67  C   UNL A   1      47.054  27.409  24.821  1.00  0.00     0.131 A 
ATOM     68  C   UNL A   1      49.030  26.143  26.285  1.00  0.00     0.055 A 
ATOM     69  C   UNL A   1      48.177  26.895  24.169  1.00  0.00     0.041 A 
ATOM     70  F   UNL A   1      46.149  28.064  24.077  1.00  0.00    -0.206 F 
ATOM     71  C   UNL A   1      49.179  26.268  24.903  1.00  0.00     0.022 A 
BRANCH  68  72
ATOM     72  S   UNL A   1      50.399  25.502  27.289  1.00  0.00     0.124 S 
ATOM     73  O   UNL A   1      51.477  25.431  26.307  1.00  0.00    -0.237 OA
ATOM     74  O   UNL A   1      50.538  26.521  28.323  1.00  0.00    -0.237 OA
ATOM     75  O   UNL A   1      49.904  24.206  27.755  1.00  0.00    -0.744 OA
ENDBRANCH  68  72
ENDBRANCH  51  65
BRANCH  52  76
ATOM     76  C   UNL A   1      38.620  30.587  30.952  1.00  0.00     0.023 A 
ATOM     77  C   UNL A   1      37.557  31.223  30.293  1.00  0.00     0.031 A 
ATOM     78  C   UNL A   1      38.538  30.447  32.350  1.00  0.00     0.131 A 
ATOM     79  C   UNL A   1      36.477  31.731  31.035  1.00  0.00     0.055 A 
ATOM     80  C   UNL A   1      37.439  30.909  33.077  1.00  0.00     0.041 A 
ATOM     81  F   UNL A   1      39.525  29.844  33.032  1.00  0.00    -0.206 F 
ATOM     82  C   UNL A   1      36.406  31.568  32.420  1.00  0.00     0.022 A 
BRANCH  79  83
ATOM     83  S   UNL A   1      35.202  32.692  30.171  1.00  0.00     0.124 S 
ATOM     84  O   UNL A   1      34.256  32.968  31.246  1.00  0.00    -0.237 OA
ATOM     85  O   UNL A   1      35.968  33.833  29.680  1.00  0.00    -0.237 OA
ATOM     86  O   UNL A   1      34.726  31.774  29.140  1.00  0.00    -0.744 OA
ENDBRANCH  79  83
ENDBRANCH  52  76
BRANCH  64  87
ATOM     87  C   UNL A   1      44.809  33.433  29.445  1.00  0.00     0.023 A 
ATOM     88  C   UNL A   1      44.602  34.503  28.559  1.00  0.00     0.031 A 
ATOM     89  C   UNL A   1      45.589  33.662  30.592  1.00  0.00     0.131 A 
ATOM     90  C   UNL A   1      45.226  35.736  28.797  1.00  0.00     0.055 A 
ATOM     91  C   UNL A   1      46.154  34.909  30.856  1.00  0.00     0.041 A 
ATOM     92  F   UNL A   1      45.819  32.672  31.472  1.00  0.00    -0.206 F 
ATOM     93  C   UNL A   1      45.987  35.951  29.948  1.00  0.00     0.022 A 
BRANCH  90  94
ATOM     94  S   UNL A   1      45.121  37.020  27.521  1.00  0.00     0.124 S 
ATOM     95  O   UNL A   1      45.135  38.243  28.318  1.00  0.00    -0.237 OA
ATOM     96  O   UNL A   1      46.315  36.766  26.723  1.00  0.00    -0.237 OA
ATOM     97  O   UNL A   1      43.854  36.734  26.849  1.00  0.00    -0.744 OA
ENDBRANCH  90  94
ENDBRANCH  64  87
ENDBRANCH  38  39
ENDBRANCH  31  33
ENDBRANCH  30  31
ENDBRANCH  29  30
ENDBRANCH  28  29
ENDBRANCH   1  28
TORSDOF 20
ENDMDL
MODEL 2
REMARK VINA RESULT:     -11.6      1.904      3.040
REMARK SMILES Cc1ccc(S(=O)(=O)Nc2cc3c(cc2C(=O)OCCOCCOC(=O)c2ccc(-c4c5nc(c(-c6cc(S(=O)(=O)[O-])ccc6F)c6ccc([nH]6)c(-c6cc(S(=O)(=O)[O-])ccc6F)c6nc(c(-c7cc(S(=O)(=O)[O-])ccc7F)c7ccc4[nH]7)C=C6)C=C5)cc2)OCCO3)s1
REMARK SMILES IDX 21 1 20 2 19 3 18 4 16 5 17 6 15 7 10 8 11 9 12 10 14 11
REMARK SMILES IDX 13 12 93 13 90 14 92 15 91 16 9 17 6 19 7 20 8 21 5 22 1 23
REMARK SMILES IDX 2 24 3 25 94 26 4 27 22 28 23 29 24 30 25 31 26 32 27 33
REMARK SMILES IDX 28 34 89 35 29 36 88 37 30 38 31 39 32 40 82 41 33 42 87 43
REMARK SMILES IDX 81 44 83 45 34 46 86 47 80 48 79 49 35 51 67 52 47 53 66 54
REMARK SMILES IDX 48 55 51 56 65 57 84 58 49 59 50 60 64 62 85 63 52 64 36 65
REMARK SMILES IDX 37 66 45 67 38 68 44 69 46 70 43 71 39 72 40 73 41 74 42 75
REMARK SMILES IDX 68 76 69 77 77 78 70 79 76 80 78 81 75 82 71 83 72 84 73 85
REMARK SMILES IDX 74 86 53 87 54 88 62 89 55 90 61 91 63 92 60 93 56 94 57 95
REMARK SMILES IDX 58 96 59 97
REMARK H PARENT 9 18 83 50 51 61
REMARK Flexibility Score: inf
ROOT
ATOM      1  O   UNL A   1      35.025  21.681  25.567  1.00  0.00    -0.374 OA
ENDROOT
BRANCH   1   2
ATOM      2  C   UNL A   1      34.775  21.872  26.956  1.00  0.00     0.202 C 
BRANCH   2   3
ATOM      3  C   UNL A   1      33.351  21.643  27.466  1.00  0.00     0.261 C 
BRANCH   3   4
ATOM      4  O   UNL A   1      32.609  22.867  27.658  1.00  0.00    -0.460 OA
BRANCH   4   5
ATOM      5  C   UNL A   1      31.909  23.294  26.580  1.00  0.00     0.340 C 
ATOM      6  O   UNL A   1      31.079  22.664  25.943  1.00  0.00    -0.246 OA
BRANCH   5   7
ATOM      7  C   UNL A   1      32.277  24.671  26.198  1.00  0.00     0.088 A 
ATOM      8  C   UNL A   1      33.303  24.887  25.259  1.00  0.00     0.067 A 
ATOM      9  C   UNL A   1      33.951  26.122  25.237  1.00  0.00     0.078 A 
ATOM     10  C   UNL A   1      33.444  27.182  25.984  1.00  0.00     0.163 A 
ATOM     11  C   UNL A   1      31.731  25.746  26.908  1.00  0.00     0.068 A 
ATOM     12  C   UNL A   1      32.289  27.013  26.756  1.00  0.00     0.162 A 
ATOM     13  O   UNL A   1      34.113  28.374  25.880  1.00  0.00    -0.486 OA
ATOM     14  O   UNL A   1      31.682  28.048  27.419  1.00  0.00    -0.486 OA
ATOM     15  C   UNL A   1      33.677  29.306  26.876  1.00  0.00     0.271 C 
ATOM     16  C   UNL A   1      32.159  29.317  26.950  1.00  0.00     0.271 C 
BRANCH   8  17
ATOM     17  N   UNL A   1      33.687  23.842  24.359  1.00  0.00    -0.278 N 
ATOM     18  H   UNL A   1      34.388  23.200  24.618  1.00  0.00     0.180 HD
BRANCH  17  19
ATOM     19  S   UNL A   1      32.925  23.709  22.844  1.00  0.00     0.271 S 
ATOM     20  O   UNL A   1      32.069  22.549  22.938  1.00  0.00    -0.200 OA
ATOM     21  O   UNL A   1      33.935  23.809  21.811  1.00  0.00    -0.200 OA
BRANCH  19  22
ATOM     22  C   UNL A   1      31.875  25.141  22.606  1.00  0.00     0.140 A 
ATOM     23  C   UNL A   1      28.843  27.410  23.603  1.00  0.00     0.056 C 
ATOM     24  C   UNL A   1      30.032  26.737  23.006  1.00  0.00     0.003 A 
ATOM     25  C   UNL A   1      31.049  27.300  22.267  1.00  0.00     0.016 A 
ATOM     26  S   UNL A   1      30.269  25.047  23.199  1.00  0.00    -0.127 S 
ATOM     27  C   UNL A   1      32.090  26.368  22.001  1.00  0.00     0.034 A 
ENDBRANCH  19  22
ENDBRANCH  17  19
ENDBRANCH   8  17
ENDBRANCH   5   7
ENDBRANCH   4   5
ENDBRANCH   3   4
ENDBRANCH   2   3
ENDBRANCH   1   2
BRANCH   1  28
ATOM     28  C   UNL A   1      35.857  20.609  25.161  1.00  0.00     0.202 C 
BRANCH  28  29
ATOM     29  C   UNL A   1      37.358  20.857  24.970  1.00  0.00     0.261 C 
BRANCH  29  30
ATOM     30  O   UNL A   1      37.942  21.889  25.758  1.00  0.00    -0.460 OA
BRANCH  30  31
ATOM     31  C   UNL A   1      39.186  21.612  26.213  1.00  0.00     0.338 C 
ATOM     32  O   UNL A   1      39.799  20.565  26.127  1.00  0.00    -0.246 OA
BRANCH  31  33
ATOM     33  C   UNL A   1      39.739  22.856  26.764  1.00  0.00     0.060 A 
ATOM     34  C   UNL A   1      39.251  24.061  26.260  1.00  0.00     0.016 A 
ATOM     35  C   UNL A   1      40.722  22.829  27.759  1.00  0.00     0.016 A 
ATOM     36  C   UNL A   1      39.767  25.259  26.743  1.00  0.00     0.010 A 
ATOM     37  C   UNL A   1      41.237  24.033  28.242  1.00  0.00     0.010 A 
ATOM     38  C   UNL A   1      40.772  25.251  27.723  1.00  0.00    -0.014 A 
BRANCH  38  39
ATOM     39  C   UNL A   1      41.353  26.543  28.149  1.00  0.00     0.031 A 
ATOM     40  C   UNL A   1      42.765  26.879  27.766  1.00  0.00     0.074 A 
ATOM     41  C   UNL A   1      40.577  27.426  28.805  1.00  0.00     0.049 A 
ATOM     42  N   UNL A   1      43.417  28.001  27.914  1.00  0.00    -0.248 NA
ATOM     43  C   UNL A   1      43.544  25.806  27.130  1.00  0.00     0.031 C 
ATOM     44  C   UNL A   1      39.194  27.180  29.216  1.00  0.00     0.029 A 
ATOM     45  N   UNL A   1      40.829  28.706  29.222  1.00  0.00    -0.354 N 
ATOM     46  C   UNL A   1      44.678  27.780  27.372  1.00  0.00     0.074 A 
ATOM     47  C   UNL A   1      44.713  26.399  26.939  1.00  0.00     0.031 C 
ATOM     48  C   UNL A   1      38.711  28.284  29.810  1.00  0.00     0.029 A 
ATOM     49  C   UNL A   1      39.755  29.305  29.839  1.00  0.00     0.049 A 
ATOM     50  H   UNL A   1      41.694  29.155  29.092  1.00  0.00     0.167 HD
ATOM     51  C   UNL A   1      45.704  28.658  27.242  1.00  0.00     0.034 A 
ATOM     52  C   UNL A   1      39.632  30.540  30.364  1.00  0.00     0.034 A 
ATOM     53  C   UNL A   1      45.643  30.022  27.711  1.00  0.00     0.049 A 
ATOM     54  C   UNL A   1      40.800  31.486  30.237  1.00  0.00     0.074 A 
ATOM     55  C   UNL A   1      46.609  31.009  27.630  1.00  0.00     0.029 A 
ATOM     56  N   UNL A   1      44.555  30.586  28.367  1.00  0.00    -0.354 N 
ATOM     57  N   UNL A   1      41.973  31.280  29.677  1.00  0.00    -0.248 NA
ATOM     58  C   UNL A   1      40.625  32.832  30.791  1.00  0.00     0.031 C 
ATOM     59  C   UNL A   1      46.132  32.144  28.296  1.00  0.00     0.029 A 
ATOM     60  C   UNL A   1      44.839  31.894  28.727  1.00  0.00     0.049 A 
ATOM     61  H   UNL A   1      43.705  30.124  28.549  1.00  0.00     0.167 HD
ATOM     62  C   UNL A   1      42.666  32.480  29.797  1.00  0.00     0.074 A 
ATOM     63  C   UNL A   1      41.768  33.410  30.452  1.00  0.00     0.031 C 
ATOM     64  C   UNL A   1      43.930  32.790  29.404  1.00  0.00     0.034 A 
BRANCH  51  65
ATOM     65  C   UNL A   1      46.980  28.148  26.617  1.00  0.00     0.023 A 
ATOM     66  C   UNL A   1      47.191  28.178  25.227  1.00  0.00     0.031 A 
ATOM     67  C   UNL A   1      47.993  27.597  27.423  1.00  0.00     0.131 A 
ATOM     68  C   UNL A   1      48.355  27.612  24.681  1.00  0.00     0.055 A 
ATOM     69  C   UNL A   1      49.180  27.099  26.878  1.00  0.00     0.041 A 
ATOM     70  F   UNL A   1      47.840  27.517  28.754  1.00  0.00    -0.206 F 
ATOM     71  C   UNL A   1      49.361  27.093  25.499  1.00  0.00     0.022 A 
BRANCH  68  72
ATOM     72  S   UNL A   1      48.481  27.447  22.878  1.00  0.00     0.124 S 
ATOM     73  O   UNL A   1      48.389  26.000  22.706  1.00  0.00    -0.237 OA
ATOM     74  O   UNL A   1      47.338  28.222  22.409  1.00  0.00    -0.237 OA
ATOM     75  O   UNL A   1      49.791  28.021  22.572  1.00  0.00    -0.744 OA
ENDBRANCH  68  72
ENDBRANCH  51  65
BRANCH  52  76
ATOM     76  C   UNL A   1      38.377  30.947  31.060  1.00  0.00     0.023 A 
ATOM     77  C   UNL A   1      37.333  31.594  30.379  1.00  0.00     0.031 A 
ATOM     78  C   UNL A   1      38.220  30.723  32.441  1.00  0.00     0.131 A 
ATOM     79  C   UNL A   1      36.201  32.031  31.085  1.00  0.00     0.055 A 
ATOM     80  C   UNL A   1      37.070  31.114  33.128  1.00  0.00     0.041 A 
ATOM     81  F   UNL A   1      39.184  30.106  33.143  1.00  0.00    -0.206 F 
ATOM     82  C   UNL A   1      36.057  31.785  32.452  1.00  0.00     0.022 A 
BRANCH  79  83
ATOM     83  S   UNL A   1      34.949  33.009  30.206  1.00  0.00     0.124 S 
ATOM     84  O   UNL A   1      35.750  34.096  29.655  1.00  0.00    -0.237 OA
ATOM     85  O   UNL A   1      34.431  32.041  29.246  1.00  0.00    -0.237 OA
ATOM     86  O   UNL A   1      34.017  33.395  31.263  1.00  0.00    -0.744 OA
ENDBRANCH  79  83
ENDBRANCH  52  76
BRANCH  64  87
ATOM     87  C   UNL A   1      44.387  34.203  29.670  1.00  0.00     0.023 A 
ATOM     88  C   UNL A   1      44.203  35.224  28.722  1.00  0.00     0.031 A 
ATOM     89  C   UNL A   1      45.042  34.525  30.871  1.00  0.00     0.131 A 
ATOM     90  C   UNL A   1      44.730  36.501  28.959  1.00  0.00     0.055 A 
ATOM     91  C   UNL A   1      45.508  35.814  31.129  1.00  0.00     0.041 A 
ATOM     92  F   UNL A   1      45.246  33.587  31.812  1.00  0.00    -0.206 F 
ATOM     93  C   UNL A   1      45.368  36.807  30.164  1.00  0.00     0.022 A 
BRANCH  90  94
ATOM     94  S   UNL A   1      44.671  37.725  27.622  1.00  0.00     0.124 S 
ATOM     95  O   UNL A   1      43.426  37.375  26.945  1.00  0.00    -0.237 OA
ATOM     96  O   UNL A   1      44.666  38.987  28.354  1.00  0.00    -0.237 OA
ATOM     97  O   UNL A   1      45.888  37.457  26.858  1.00  0.00    -0.744 OA
ENDBRANCH  90  94
ENDBRANCH  64  87
ENDBRANCH  38  39
ENDBRANCH  31  33
ENDBRANCH  30  31
ENDBRANCH  29  30
ENDBRANCH  28  29
ENDBRANCH   1  28
TORSDOF 20
ENDMDL
MODEL 3
REMARK VINA RESULT:     -11.5      2.111      2.603
REMARK SMILES Cc1ccc(S(=O)(=O)Nc2cc3c(cc2C(=O)OCCOCCOC(=O)c2ccc(-c4c5nc(c(-c6cc(S(=O)(=O)[O-])ccc6F)c6ccc([nH]6)c(-c6cc(S(=O)(=O)[O-])ccc6F)c6nc(c(-c7cc(S(=O)(=O)[O-])ccc7F)c7ccc4[nH]7)C=C6)C=C5)cc2)OCCO3)s1
REMARK SMILES IDX 21 1 20 2 19 3 18 4 16 5 17 6 15 7 10 8 11 9 12 10 14 11
REMARK SMILES IDX 13 12 93 13 90 14 92 15 91 16 9 17 6 19 7 20 8 21 5 22 1 23
REMARK SMILES IDX 2 24 3 25 94 26 4 27 22 28 23 29 24 30 25 31 26 32 27 33
REMARK SMILES IDX 28 34 89 35 29 36 88 37 30 38 31 39 32 40 82 41 33 42 87 43
REMARK SMILES IDX 81 44 83 45 34 46 86 47 80 48 79 49 35 51 67 52 47 53 66 54
REMARK SMILES IDX 48 55 51 56 65 57 84 58 49 59 50 60 64 62 85 63 52 64 36 65
REMARK SMILES IDX 37 66 45 67 38 68 44 69 46 70 43 71 39 72 40 73 41 74 42 75
REMARK SMILES IDX 68 76 69 77 77 78 70 79 76 80 78 81 75 82 71 83 72 84 73 85
REMARK SMILES IDX 74 86 53 87 54 88 62 89 55 90 61 91 63 92 60 93 56 94 57 95
REMARK SMILES IDX 58 96 59 97
REMARK H PARENT 9 18 83 50 51 61
REMARK Flexibility Score: inf
ROOT
ATOM      1  O   UNL A   1      34.219  21.753  24.735  1.00  0.00    -0.374 OA
ENDROOT
BRANCH   1   2
ATOM      2  C   UNL A   1      32.805  21.621  24.634  1.00  0.00     0.202 C 
BRANCH   2   3
ATOM      3  C   UNL A   1      31.935  22.638  25.376  1.00  0.00     0.261 C 
BRANCH   3   4
ATOM      4  O   UNL A   1      31.215  23.526  24.493  1.00  0.00    -0.460 OA
BRANCH   4   5
ATOM      5  C   UNL A   1      30.664  24.611  25.088  1.00  0.00     0.340 C 
ATOM      6  O   UNL A   1      30.532  24.807  26.286  1.00  0.00    -0.246 OA
BRANCH   5   7
ATOM      7  C   UNL A   1      30.183  25.593  24.097  1.00  0.00     0.088 A 
ATOM      8  C   UNL A   1      31.002  25.949  23.009  1.00  0.00     0.067 A 
ATOM      9  C   UNL A   1      30.771  27.159  22.355  1.00  0.00     0.078 A 
ATOM     10  C   UNL A   1      29.621  27.889  22.640  1.00  0.00     0.163 A 
ATOM     11  C   UNL A   1      28.999  26.294  24.349  1.00  0.00     0.068 A 
ATOM     12  C   UNL A   1      28.698  27.415  23.579  1.00  0.00     0.162 A 
ATOM     13  O   UNL A   1      29.444  29.047  21.929  1.00  0.00    -0.486 OA
ATOM     14  O   UNL A   1      27.497  28.033  23.816  1.00  0.00    -0.486 OA
ATOM     15  C   UNL A   1      28.388  29.843  22.479  1.00  0.00     0.271 C 
ATOM     16  C   UNL A   1      27.180  28.970  22.777  1.00  0.00     0.271 C 
BRANCH   8  17
ATOM     17  N   UNL A   1      32.071  25.087  22.601  1.00  0.00    -0.278 N 
ATOM     18  H   UNL A   1      31.873  24.206  22.207  1.00  0.00     0.180 HD
BRANCH  17  19
ATOM     19  S   UNL A   1      33.684  25.591  22.797  1.00  0.00     0.271 S 
ATOM     20  O   UNL A   1      33.978  26.414  21.646  1.00  0.00    -0.200 OA
ATOM     21  O   UNL A   1      34.493  24.432  23.112  1.00  0.00    -0.200 OA
BRANCH  19  22
ATOM     22  C   UNL A   1      33.783  26.634  24.250  1.00  0.00     0.140 A 
ATOM     23  C   UNL A   1      33.182  30.019  26.125  1.00  0.00     0.056 C 
ATOM     24  C   UNL A   1      33.530  28.646  25.663  1.00  0.00     0.003 A 
ATOM     25  C   UNL A   1      33.661  27.500  26.417  1.00  0.00     0.016 A 
ATOM     26  S   UNL A   1      33.826  28.330  24.001  1.00  0.00    -0.127 S 
ATOM     27  C   UNL A   1      33.849  26.348  25.604  1.00  0.00     0.034 A 
ENDBRANCH  19  22
ENDBRANCH  17  19
ENDBRANCH   8  17
ENDBRANCH   5   7
ENDBRANCH   4   5
ENDBRANCH   3   4
ENDBRANCH   2   3
ENDBRANCH   1   2
BRANCH   1  28
ATOM     28  C   UNL A   1      34.974  20.671  25.250  1.00  0.00     0.202 C 
BRANCH  28  29
ATOM     29  C   UNL A   1      36.490  20.642  25.024  1.00  0.00     0.261 C 
BRANCH  29  30
ATOM     30  O   UNL A   1      37.258  21.633  25.697  1.00  0.00    -0.460 OA
BRANCH  30  31
ATOM     31  C   UNL A   1      38.556  21.304  25.890  1.00  0.00     0.338 C 
ATOM     32  O   UNL A   1      39.113  20.260  25.607  1.00  0.00    -0.246 OA
BRANCH  31  33
ATOM     33  C   UNL A   1      39.235  22.490  26.426  1.00  0.00     0.060 A 
ATOM     34  C   UNL A   1      38.731  23.741  26.072  1.00  0.00     0.016 A 
ATOM     35  C   UNL A   1      40.349  22.365  27.263  1.00  0.00     0.016 A 
ATOM     36  C   UNL A   1      39.362  24.887  26.545  1.00  0.00     0.010 A 
ATOM     37  C   UNL A   1      40.979  23.517  27.736  1.00  0.00     0.010 A 
ATOM     38  C   UNL A   1      40.496  24.782  27.365  1.00  0.00    -0.014 A 
BRANCH  38  39
ATOM     39  C   UNL A   1      41.187  26.023  27.777  1.00  0.00     0.031 A 
ATOM     40  C   UNL A   1      42.567  26.306  27.258  1.00  0.00     0.074 A 
ATOM     41  C   UNL A   1      40.533  26.912  28.548  1.00  0.00     0.049 A 
ATOM     42  N   UNL A   1      43.290  27.387  27.380  1.00  0.00    -0.248 NA
ATOM     43  C   UNL A   1      43.216  25.227  26.500  1.00  0.00     0.031 C 
ATOM     44  C   UNL A   1      39.189  26.715  29.094  1.00  0.00     0.029 A 
ATOM     45  N   UNL A   1      40.895  28.158  28.986  1.00  0.00    -0.354 N 
ATOM     46  C   UNL A   1      44.474  27.129  26.698  1.00  0.00     0.074 A 
ATOM     47  C   UNL A   1      44.389  25.770  26.209  1.00  0.00     0.031 C 
ATOM     48  C   UNL A   1      38.832  27.814  29.781  1.00  0.00     0.029 A 
ATOM     49  C   UNL A   1      39.926  28.780  29.738  1.00  0.00     0.049 A 
ATOM     50  H   UNL A   1      41.765  28.570  28.782  1.00  0.00     0.167 HD
ATOM     51  C   UNL A   1      45.525  27.961  26.494  1.00  0.00     0.034 A 
ATOM     52  C   UNL A   1      39.925  29.995  30.322  1.00  0.00     0.034 A 
ATOM     53  C   UNL A   1      45.588  29.304  27.021  1.00  0.00     0.049 A 
ATOM     54  C   UNL A   1      41.122  30.887  30.108  1.00  0.00     0.074 A 
ATOM     55  C   UNL A   1      46.591  30.245  26.876  1.00  0.00     0.029 A 
ATOM     56  N   UNL A   1      44.606  29.891  27.812  1.00  0.00    -0.354 N 
ATOM     57  N   UNL A   1      42.217  30.650  29.418  1.00  0.00    -0.248 NA
ATOM     58  C   UNL A   1      41.078  32.214  30.731  1.00  0.00     0.031 C 
ATOM     59  C   UNL A   1      46.248  31.371  27.634  1.00  0.00     0.029 A 
ATOM     60  C   UNL A   1      44.995  31.166  28.191  1.00  0.00     0.049 A 
ATOM     61  H   UNL A   1      43.756  29.463  28.066  1.00  0.00     0.167 HD
ATOM     62  C   UNL A   1      42.982  31.808  29.511  1.00  0.00     0.074 A 
ATOM     63  C   UNL A   1      42.209  32.750  30.295  1.00  0.00     0.031 C 
ATOM     64  C   UNL A   1      44.212  32.073  28.998  1.00  0.00     0.034 A 
BRANCH  51  65
ATOM     65  C   UNL A   1      46.700  27.418  25.716  1.00  0.00     0.023 A 
ATOM     66  C   UNL A   1      47.004  27.869  24.418  1.00  0.00     0.031 A 
ATOM     67  C   UNL A   1      47.514  26.414  26.270  1.00  0.00     0.131 A 
ATOM     68  C   UNL A   1      48.052  27.273  23.696  1.00  0.00     0.055 A 
ATOM     69  C   UNL A   1      48.599  25.876  25.573  1.00  0.00     0.041 A 
ATOM     70  F   UNL A   1      47.259  25.926  27.494  1.00  0.00    -0.206 F 
ATOM     71  C   UNL A   1      48.865  26.296  24.274  1.00  0.00     0.022 A 
BRANCH  68  72
ATOM     72  S   UNL A   1      48.258  27.704  21.946  1.00  0.00     0.124 S 
ATOM     73  O   UNL A   1      46.960  28.295  21.632  1.00  0.00    -0.237 OA
ATOM     74  O   UNL A   1      49.390  28.623  21.977  1.00  0.00    -0.237 OA
ATOM     75  O   UNL A   1      48.520  26.416  21.304  1.00  0.00    -0.744 OA
ENDBRANCH  68  72
ENDBRANCH  51  65
BRANCH  52  76
ATOM     76  C   UNL A   1      38.773  30.430  31.164  1.00  0.00     0.023 A 
ATOM     77  C   UNL A   1      37.686  31.132  30.620  1.00  0.00     0.031 A 
ATOM     78  C   UNL A   1      38.765  30.179  32.549  1.00  0.00     0.131 A 
ATOM     79  C   UNL A   1      36.658  31.593  31.459  1.00  0.00     0.055 A 
ATOM     80  C   UNL A   1      37.716  30.595  33.371  1.00  0.00     0.041 A 
ATOM     81  F   UNL A   1      39.777  29.510  33.124  1.00  0.00    -0.206 F 
ATOM     82  C   UNL A   1      36.660  31.319  32.828  1.00  0.00     0.022 A 
BRANCH  79  83
ATOM     83  S   UNL A   1      35.355  32.638  30.748  1.00  0.00     0.124 S 
ATOM     84  O   UNL A   1      34.250  32.408  31.672  1.00  0.00    -0.237 OA
ATOM     85  O   UNL A   1      35.970  33.960  30.797  1.00  0.00    -0.237 OA
ATOM     86  O   UNL A   1      35.173  32.087  29.407  1.00  0.00    -0.744 OA
ENDBRANCH  79  83
ENDBRANCH  52  76
BRANCH  64  87
ATOM     87  C   UNL A   1      44.770  33.449  29.269  1.00  0.00     0.023 A 
ATOM     88  C   UNL A   1      45.562  33.708  30.400  1.00  0.00     0.031 A 
ATOM     89  C   UNL A   1      44.479  34.518  28.404  1.00  0.00     0.131 A 
ATOM     90  C   UNL A   1      45.979  35.018  30.675  1.00  0.00     0.055 A 
ATOM     91  C   UNL A   1      44.951  35.808  28.649  1.00  0.00     0.041 A 
ATOM     92  F   UNL A   1      43.724  34.326  27.309  1.00  0.00    -0.206 F 
ATOM     93  C   UNL A   1      45.692  36.067  29.799  1.00  0.00     0.022 A 
BRANCH  90  94
ATOM     94  S   UNL A   1      46.805  35.350  32.255  1.00  0.00     0.124 S 
ATOM     95  O   UNL A   1      48.125  35.795  31.820  1.00  0.00    -0.237 OA
ATOM     96  O   UNL A   1      45.950  36.375  32.845  1.00  0.00    -0.237 OA
ATOM     97  O   UNL A   1      46.780  34.056  32.934  1.00  0.00    -0.744 OA
ENDBRANCH  90  94
ENDBRANCH  64  87
ENDBRANCH  38  39
ENDBRANCH  31  33
ENDBRANCH  30  31
ENDBRANCH  29  30
ENDBRANCH  28  29
ENDBRANCH   1  28
TORSDOF 20
ENDMDL
