MODEL 1
REMARK VINA RESULT:      -9.1      0.000      0.000
REMARK SMILES C[C@@H](C(=O)OCCOCCOC(=O)c1ccc(-c2c3nc(c(-c4cc(S(=O)(=O)[O-])ccc4F)c4ccc([nH]4)c(-c4cc(S(=O)(=O)[O-])ccc4F)c4nc(c(-c5cc(S(=O)(=O)[O-])ccc5F)c5ccc2[nH]5)C=C4)C=C3)cc1)c1ccc(C(=O)c2cccs2)cc1
REMARK SMILES IDX 8 1 7 2 6 3 5 4 3 5 4 6 2 7 1 8 77 9 78 10 89 11 79 12 88 13
REMARK SMILES IDX 80 14 81 15 82 16 83 17 84 18 87 19 85 20 86 21 9 22 10 23
REMARK SMILES IDX 11 24 12 25 13 26 14 27 15 28 76 29 16 30 75 31 17 32 18 33
REMARK SMILES IDX 19 34 69 35 20 36 74 37 68 38 70 39 21 40 73 41 67 42 66 43
REMARK SMILES IDX 22 45 54 46 34 47 53 48 35 49 38 50 52 51 71 52 36 53 37 54
REMARK SMILES IDX 51 56 72 57 39 58 23 59 24 60 32 61 25 62 31 63 33 64 30 65
REMARK SMILES IDX 26 66 27 67 28 68 29 69 55 70 56 71 64 72 57 73 63 74 65 75
REMARK SMILES IDX 62 76 58 77 59 78 60 79 61 80 40 81 41 82 49 83 42 84 48 85
REMARK SMILES IDX 50 86 47 87 43 88 44 89 45 90 46 91
REMARK H PARENT 70 44 38 55
REMARK Flexibility Score: inf
ROOT
ATOM      1  O   UNL A   1      33.914  35.857  30.159  1.00  0.00    -0.374 OA
ENDROOT
BRANCH   1   2
ATOM      2  C   UNL A   1      33.434  35.343  31.402  1.00  0.00     0.202 C 
BRANCH   2   3
ATOM      3  C   UNL A   1      33.874  36.095  32.660  1.00  0.00     0.261 C 
BRANCH   3   4
ATOM      4  O   UNL A   1      35.275  35.889  32.920  1.00  0.00    -0.463 OA
BRANCH   4   5
ATOM      5  C   UNL A   1      35.612  34.668  33.415  1.00  0.00     0.313 C 
ATOM      6  O   UNL A   1      35.484  34.343  34.593  1.00  0.00    -0.252 OA
BRANCH   5   7
ATOM      7  C   UNL A   1      36.152  33.713  32.338  1.00  0.00     0.126 C 
ATOM      8  C   UNL A   1      35.852  32.231  32.599  1.00  0.00     0.025 C 
BRANCH   7   9
ATOM      9  C   UNL A   1      37.623  34.018  32.033  1.00  0.00    -0.034 A 
ATOM     10  C   UNL A   1      38.497  34.223  33.113  1.00  0.00     0.005 A 
ATOM     11  C   UNL A   1      38.164  34.046  30.740  1.00  0.00     0.005 A 
ATOM     12  C   UNL A   1      39.863  34.438  32.911  1.00  0.00     0.012 A 
ATOM     13  C   UNL A   1      39.538  34.260  30.534  1.00  0.00     0.012 A 
ATOM     14  C   UNL A   1      40.400  34.461  31.619  1.00  0.00     0.023 A 
BRANCH  14  15
ATOM     15  C   UNL A   1      41.886  34.633  31.479  1.00  0.00     0.202 C 
ATOM     16  O   UNL A   1      42.488  35.198  32.393  1.00  0.00    -0.288 OA
BRANCH  15  17
ATOM     17  C   UNL A   1      42.569  34.134  30.299  1.00  0.00     0.075 A 
ATOM     18  C   UNL A   1      43.019  34.810  29.181  1.00  0.00     0.024 A 
ATOM     19  S   UNL A   1      42.969  32.468  30.231  1.00  0.00    -0.140 S 
ATOM     20  C   UNL A   1      43.663  33.942  28.249  1.00  0.00     0.012 A 
ATOM     21  C   UNL A   1      43.694  32.639  28.693  1.00  0.00     0.065 A 
ENDBRANCH  15  17
ENDBRANCH  14  15
ENDBRANCH   7   9
ENDBRANCH   5   7
ENDBRANCH   4   5
ENDBRANCH   3   4
ENDBRANCH   2   3
ENDBRANCH   1   2
BRANCH   1  22
ATOM     22  C   UNL A   1      33.846  34.998  29.021  1.00  0.00     0.202 C 
BRANCH  22  23
ATOM     23  C   UNL A   1      34.124  33.508  29.257  1.00  0.00     0.261 C 
BRANCH  23  24
ATOM     24  O   UNL A   1      34.662  32.849  28.095  1.00  0.00    -0.460 OA
BRANCH  24  25
ATOM     25  C   UNL A   1      34.375  31.526  28.016  1.00  0.00     0.338 C 
ATOM     26  O   UNL A   1      33.318  31.029  27.644  1.00  0.00    -0.246 OA
BRANCH  25  27
ATOM     27  C   UNL A   1      35.583  30.716  28.261  1.00  0.00     0.060 A 
ATOM     28  C   UNL A   1      35.590  29.901  29.400  1.00  0.00     0.016 A 
ATOM     29  C   UNL A   1      36.717  30.810  27.452  1.00  0.00     0.016 A 
ATOM     30  C   UNL A   1      36.746  29.212  29.762  1.00  0.00     0.010 A 
ATOM     31  C   UNL A   1      37.882  30.125  27.823  1.00  0.00     0.010 A 
ATOM     32  C   UNL A   1      37.912  29.352  28.998  1.00  0.00    -0.014 A 
BRANCH  32  33
ATOM     33  C   UNL A   1      39.194  28.815  29.525  1.00  0.00     0.031 A 
ATOM     34  C   UNL A   1      39.797  29.448  30.751  1.00  0.00     0.074 A 
ATOM     35  C   UNL A   1      39.786  27.753  28.952  1.00  0.00     0.049 A 
ATOM     36  N   UNL A   1      40.914  29.162  31.371  1.00  0.00    -0.248 NA
ATOM     37  C   UNL A   1      39.039  30.554  31.354  1.00  0.00     0.031 C 
ATOM     38  C   UNL A   1      39.271  27.025  27.792  1.00  0.00     0.029 A 
ATOM     39  N   UNL A   1      40.952  27.100  29.268  1.00  0.00    -0.354 N 
ATOM     40  C   UNL A   1      40.991  30.049  32.440  1.00  0.00     0.074 A 
ATOM     41  C   UNL A   1      39.830  30.910  32.354  1.00  0.00     0.031 C 
ATOM     42  C   UNL A   1      40.126  26.031  27.488  1.00  0.00     0.029 A 
ATOM     43  C   UNL A   1      41.262  26.075  28.406  1.00  0.00     0.049 A 
ATOM     44  H   UNL A   1      41.514  27.345  30.039  1.00  0.00     0.167 HD
ATOM     45  C   UNL A   1      41.936  30.131  33.409  1.00  0.00     0.034 A 
ATOM     46  C   UNL A   1      42.350  25.279  28.349  1.00  0.00     0.034 A 
ATOM     47  C   UNL A   1      43.096  29.275  33.475  1.00  0.00     0.049 A 
ATOM     48  C   UNL A   1      43.437  25.448  29.384  1.00  0.00     0.074 A 
ATOM     49  C   UNL A   1      44.113  29.268  34.414  1.00  0.00     0.029 A 
ATOM     50  N   UNL A   1      43.402  28.279  32.556  1.00  0.00    -0.354 N 
ATOM     51  N   UNL A   1      43.497  26.289  30.391  1.00  0.00    -0.248 NA
ATOM     52  C   UNL A   1      44.596  24.552  29.281  1.00  0.00     0.031 C 
ATOM     53  C   UNL A   1      45.066  28.320  34.025  1.00  0.00     0.029 A 
ATOM     54  C   UNL A   1      44.607  27.677  32.887  1.00  0.00     0.049 A 
ATOM     55  H   UNL A   1      42.845  28.035  31.781  1.00  0.00     0.167 HD
ATOM     56  C   UNL A   1      44.688  26.002  31.057  1.00  0.00     0.074 A 
ATOM     57  C   UNL A   1      45.305  24.902  30.345  1.00  0.00     0.031 C 
ATOM     58  C   UNL A   1      45.219  26.589  32.159  1.00  0.00     0.034 A 
BRANCH  45  59
ATOM     59  C   UNL A   1      41.773  31.220  34.443  1.00  0.00     0.023 A 
ATOM     60  C   UNL A   1      40.741  31.186  35.398  1.00  0.00     0.031 A 
ATOM     61  C   UNL A   1      42.643  32.325  34.453  1.00  0.00     0.131 A 
ATOM     62  C   UNL A   1      40.562  32.269  36.273  1.00  0.00     0.055 A 
ATOM     63  C   UNL A   1      42.507  33.361  35.377  1.00  0.00     0.041 A 
ATOM     64  F   UNL A   1      43.632  32.423  33.551  1.00  0.00    -0.206 F 
ATOM     65  C   UNL A   1      41.452  33.345  36.286  1.00  0.00     0.022 A 
BRANCH  62  66
ATOM     66  S   UNL A   1      39.064  32.320  37.295  1.00  0.00     0.124 S 
ATOM     67  O   UNL A   1      38.399  33.517  36.784  1.00  0.00    -0.237 OA
ATOM     68  O   UNL A   1      38.423  31.049  36.978  1.00  0.00    -0.237 OA
ATOM     69  O   UNL A   1      39.581  32.437  38.656  1.00  0.00    -0.744 OA
ENDBRANCH  62  66
ENDBRANCH  45  59
BRANCH  46  70
ATOM     70  C   UNL A   1      42.500  24.283  27.249  1.00  0.00     0.023 A 
ATOM     71  C   UNL A   1      41.891  23.020  27.320  1.00  0.00     0.031 A 
ATOM     72  C   UNL A   1      43.305  24.565  26.131  1.00  0.00     0.131 A 
ATOM     73  C   UNL A   1      42.134  22.070  26.314  1.00  0.00     0.055 A 
ATOM     74  C   UNL A   1      43.502  23.636  25.109  1.00  0.00     0.041 A 
ATOM     75  F   UNL A   1      43.913  25.757  26.016  1.00  0.00    -0.206 F 
ATOM     76  C   UNL A   1      42.924  22.375  25.203  1.00  0.00     0.022 A 
BRANCH  73  77
ATOM     77  S   UNL A   1      41.468  20.395  26.521  1.00  0.00     0.124 S 
ATOM     78  O   UNL A   1      42.048  20.001  27.800  1.00  0.00    -0.237 OA
ATOM     79  O   UNL A   1      40.030  20.639  26.514  1.00  0.00    -0.237 OA
ATOM     80  O   UNL A   1      41.982  19.679  25.354  1.00  0.00    -0.744 OA
ENDBRANCH  73  77
ENDBRANCH  46  70
BRANCH  58  81
ATOM     81  C   UNL A   1      46.514  26.018  32.686  1.00  0.00     0.023 A 
ATOM     82  C   UNL A   1      47.763  26.421  32.183  1.00  0.00     0.031 A 
ATOM     83  C   UNL A   1      46.495  25.048  33.705  1.00  0.00     0.131 A 
ATOM     84  C   UNL A   1      48.938  25.817  32.659  1.00  0.00     0.055 A 
ATOM     85  C   UNL A   1      47.669  24.494  34.217  1.00  0.00     0.041 A 
ATOM     86  F   UNL A   1      45.330  24.625  34.224  1.00  0.00    -0.206 F 
ATOM     87  C   UNL A   1      48.899  24.869  33.685  1.00  0.00     0.022 A 
BRANCH  84  88
ATOM     88  S   UNL A   1      50.514  26.225  31.860  1.00  0.00     0.124 S 
ATOM     89  O   UNL A   1      51.483  25.653  32.789  1.00  0.00    -0.237 OA
ATOM     90  O   UNL A   1      50.393  25.552  30.569  1.00  0.00    -0.237 OA
ATOM     91  O   UNL A   1      50.500  27.686  31.799  1.00  0.00    -0.744 OA
ENDBRANCH  84  88
ENDBRANCH  58  81
ENDBRANCH  32  33
ENDBRANCH  25  27
ENDBRANCH  24  25
ENDBRANCH  23  24
ENDBRANCH  22  23
ENDBRANCH   1  22
TORSDOF 20
ENDMDL
MODEL 2
REMARK VINA RESULT:      -9.0      1.913      2.440
REMARK SMILES C[C@@H](C(=O)OCCOCCOC(=O)c1ccc(-c2c3nc(c(-c4cc(S(=O)(=O)[O-])ccc4F)c4ccc([nH]4)c(-c4cc(S(=O)(=O)[O-])ccc4F)c4nc(c(-c5cc(S(=O)(=O)[O-])ccc5F)c5ccc2[nH]5)C=C4)C=C3)cc1)c1ccc(C(=O)c2cccs2)cc1
REMARK SMILES IDX 8 1 7 2 6 3 5 4 3 5 4 6 2 7 1 8 77 9 78 10 89 11 79 12 88 13
REMARK SMILES IDX 80 14 81 15 82 16 83 17 84 18 87 19 85 20 86 21 9 22 10 23
REMARK SMILES IDX 11 24 12 25 13 26 14 27 15 28 76 29 16 30 75 31 17 32 18 33
REMARK SMILES IDX 19 34 69 35 20 36 74 37 68 38 70 39 21 40 73 41 67 42 66 43
REMARK SMILES IDX 22 45 54 46 34 47 53 48 35 49 38 50 52 51 71 52 36 53 37 54
REMARK SMILES IDX 51 56 72 57 39 58 23 59 24 60 32 61 25 62 31 63 33 64 30 65
REMARK SMILES IDX 26 66 27 67 28 68 29 69 55 70 56 71 64 72 57 73 63 74 65 75
REMARK SMILES IDX 62 76 58 77 59 78 60 79 61 80 40 81 41 82 49 83 42 84 48 85
REMARK SMILES IDX 50 86 47 87 43 88 44 89 45 90 46 91
REMARK H PARENT 70 44 38 55
REMARK Flexibility Score: inf
ROOT
ATOM      1  O   UNL A   1      34.271  35.064  30.177  1.00  0.00    -0.374 OA
ENDROOT
BRANCH   1   2
ATOM      2  C   UNL A   1      33.389  35.736  31.077  1.00  0.00     0.202 C 
BRANCH   2   3
ATOM      3  C   UNL A   1      33.708  35.594  32.568  1.00  0.00     0.261 C 
BRANCH   3   4
ATOM      4  O   UNL A   1      35.120  35.742  32.808  1.00  0.00    -0.463 OA
BRANCH   4   5
ATOM      5  C   UNL A   1      35.735  34.683  33.399  1.00  0.00     0.313 C 
ATOM      6  O   UNL A   1      35.989  34.614  34.599  1.00  0.00    -0.252 OA
BRANCH   5   7
ATOM      7  C   UNL A   1      36.062  33.551  32.410  1.00  0.00     0.126 C 
ATOM      8  C   UNL A   1      35.879  32.139  32.981  1.00  0.00     0.025 C 
BRANCH   7   9
ATOM      9  C   UNL A   1      37.421  33.793  31.743  1.00  0.00    -0.034 A 
ATOM     10  C   UNL A   1      37.524  33.600  30.355  1.00  0.00     0.005 A 
ATOM     11  C   UNL A   1      38.556  34.254  32.425  1.00  0.00     0.005 A 
ATOM     12  C   UNL A   1      38.713  33.867  29.672  1.00  0.00     0.012 A 
ATOM     13  C   UNL A   1      39.753  34.526  31.738  1.00  0.00     0.012 A 
ATOM     14  C   UNL A   1      39.843  34.332  30.355  1.00  0.00     0.023 A 
BRANCH  14  15
ATOM     15  C   UNL A   1      41.067  34.659  29.548  1.00  0.00     0.202 C 
ATOM     16  O   UNL A   1      40.929  35.383  28.562  1.00  0.00    -0.288 OA
BRANCH  15  17
ATOM     17  C   UNL A   1      42.362  34.133  29.943  1.00  0.00     0.075 A 
ATOM     18  C   UNL A   1      42.748  32.833  30.211  1.00  0.00     0.024 A 
ATOM     19  S   UNL A   1      43.683  35.219  30.061  1.00  0.00    -0.140 S 
ATOM     20  C   UNL A   1      44.131  32.741  30.551  1.00  0.00     0.012 A 
ATOM     21  C   UNL A   1      44.754  33.969  30.516  1.00  0.00     0.065 A 
ENDBRANCH  15  17
ENDBRANCH  14  15
ENDBRANCH   7   9
ENDBRANCH   5   7
ENDBRANCH   4   5
ENDBRANCH   3   4
ENDBRANCH   2   3
ENDBRANCH   1   2
BRANCH   1  22
ATOM     22  C   UNL A   1      33.746  33.958  29.444  1.00  0.00     0.202 C 
BRANCH  22  23
ATOM     23  C   UNL A   1      34.063  33.903  27.944  1.00  0.00     0.261 C 
BRANCH  23  24
ATOM     24  O   UNL A   1      35.029  32.888  27.614  1.00  0.00    -0.460 OA
BRANCH  24  25
ATOM     25  C   UNL A   1      34.633  31.622  27.896  1.00  0.00     0.338 C 
ATOM     26  O   UNL A   1      33.496  31.175  27.802  1.00  0.00    -0.246 OA
BRANCH  25  27
ATOM     27  C   UNL A   1      35.799  30.760  28.161  1.00  0.00     0.060 A 
ATOM     28  C   UNL A   1      35.784  30.002  29.340  1.00  0.00     0.016 A 
ATOM     29  C   UNL A   1      36.921  30.749  27.329  1.00  0.00     0.016 A 
ATOM     30  C   UNL A   1      36.908  29.270  29.717  1.00  0.00     0.010 A 
ATOM     31  C   UNL A   1      38.054  30.020  27.715  1.00  0.00     0.010 A 
ATOM     32  C   UNL A   1      38.065  29.306  28.927  1.00  0.00    -0.014 A 
BRANCH  32  33
ATOM     33  C   UNL A   1      39.325  28.725  29.459  1.00  0.00     0.031 A 
ATOM     34  C   UNL A   1      39.981  29.378  30.648  1.00  0.00     0.074 A 
ATOM     35  C   UNL A   1      39.852  27.609  28.925  1.00  0.00     0.049 A 
ATOM     36  N   UNL A   1      41.090  29.060  31.264  1.00  0.00    -0.248 NA
ATOM     37  C   UNL A   1      39.291  30.547  31.212  1.00  0.00     0.031 C 
ATOM     38  C   UNL A   1      39.281  26.860  27.806  1.00  0.00     0.029 A 
ATOM     39  N   UNL A   1      40.987  26.911  29.253  1.00  0.00    -0.354 N 
ATOM     40  C   UNL A   1      41.231  29.987  32.292  1.00  0.00     0.074 A 
ATOM     41  C   UNL A   1      40.116  30.903  32.184  1.00  0.00     0.031 C 
ATOM     42  C   UNL A   1      40.077  25.811  27.533  1.00  0.00     0.029 A 
ATOM     43  C   UNL A   1      41.230  25.834  28.432  1.00  0.00     0.049 A 
ATOM     44  H   UNL A   1      41.573  27.158  30.004  1.00  0.00     0.167 HD
ATOM     45  C   UNL A   1      42.195  30.060  33.243  1.00  0.00     0.034 A 
ATOM     46  C   UNL A   1      42.273  24.981  28.395  1.00  0.00     0.034 A 
ATOM     47  C   UNL A   1      43.310  29.148  33.330  1.00  0.00     0.049 A 
ATOM     48  C   UNL A   1      43.384  25.136  29.407  1.00  0.00     0.074 A 
ATOM     49  C   UNL A   1      44.340  29.128  34.254  1.00  0.00     0.029 A 
ATOM     50  N   UNL A   1      43.549  28.099  32.451  1.00  0.00    -0.354 N 
ATOM     51  N   UNL A   1      43.505  26.015  30.375  1.00  0.00    -0.248 NA
ATOM     52  C   UNL A   1      44.493  24.176  29.326  1.00  0.00     0.031 C 
ATOM     53  C   UNL A   1      45.236  28.115  33.894  1.00  0.00     0.029 A 
ATOM     54  C   UNL A   1      44.726  27.449  32.791  1.00  0.00     0.049 A 
ATOM     55  H   UNL A   1      42.967  27.852  31.695  1.00  0.00     0.167 HD
ATOM     56  C   UNL A   1      44.689  25.695  31.035  1.00  0.00     0.074 A 
ATOM     57  C   UNL A   1      45.236  24.534  30.364  1.00  0.00     0.031 C 
ATOM     58  C   UNL A   1      45.269  26.300  32.104  1.00  0.00     0.034 A 
BRANCH  45  59
ATOM     59  C   UNL A   1      42.106  31.200  34.231  1.00  0.00     0.023 A 
ATOM     60  C   UNL A   1      42.658  32.464  33.954  1.00  0.00     0.031 A 
ATOM     61  C   UNL A   1      41.491  31.010  35.480  1.00  0.00     0.131 A 
ATOM     62  C   UNL A   1      42.647  33.463  34.939  1.00  0.00     0.055 A 
ATOM     63  C   UNL A   1      41.414  32.034  36.426  1.00  0.00     0.041 A 
ATOM     64  F   UNL A   1      40.967  29.819  35.810  1.00  0.00    -0.206 F 
ATOM     65  C   UNL A   1      42.006  33.266  36.164  1.00  0.00     0.022 A 
BRANCH  62  66
ATOM     66  S   UNL A   1      43.607  34.976  34.651  1.00  0.00     0.124 S 
ATOM     67  O   UNL A   1      44.870  34.433  34.157  1.00  0.00    -0.237 OA
ATOM     68  O   UNL A   1      42.791  35.686  33.674  1.00  0.00    -0.237 OA
ATOM     69  O   UNL A   1      43.678  35.593  35.974  1.00  0.00    -0.744 OA
ENDBRANCH  62  66
ENDBRANCH  45  59
BRANCH  46  70
ATOM     70  C   UNL A   1      42.353  23.931  27.338  1.00  0.00     0.023 A 
ATOM     71  C   UNL A   1      41.802  22.655  27.533  1.00  0.00     0.031 A 
ATOM     72  C   UNL A   1      43.035  24.178  26.133  1.00  0.00     0.131 A 
ATOM     73  C   UNL A   1      41.982  21.661  26.558  1.00  0.00     0.055 A 
ATOM     74  C   UNL A   1      43.166  23.202  25.145  1.00  0.00     0.041 A 
ATOM     75  F   UNL A   1      43.583  25.382  25.897  1.00  0.00    -0.206 F 
ATOM     76  C   UNL A   1      42.648  21.930  25.360  1.00  0.00     0.022 A 
BRANCH  73  77
ATOM     77  S   UNL A   1      41.403  19.978  26.914  1.00  0.00     0.124 S 
ATOM     78  O   UNL A   1      40.491  19.736  25.802  1.00  0.00    -0.237 OA
ATOM     79  O   UNL A   1      42.649  19.220  26.902  1.00  0.00    -0.237 OA
ATOM     80  O   UNL A   1      40.769  20.108  28.226  1.00  0.00    -0.744 OA
ENDBRANCH  73  77
ENDBRANCH  46  70
BRANCH  58  81
ATOM     81  C   UNL A   1      46.540  25.684  32.637  1.00  0.00     0.023 A 
ATOM     82  C   UNL A   1      46.527  24.733  33.671  1.00  0.00     0.031 A 
ATOM     83  C   UNL A   1      47.786  26.062  32.103  1.00  0.00     0.131 A 
ATOM     84  C   UNL A   1      47.737  24.233  34.178  1.00  0.00     0.055 A 
ATOM     85  C   UNL A   1      48.983  25.518  32.570  1.00  0.00     0.041 A 
ATOM     86  F   UNL A   1      47.859  26.968  31.114  1.00  0.00    -0.206 F 
ATOM     87  C   UNL A   1      48.963  24.607  33.622  1.00  0.00     0.022 A 
BRANCH  84  88
ATOM     88  S   UNL A   1      47.693  23.151  35.633  1.00  0.00     0.124 S 
ATOM     89  O   UNL A   1      48.804  22.242  35.370  1.00  0.00    -0.237 OA
ATOM     90  O   UNL A   1      47.886  24.094  36.730  1.00  0.00    -0.237 OA
ATOM     91  O   UNL A   1      46.365  22.542  35.568  1.00  0.00    -0.744 OA
ENDBRANCH  84  88
ENDBRANCH  58  81
ENDBRANCH  32  33
ENDBRANCH  25  27
ENDBRANCH  24  25
ENDBRANCH  23  24
ENDBRANCH  22  23
ENDBRANCH   1  22
TORSDOF 20
ENDMDL
MODEL 3
REMARK VINA RESULT:      -9.0      3.998      7.507
REMARK SMILES C[C@@H](C(=O)OCCOCCOC(=O)c1ccc(-c2c3nc(c(-c4cc(S(=O)(=O)[O-])ccc4F)c4ccc([nH]4)c(-c4cc(S(=O)(=O)[O-])ccc4F)c4nc(c(-c5cc(S(=O)(=O)[O-])ccc5F)c5ccc2[nH]5)C=C4)C=C3)cc1)c1ccc(C(=O)c2cccs2)cc1
REMARK SMILES IDX 8 1 7 2 6 3 5 4 3 5 4 6 2 7 1 8 77 9 78 10 89 11 79 12 88 13
REMARK SMILES IDX 80 14 81 15 82 16 83 17 84 18 87 19 85 20 86 21 9 22 10 23
REMARK SMILES IDX 11 24 12 25 13 26 14 27 15 28 76 29 16 30 75 31 17 32 18 33
REMARK SMILES IDX 19 34 69 35 20 36 74 37 68 38 70 39 21 40 73 41 67 42 66 43
REMARK SMILES IDX 22 45 54 46 34 47 53 48 35 49 38 50 52 51 71 52 36 53 37 54
REMARK SMILES IDX 51 56 72 57 39 58 23 59 24 60 32 61 25 62 31 63 33 64 30 65
REMARK SMILES IDX 26 66 27 67 28 68 29 69 55 70 56 71 64 72 57 73 63 74 65 75
REMARK SMILES IDX 62 76 58 77 59 78 60 79 61 80 40 81 41 82 49 83 42 84 48 85
REMARK SMILES IDX 50 86 47 87 43 88 44 89 45 90 46 91
REMARK H PARENT 70 44 38 55
REMARK Flexibility Score: inf
ROOT
ATOM      1  O   UNL A   1      31.582  28.325  25.039  1.00  0.00    -0.374 OA
ENDROOT
BRANCH   1   2
ATOM      2  C   UNL A   1      32.715  27.998  24.232  1.00  0.00     0.202 C 
BRANCH   2   3
ATOM      3  C   UNL A   1      33.137  26.526  24.226  1.00  0.00     0.261 C 
BRANCH   3   4
ATOM      4  O   UNL A   1      32.214  25.729  23.462  1.00  0.00    -0.463 OA
BRANCH   4   5
ATOM      5  C   UNL A   1      32.766  24.943  22.499  1.00  0.00     0.313 C 
ATOM      6  O   UNL A   1      33.282  25.371  21.471  1.00  0.00    -0.252 OA
BRANCH   5   7
ATOM      7  C   UNL A   1      32.703  23.445  22.841  1.00  0.00     0.126 C 
ATOM      8  C   UNL A   1      31.478  23.035  23.668  1.00  0.00     0.025 C 
BRANCH   7   9
ATOM      9  C   UNL A   1      34.043  22.964  23.411  1.00  0.00    -0.034 A 
ATOM     10  C   UNL A   1      34.022  22.036  24.465  1.00  0.00     0.005 A 
ATOM     11  C   UNL A   1      35.292  23.349  22.904  1.00  0.00     0.005 A 
ATOM     12  C   UNL A   1      35.203  21.504  24.988  1.00  0.00     0.012 A 
ATOM     13  C   UNL A   1      36.482  22.814  23.427  1.00  0.00     0.012 A 
ATOM     14  C   UNL A   1      36.449  21.888  24.477  1.00  0.00     0.023 A 
BRANCH  14  15
ATOM     15  C   UNL A   1      37.674  21.228  25.043  1.00  0.00     0.202 C 
ATOM     16  O   UNL A   1      37.869  20.044  24.768  1.00  0.00    -0.288 OA
BRANCH  15  17
ATOM     17  C   UNL A   1      38.589  21.986  25.877  1.00  0.00     0.075 A 
ATOM     18  C   UNL A   1      38.510  23.292  26.324  1.00  0.00     0.024 A 
ATOM     19  S   UNL A   1      39.980  21.195  26.493  1.00  0.00    -0.140 S 
ATOM     20  C   UNL A   1      39.619  23.649  27.147  1.00  0.00     0.012 A 
ATOM     21  C   UNL A   1      40.498  22.602  27.311  1.00  0.00     0.065 A 
ENDBRANCH  15  17
ENDBRANCH  14  15
ENDBRANCH   7   9
ENDBRANCH   5   7
ENDBRANCH   4   5
ENDBRANCH   3   4
ENDBRANCH   2   3
ENDBRANCH   1   2
BRANCH   1  22
ATOM     22  C   UNL A   1      31.528  29.638  25.594  1.00  0.00     0.202 C 
BRANCH  22  23
ATOM     23  C   UNL A   1      32.388  29.904  26.837  1.00  0.00     0.261 C 
BRANCH  23  24
ATOM     24  O   UNL A   1      33.655  30.509  26.520  1.00  0.00    -0.460 OA
BRANCH  24  25
ATOM     25  C   UNL A   1      34.090  31.414  27.433  1.00  0.00     0.338 C 
ATOM     26  O   UNL A   1      33.443  32.338  27.911  1.00  0.00    -0.246 OA
BRANCH  25  27
ATOM     27  C   UNL A   1      35.421  31.038  27.944  1.00  0.00     0.060 A 
ATOM     28  C   UNL A   1      35.611  29.702  28.322  1.00  0.00     0.016 A 
ATOM     29  C   UNL A   1      36.437  31.977  28.133  1.00  0.00     0.016 A 
ATOM     30  C   UNL A   1      36.800  29.310  28.935  1.00  0.00     0.010 A 
ATOM     31  C   UNL A   1      37.627  31.583  28.758  1.00  0.00     0.010 A 
ATOM     32  C   UNL A   1      37.800  30.256  29.194  1.00  0.00    -0.014 A 
BRANCH  32  33
ATOM     33  C   UNL A   1      38.948  29.881  30.060  1.00  0.00     0.031 A 
ATOM     34  C   UNL A   1      39.027  30.454  31.450  1.00  0.00     0.074 A 
ATOM     35  C   UNL A   1      39.878  29.008  29.635  1.00  0.00     0.049 A 
ATOM     36  N   UNL A   1      39.944  30.284  32.368  1.00  0.00    -0.248 NA
ATOM     37  C   UNL A   1      37.924  31.338  31.854  1.00  0.00     0.031 C 
ATOM     38  C   UNL A   1      39.880  28.348  28.329  1.00  0.00     0.029 A 
ATOM     39  N   UNL A   1      41.002  28.525  30.257  1.00  0.00    -0.354 N 
ATOM     40  C   UNL A   1      39.528  31.038  33.461  1.00  0.00     0.074 A 
ATOM     41  C   UNL A   1      38.300  31.698  33.072  1.00  0.00     0.031 C 
ATOM     42  C   UNL A   1      40.963  27.554  28.244  1.00  0.00     0.029 A 
ATOM     43  C   UNL A   1      41.747  27.676  29.472  1.00  0.00     0.049 A 
ATOM     44  H   UNL A   1      41.253  28.765  31.178  1.00  0.00     0.167 HD
ATOM     45  C   UNL A   1      40.110  31.159  34.680  1.00  0.00     0.034 A 
ATOM     46  C   UNL A   1      42.936  27.085  29.708  1.00  0.00     0.034 A 
ATOM     47  C   UNL A   1      41.343  30.506  35.051  1.00  0.00     0.049 A 
ATOM     48  C   UNL A   1      43.614  27.306  31.039  1.00  0.00     0.074 A 
ATOM     49  C   UNL A   1      42.018  30.556  36.258  1.00  0.00     0.029 A 
ATOM     50  N   UNL A   1      42.095  29.692  34.213  1.00  0.00    -0.354 N 
ATOM     51  N   UNL A   1      43.210  28.019  32.065  1.00  0.00    -0.248 NA
ATOM     52  C   UNL A   1      44.904  26.634  31.246  1.00  0.00     0.031 C 
ATOM     53  C   UNL A   1      43.209  29.833  36.127  1.00  0.00     0.029 A 
ATOM     54  C   UNL A   1      43.241  29.264  34.864  1.00  0.00     0.049 A 
ATOM     55  H   UNL A   1      41.849  29.454  33.289  1.00  0.00     0.167 HD
ATOM     56  C   UNL A   1      44.183  27.856  33.049  1.00  0.00     0.074 A 
ATOM     57  C   UNL A   1      45.184  26.967  32.498  1.00  0.00     0.031 C 
ATOM     58  C   UNL A   1      44.240  28.388  34.298  1.00  0.00     0.034 A 
BRANCH  45  59
ATOM     59  C   UNL A   1      39.441  32.074  35.678  1.00  0.00     0.023 A 
ATOM     60  C   UNL A   1      39.830  33.417  35.828  1.00  0.00     0.031 A 
ATOM     61  C   UNL A   1      38.422  31.588  36.516  1.00  0.00     0.131 A 
ATOM     62  C   UNL A   1      39.255  34.204  36.838  1.00  0.00     0.055 A 
ATOM     63  C   UNL A   1      37.799  32.399  37.466  1.00  0.00     0.041 A 
ATOM     64  F   UNL A   1      38.024  30.309  36.435  1.00  0.00    -0.206 F 
ATOM     65  C   UNL A   1      38.225  33.712  37.641  1.00  0.00     0.022 A 
BRANCH  62  66
ATOM     66  S   UNL A   1      39.975  35.834  37.182  1.00  0.00     0.124 S 
ATOM     67  O   UNL A   1      41.389  35.504  37.339  1.00  0.00    -0.237 OA
ATOM     68  O   UNL A   1      39.623  36.593  35.988  1.00  0.00    -0.237 OA
ATOM     69  O   UNL A   1      39.302  36.253  38.410  1.00  0.00    -0.744 OA
ENDBRANCH  62  66
ENDBRANCH  45  59
BRANCH  46  70
ATOM     70  C   UNL A   1      43.595  26.266  28.649  1.00  0.00     0.023 A 
ATOM     71  C   UNL A   1      44.468  26.844  27.716  1.00  0.00     0.031 A 
ATOM     72  C   UNL A   1      43.311  24.894  28.525  1.00  0.00     0.131 A 
ATOM     73  C   UNL A   1      44.992  26.064  26.672  1.00  0.00     0.055 A 
ATOM     74  C   UNL A   1      43.876  24.111  27.516  1.00  0.00     0.041 A 
ATOM     75  F   UNL A   1      42.480  24.291  29.390  1.00  0.00    -0.206 F 
ATOM     76  C   UNL A   1      44.713  24.699  26.575  1.00  0.00     0.022 A 
BRANCH  73  77
ATOM     77  S   UNL A   1      45.982  26.880  25.389  1.00  0.00     0.124 S 
ATOM     78  O   UNL A   1      45.022  27.822  24.827  1.00  0.00    -0.237 OA
ATOM     79  O   UNL A   1      47.070  27.459  26.169  1.00  0.00    -0.237 OA
ATOM     80  O   UNL A   1      46.368  25.779  24.507  1.00  0.00    -0.744 OA
ENDBRANCH  73  77
ENDBRANCH  46  70
BRANCH  58  81
ATOM     81  C   UNL A   1      45.407  27.980  35.165  1.00  0.00     0.023 A 
ATOM     82  C   UNL A   1      46.601  28.722  35.201  1.00  0.00     0.031 A 
ATOM     83  C   UNL A   1      45.323  26.826  35.965  1.00  0.00     0.131 A 
ATOM     84  C   UNL A   1      47.682  28.272  35.974  1.00  0.00     0.055 A 
ATOM     85  C   UNL A   1      46.380  26.415  36.778  1.00  0.00     0.041 A 
ATOM     86  F   UNL A   1      44.208  26.078  35.970  1.00  0.00    -0.206 F 
ATOM     87  C   UNL A   1      47.573  27.132  36.776  1.00  0.00     0.022 A 
BRANCH  84  88
ATOM     88  S   UNL A   1      49.266  29.147  35.853  1.00  0.00     0.124 S 
ATOM     89  O   UNL A   1      49.911  28.783  37.111  1.00  0.00    -0.237 OA
ATOM     90  O   UNL A   1      49.850  28.571  34.646  1.00  0.00    -0.237 OA
ATOM     91  O   UNL A   1      48.874  30.552  35.740  1.00  0.00    -0.744 OA
ENDBRANCH  84  88
ENDBRANCH  58  81
ENDBRANCH  32  33
ENDBRANCH  25  27
ENDBRANCH  24  25
ENDBRANCH  23  24
ENDBRANCH  22  23
ENDBRANCH   1  22
TORSDOF 20
ENDMDL
