MODEL 1
REMARK VINA RESULT:     -11.9      0.000      0.000
REMARK SMILES O=C(OCCOCCOC(=O)[C@@H](Cc1ccc(F)cc1)NC(=O)c1ccn(C2CCCC2)n1)c1ccc(-c2c3nc(c(-c4cc(S(=O)(=O)[O-])ccc4F)c4ccc([nH]4)c(-c4cc(S(=O)(=O)[O-])ccc4F)c4nc(c(-c5cc(S(=O)(=O)[O-])ccc5F)c5ccc2[nH]5)C=C4)C=C3)cc1
REMARK SMILES IDX 6 1 5 2 4 3 3 4 2 5 1 6 34 7 35 8 96 9 36 10 95 11 37 12
REMARK SMILES IDX 38 13 39 14 89 15 40 16 94 17 88 18 90 19 41 20 93 21 87 22
REMARK SMILES IDX 86 23 42 25 74 26 54 27 73 28 55 29 58 30 72 31 91 32 56 33
REMARK SMILES IDX 57 34 71 36 92 37 59 38 43 39 44 40 52 41 45 42 51 43 53 44
REMARK SMILES IDX 50 45 46 46 47 47 48 48 49 49 75 50 76 51 84 52 77 53 83 54
REMARK SMILES IDX 85 55 82 56 78 57 79 58 80 59 81 60 60 61 61 62 69 63 62 64
REMARK SMILES IDX 68 65 70 66 67 67 63 68 64 69 65 70 66 71 7 72 8 73 9 74
REMARK SMILES IDX 10 75 11 76 12 77 13 78 14 79 15 80 20 81 16 82 19 83 17 84
REMARK SMILES IDX 18 85 21 86 22 87 23 89 24 90 25 91 33 92 26 93 27 94 28 95
REMARK SMILES IDX 29 96 32 97 30 98 31 99
REMARK H PARENT 90 24 58 35 21 88
REMARK Flexibility Score: inf
ROOT
ATOM      1  O   UNL A   1      36.943  22.272  24.845  1.00  0.00    -0.374 OA
ENDROOT
BRANCH   1   2
ATOM      2  C   UNL A   1      37.674  21.066  25.016  1.00  0.00     0.202 C 
BRANCH   2   3
ATOM      3  C   UNL A   1      38.978  21.117  25.819  1.00  0.00     0.261 C 
BRANCH   3   4
ATOM      4  O   UNL A   1      39.349  22.425  26.280  1.00  0.00    -0.460 OA
BRANCH   4   5
ATOM      5  C   UNL A   1      40.163  22.725  27.318  1.00  0.00     0.338 C 
ATOM      6  O   UNL A   1      40.847  21.852  27.834  1.00  0.00    -0.246 OA
BRANCH   5   7
ATOM      7  C   UNL A   1      40.410  24.132  27.706  1.00  0.00     0.060 A 
ATOM      8  C   UNL A   1      41.562  24.594  28.329  1.00  0.00     0.016 A 
ATOM      9  C   UNL A   1      39.379  25.043  27.407  1.00  0.00     0.016 A 
ATOM     10  C   UNL A   1      41.609  25.882  28.826  1.00  0.00     0.010 A 
ATOM     11  C   UNL A   1      39.457  26.363  27.831  1.00  0.00     0.010 A 
ATOM     12  C   UNL A   1      40.547  26.756  28.602  1.00  0.00    -0.014 A 
BRANCH  12  13
ATOM     13  C   UNL A   1      40.703  28.100  29.139  1.00  0.00     0.031 A 
ATOM     14  C   UNL A   1      41.829  28.893  28.580  1.00  0.00     0.074 A 
ATOM     15  C   UNL A   1      39.872  28.644  30.043  1.00  0.00     0.049 A 
ATOM     16  N   UNL A   1      42.843  29.397  29.205  1.00  0.00    -0.248 NA
ATOM     17  C   UNL A   1      41.877  29.060  27.120  1.00  0.00     0.031 C 
ATOM     18  C   UNL A   1      38.585  28.127  30.508  1.00  0.00     0.029 A 
ATOM     19  N   UNL A   1      39.969  29.858  30.655  1.00  0.00    -0.354 N 
ATOM     20  C   UNL A   1      43.556  30.118  28.254  1.00  0.00     0.074 A 
ATOM     21  C   UNL A   1      42.996  29.769  26.973  1.00  0.00     0.031 C 
ATOM     22  C   UNL A   1      37.920  29.120  31.135  1.00  0.00     0.029 A 
ATOM     23  C   UNL A   1      38.780  30.288  31.219  1.00  0.00     0.049 A 
ATOM     24  H   UNL A   1      40.804  30.378  30.692  1.00  0.00     0.167 HD
ATOM     25  C   UNL A   1      44.432  31.100  28.594  1.00  0.00     0.034 A 
ATOM     26  C   UNL A   1      38.497  31.546  31.631  1.00  0.00     0.034 A 
ATOM     27  C   UNL A   1      44.898  30.969  29.951  1.00  0.00     0.049 A 
ATOM     28  C   UNL A   1      39.789  32.207  31.945  1.00  0.00     0.074 A 
ATOM     29  C   UNL A   1      45.547  29.976  30.661  1.00  0.00     0.029 A 
ATOM     30  N   UNL A   1      44.434  31.852  30.896  1.00  0.00    -0.354 N 
ATOM     31  N   UNL A   1      40.592  31.829  32.904  1.00  0.00    -0.248 NA
ATOM     32  C   UNL A   1      40.388  33.088  30.952  1.00  0.00     0.031 C 
ATOM     33  C   UNL A   1      45.025  30.059  31.984  1.00  0.00     0.029 A 
ATOM     34  C   UNL A   1      44.105  31.110  32.004  1.00  0.00     0.049 A 
ATOM     35  H   UNL A   1      44.354  32.828  30.798  1.00  0.00     0.167 HD
ATOM     36  C   UNL A   1      41.869  32.087  32.430  1.00  0.00     0.074 A 
ATOM     37  C   UNL A   1      41.675  32.971  31.288  1.00  0.00     0.031 C 
ATOM     38  C   UNL A   1      42.943  31.350  32.836  1.00  0.00     0.034 A 
BRANCH  25  39
ATOM     39  C   UNL A   1      44.636  32.353  27.779  1.00  0.00     0.023 A 
ATOM     40  C   UNL A   1      43.954  33.524  28.163  1.00  0.00     0.031 A 
ATOM     41  C   UNL A   1      45.241  32.381  26.500  1.00  0.00     0.131 A 
ATOM     42  C   UNL A   1      43.857  34.619  27.286  1.00  0.00     0.055 A 
ATOM     43  C   UNL A   1      45.207  33.499  25.665  1.00  0.00     0.041 A 
ATOM     44  F   UNL A   1      45.808  31.297  25.953  1.00  0.00    -0.206 F 
ATOM     45  C   UNL A   1      44.492  34.620  26.047  1.00  0.00     0.022 A 
BRANCH  42  46
ATOM     46  S   UNL A   1      42.737  35.976  27.719  1.00  0.00     0.124 S 
ATOM     47  O   UNL A   1      43.674  37.067  27.963  1.00  0.00    -0.237 OA
ATOM     48  O   UNL A   1      41.918  36.088  26.516  1.00  0.00    -0.237 OA
ATOM     49  O   UNL A   1      42.039  35.476  28.902  1.00  0.00    -0.744 OA
ENDBRANCH  42  46
ENDBRANCH  25  39
BRANCH  26  50
ATOM     50  C   UNL A   1      37.198  32.256  31.488  1.00  0.00     0.023 A 
ATOM     51  C   UNL A   1      36.769  32.749  30.242  1.00  0.00     0.031 A 
ATOM     52  C   UNL A   1      36.244  32.271  32.534  1.00  0.00     0.131 A 
ATOM     53  C   UNL A   1      35.453  33.234  30.082  1.00  0.00     0.055 A 
ATOM     54  C   UNL A   1      34.954  32.783  32.380  1.00  0.00     0.041 A 
ATOM     55  F   UNL A   1      36.494  31.706  33.725  1.00  0.00    -0.206 F 
ATOM     56  C   UNL A   1      34.549  33.259  31.147  1.00  0.00     0.022 A 
BRANCH  53  57
ATOM     57  S   UNL A   1      34.845  33.699  28.434  1.00  0.00     0.124 S 
ATOM     58  O   UNL A   1      33.566  33.001  28.375  1.00  0.00    -0.237 OA
ATOM     59  O   UNL A   1      34.785  35.154  28.512  1.00  0.00    -0.237 OA
ATOM     60  O   UNL A   1      35.879  33.177  27.540  1.00  0.00    -0.744 OA
ENDBRANCH  53  57
ENDBRANCH  26  50
BRANCH  38  61
ATOM     61  C   UNL A   1      42.823  30.506  34.081  1.00  0.00     0.023 A 
ATOM     62  C   UNL A   1      42.261  29.211  34.110  1.00  0.00     0.031 A 
ATOM     63  C   UNL A   1      43.454  30.974  35.246  1.00  0.00     0.131 A 
ATOM     64  C   UNL A   1      42.339  28.439  35.284  1.00  0.00     0.055 A 
ATOM     65  C   UNL A   1      43.541  30.202  36.404  1.00  0.00     0.041 A 
ATOM     66  F   UNL A   1      44.046  32.182  35.261  1.00  0.00    -0.206 F 
ATOM     67  C   UNL A   1      42.981  28.929  36.427  1.00  0.00     0.022 A 
BRANCH  64  68
ATOM     68  S   UNL A   1      41.650  26.753  35.320  1.00  0.00     0.124 S 
ATOM     69  O   UNL A   1      40.602  26.801  34.308  1.00  0.00    -0.237 OA
ATOM     70  O   UNL A   1      42.811  25.921  35.009  1.00  0.00    -0.237 OA
ATOM     71  O   UNL A   1      41.163  26.612  36.694  1.00  0.00    -0.744 OA
ENDBRANCH  64  68
ENDBRANCH  38  61
ENDBRANCH  12  13
ENDBRANCH   5   7
ENDBRANCH   4   5
ENDBRANCH   3   4
ENDBRANCH   2   3
ENDBRANCH   1   2
BRANCH   1  72
ATOM     72  C   UNL A   1      35.712  22.477  25.546  1.00  0.00     0.202 C 
BRANCH  72  73
ATOM     73  C   UNL A   1      34.417  21.921  24.944  1.00  0.00     0.261 C 
BRANCH  73  74
ATOM     74  O   UNL A   1      33.255  22.562  25.497  1.00  0.00    -0.462 OA
BRANCH  74  75
ATOM     75  C   UNL A   1      32.429  23.135  24.586  1.00  0.00     0.329 C 
ATOM     76  O   UNL A   1      31.418  22.597  24.141  1.00  0.00    -0.250 OA
BRANCH  75  77
ATOM     77  C   UNL A   1      32.779  24.604  24.280  1.00  0.00     0.197 C 
BRANCH  77  78
ATOM     78  C   UNL A   1      33.649  25.389  25.280  1.00  0.00     0.072 C 
BRANCH  78  79
ATOM     79  C   UNL A   1      33.153  26.677  25.896  1.00  0.00    -0.045 A 
ATOM     80  C   UNL A   1      34.101  27.666  26.220  1.00  0.00     0.007 A 
ATOM     81  C   UNL A   1      31.814  26.930  26.208  1.00  0.00     0.007 A 
ATOM     82  C   UNL A   1      33.716  28.911  26.718  1.00  0.00     0.039 A 
ATOM     83  C   UNL A   1      31.427  28.170  26.727  1.00  0.00     0.039 A 
ATOM     84  C   UNL A   1      32.377  29.157  26.953  1.00  0.00     0.123 A 
ATOM     85  F   UNL A   1      31.990  30.353  27.416  1.00  0.00    -0.207 F 
ENDBRANCH  78  79
ENDBRANCH  77  78
BRANCH  77  86
ATOM     86  N   UNL A   1      33.298  24.678  22.909  1.00  0.00    -0.337 N 
ATOM     87  C   UNL A   1      33.068  25.644  21.958  1.00  0.00     0.272 C 
ATOM     88  H   UNL A   1      33.889  23.940  22.635  1.00  0.00     0.164 HD
ATOM     89  O   UNL A   1      33.291  25.344  20.783  1.00  0.00    -0.267 OA
BRANCH  87  90
ATOM     90  C   UNL A   1      32.605  26.977  22.366  1.00  0.00     0.150 A 
ATOM     91  C   UNL A   1      33.372  28.154  22.591  1.00  0.00     0.056 A 
ATOM     92  N   UNL A   1      31.296  27.236  22.527  1.00  0.00    -0.167 NA
ATOM     93  C   UNL A   1      32.462  29.131  22.917  1.00  0.00     0.110 A 
ATOM     94  N   UNL A   1      31.235  28.537  22.850  1.00  0.00    -0.269 N 
BRANCH  94  95
ATOM     95  C   UNL A   1      29.951  29.177  23.037  1.00  0.00     0.107 C 
ATOM     96  C   UNL A   1      29.490  30.005  21.838  1.00  0.00     0.027 C 
ATOM     97  C   UNL A   1      28.791  28.205  23.252  1.00  0.00     0.027 C 
ATOM     98  C   UNL A   1      28.010  30.228  22.106  1.00  0.00     0.002 C 
ATOM     99  C   UNL A   1      27.538  28.996  22.877  1.00  0.00     0.002 C 
ENDBRANCH  94  95
ENDBRANCH  87  90
ENDBRANCH  77  86
ENDBRANCH  75  77
ENDBRANCH  74  75
ENDBRANCH  73  74
ENDBRANCH  72  73
ENDBRANCH   1  72
TORSDOF 22
ENDMDL
MODEL 2
REMARK VINA RESULT:     -11.8      2.087      2.975
REMARK SMILES O=C(OCCOCCOC(=O)[C@@H](Cc1ccc(F)cc1)NC(=O)c1ccn(C2CCCC2)n1)c1ccc(-c2c3nc(c(-c4cc(S(=O)(=O)[O-])ccc4F)c4ccc([nH]4)c(-c4cc(S(=O)(=O)[O-])ccc4F)c4nc(c(-c5cc(S(=O)(=O)[O-])ccc5F)c5ccc2[nH]5)C=C4)C=C3)cc1
REMARK SMILES IDX 6 1 5 2 4 3 3 4 2 5 1 6 34 7 35 8 96 9 36 10 95 11 37 12
REMARK SMILES IDX 38 13 39 14 89 15 40 16 94 17 88 18 90 19 41 20 93 21 87 22
REMARK SMILES IDX 86 23 42 25 74 26 54 27 73 28 55 29 58 30 72 31 91 32 56 33
REMARK SMILES IDX 57 34 71 36 92 37 59 38 43 39 44 40 52 41 45 42 51 43 53 44
REMARK SMILES IDX 50 45 46 46 47 47 48 48 49 49 75 50 76 51 84 52 77 53 83 54
REMARK SMILES IDX 85 55 82 56 78 57 79 58 80 59 81 60 60 61 61 62 69 63 62 64
REMARK SMILES IDX 68 65 70 66 67 67 63 68 64 69 65 70 66 71 7 72 8 73 9 74
REMARK SMILES IDX 10 75 11 76 12 77 13 78 14 79 15 80 20 81 16 82 19 83 17 84
REMARK SMILES IDX 18 85 21 86 22 87 23 89 24 90 25 91 33 92 26 93 27 94 28 95
REMARK SMILES IDX 29 96 32 97 30 98 31 99
REMARK H PARENT 90 24 58 35 21 88
REMARK Flexibility Score: inf
ROOT
ATOM      1  O   UNL A   1      36.985  22.331  26.053  1.00  0.00    -0.374 OA
ENDROOT
BRANCH   1   2
ATOM      2  C   UNL A   1      37.832  21.491  25.282  1.00  0.00     0.202 C 
BRANCH   2   3
ATOM      3  C   UNL A   1      39.218  21.153  25.840  1.00  0.00     0.261 C 
BRANCH   3   4
ATOM      4  O   UNL A   1      39.683  22.037  26.872  1.00  0.00    -0.460 OA
BRANCH   4   5
ATOM      5  C   UNL A   1      40.902  22.617  26.963  1.00  0.00     0.338 C 
ATOM      6  O   UNL A   1      41.888  22.047  26.516  1.00  0.00    -0.246 OA
BRANCH   5   7
ATOM      7  C   UNL A   1      41.040  24.025  27.399  1.00  0.00     0.060 A 
ATOM      8  C   UNL A   1      42.023  24.497  28.260  1.00  0.00     0.016 A 
ATOM      9  C   UNL A   1      40.088  24.926  26.885  1.00  0.00     0.016 A 
ATOM     10  C   UNL A   1      41.944  25.783  28.758  1.00  0.00     0.010 A 
ATOM     11  C   UNL A   1      40.056  26.244  27.319  1.00  0.00     0.010 A 
ATOM     12  C   UNL A   1      40.946  26.646  28.309  1.00  0.00    -0.014 A 
BRANCH  12  13
ATOM     13  C   UNL A   1      40.965  27.988  28.871  1.00  0.00     0.031 A 
ATOM     14  C   UNL A   1      42.033  28.888  28.361  1.00  0.00     0.074 A 
ATOM     15  C   UNL A   1      40.061  28.441  29.755  1.00  0.00     0.049 A 
ATOM     16  N   UNL A   1      42.978  29.468  29.026  1.00  0.00    -0.248 NA
ATOM     17  C   UNL A   1      42.112  29.084  26.905  1.00  0.00     0.031 C 
ATOM     18  C   UNL A   1      38.811  27.804  30.169  1.00  0.00     0.029 A 
ATOM     19  N   UNL A   1      40.030  29.648  30.387  1.00  0.00    -0.354 N 
ATOM     20  C   UNL A   1      43.653  30.266  28.110  1.00  0.00     0.074 A 
ATOM     21  C   UNL A   1      43.168  29.891  26.806  1.00  0.00     0.031 C 
ATOM     22  C   UNL A   1      38.040  28.723  30.788  1.00  0.00     0.029 A 
ATOM     23  C   UNL A   1      38.790  29.961  30.917  1.00  0.00     0.049 A 
ATOM     24  H   UNL A   1      40.813  30.240  30.459  1.00  0.00     0.167 HD
ATOM     25  C   UNL A   1      44.427  31.316  28.493  1.00  0.00     0.034 A 
ATOM     26  C   UNL A   1      38.382  31.182  31.338  1.00  0.00     0.034 A 
ATOM     27  C   UNL A   1      44.860  31.203  29.863  1.00  0.00     0.049 A 
ATOM     28  C   UNL A   1      39.600  31.949  31.704  1.00  0.00     0.074 A 
ATOM     29  C   UNL A   1      45.572  30.260  30.579  1.00  0.00     0.029 A 
ATOM     30  N   UNL A   1      44.289  32.025  30.804  1.00  0.00    -0.354 N 
ATOM     31  N   UNL A   1      40.403  31.627  32.683  1.00  0.00    -0.248 NA
ATOM     32  C   UNL A   1      40.149  32.896  30.744  1.00  0.00     0.031 C 
ATOM     33  C   UNL A   1      45.002  30.274  31.886  1.00  0.00     0.029 A 
ATOM     34  C   UNL A   1      43.993  31.238  31.890  1.00  0.00     0.049 A 
ATOM     35  H   UNL A   1      44.125  32.992  30.718  1.00  0.00     0.167 HD
ATOM     36  C   UNL A   1      41.666  32.006  32.256  1.00  0.00     0.074 A 
ATOM     37  C   UNL A   1      41.430  32.888  31.121  1.00  0.00     0.031 C 
ATOM     38  C   UNL A   1      42.788  31.359  32.687  1.00  0.00     0.034 A 
BRANCH  25  39
ATOM     39  C   UNL A   1      44.544  32.596  27.703  1.00  0.00     0.023 A 
ATOM     40  C   UNL A   1      43.830  33.726  28.145  1.00  0.00     0.031 A 
ATOM     41  C   UNL A   1      45.094  32.681  26.402  1.00  0.00     0.131 A 
ATOM     42  C   UNL A   1      43.651  34.838  27.301  1.00  0.00     0.055 A 
ATOM     43  C   UNL A   1      44.979  33.817  25.599  1.00  0.00     0.041 A 
ATOM     44  F   UNL A   1      45.683  31.636  25.805  1.00  0.00    -0.206 F 
ATOM     45  C   UNL A   1      44.234  34.897  26.038  1.00  0.00     0.022 A 
BRANCH  42  46
ATOM     46  S   UNL A   1      42.493  36.134  27.814  1.00  0.00     0.124 S 
ATOM     47  O   UNL A   1      41.207  35.473  27.629  1.00  0.00    -0.237 OA
ATOM     48  O   UNL A   1      42.902  36.374  29.195  1.00  0.00    -0.237 OA
ATOM     49  O   UNL A   1      42.773  37.227  26.885  1.00  0.00    -0.744 OA
ENDBRANCH  42  46
ENDBRANCH  25  39
BRANCH  26  50
ATOM     50  C   UNL A   1      37.031  31.776  31.162  1.00  0.00     0.023 A 
ATOM     51  C   UNL A   1      36.398  32.472  32.208  1.00  0.00     0.031 A 
ATOM     52  C   UNL A   1      36.421  31.864  29.888  1.00  0.00     0.131 A 
ATOM     53  C   UNL A   1      35.215  33.202  31.966  1.00  0.00     0.055 A 
ATOM     54  C   UNL A   1      35.232  32.559  29.660  1.00  0.00     0.041 A 
ATOM     55  F   UNL A   1      37.002  31.355  28.791  1.00  0.00    -0.206 F 
ATOM     56  C   UNL A   1      34.627  33.241  30.699  1.00  0.00     0.022 A 
BRANCH  53  57
ATOM     57  S   UNL A   1      34.502  34.247  33.270  1.00  0.00     0.124 S 
ATOM     58  O   UNL A   1      34.859  33.511  34.477  1.00  0.00    -0.237 OA
ATOM     59  O   UNL A   1      35.178  35.522  33.067  1.00  0.00    -0.237 OA
ATOM     60  O   UNL A   1      33.075  34.254  32.946  1.00  0.00    -0.744 OA
ENDBRANCH  53  57
ENDBRANCH  26  50
BRANCH  38  61
ATOM     61  C   UNL A   1      42.704  30.486  33.914  1.00  0.00     0.023 A 
ATOM     62  C   UNL A   1      42.497  29.091  33.882  1.00  0.00     0.031 A 
ATOM     63  C   UNL A   1      43.011  31.077  35.153  1.00  0.00     0.131 A 
ATOM     64  C   UNL A   1      42.594  28.340  35.069  1.00  0.00     0.055 A 
ATOM     65  C   UNL A   1      43.119  30.329  36.324  1.00  0.00     0.041 A 
ATOM     66  F   UNL A   1      43.262  32.396  35.234  1.00  0.00    -0.206 F 
ATOM     67  C   UNL A   1      42.910  28.954  36.286  1.00  0.00     0.022 A 
BRANCH  64  68
ATOM     68  S   UNL A   1      42.366  26.533  35.032  1.00  0.00     0.124 S 
ATOM     69  O   UNL A   1      43.179  26.120  33.895  1.00  0.00    -0.237 OA
ATOM     70  O   UNL A   1      42.841  26.119  36.350  1.00  0.00    -0.237 OA
ATOM     71  O   UNL A   1      40.923  26.374  34.837  1.00  0.00    -0.744 OA
ENDBRANCH  64  68
ENDBRANCH  38  61
ENDBRANCH  12  13
ENDBRANCH   5   7
ENDBRANCH   4   5
ENDBRANCH   3   4
ENDBRANCH   2   3
ENDBRANCH   1   2
BRANCH   1  72
ATOM     72  C   UNL A   1      35.575  22.086  26.104  1.00  0.00     0.202 C 
BRANCH  72  73
ATOM     73  C   UNL A   1      35.025  20.800  25.479  1.00  0.00     0.261 C 
BRANCH  73  74
ATOM     74  O   UNL A   1      33.783  20.404  26.085  1.00  0.00    -0.462 OA
BRANCH  74  75
ATOM     75  C   UNL A   1      32.716  20.387  25.246  1.00  0.00     0.329 C 
ATOM     76  O   UNL A   1      32.162  19.360  24.860  1.00  0.00    -0.250 OA
BRANCH  75  77
ATOM     77  C   UNL A   1      32.148  21.788  24.949  1.00  0.00     0.197 C 
BRANCH  77  78
ATOM     78  C   UNL A   1      31.803  22.163  23.495  1.00  0.00     0.072 C 
BRANCH  78  79
ATOM     79  C   UNL A   1      31.839  23.601  23.035  1.00  0.00    -0.045 A 
ATOM     80  C   UNL A   1      30.682  24.383  23.209  1.00  0.00     0.007 A 
ATOM     81  C   UNL A   1      32.937  24.193  22.404  1.00  0.00     0.007 A 
ATOM     82  C   UNL A   1      30.661  25.739  22.882  1.00  0.00     0.039 A 
ATOM     83  C   UNL A   1      32.913  25.548  22.056  1.00  0.00     0.039 A 
ATOM     84  C   UNL A   1      31.786  26.314  22.322  1.00  0.00     0.123 A 
ATOM     85  F   UNL A   1      31.787  27.618  22.018  1.00  0.00    -0.207 F 
ENDBRANCH  78  79
ENDBRANCH  77  78
BRANCH  77  86
ATOM     86  N   UNL A   1      31.033  22.037  25.871  1.00  0.00    -0.337 N 
ATOM     87  C   UNL A   1      30.869  23.080  26.753  1.00  0.00     0.272 C 
ATOM     88  H   UNL A   1      30.308  21.372  25.855  1.00  0.00     0.164 HD
ATOM     89  O   UNL A   1      30.066  22.919  27.673  1.00  0.00    -0.267 OA
BRANCH  87  90
ATOM     90  C   UNL A   1      31.615  24.330  26.554  1.00  0.00     0.150 A 
ATOM     91  C   UNL A   1      33.001  24.504  26.282  1.00  0.00     0.056 A 
ATOM     92  N   UNL A   1      30.989  25.519  26.562  1.00  0.00    -0.167 NA
ATOM     93  C   UNL A   1      33.183  25.860  26.147  1.00  0.00     0.110 A 
ATOM     94  N   UNL A   1      31.950  26.420  26.308  1.00  0.00    -0.269 N 
BRANCH  94  95
ATOM     95  C   UNL A   1      31.611  27.822  26.182  1.00  0.00     0.107 C 
ATOM     96  C   UNL A   1      31.842  28.632  27.458  1.00  0.00     0.027 C 
ATOM     97  C   UNL A   1      32.437  28.576  25.140  1.00  0.00     0.027 C 
ATOM     98  C   UNL A   1      31.803  30.074  26.976  1.00  0.00     0.002 C 
ATOM     99  C   UNL A   1      32.334  30.047  25.543  1.00  0.00     0.002 C 
ENDBRANCH  94  95
ENDBRANCH  87  90
ENDBRANCH  77  86
ENDBRANCH  75  77
ENDBRANCH  74  75
ENDBRANCH  73  74
ENDBRANCH  72  73
ENDBRANCH   1  72
TORSDOF 22
ENDMDL
MODEL 3
REMARK VINA RESULT:     -11.7      3.397      9.367
REMARK SMILES O=C(OCCOCCOC(=O)[C@@H](Cc1ccc(F)cc1)NC(=O)c1ccn(C2CCCC2)n1)c1ccc(-c2c3nc(c(-c4cc(S(=O)(=O)[O-])ccc4F)c4ccc([nH]4)c(-c4cc(S(=O)(=O)[O-])ccc4F)c4nc(c(-c5cc(S(=O)(=O)[O-])ccc5F)c5ccc2[nH]5)C=C4)C=C3)cc1
REMARK SMILES IDX 6 1 5 2 4 3 3 4 2 5 1 6 34 7 35 8 96 9 36 10 95 11 37 12
REMARK SMILES IDX 38 13 39 14 89 15 40 16 94 17 88 18 90 19 41 20 93 21 87 22
REMARK SMILES IDX 86 23 42 25 74 26 54 27 73 28 55 29 58 30 72 31 91 32 56 33
REMARK SMILES IDX 57 34 71 36 92 37 59 38 43 39 44 40 52 41 45 42 51 43 53 44
REMARK SMILES IDX 50 45 46 46 47 47 48 48 49 49 75 50 76 51 84 52 77 53 83 54
REMARK SMILES IDX 85 55 82 56 78 57 79 58 80 59 81 60 60 61 61 62 69 63 62 64
REMARK SMILES IDX 68 65 70 66 67 67 63 68 64 69 65 70 66 71 7 72 8 73 9 74
REMARK SMILES IDX 10 75 11 76 12 77 13 78 14 79 15 80 20 81 16 82 19 83 17 84
REMARK SMILES IDX 18 85 21 86 22 87 23 89 24 90 25 91 33 92 26 93 27 94 28 95
REMARK SMILES IDX 29 96 32 97 30 98 31 99
REMARK H PARENT 90 24 58 35 21 88
REMARK Flexibility Score: inf
ROOT
ATOM      1  O   UNL A   1      32.113  30.598  25.816  1.00  0.00    -0.374 OA
ENDROOT
BRANCH   1   2
ATOM      2  C   UNL A   1      32.683  30.642  27.117  1.00  0.00     0.202 C 
BRANCH   2   3
ATOM      3  C   UNL A   1      34.209  30.590  27.241  1.00  0.00     0.261 C 
BRANCH   3   4
ATOM      4  O   UNL A   1      34.811  31.787  27.757  1.00  0.00    -0.460 OA
BRANCH   4   5
ATOM      5  C   UNL A   1      35.442  31.938  28.944  1.00  0.00     0.338 C 
ATOM      6  O   UNL A   1      34.918  32.586  29.840  1.00  0.00    -0.246 OA
BRANCH   5   7
ATOM      7  C   UNL A   1      36.657  31.154  29.262  1.00  0.00     0.060 A 
ATOM      8  C   UNL A   1      37.942  31.677  29.335  1.00  0.00     0.016 A 
ATOM      9  C   UNL A   1      36.461  29.781  29.501  1.00  0.00     0.016 A 
ATOM     10  C   UNL A   1      39.027  30.829  29.442  1.00  0.00     0.010 A 
ATOM     11  C   UNL A   1      37.544  28.935  29.693  1.00  0.00     0.010 A 
ATOM     12  C   UNL A   1      38.829  29.457  29.593  1.00  0.00    -0.014 A 
BRANCH  12  13
ATOM     13  C   UNL A   1      40.033  28.651  29.727  1.00  0.00     0.031 A 
ATOM     14  C   UNL A   1      40.577  28.525  31.105  1.00  0.00     0.074 A 
ATOM     15  C   UNL A   1      40.614  28.001  28.705  1.00  0.00     0.049 A 
ATOM     16  N   UNL A   1      41.741  28.883  31.543  1.00  0.00    -0.248 NA
ATOM     17  C   UNL A   1      39.668  28.026  32.147  1.00  0.00     0.031 C 
ATOM     18  C   UNL A   1      40.090  27.795  27.355  1.00  0.00     0.029 A 
ATOM     19  N   UNL A   1      41.772  27.281  28.712  1.00  0.00    -0.354 N 
ATOM     20  C   UNL A   1      41.790  28.471  32.870  1.00  0.00     0.074 A 
ATOM     21  C   UNL A   1      40.451  28.074  33.224  1.00  0.00     0.031 C 
ATOM     22  C   UNL A   1      40.802  26.816  26.758  1.00  0.00     0.029 A 
ATOM     23  C   UNL A   1      41.895  26.424  27.633  1.00  0.00     0.049 A 
ATOM     24  H   UNL A   1      42.454  27.364  29.418  1.00  0.00     0.167 HD
ATOM     25  C   UNL A   1      42.964  28.301  33.534  1.00  0.00     0.034 A 
ATOM     26  C   UNL A   1      42.771  25.398  27.518  1.00  0.00     0.034 A 
ATOM     27  C   UNL A   1      44.044  29.037  32.929  1.00  0.00     0.049 A 
ATOM     28  C   UNL A   1      43.926  25.708  28.399  1.00  0.00     0.074 A 
ATOM     29  C   UNL A   1      44.263  30.370  32.634  1.00  0.00     0.029 A 
ATOM     30  N   UNL A   1      45.005  28.345  32.232  1.00  0.00    -0.354 N 
ATOM     31  N   UNL A   1      44.734  26.719  28.222  1.00  0.00    -0.248 NA
ATOM     32  C   UNL A   1      43.987  25.096  29.720  1.00  0.00     0.031 C 
ATOM     33  C   UNL A   1      45.012  30.368  31.422  1.00  0.00     0.029 A 
ATOM     34  C   UNL A   1      45.220  29.035  31.064  1.00  0.00     0.049 A 
ATOM     35  H   UNL A   1      45.453  27.516  32.515  1.00  0.00     0.167 HD
ATOM     36  C   UNL A   1      45.102  27.118  29.498  1.00  0.00     0.074 A 
ATOM     37  C   UNL A   1      44.715  26.011  30.364  1.00  0.00     0.031 C 
ATOM     38  C   UNL A   1      45.436  28.412  29.772  1.00  0.00     0.034 A 
BRANCH  25  39
ATOM     39  C   UNL A   1      43.188  27.224  34.566  1.00  0.00     0.023 A 
ATOM     40  C   UNL A   1      43.847  26.043  34.174  1.00  0.00     0.031 A 
ATOM     41  C   UNL A   1      42.549  27.186  35.828  1.00  0.00     0.131 A 
ATOM     42  C   UNL A   1      43.813  24.897  34.988  1.00  0.00     0.055 A 
ATOM     43  C   UNL A   1      42.584  26.070  36.666  1.00  0.00     0.041 A 
ATOM     44  F   UNL A   1      41.776  28.187  36.269  1.00  0.00    -0.206 F 
ATOM     45  C   UNL A   1      43.200  24.908  36.238  1.00  0.00     0.022 A 
BRANCH  42  46
ATOM     46  S   UNL A   1      44.433  23.336  34.308  1.00  0.00     0.124 S 
ATOM     47  O   UNL A   1      45.797  23.695  33.939  1.00  0.00    -0.237 OA
ATOM     48  O   UNL A   1      44.290  22.433  35.447  1.00  0.00    -0.237 OA
ATOM     49  O   UNL A   1      43.532  23.071  33.189  1.00  0.00    -0.744 OA
ENDBRANCH  42  46
ENDBRANCH  25  39
BRANCH  26  50
ATOM     50  C   UNL A   1      42.509  24.069  26.906  1.00  0.00     0.023 A 
ATOM     51  C   UNL A   1      43.452  23.454  26.063  1.00  0.00     0.031 A 
ATOM     52  C   UNL A   1      41.414  23.271  27.314  1.00  0.00     0.131 A 
ATOM     53  C   UNL A   1      43.280  22.113  25.659  1.00  0.00     0.055 A 
ATOM     54  C   UNL A   1      41.229  21.955  26.884  1.00  0.00     0.041 A 
ATOM     55  F   UNL A   1      40.524  23.703  28.220  1.00  0.00    -0.206 F 
ATOM     56  C   UNL A   1      42.170  21.366  26.059  1.00  0.00     0.022 A 
BRANCH  53  57
ATOM     57  S   UNL A   1      44.587  21.266  24.723  1.00  0.00     0.124 S 
ATOM     58  O   UNL A   1      44.057  19.912  24.620  1.00  0.00    -0.237 OA
ATOM     59  O   UNL A   1      44.645  22.034  23.484  1.00  0.00    -0.237 OA
ATOM     60  O   UNL A   1      45.759  21.411  25.586  1.00  0.00    -0.744 OA
ENDBRANCH  53  57
ENDBRANCH  26  50
BRANCH  38  61
ATOM     61  C   UNL A   1      45.780  29.337  28.631  1.00  0.00     0.023 A 
ATOM     62  C   UNL A   1      45.017  30.468  28.268  1.00  0.00     0.031 A 
ATOM     63  C   UNL A   1      47.021  29.149  27.996  1.00  0.00     0.131 A 
ATOM     64  C   UNL A   1      45.505  31.359  27.294  1.00  0.00     0.055 A 
ATOM     65  C   UNL A   1      47.506  30.041  27.040  1.00  0.00     0.041 A 
ATOM     66  F   UNL A   1      47.809  28.114  28.335  1.00  0.00    -0.206 F 
ATOM     67  C   UNL A   1      46.748  31.151  26.684  1.00  0.00     0.022 A 
BRANCH  64  68
ATOM     68  S   UNL A   1      44.546  32.842  26.846  1.00  0.00     0.124 S 
ATOM     69  O   UNL A   1      45.482  33.930  27.097  1.00  0.00    -0.237 OA
ATOM     70  O   UNL A   1      44.201  32.595  25.448  1.00  0.00    -0.237 OA
ATOM     71  O   UNL A   1      43.403  32.800  27.762  1.00  0.00    -0.744 OA
ENDBRANCH  64  68
ENDBRANCH  38  61
ENDBRANCH  12  13
ENDBRANCH   5   7
ENDBRANCH   4   5
ENDBRANCH   3   4
ENDBRANCH   2   3
ENDBRANCH   1   2
BRANCH   1  72
ATOM     72  C   UNL A   1      31.547  29.381  25.316  1.00  0.00     0.202 C 
BRANCH  72  73
ATOM     73  C   UNL A   1      32.450  28.400  24.563  1.00  0.00     0.261 C 
BRANCH  73  74
ATOM     74  O   UNL A   1      31.812  27.125  24.377  1.00  0.00    -0.462 OA
BRANCH  74  75
ATOM     75  C   UNL A   1      32.593  26.172  23.807  1.00  0.00     0.329 C 
ATOM     76  O   UNL A   1      32.980  26.208  22.642  1.00  0.00    -0.250 OA
BRANCH  75  77
ATOM     77  C   UNL A   1      33.097  25.114  24.808  1.00  0.00     0.197 C 
BRANCH  77  78
ATOM     78  C   UNL A   1      34.540  25.212  25.336  1.00  0.00     0.072 C 
BRANCH  78  79
ATOM     79  C   UNL A   1      35.529  24.092  25.108  1.00  0.00    -0.045 A 
ATOM     80  C   UNL A   1      36.629  23.990  25.980  1.00  0.00     0.007 A 
ATOM     81  C   UNL A   1      35.444  23.177  24.055  1.00  0.00     0.007 A 
ATOM     82  C   UNL A   1      37.542  22.940  25.884  1.00  0.00     0.039 A 
ATOM     83  C   UNL A   1      36.370  22.134  23.943  1.00  0.00     0.039 A 
ATOM     84  C   UNL A   1      37.394  22.010  24.872  1.00  0.00     0.123 A 
ATOM     85  F   UNL A   1      38.253  20.987  24.777  1.00  0.00    -0.207 F 
ENDBRANCH  78  79
ENDBRANCH  77  78
BRANCH  77  86
ATOM     86  N   UNL A   1      32.111  24.996  25.889  1.00  0.00    -0.337 N 
ATOM     87  C   UNL A   1      31.670  23.859  26.525  1.00  0.00     0.272 C 
ATOM     88  H   UNL A   1      31.715  25.841  26.200  1.00  0.00     0.164 HD
ATOM     89  O   UNL A   1      30.602  23.932  27.134  1.00  0.00    -0.267 OA
BRANCH  87  90
ATOM     90  C   UNL A   1      32.483  22.636  26.483  1.00  0.00     0.150 A 
ATOM     91  C   UNL A   1      33.491  22.208  27.391  1.00  0.00     0.056 A 
ATOM     92  N   UNL A   1      32.292  21.710  25.529  1.00  0.00    -0.167 NA
ATOM     93  C   UNL A   1      33.914  20.986  26.924  1.00  0.00     0.110 A 
ATOM     94  N   UNL A   1      33.157  20.726  25.819  1.00  0.00    -0.269 N 
BRANCH  94  95
ATOM     95  C   UNL A   1      33.178  19.522  25.017  1.00  0.00     0.107 C 
ATOM     96  C   UNL A   1      34.579  19.097  24.574  1.00  0.00     0.027 C 
ATOM     97  C   UNL A   1      32.653  18.279  25.735  1.00  0.00     0.027 C 
ATOM     98  C   UNL A   1      34.388  17.660  24.116  1.00  0.00     0.002 C 
ATOM     99  C   UNL A   1      33.255  17.098  24.975  1.00  0.00     0.002 C 
ENDBRANCH  94  95
ENDBRANCH  87  90
ENDBRANCH  77  86
ENDBRANCH  75  77
ENDBRANCH  74  75
ENDBRANCH  73  74
ENDBRANCH  72  73
ENDBRANCH   1  72
TORSDOF 22
ENDMDL
