MODEL 1
REMARK VINA RESULT:     -10.3      0.000      0.000
REMARK SMILES CS(=O)(=O)c1ccc(-n2nc(C(F)(F)F)cc2-c2ccc(CC(=O)OCCOCCOC(=O)c3ccc(-c4c5nc(c(-c6cc(S(=O)(=O)[O-])ccc6F)c6ccc([nH]6)c(-c6cc(S(=O)(=O)[O-])ccc6F)c6nc(c(-c7cc(S(=O)(=O)[O-])ccc7F)c7ccc4[nH]7)C=C6)C=C5)cc3)cc2)cc1
REMARK SMILES IDX 27 1 26 2 25 3 23 4 24 5 22 6 21 7 18 8 19 9 98 10 20 11
REMARK SMILES IDX 97 12 17 13 9 14 10 15 11 16 16 17 8 18 5 19 6 20 100 21
REMARK SMILES IDX 7 22 99 23 2 24 1 25 3 26 4 27 12 28 13 29 14 30 15 31 28 32
REMARK SMILES IDX 29 33 30 34 31 35 32 36 33 37 34 38 35 39 96 40 36 41 95 42
REMARK SMILES IDX 37 43 38 44 39 45 89 46 40 47 94 48 88 49 90 50 41 51 93 52
REMARK SMILES IDX 87 53 86 54 42 56 74 57 54 58 73 59 55 60 58 61 72 62 91 63
REMARK SMILES IDX 56 64 57 65 71 67 92 68 59 69 43 70 44 71 52 72 45 73 51 74
REMARK SMILES IDX 53 75 50 76 46 77 47 78 48 79 49 80 75 81 76 82 84 83 77 84
REMARK SMILES IDX 83 85 85 86 82 87 78 88 79 89 80 90 81 91 60 92 61 93 69 94
REMARK SMILES IDX 62 95 68 96 70 97 67 98 63 99 64 100 65 101 66 102
REMARK H PARENT 90 55 58 66
REMARK Flexibility Score: inf
ROOT
ATOM      1  C   UNL A   1      34.201  34.197  29.628  1.00  0.00     0.202 C 
ENDROOT
BRANCH   1   2
ATOM      2  C   UNL A   1      35.135  33.028  29.974  1.00  0.00     0.261 C 
BRANCH   2   3
ATOM      3  O   UNL A   1      34.741  31.732  29.494  1.00  0.00    -0.463 OA
BRANCH   3   4
ATOM      4  C   UNL A   1      35.404  31.309  28.384  1.00  0.00     0.310 C 
ATOM      5  O   UNL A   1      36.133  32.021  27.698  1.00  0.00    -0.252 OA
BRANCH   4   6
ATOM      6  C   UNL A   1      35.084  29.894  27.968  1.00  0.00     0.158 C 
BRANCH   6   7
ATOM      7  C   UNL A   1      33.963  29.647  26.987  1.00  0.00    -0.037 A 
ATOM      8  C   UNL A   1      31.894  29.429  25.084  1.00  0.00     0.000 A 
ATOM      9  C   UNL A   1      33.229  29.225  24.714  1.00  0.00     0.010 A 
ATOM     10  C   UNL A   1      31.601  29.745  26.416  1.00  0.00     0.010 A 
ATOM     11  C   UNL A   1      34.251  29.321  25.657  1.00  0.00     0.005 A 
ATOM     12  C   UNL A   1      32.627  29.848  27.361  1.00  0.00     0.005 A 
BRANCH   8  13
ATOM     13  C   UNL A   1      30.834  29.350  24.080  1.00  0.00     0.075 A 
ATOM     14  N   UNL A   1      30.613  28.297  23.186  1.00  0.00    -0.233 N 
ATOM     15  N   UNL A   1      29.813  28.694  22.160  1.00  0.00    -0.163 NA
ATOM     16  C   UNL A   1      29.292  29.874  22.555  1.00  0.00     0.167 A 
ATOM     17  C   UNL A   1      29.905  30.314  23.749  1.00  0.00     0.064 A 
BRANCH  14  18
ATOM     18  C   UNL A   1      31.054  26.939  23.296  1.00  0.00     0.065 A 
ATOM     19  C   UNL A   1      32.235  24.414  23.717  1.00  0.00     0.067 A 
ATOM     20  C   UNL A   1      32.732  25.259  22.741  1.00  0.00     0.022 A 
ATOM     21  C   UNL A   1      31.122  24.807  24.468  1.00  0.00     0.022 A 
ATOM     22  C   UNL A   1      32.130  26.501  22.513  1.00  0.00     0.030 A 
ATOM     23  C   UNL A   1      30.539  26.073  24.269  1.00  0.00     0.030 A 
BRANCH  19  24
ATOM     24  S   UNL A   1      33.089  22.909  24.142  1.00  0.00     0.175 S 
ATOM     25  C   UNL A   1      32.515  21.608  23.082  1.00  0.00     0.163 C 
ATOM     26  O   UNL A   1      32.676  22.587  25.478  1.00  0.00    -0.224 OA
ATOM     27  O   UNL A   1      34.462  23.144  23.758  1.00  0.00    -0.224 OA
ENDBRANCH  19  24
ENDBRANCH  14  18
BRANCH  16  28
ATOM     28  C   UNL A   1      28.268  30.669  21.790  1.00  0.00     0.435 C 
ATOM     29  F   UNL A   1      27.853  30.077  20.642  1.00  0.00    -0.164 F 
ATOM     30  F   UNL A   1      27.171  30.968  22.532  1.00  0.00    -0.164 F 
ATOM     31  F   UNL A   1      28.784  31.880  21.417  1.00  0.00    -0.164 F 
ENDBRANCH  16  28
ENDBRANCH   8  13
ENDBRANCH   6   7
ENDBRANCH   4   6
ENDBRANCH   3   4
ENDBRANCH   2   3
ENDBRANCH   1   2
BRANCH   1  32
ATOM     32  O   UNL A   1      33.253  34.602  30.599  1.00  0.00    -0.374 OA
BRANCH  32  33
ATOM     33  C   UNL A   1      33.558  35.767  31.359  1.00  0.00     0.202 C 
BRANCH  33  34
ATOM     34  C   UNL A   1      33.990  35.588  32.809  1.00  0.00     0.261 C 
BRANCH  34  35
ATOM     35  O   UNL A   1      35.417  35.452  32.981  1.00  0.00    -0.460 OA
BRANCH  35  36
ATOM     36  C   UNL A   1      35.839  34.295  33.560  1.00  0.00     0.338 C 
ATOM     37  O   UNL A   1      35.295  33.704  34.478  1.00  0.00    -0.246 OA
BRANCH  36  38
ATOM     38  C   UNL A   1      37.251  34.052  33.185  1.00  0.00     0.060 A 
ATOM     39  C   UNL A   1      37.651  34.642  31.985  1.00  0.00     0.016 A 
ATOM     40  C   UNL A   1      38.007  33.022  33.760  1.00  0.00     0.016 A 
ATOM     41  C   UNL A   1      38.645  34.032  31.242  1.00  0.00     0.010 A 
ATOM     42  C   UNL A   1      39.017  32.418  33.007  1.00  0.00     0.010 A 
ATOM     43  C   UNL A   1      39.261  32.859  31.706  1.00  0.00    -0.014 A 
BRANCH  43  44
ATOM     44  C   UNL A   1      40.290  32.264  30.843  1.00  0.00     0.031 A 
ATOM     45  C   UNL A   1      39.963  30.879  30.514  1.00  0.00     0.074 A 
ATOM     46  C   UNL A   1      41.458  32.799  30.420  1.00  0.00     0.049 A 
ATOM     47  N   UNL A   1      40.540  29.845  31.023  1.00  0.00    -0.248 NA
ATOM     48  C   UNL A   1      38.760  30.596  29.725  1.00  0.00     0.031 C 
ATOM     49  C   UNL A   1      41.887  34.151  30.695  1.00  0.00     0.029 A 
ATOM     50  N   UNL A   1      42.500  32.314  29.658  1.00  0.00    -0.354 N 
ATOM     51  C   UNL A   1      40.010  28.792  30.314  1.00  0.00     0.074 A 
ATOM     52  C   UNL A   1      38.776  29.261  29.736  1.00  0.00     0.031 C 
ATOM     53  C   UNL A   1      42.968  34.481  29.968  1.00  0.00     0.029 A 
ATOM     54  C   UNL A   1      43.414  33.298  29.262  1.00  0.00     0.049 A 
ATOM     55  H   UNL A   1      42.592  31.364  29.415  1.00  0.00     0.167 HD
ATOM     56  C   UNL A   1      40.849  27.805  29.916  1.00  0.00     0.034 A 
ATOM     57  C   UNL A   1      44.541  33.225  28.506  1.00  0.00     0.034 A 
ATOM     58  C   UNL A   1      42.037  27.726  30.738  1.00  0.00     0.049 A 
ATOM     59  C   UNL A   1      45.140  31.900  28.726  1.00  0.00     0.074 A 
ATOM     60  C   UNL A   1      42.323  27.322  32.025  1.00  0.00     0.029 A 
ATOM     61  N   UNL A   1      43.121  28.444  30.298  1.00  0.00    -0.354 N 
ATOM     62  N   UNL A   1      45.682  31.548  29.860  1.00  0.00    -0.248 NA
ATOM     63  C   UNL A   1      44.859  30.812  27.799  1.00  0.00     0.031 C 
ATOM     64  C   UNL A   1      43.576  27.905  32.377  1.00  0.00     0.029 A 
ATOM     65  C   UNL A   1      44.045  28.647  31.299  1.00  0.00     0.049 A 
ATOM     66  H   UNL A   1      43.225  28.774  29.376  1.00  0.00     0.167 HD
ATOM     67  C   UNL A   1      45.399  30.205  29.960  1.00  0.00     0.074 A 
ATOM     68  C   UNL A   1      45.050  29.772  28.615  1.00  0.00     0.031 C 
ATOM     69  C   UNL A   1      45.094  29.646  31.163  1.00  0.00     0.034 A 
BRANCH  56  70
ATOM     70  C   UNL A   1      40.793  27.239  28.525  1.00  0.00     0.023 A 
ATOM     71  C   UNL A   1      40.705  25.848  28.391  1.00  0.00     0.031 A 
ATOM     72  C   UNL A   1      41.084  27.966  27.342  1.00  0.00     0.131 A 
ATOM     73  C   UNL A   1      40.912  25.241  27.142  1.00  0.00     0.055 A 
ATOM     74  C   UNL A   1      41.213  27.364  26.091  1.00  0.00     0.041 A 
ATOM     75  F   UNL A   1      41.364  29.275  27.348  1.00  0.00    -0.206 F 
ATOM     76  C   UNL A   1      41.144  25.989  25.988  1.00  0.00     0.022 A 
BRANCH  73  77
ATOM     77  S   UNL A   1      41.012  23.438  27.075  1.00  0.00     0.124 S 
ATOM     78  O   UNL A   1      39.617  23.070  26.867  1.00  0.00    -0.237 OA
ATOM     79  O   UNL A   1      41.911  23.232  25.944  1.00  0.00    -0.237 OA
ATOM     80  O   UNL A   1      41.564  23.085  28.382  1.00  0.00    -0.744 OA
ENDBRANCH  73  77
ENDBRANCH  56  70
BRANCH  57  81
ATOM     81  C   UNL A   1      45.148  34.278  27.644  1.00  0.00     0.023 A 
ATOM     82  C   UNL A   1      46.204  35.117  28.060  1.00  0.00     0.031 A 
ATOM     83  C   UNL A   1      44.839  34.293  26.267  1.00  0.00     0.131 A 
ATOM     84  C   UNL A   1      46.894  35.919  27.119  1.00  0.00     0.055 A 
ATOM     85  C   UNL A   1      45.520  35.093  25.347  1.00  0.00     0.041 A 
ATOM     86  F   UNL A   1      43.920  33.458  25.760  1.00  0.00    -0.206 F 
ATOM     87  C   UNL A   1      46.554  35.908  25.767  1.00  0.00     0.022 A 
BRANCH  84  88
ATOM     88  S   UNL A   1      48.365  36.874  27.610  1.00  0.00     0.124 S 
ATOM     89  O   UNL A   1      48.436  36.621  29.043  1.00  0.00    -0.237 OA
ATOM     90  O   UNL A   1      49.415  36.281  26.789  1.00  0.00    -0.237 OA
ATOM     91  O   UNL A   1      48.015  38.249  27.245  1.00  0.00    -0.744 OA
ENDBRANCH  84  88
ENDBRANCH  57  81
BRANCH  69  92
ATOM     92  C   UNL A   1      45.844  30.136  32.378  1.00  0.00     0.023 A 
ATOM     93  C   UNL A   1      45.430  31.143  33.280  1.00  0.00     0.031 A 
ATOM     94  C   UNL A   1      47.089  29.519  32.616  1.00  0.00     0.131 A 
ATOM     95  C   UNL A   1      46.258  31.478  34.375  1.00  0.00     0.055 A 
ATOM     96  C   UNL A   1      47.894  29.845  33.705  1.00  0.00     0.041 A 
ATOM     97  F   UNL A   1      47.548  28.570  31.783  1.00  0.00    -0.206 F 
ATOM     98  C   UNL A   1      47.479  30.828  34.589  1.00  0.00     0.022 A 
BRANCH  95  99
ATOM     99  S   UNL A   1      45.840  32.800  35.559  1.00  0.00     0.124 S 
ATOM    100  O   UNL A   1      46.334  32.302  36.837  1.00  0.00    -0.237 OA
ATOM    101  O   UNL A   1      46.531  33.946  34.971  1.00  0.00    -0.237 OA
ATOM    102  O   UNL A   1      44.380  32.874  35.460  1.00  0.00    -0.744 OA
ENDBRANCH  95  99
ENDBRANCH  69  92
ENDBRANCH  43  44
ENDBRANCH  36  38
ENDBRANCH  35  36
ENDBRANCH  34  35
ENDBRANCH  33  34
ENDBRANCH  32  33
ENDBRANCH   1  32
TORSDOF 22
ENDMDL
MODEL 2
REMARK VINA RESULT:     -10.2      1.710      2.008
REMARK SMILES CS(=O)(=O)c1ccc(-n2nc(C(F)(F)F)cc2-c2ccc(CC(=O)OCCOCCOC(=O)c3ccc(-c4c5nc(c(-c6cc(S(=O)(=O)[O-])ccc6F)c6ccc([nH]6)c(-c6cc(S(=O)(=O)[O-])ccc6F)c6nc(c(-c7cc(S(=O)(=O)[O-])ccc7F)c7ccc4[nH]7)C=C6)C=C5)cc3)cc2)cc1
REMARK SMILES IDX 27 1 26 2 25 3 23 4 24 5 22 6 21 7 18 8 19 9 98 10 20 11
REMARK SMILES IDX 97 12 17 13 9 14 10 15 11 16 16 17 8 18 5 19 6 20 100 21
REMARK SMILES IDX 7 22 99 23 2 24 1 25 3 26 4 27 12 28 13 29 14 30 15 31 28 32
REMARK SMILES IDX 29 33 30 34 31 35 32 36 33 37 34 38 35 39 96 40 36 41 95 42
REMARK SMILES IDX 37 43 38 44 39 45 89 46 40 47 94 48 88 49 90 50 41 51 93 52
REMARK SMILES IDX 87 53 86 54 42 56 74 57 54 58 73 59 55 60 58 61 72 62 91 63
REMARK SMILES IDX 56 64 57 65 71 67 92 68 59 69 43 70 44 71 52 72 45 73 51 74
REMARK SMILES IDX 53 75 50 76 46 77 47 78 48 79 49 80 75 81 76 82 84 83 77 84
REMARK SMILES IDX 83 85 85 86 82 87 78 88 79 89 80 90 81 91 60 92 61 93 69 94
REMARK SMILES IDX 62 95 68 96 70 97 67 98 63 99 64 100 65 101 66 102
REMARK H PARENT 90 55 58 66
REMARK Flexibility Score: inf
ROOT
ATOM      1  C   UNL A   1      33.992  34.398  28.514  1.00  0.00     0.202 C 
ENDROOT
BRANCH   1   2
ATOM      2  C   UNL A   1      34.883  33.265  29.043  1.00  0.00     0.261 C 
BRANCH   2   3
ATOM      3  O   UNL A   1      34.435  31.925  28.779  1.00  0.00    -0.463 OA
BRANCH   3   4
ATOM      4  C   UNL A   1      35.341  31.136  28.142  1.00  0.00     0.310 C 
ATOM      5  O   UNL A   1      36.423  31.529  27.715  1.00  0.00    -0.252 OA
BRANCH   4   6
ATOM      6  C   UNL A   1      34.866  29.728  27.879  1.00  0.00     0.158 C 
BRANCH   6   7
ATOM      7  C   UNL A   1      33.773  29.493  26.865  1.00  0.00    -0.037 A 
ATOM      8  C   UNL A   1      31.726  29.307  24.934  1.00  0.00     0.000 A 
ATOM      9  C   UNL A   1      33.072  29.319  24.549  1.00  0.00     0.010 A 
ATOM     10  C   UNL A   1      31.411  29.389  26.295  1.00  0.00     0.010 A 
ATOM     11  C   UNL A   1      34.085  29.400  25.503  1.00  0.00     0.005 A 
ATOM     12  C   UNL A   1      32.426  29.476  27.253  1.00  0.00     0.005 A 
BRANCH   8  13
ATOM     13  C   UNL A   1      30.674  29.247  23.921  1.00  0.00     0.075 A 
ATOM     14  N   UNL A   1      30.389  28.166  23.081  1.00  0.00    -0.233 N 
ATOM     15  N   UNL A   1      29.629  28.562  22.024  1.00  0.00    -0.163 NA
ATOM     16  C   UNL A   1      29.187  29.794  22.349  1.00  0.00     0.167 A 
ATOM     17  C   UNL A   1      29.818  30.254  23.526  1.00  0.00     0.064 A 
BRANCH  14  18
ATOM     18  C   UNL A   1      30.732  26.789  23.268  1.00  0.00     0.065 A 
ATOM     19  C   UNL A   1      31.770  24.212  23.754  1.00  0.00     0.067 A 
ATOM     20  C   UNL A   1      32.113  24.893  22.600  1.00  0.00     0.022 A 
ATOM     21  C   UNL A   1      30.879  24.797  24.660  1.00  0.00     0.022 A 
ATOM     22  C   UNL A   1      31.577  26.159  22.344  1.00  0.00     0.030 A 
ATOM     23  C   UNL A   1      30.370  26.089  24.426  1.00  0.00     0.030 A 
BRANCH  19  24
ATOM     24  S   UNL A   1      32.571  22.679  24.182  1.00  0.00     0.175 S 
ATOM     25  C   UNL A   1      33.701  22.979  25.515  1.00  0.00     0.163 C 
ATOM     26  O   UNL A   1      33.349  22.309  23.035  1.00  0.00    -0.224 OA
ATOM     27  O   UNL A   1      31.522  21.859  24.742  1.00  0.00    -0.224 OA
ENDBRANCH  19  24
ENDBRANCH  14  18
BRANCH  16  28
ATOM     28  C   UNL A   1      28.229  30.616  21.529  1.00  0.00     0.435 C 
ATOM     29  F   UNL A   1      28.808  31.657  20.881  1.00  0.00    -0.164 F 
ATOM     30  F   UNL A   1      27.547  29.877  20.617  1.00  0.00    -0.164 F 
ATOM     31  F   UNL A   1      27.266  31.168  22.330  1.00  0.00    -0.164 F 
ENDBRANCH  16  28
ENDBRANCH   8  13
ENDBRANCH   6   7
ENDBRANCH   4   6
ENDBRANCH   3   4
ENDBRANCH   2   3
ENDBRANCH   1   2
BRANCH   1  32
ATOM     32  O   UNL A   1      32.829  34.731  29.251  1.00  0.00    -0.374 OA
BRANCH  32  33
ATOM     33  C   UNL A   1      32.904  35.866  30.106  1.00  0.00     0.202 C 
BRANCH  33  34
ATOM     34  C   UNL A   1      32.933  35.632  31.612  1.00  0.00     0.261 C 
BRANCH  34  35
ATOM     35  O   UNL A   1      34.245  35.320  32.129  1.00  0.00    -0.460 OA
BRANCH  35  36
ATOM     36  C   UNL A   1      34.392  34.080  32.670  1.00  0.00     0.338 C 
ATOM     37  O   UNL A   1      33.552  33.462  33.304  1.00  0.00    -0.246 OA
BRANCH  36  38
ATOM     38  C   UNL A   1      35.832  33.740  32.719  1.00  0.00     0.060 A 
ATOM     39  C   UNL A   1      36.659  34.571  31.961  1.00  0.00     0.016 A 
ATOM     40  C   UNL A   1      36.287  32.489  33.155  1.00  0.00     0.016 A 
ATOM     41  C   UNL A   1      37.824  34.048  31.430  1.00  0.00     0.010 A 
ATOM     42  C   UNL A   1      37.470  31.971  32.622  1.00  0.00     0.010 A 
ATOM     43  C   UNL A   1      38.180  32.713  31.677  1.00  0.00    -0.014 A 
BRANCH  43  44
ATOM     44  C   UNL A   1      39.421  32.231  31.055  1.00  0.00     0.031 A 
ATOM     45  C   UNL A   1      39.340  30.803  30.760  1.00  0.00     0.074 A 
ATOM     46  C   UNL A   1      40.570  32.904  30.818  1.00  0.00     0.049 A 
ATOM     47  N   UNL A   1      39.938  29.878  31.431  1.00  0.00    -0.248 NA
ATOM     48  C   UNL A   1      38.353  30.328  29.785  1.00  0.00     0.031 C 
ATOM     49  C   UNL A   1      40.764  34.312  31.080  1.00  0.00     0.029 A 
ATOM     50  N   UNL A   1      41.790  32.537  30.291  1.00  0.00    -0.354 N 
ATOM     51  C   UNL A   1      39.689  28.736  30.705  1.00  0.00     0.074 A 
ATOM     52  C   UNL A   1      38.536  29.009  29.884  1.00  0.00     0.031 C 
ATOM     53  C   UNL A   1      41.912  34.758  30.542  1.00  0.00     0.029 A 
ATOM     54  C   UNL A   1      42.629  33.620  30.005  1.00  0.00     0.049 A 
ATOM     55  H   UNL A   1      42.046  31.600  30.129  1.00  0.00     0.167 HD
ATOM     56  C   UNL A   1      40.706  27.859  30.529  1.00  0.00     0.034 A 
ATOM     57  C   UNL A   1      43.879  33.673  29.473  1.00  0.00     0.034 A 
ATOM     58  C   UNL A   1      41.718  27.974  31.557  1.00  0.00     0.049 A 
ATOM     59  C   UNL A   1      44.589  32.452  29.882  1.00  0.00     0.074 A 
ATOM     60  C   UNL A   1      41.805  27.662  32.897  1.00  0.00     0.029 A 
ATOM     61  N   UNL A   1      42.765  28.815  31.276  1.00  0.00    -0.354 N 
ATOM     62  N   UNL A   1      44.948  32.221  31.115  1.00  0.00    -0.248 NA
ATOM     63  C   UNL A   1      44.628  31.301  28.990  1.00  0.00     0.031 C 
ATOM     64  C   UNL A   1      42.886  28.424  33.433  1.00  0.00     0.029 A 
ATOM     65  C   UNL A   1      43.451  29.181  32.413  1.00  0.00     0.049 A 
ATOM     66  H   UNL A   1      42.999  29.121  30.370  1.00  0.00     0.167 HD
ATOM     67  C   UNL A   1      44.823  30.857  31.247  1.00  0.00     0.074 A 
ATOM     68  C   UNL A   1      44.793  30.329  29.891  1.00  0.00     0.031 C 
ATOM     69  C   UNL A   1      44.371  30.309  32.408  1.00  0.00     0.034 A 
BRANCH  56  70
ATOM     70  C   UNL A   1      40.986  27.236  29.190  1.00  0.00     0.023 A 
ATOM     71  C   UNL A   1      41.888  27.892  28.343  1.00  0.00     0.031 A 
ATOM     72  C   UNL A   1      40.224  26.191  28.607  1.00  0.00     0.131 A 
ATOM     73  C   UNL A   1      41.995  27.516  26.994  1.00  0.00     0.055 A 
ATOM     74  C   UNL A   1      40.389  25.773  27.288  1.00  0.00     0.041 A 
ATOM     75  F   UNL A   1      39.210  25.593  29.245  1.00  0.00    -0.206 F 
ATOM     76  C   UNL A   1      41.269  26.449  26.465  1.00  0.00     0.022 A 
BRANCH  73  77
ATOM     77  S   UNL A   1      43.003  28.542  25.900  1.00  0.00     0.124 S 
ATOM     78  O   UNL A   1      42.472  28.191  24.589  1.00  0.00    -0.237 OA
ATOM     79  O   UNL A   1      42.695  29.884  26.384  1.00  0.00    -0.237 OA
ATOM     80  O   UNL A   1      44.364  28.082  26.167  1.00  0.00    -0.744 OA
ENDBRANCH  73  77
ENDBRANCH  56  70
BRANCH  57  81
ATOM     81  C   UNL A   1      44.499  34.765  28.670  1.00  0.00     0.023 A 
ATOM     82  C   UNL A   1      45.821  35.221  28.860  1.00  0.00     0.031 A 
ATOM     83  C   UNL A   1      43.842  35.211  27.504  1.00  0.00     0.131 A 
ATOM     84  C   UNL A   1      46.424  36.080  27.910  1.00  0.00     0.055 A 
ATOM     85  C   UNL A   1      44.442  36.065  26.576  1.00  0.00     0.041 A 
ATOM     86  F   UNL A   1      42.622  34.754  27.186  1.00  0.00    -0.206 F 
ATOM     87  C   UNL A   1      45.738  36.502  26.772  1.00  0.00     0.022 A 
BRANCH  84  88
ATOM     88  S   UNL A   1      48.182  36.538  28.052  1.00  0.00     0.124 S 
ATOM     89  O   UNL A   1      48.126  37.736  28.880  1.00  0.00    -0.237 OA
ATOM     90  O   UNL A   1      48.770  35.350  28.660  1.00  0.00    -0.237 OA
ATOM     91  O   UNL A   1      48.585  36.770  26.663  1.00  0.00    -0.744 OA
ENDBRANCH  84  88
ENDBRANCH  57  81
BRANCH  69  92
ATOM     92  C   UNL A   1      44.811  30.943  33.705  1.00  0.00     0.023 A 
ATOM     93  C   UNL A   1      44.120  31.934  34.440  1.00  0.00     0.031 A 
ATOM     94  C   UNL A   1      46.044  30.492  34.217  1.00  0.00     0.131 A 
ATOM     95  C   UNL A   1      44.675  32.419  35.645  1.00  0.00     0.055 A 
ATOM     96  C   UNL A   1      46.579  30.965  35.413  1.00  0.00     0.041 A 
ATOM     97  F   UNL A   1      46.759  29.567  33.555  1.00  0.00    -0.206 F 
ATOM     98  C   UNL A   1      45.894  31.932  36.131  1.00  0.00     0.022 A 
BRANCH  95  99
ATOM     99  S   UNL A   1      43.892  33.736  36.633  1.00  0.00     0.124 S 
ATOM    100  O   UNL A   1      44.668  34.929  36.316  1.00  0.00    -0.237 OA
ATOM    101  O   UNL A   1      42.514  33.681  36.150  1.00  0.00    -0.237 OA
ATOM    102  O   UNL A   1      44.058  33.252  38.006  1.00  0.00    -0.744 OA
ENDBRANCH  95  99
ENDBRANCH  69  92
ENDBRANCH  43  44
ENDBRANCH  36  38
ENDBRANCH  35  36
ENDBRANCH  34  35
ENDBRANCH  33  34
ENDBRANCH  32  33
ENDBRANCH   1  32
TORSDOF 22
ENDMDL
MODEL 3
REMARK VINA RESULT:     -10.1      2.381      6.571
REMARK SMILES CS(=O)(=O)c1ccc(-n2nc(C(F)(F)F)cc2-c2ccc(CC(=O)OCCOCCOC(=O)c3ccc(-c4c5nc(c(-c6cc(S(=O)(=O)[O-])ccc6F)c6ccc([nH]6)c(-c6cc(S(=O)(=O)[O-])ccc6F)c6nc(c(-c7cc(S(=O)(=O)[O-])ccc7F)c7ccc4[nH]7)C=C6)C=C5)cc3)cc2)cc1
REMARK SMILES IDX 27 1 26 2 25 3 23 4 24 5 22 6 21 7 18 8 19 9 98 10 20 11
REMARK SMILES IDX 97 12 17 13 9 14 10 15 11 16 16 17 8 18 5 19 6 20 100 21
REMARK SMILES IDX 7 22 99 23 2 24 1 25 3 26 4 27 12 28 13 29 14 30 15 31 28 32
REMARK SMILES IDX 29 33 30 34 31 35 32 36 33 37 34 38 35 39 96 40 36 41 95 42
REMARK SMILES IDX 37 43 38 44 39 45 89 46 40 47 94 48 88 49 90 50 41 51 93 52
REMARK SMILES IDX 87 53 86 54 42 56 74 57 54 58 73 59 55 60 58 61 72 62 91 63
REMARK SMILES IDX 56 64 57 65 71 67 92 68 59 69 43 70 44 71 52 72 45 73 51 74
REMARK SMILES IDX 53 75 50 76 46 77 47 78 48 79 49 80 75 81 76 82 84 83 77 84
REMARK SMILES IDX 83 85 85 86 82 87 78 88 79 89 80 90 81 91 60 92 61 93 69 94
REMARK SMILES IDX 62 95 68 96 70 97 67 98 63 99 64 100 65 101 66 102
REMARK H PARENT 90 55 58 66
REMARK Flexibility Score: inf
ROOT
ATOM      1  C   UNL A   1      35.821  33.771  28.419  1.00  0.00     0.202 C 
ENDROOT
BRANCH   1   2
ATOM      2  C   UNL A   1      36.003  32.369  29.017  1.00  0.00     0.261 C 
BRANCH   2   3
ATOM      3  O   UNL A   1      35.183  31.327  28.462  1.00  0.00    -0.463 OA
BRANCH   3   4
ATOM      4  C   UNL A   1      35.872  30.297  27.901  1.00  0.00     0.310 C 
ATOM      5  O   UNL A   1      37.004  30.394  27.433  1.00  0.00    -0.252 OA
BRANCH   4   6
ATOM      6  C   UNL A   1      35.087  29.014  27.778  1.00  0.00     0.158 C 
BRANCH   6   7
ATOM      7  C   UNL A   1      33.936  28.942  26.805  1.00  0.00    -0.037 A 
ATOM      8  C   UNL A   1      31.846  29.043  24.914  1.00  0.00     0.000 A 
ATOM      9  C   UNL A   1      33.133  28.638  24.536  1.00  0.00     0.010 A 
ATOM     10  C   UNL A   1      31.613  29.398  26.247  1.00  0.00     0.010 A 
ATOM     11  C   UNL A   1      34.164  28.577  25.473  1.00  0.00     0.005 A 
ATOM     12  C   UNL A   1      32.648  29.343  27.187  1.00  0.00     0.005 A 
BRANCH   8  13
ATOM     13  C   UNL A   1      30.781  29.127  23.916  1.00  0.00     0.075 A 
ATOM     14  N   UNL A   1      30.510  28.194  22.909  1.00  0.00    -0.233 N 
ATOM     15  N   UNL A   1      29.726  28.742  21.942  1.00  0.00    -0.163 NA
ATOM     16  C   UNL A   1      29.259  29.890  22.474  1.00  0.00     0.167 A 
ATOM     17  C   UNL A   1      29.895  30.162  23.706  1.00  0.00     0.064 A 
BRANCH  14  18
ATOM     18  C   UNL A   1      30.891  26.815  22.858  1.00  0.00     0.065 A 
ATOM     19  C   UNL A   1      31.956  24.206  22.982  1.00  0.00     0.067 A 
ATOM     20  C   UNL A   1      32.501  25.140  22.118  1.00  0.00     0.022 A 
ATOM     21  C   UNL A   1      30.851  24.557  23.766  1.00  0.00     0.022 A 
ATOM     22  C   UNL A   1      31.956  26.425  22.036  1.00  0.00     0.030 A 
ATOM     23  C   UNL A   1      30.326  25.862  23.717  1.00  0.00     0.030 A 
BRANCH  19  24
ATOM     24  S   UNL A   1      32.738  22.625  23.230  1.00  0.00     0.175 S 
ATOM     25  C   UNL A   1      34.489  22.818  23.035  1.00  0.00     0.163 C 
ATOM     26  O   UNL A   1      32.277  21.787  22.160  1.00  0.00    -0.224 OA
ATOM     27  O   UNL A   1      32.534  22.329  24.629  1.00  0.00    -0.224 OA
ENDBRANCH  19  24
ENDBRANCH  14  18
BRANCH  16  28
ATOM     28  C   UNL A   1      28.269  30.812  21.814  1.00  0.00     0.435 C 
ATOM     29  F   UNL A   1      27.212  31.141  22.598  1.00  0.00    -0.164 F 
ATOM     30  F   UNL A   1      28.837  31.961  21.366  1.00  0.00    -0.164 F 
ATOM     31  F   UNL A   1      27.735  30.223  20.700  1.00  0.00    -0.164 F 
ENDBRANCH  16  28
ENDBRANCH   8  13
ENDBRANCH   6   7
ENDBRANCH   4   6
ENDBRANCH   3   4
ENDBRANCH   2   3
ENDBRANCH   1   2
BRANCH   1  32
ATOM     32  O   UNL A   1      34.508  34.194  28.097  1.00  0.00    -0.374 OA
BRANCH  32  33
ATOM     33  C   UNL A   1      34.007  35.337  28.781  1.00  0.00     0.202 C 
BRANCH  33  34
ATOM     34  C   UNL A   1      33.636  35.190  30.252  1.00  0.00     0.261 C 
BRANCH  34  35
ATOM     35  O   UNL A   1      34.743  34.811  31.099  1.00  0.00    -0.460 OA
BRANCH  35  36
ATOM     36  C   UNL A   1      34.477  33.857  32.033  1.00  0.00     0.338 C 
ATOM     37  O   UNL A   1      33.403  33.651  32.573  1.00  0.00    -0.246 OA
BRANCH  36  38
ATOM     38  C   UNL A   1      35.755  33.355  32.589  1.00  0.00     0.060 A 
ATOM     39  C   UNL A   1      36.895  34.026  32.144  1.00  0.00     0.016 A 
ATOM     40  C   UNL A   1      35.860  32.095  33.191  1.00  0.00     0.016 A 
ATOM     41  C   UNL A   1      38.089  33.333  32.066  1.00  0.00     0.010 A 
ATOM     42  C   UNL A   1      37.073  31.405  33.118  1.00  0.00     0.010 A 
ATOM     43  C   UNL A   1      38.156  31.987  32.459  1.00  0.00    -0.014 A 
BRANCH  43  44
ATOM     44  C   UNL A   1      39.457  31.320  32.322  1.00  0.00     0.031 A 
ATOM     45  C   UNL A   1      40.181  31.317  33.589  1.00  0.00     0.074 A 
ATOM     46  C   UNL A   1      40.041  30.816  31.210  1.00  0.00     0.049 A 
ATOM     47  N   UNL A   1      41.189  32.072  33.863  1.00  0.00    -0.248 NA
ATOM     48  C   UNL A   1      39.626  30.582  34.730  1.00  0.00     0.031 C 
ATOM     49  C   UNL A   1      39.423  30.777  29.905  1.00  0.00     0.029 A 
ATOM     50  N   UNL A   1      41.262  30.221  30.970  1.00  0.00    -0.354 N 
ATOM     51  C   UNL A   1      41.618  31.616  35.089  1.00  0.00     0.074 A 
ATOM     52  C   UNL A   1      40.508  30.908  35.677  1.00  0.00     0.031 C 
ATOM     53  C   UNL A   1      40.132  30.024  29.047  1.00  0.00     0.029 A 
ATOM     54  C   UNL A   1      41.361  29.631  29.705  1.00  0.00     0.049 A 
ATOM     55  H   UNL A   1      41.995  30.212  31.628  1.00  0.00     0.167 HD
ATOM     56  C   UNL A   1      42.951  31.486  35.291  1.00  0.00     0.034 A 
ATOM     57  C   UNL A   1      42.374  28.946  29.109  1.00  0.00     0.034 A 
ATOM     58  C   UNL A   1      43.726  32.339  34.416  1.00  0.00     0.049 A 
ATOM     59  C   UNL A   1      43.641  29.491  29.622  1.00  0.00     0.074 A 
ATOM     60  C   UNL A   1      43.968  33.693  34.314  1.00  0.00     0.029 A 
ATOM     61  N   UNL A   1      44.133  31.773  33.233  1.00  0.00    -0.354 N 
ATOM     62  N   UNL A   1      44.064  30.691  29.332  1.00  0.00    -0.248 NA
ATOM     63  C   UNL A   1      44.313  28.839  30.738  1.00  0.00     0.031 C 
ATOM     64  C   UNL A   1      44.444  33.933  32.991  1.00  0.00     0.029 A 
ATOM     65  C   UNL A   1      44.498  32.725  32.307  1.00  0.00     0.049 A 
ATOM     66  H   UNL A   1      44.160  30.803  33.066  1.00  0.00     0.167 HD
ATOM     67  C   UNL A   1      44.716  31.097  30.475  1.00  0.00     0.074 A 
ATOM     68  C   UNL A   1      44.986  29.882  31.229  1.00  0.00     0.031 C 
ATOM     69  C   UNL A   1      44.639  32.388  30.898  1.00  0.00     0.034 A 
BRANCH  56  70
ATOM     70  C   UNL A   1      43.532  30.267  35.950  1.00  0.00     0.023 A 
ATOM     71  C   UNL A   1      44.177  30.438  37.181  1.00  0.00     0.031 A 
ATOM     72  C   UNL A   1      43.713  29.012  35.315  1.00  0.00     0.131 A 
ATOM     73  C   UNL A   1      44.961  29.405  37.720  1.00  0.00     0.055 A 
ATOM     74  C   UNL A   1      44.430  27.964  35.891  1.00  0.00     0.041 A 
ATOM     75  F   UNL A   1      43.300  28.767  34.065  1.00  0.00    -0.206 F 
ATOM     76  C   UNL A   1      45.076  28.163  37.095  1.00  0.00     0.022 A 
BRANCH  73  77
ATOM     77  S   UNL A   1      45.949  29.762  39.190  1.00  0.00     0.124 S 
ATOM     78  O   UNL A   1      47.229  29.158  38.843  1.00  0.00    -0.237 OA
ATOM     79  O   UNL A   1      45.910  31.220  39.227  1.00  0.00    -0.237 OA
ATOM     80  O   UNL A   1      45.212  29.093  40.260  1.00  0.00    -0.744 OA
ENDBRANCH  73  77
ENDBRANCH  56  70
BRANCH  57  81
ATOM     81  C   UNL A   1      42.287  27.879  28.074  1.00  0.00     0.023 A 
ATOM     82  C   UNL A   1      42.292  26.499  28.371  1.00  0.00     0.031 A 
ATOM     83  C   UNL A   1      41.939  28.236  26.754  1.00  0.00     0.131 A 
ATOM     84  C   UNL A   1      41.960  25.551  27.373  1.00  0.00     0.055 A 
ATOM     85  C   UNL A   1      41.619  27.294  25.774  1.00  0.00     0.041 A 
ATOM     86  F   UNL A   1      41.809  29.524  26.403  1.00  0.00    -0.206 F 
ATOM     87  C   UNL A   1      41.625  25.946  26.078  1.00  0.00     0.022 A 
BRANCH  84  88
ATOM     88  S   UNL A   1      41.795  23.784  27.784  1.00  0.00     0.124 S 
ATOM     89  O   UNL A   1      42.206  23.750  29.182  1.00  0.00    -0.237 OA
ATOM     90  O   UNL A   1      40.386  23.526  27.510  1.00  0.00    -0.237 OA
ATOM     91  O   UNL A   1      42.722  23.132  26.855  1.00  0.00    -0.744 OA
ENDBRANCH  84  88
ENDBRANCH  57  81
BRANCH  69  92
ATOM     92  C   UNL A   1      44.651  33.475  29.850  1.00  0.00     0.023 A 
ATOM     93  C   UNL A   1      43.525  34.071  29.236  1.00  0.00     0.031 A 
ATOM     94  C   UNL A   1      45.926  33.922  29.448  1.00  0.00     0.131 A 
ATOM     95  C   UNL A   1      43.716  35.084  28.271  1.00  0.00     0.055 A 
ATOM     96  C   UNL A   1      46.106  34.930  28.505  1.00  0.00     0.041 A 
ATOM     97  F   UNL A   1      47.035  33.379  29.978  1.00  0.00    -0.206 F 
ATOM     98  C   UNL A   1      44.998  35.515  27.912  1.00  0.00     0.022 A 
BRANCH  95  99
ATOM     99  S   UNL A   1      42.333  35.873  27.382  1.00  0.00     0.124 S 
ATOM    100  O   UNL A   1      41.144  35.400  28.080  1.00  0.00    -0.237 OA
ATOM    101  O   UNL A   1      42.672  37.289  27.514  1.00  0.00    -0.237 OA
ATOM    102  O   UNL A   1      42.484  35.353  26.021  1.00  0.00    -0.744 OA
ENDBRANCH  95  99
ENDBRANCH  69  92
ENDBRANCH  43  44
ENDBRANCH  36  38
ENDBRANCH  35  36
ENDBRANCH  34  35
ENDBRANCH  33  34
ENDBRANCH  32  33
ENDBRANCH   1  32
TORSDOF 22
ENDMDL
