MODEL 1
REMARK VINA RESULT:     -10.4      0.000      0.000
REMARK SMILES CC[C@H](C)[C@@H](C)NC(=O)N1CC[C@H](C(=O)OCCOCCOC(=O)c2ccc(-c3c4nc(c(-c5cc(S(=O)(=O)[O-])ccc5F)c5ccc([nH]5)c(-c5cc(S(=O)(=O)[O-])ccc5F)c5nc(c(-c6cc(S(=O)(=O)[O-])ccc6F)c6ccc3[nH]6)C=C5)C=C4)cc2)[C@@H]1C
REMARK SMILES IDX 18 1 17 2 16 3 14 4 15 5 13 6 10 7 11 8 88 9 12 10 89 11
REMARK SMILES IDX 8 12 7 13 9 15 5 16 6 17 3 18 4 19 2 20 1 21 19 22 20 23
REMARK SMILES IDX 21 24 22 25 23 26 24 27 25 28 26 29 87 30 27 31 86 32 28 33
REMARK SMILES IDX 29 34 30 35 80 36 31 37 85 38 79 39 81 40 32 41 84 42 78 43
REMARK SMILES IDX 77 44 33 46 65 47 45 48 64 49 46 50 49 51 63 52 82 53 47 54
REMARK SMILES IDX 48 55 62 57 83 58 50 59 34 60 35 61 43 62 36 63 42 64 44 65
REMARK SMILES IDX 41 66 37 67 38 68 39 69 40 70 66 71 67 72 75 73 68 74 74 75
REMARK SMILES IDX 76 76 73 77 69 78 70 79 71 80 72 81 51 82 52 83 60 84 53 85
REMARK SMILES IDX 59 86 61 87 58 88 54 89 55 90 56 91 57 92
REMARK H PARENT 7 14 81 45 49 56
REMARK Flexibility Score: inf
ROOT
ATOM      1  C   UNL A   1      32.542  29.075  26.877  1.00  0.00     0.202 C 
ENDROOT
BRANCH   1   2
ATOM      2  C   UNL A   1      31.742  27.777  26.728  1.00  0.00     0.261 C 
BRANCH   2   3
ATOM      3  O   UNL A   1      31.095  27.738  25.449  1.00  0.00    -0.463 OA
BRANCH   3   4
ATOM      4  C   UNL A   1      31.711  26.998  24.484  1.00  0.00     0.311 C 
ATOM      5  O   UNL A   1      32.382  27.449  23.569  1.00  0.00    -0.252 OA
BRANCH   4   6
ATOM      6  C   UNL A   1      31.445  25.530  24.747  1.00  0.00     0.123 C 
ATOM      7  N   UNL A   1      32.882  23.866  23.809  1.00  0.00    -0.321 N 
ATOM      8  C   UNL A   1      31.993  24.344  22.766  1.00  0.00     0.122 C 
ATOM      9  C   UNL A   1      32.678  24.643  25.038  1.00  0.00     0.098 C 
ATOM     10  C   UNL A   1      30.799  24.885  23.528  1.00  0.00     0.039 C 
ATOM     11  C   UNL A   1      33.942  25.367  25.502  1.00  0.00     0.032 C 
BRANCH   7  12
ATOM     12  C   UNL A   1      33.849  22.969  23.484  1.00  0.00     0.317 C 
ATOM     13  N   UNL A   1      34.087  21.875  24.238  1.00  0.00    -0.335 N 
ATOM     14  H   UNL A   1      35.013  21.545  24.182  1.00  0.00     0.165 HD
ATOM     15  O   UNL A   1      34.532  23.088  22.463  1.00  0.00    -0.249 OA
BRANCH  13  16
ATOM     16  C   UNL A   1      33.230  21.086  25.122  1.00  0.00     0.083 C 
ATOM     17  C   UNL A   1      33.733  21.285  26.557  1.00  0.00     0.031 C 
BRANCH  16  18
ATOM     18  C   UNL A   1      33.200  19.578  24.715  1.00  0.00     0.008 C 
ATOM     19  C   UNL A   1      32.415  19.372  23.405  1.00  0.00     0.010 C 
BRANCH  18  20
ATOM     20  C   UNL A   1      34.619  18.968  24.595  1.00  0.00     0.002 C 
ATOM     21  C   UNL A   1      34.640  17.504  24.171  1.00  0.00     0.004 C 
ENDBRANCH  18  20
ENDBRANCH  16  18
ENDBRANCH  13  16
ENDBRANCH   7  12
ENDBRANCH   4   6
ENDBRANCH   3   4
ENDBRANCH   2   3
ENDBRANCH   1   2
BRANCH   1  22
ATOM     22  O   UNL A   1      31.802  30.240  27.250  1.00  0.00    -0.374 OA
BRANCH  22  23
ATOM     23  C   UNL A   1      31.745  31.327  26.328  1.00  0.00     0.202 C 
BRANCH  23  24
ATOM     24  C   UNL A   1      31.695  32.752  26.898  1.00  0.00     0.261 C 
BRANCH  24  25
ATOM     25  O   UNL A   1      32.957  33.438  26.824  1.00  0.00    -0.460 OA
BRANCH  25  26
ATOM     26  C   UNL A   1      33.471  33.804  28.023  1.00  0.00     0.338 C 
ATOM     27  O   UNL A   1      32.953  34.555  28.846  1.00  0.00    -0.246 OA
BRANCH  26  28
ATOM     28  C   UNL A   1      34.693  33.042  28.318  1.00  0.00     0.060 A 
ATOM     29  C   UNL A   1      34.551  31.717  28.751  1.00  0.00     0.016 A 
ATOM     30  C   UNL A   1      35.951  33.648  28.286  1.00  0.00     0.016 A 
ATOM     31  C   UNL A   1      35.665  31.001  29.184  1.00  0.00     0.010 A 
ATOM     32  C   UNL A   1      37.066  32.931  28.734  1.00  0.00     0.010 A 
ATOM     33  C   UNL A   1      36.923  31.615  29.214  1.00  0.00    -0.014 A 
BRANCH  33  34
ATOM     34  C   UNL A   1      38.052  30.931  29.894  1.00  0.00     0.031 A 
ATOM     35  C   UNL A   1      38.380  31.308  31.313  1.00  0.00     0.074 A 
ATOM     36  C   UNL A   1      38.744  29.962  29.271  1.00  0.00     0.049 A 
ATOM     37  N   UNL A   1      39.337  30.872  32.089  1.00  0.00    -0.248 NA
ATOM     38  C   UNL A   1      37.509  32.316  31.939  1.00  0.00     0.031 C 
ATOM     39  C   UNL A   1      38.480  29.474  27.917  1.00  0.00     0.029 A 
ATOM     40  N   UNL A   1      39.813  29.213  29.694  1.00  0.00    -0.354 N 
ATOM     41  C   UNL A   1      39.186  31.547  33.296  1.00  0.00     0.074 A 
ATOM     42  C   UNL A   1      38.066  32.450  33.133  1.00  0.00     0.031 C 
ATOM     43  C   UNL A   1      39.373  28.515  27.618  1.00  0.00     0.029 A 
ATOM     44  C   UNL A   1      40.294  28.347  28.740  1.00  0.00     0.049 A 
ATOM     45  H   UNL A   1      40.202  29.291  30.596  1.00  0.00     0.167 HD
ATOM     46  C   UNL A   1      39.910  31.419  34.436  1.00  0.00     0.034 A 
ATOM     47  C   UNL A   1      41.368  27.532  28.764  1.00  0.00     0.034 A 
ATOM     48  C   UNL A   1      41.033  30.526  34.577  1.00  0.00     0.049 A 
ATOM     49  C   UNL A   1      42.216  27.476  30.013  1.00  0.00     0.074 A 
ATOM     50  C   UNL A   1      41.836  30.316  35.685  1.00  0.00     0.029 A 
ATOM     51  N   UNL A   1      41.520  29.698  33.574  1.00  0.00    -0.354 N 
ATOM     52  N   UNL A   1      42.063  28.122  31.147  1.00  0.00    -0.248 NA
ATOM     53  C   UNL A   1      43.378  26.577  29.987  1.00  0.00     0.031 C 
ATOM     54  C   UNL A   1      42.847  29.416  35.332  1.00  0.00     0.029 A 
ATOM     55  C   UNL A   1      42.631  29.002  34.027  1.00  0.00     0.049 A 
ATOM     56  H   UNL A   1      41.135  29.616  32.672  1.00  0.00     0.167 HD
ATOM     57  C   UNL A   1      43.089  27.677  31.978  1.00  0.00     0.074 A 
ATOM     58  C   UNL A   1      43.846  26.703  31.220  1.00  0.00     0.031 C 
ATOM     59  C   UNL A   1      43.379  28.038  33.255  1.00  0.00     0.034 A 
BRANCH  46  60
ATOM     60  C   UNL A   1      39.536  32.308  35.597  1.00  0.00     0.023 A 
ATOM     61  C   UNL A   1      38.764  31.837  36.673  1.00  0.00     0.031 A 
ATOM     62  C   UNL A   1      39.936  33.657  35.613  1.00  0.00     0.131 A 
ATOM     63  C   UNL A   1      38.363  32.721  37.687  1.00  0.00     0.055 A 
ATOM     64  C   UNL A   1      39.598  34.512  36.663  1.00  0.00     0.041 A 
ATOM     65  F   UNL A   1      40.654  34.169  34.601  1.00  0.00    -0.206 F 
ATOM     66  C   UNL A   1      38.795  34.050  37.702  1.00  0.00     0.022 A 
BRANCH  63  67
ATOM     67  S   UNL A   1      37.161  32.145  38.917  1.00  0.00     0.124 S 
ATOM     68  O   UNL A   1      35.914  32.691  38.387  1.00  0.00    -0.237 OA
ATOM     69  O   UNL A   1      37.307  30.696  38.846  1.00  0.00    -0.237 OA
ATOM     70  O   UNL A   1      37.622  32.759  40.161  1.00  0.00    -0.744 OA
ENDBRANCH  63  67
ENDBRANCH  46  60
BRANCH  47  71
ATOM     71  C   UNL A   1      41.742  26.733  27.560  1.00  0.00     0.023 A 
ATOM     72  C   UNL A   1      41.470  25.358  27.485  1.00  0.00     0.031 A 
ATOM     73  C   UNL A   1      42.443  27.325  26.494  1.00  0.00     0.131 A 
ATOM     74  C   UNL A   1      41.942  24.610  26.395  1.00  0.00     0.055 A 
ATOM     75  C   UNL A   1      42.861  26.588  25.385  1.00  0.00     0.041 A 
ATOM     76  F   UNL A   1      42.731  28.637  26.515  1.00  0.00    -0.206 F 
ATOM     77  C   UNL A   1      42.624  25.218  25.338  1.00  0.00     0.022 A 
BRANCH  74  78
ATOM     78  S   UNL A   1      41.737  22.808  26.425  1.00  0.00     0.124 S 
ATOM     79  O   UNL A   1      40.285  22.674  26.436  1.00  0.00    -0.237 OA
ATOM     80  O   UNL A   1      42.410  22.408  25.192  1.00  0.00    -0.237 OA
ATOM     81  O   UNL A   1      42.412  22.409  27.659  1.00  0.00    -0.744 OA
ENDBRANCH  74  78
ENDBRANCH  47  71
BRANCH  59  82
ATOM     82  C   UNL A   1      44.533  27.330  33.923  1.00  0.00     0.023 A 
ATOM     83  C   UNL A   1      44.368  26.103  34.587  1.00  0.00     0.031 A 
ATOM     84  C   UNL A   1      45.819  27.903  33.901  1.00  0.00     0.131 A 
ATOM     85  C   UNL A   1      45.457  25.513  35.247  1.00  0.00     0.055 A 
ATOM     86  C   UNL A   1      46.910  27.283  34.509  1.00  0.00     0.041 A 
ATOM     87  F   UNL A   1      46.034  29.075  33.282  1.00  0.00    -0.206 F 
ATOM     88  C   UNL A   1      46.730  26.088  35.198  1.00  0.00     0.022 A 
BRANCH  85  89
ATOM     89  S   UNL A   1      45.170  24.027  36.246  1.00  0.00     0.124 S 
ATOM     90  O   UNL A   1      46.438  23.317  36.106  1.00  0.00    -0.237 OA
ATOM     91  O   UNL A   1      44.895  24.585  37.567  1.00  0.00    -0.237 OA
ATOM     92  O   UNL A   1      44.028  23.390  35.594  1.00  0.00    -0.744 OA
ENDBRANCH  85  89
ENDBRANCH  59  82
ENDBRANCH  33  34
ENDBRANCH  26  28
ENDBRANCH  25  26
ENDBRANCH  24  25
ENDBRANCH  23  24
ENDBRANCH  22  23
ENDBRANCH   1  22
TORSDOF 21
ENDMDL
MODEL 2
REMARK VINA RESULT:     -10.3      4.833     10.496
REMARK SMILES CC[C@H](C)[C@@H](C)NC(=O)N1CC[C@H](C(=O)OCCOCCOC(=O)c2ccc(-c3c4nc(c(-c5cc(S(=O)(=O)[O-])ccc5F)c5ccc([nH]5)c(-c5cc(S(=O)(=O)[O-])ccc5F)c5nc(c(-c6cc(S(=O)(=O)[O-])ccc6F)c6ccc3[nH]6)C=C5)C=C4)cc2)[C@@H]1C
REMARK SMILES IDX 18 1 17 2 16 3 14 4 15 5 13 6 10 7 11 8 88 9 12 10 89 11
REMARK SMILES IDX 8 12 7 13 9 15 5 16 6 17 3 18 4 19 2 20 1 21 19 22 20 23
REMARK SMILES IDX 21 24 22 25 23 26 24 27 25 28 26 29 87 30 27 31 86 32 28 33
REMARK SMILES IDX 29 34 30 35 80 36 31 37 85 38 79 39 81 40 32 41 84 42 78 43
REMARK SMILES IDX 77 44 33 46 65 47 45 48 64 49 46 50 49 51 63 52 82 53 47 54
REMARK SMILES IDX 48 55 62 57 83 58 50 59 34 60 35 61 43 62 36 63 42 64 44 65
REMARK SMILES IDX 41 66 37 67 38 68 39 69 40 70 66 71 67 72 75 73 68 74 74 75
REMARK SMILES IDX 76 76 73 77 69 78 70 79 71 80 72 81 51 82 52 83 60 84 53 85
REMARK SMILES IDX 59 86 61 87 58 88 54 89 55 90 56 91 57 92
REMARK H PARENT 7 14 81 45 49 56
REMARK Flexibility Score: inf
ROOT
ATOM      1  C   UNL A   1      33.512  20.501  25.663  1.00  0.00     0.202 C 
ENDROOT
BRANCH   1   2
ATOM      2  C   UNL A   1      32.469  21.355  24.936  1.00  0.00     0.261 C 
BRANCH   2   3
ATOM      3  O   UNL A   1      33.113  22.415  24.216  1.00  0.00    -0.463 OA
BRANCH   3   4
ATOM      4  C   UNL A   1      32.291  23.313  23.602  1.00  0.00     0.311 C 
ATOM      5  O   UNL A   1      31.207  23.051  23.104  1.00  0.00    -0.252 OA
BRANCH   4   6
ATOM      6  C   UNL A   1      32.931  24.684  23.660  1.00  0.00     0.123 C 
ATOM      7  N   UNL A   1      31.625  26.635  23.211  1.00  0.00    -0.321 N 
ATOM      8  C   UNL A   1      31.947  25.999  21.946  1.00  0.00     0.122 C 
ATOM      9  C   UNL A   1      32.104  25.808  24.326  1.00  0.00     0.098 C 
ATOM     10  C   UNL A   1      33.199  25.200  22.252  1.00  0.00     0.039 C 
ATOM     11  C   UNL A   1      30.981  25.363  25.262  1.00  0.00     0.032 C 
BRANCH   7  12
ATOM     12  C   UNL A   1      30.813  27.725  23.207  1.00  0.00     0.317 C 
ATOM     13  N   UNL A   1      31.050  28.791  24.001  1.00  0.00    -0.335 N 
ATOM     14  H   UNL A   1      30.240  29.299  24.238  1.00  0.00     0.165 HD
ATOM     15  O   UNL A   1      29.843  27.812  22.449  1.00  0.00    -0.249 OA
BRANCH  13  16
ATOM     16  C   UNL A   1      32.280  29.334  24.575  1.00  0.00     0.083 C 
ATOM     17  C   UNL A   1      33.432  28.976  23.629  1.00  0.00     0.031 C 
BRANCH  16  18
ATOM     18  C   UNL A   1      32.529  28.811  26.026  1.00  0.00     0.008 C 
ATOM     19  C   UNL A   1      33.967  28.284  26.187  1.00  0.00     0.010 C 
BRANCH  18  20
ATOM     20  C   UNL A   1      32.224  29.882  27.104  1.00  0.00     0.002 C 
ATOM     21  C   UNL A   1      31.698  31.201  26.548  1.00  0.00     0.004 C 
ENDBRANCH  18  20
ENDBRANCH  16  18
ENDBRANCH  13  16
ENDBRANCH   7  12
ENDBRANCH   4   6
ENDBRANCH   3   4
ENDBRANCH   2   3
ENDBRANCH   1   2
BRANCH   1  22
ATOM     22  O   UNL A   1      34.763  20.319  24.997  1.00  0.00    -0.374 OA
BRANCH  22  23
ATOM     23  C   UNL A   1      35.891  21.056  25.466  1.00  0.00     0.202 C 
BRANCH  23  24
ATOM     24  C   UNL A   1      37.291  20.513  25.141  1.00  0.00     0.261 C 
BRANCH  24  25
ATOM     25  O   UNL A   1      38.311  21.527  25.160  1.00  0.00    -0.460 OA
BRANCH  25  26
ATOM     26  C   UNL A   1      39.301  21.314  26.061  1.00  0.00     0.338 C 
ATOM     27  O   UNL A   1      39.934  20.274  26.225  1.00  0.00    -0.246 OA
BRANCH  26  28
ATOM     28  C   UNL A   1      39.663  22.568  26.738  1.00  0.00     0.060 A 
ATOM     29  C   UNL A   1      38.943  23.723  26.408  1.00  0.00     0.016 A 
ATOM     30  C   UNL A   1      40.765  22.637  27.594  1.00  0.00     0.016 A 
ATOM     31  C   UNL A   1      39.341  24.960  26.908  1.00  0.00     0.010 A 
ATOM     32  C   UNL A   1      41.171  23.884  28.084  1.00  0.00     0.010 A 
ATOM     33  C   UNL A   1      40.480  25.054  27.718  1.00  0.00    -0.014 A 
BRANCH  33  34
ATOM     34  C   UNL A   1      41.031  26.393  28.048  1.00  0.00     0.031 A 
ATOM     35  C   UNL A   1      42.456  26.702  27.678  1.00  0.00     0.074 A 
ATOM     36  C   UNL A   1      40.261  27.329  28.629  1.00  0.00     0.049 A 
ATOM     37  N   UNL A   1      43.156  27.785  27.897  1.00  0.00    -0.248 NA
ATOM     38  C   UNL A   1      43.190  25.645  26.965  1.00  0.00     0.031 C 
ATOM     39  C   UNL A   1      38.851  27.162  28.982  1.00  0.00     0.029 A 
ATOM     40  N   UNL A   1      40.557  28.609  29.028  1.00  0.00    -0.354 N 
ATOM     41  C   UNL A   1      44.411  27.544  27.349  1.00  0.00     0.074 A 
ATOM     42  C   UNL A   1      44.386  26.195  26.821  1.00  0.00     0.031 C 
ATOM     43  C   UNL A   1      38.408  28.293  29.555  1.00  0.00     0.029 A 
ATOM     44  C   UNL A   1      39.509  29.251  29.645  1.00  0.00     0.049 A 
ATOM     45  H   UNL A   1      41.437  29.027  28.885  1.00  0.00     0.167 HD
ATOM     46  C   UNL A   1      45.483  28.372  27.286  1.00  0.00     0.034 A 
ATOM     47  C   UNL A   1      39.455  30.461  30.237  1.00  0.00     0.034 A 
ATOM     48  C   UNL A   1      45.498  29.708  27.830  1.00  0.00     0.049 A 
ATOM     49  C   UNL A   1      40.691  31.331  30.238  1.00  0.00     0.074 A 
ATOM     50  C   UNL A   1      46.527  30.633  27.822  1.00  0.00     0.029 A 
ATOM     51  N   UNL A   1      44.434  30.307  28.492  1.00  0.00    -0.354 N 
ATOM     52  N   UNL A   1      41.873  31.089  29.717  1.00  0.00    -0.248 NA
ATOM     53  C   UNL A   1      40.583  32.638  30.899  1.00  0.00     0.031 C 
ATOM     54  C   UNL A   1      46.111  31.762  28.536  1.00  0.00     0.029 A 
ATOM     55  C   UNL A   1      44.793  31.575  28.923  1.00  0.00     0.049 A 
ATOM     56  H   UNL A   1      43.552  29.893  28.635  1.00  0.00     0.167 HD
ATOM     57  C   UNL A   1      42.635  32.231  29.960  1.00  0.00     0.074 A 
ATOM     58  C   UNL A   1      41.776  33.162  30.662  1.00  0.00     0.031 C 
ATOM     59  C   UNL A   1      43.926  32.490  29.629  1.00  0.00     0.034 A 
BRANCH  46  60
ATOM     60  C   UNL A   1      46.741  27.831  26.651  1.00  0.00     0.023 A 
ATOM     61  C   UNL A   1      47.023  28.020  25.287  1.00  0.00     0.031 A 
ATOM     62  C   UNL A   1      47.659  27.091  27.417  1.00  0.00     0.131 A 
ATOM     63  C   UNL A   1      48.158  27.423  24.717  1.00  0.00     0.055 A 
ATOM     64  C   UNL A   1      48.826  26.564  26.861  1.00  0.00     0.041 A 
ATOM     65  F   UNL A   1      47.431  26.858  28.719  1.00  0.00    -0.206 F 
ATOM     66  C   UNL A   1      49.074  26.717  25.500  1.00  0.00     0.022 A 
BRANCH  63  67
ATOM     67  S   UNL A   1      48.353  27.471  22.914  1.00  0.00     0.124 S 
ATOM     68  O   UNL A   1      49.639  28.151  22.776  1.00  0.00    -0.237 OA
ATOM     69  O   UNL A   1      48.335  26.058  22.558  1.00  0.00    -0.237 OA
ATOM     70  O   UNL A   1      47.197  28.244  22.464  1.00  0.00    -0.744 OA
ENDBRANCH  63  67
ENDBRANCH  46  60
BRANCH  47  71
ATOM     71  C   UNL A   1      38.210  30.917  30.923  1.00  0.00     0.023 A 
ATOM     72  C   UNL A   1      37.204  31.602  30.225  1.00  0.00     0.031 A 
ATOM     73  C   UNL A   1      38.044  30.734  32.308  1.00  0.00     0.131 A 
ATOM     74  C   UNL A   1      36.102  32.125  30.921  1.00  0.00     0.055 A 
ATOM     75  C   UNL A   1      36.920  31.207  32.986  1.00  0.00     0.041 A 
ATOM     76  F   UNL A   1      38.978  30.087  33.025  1.00  0.00    -0.206 F 
ATOM     77  C   UNL A   1      35.946  31.920  32.294  1.00  0.00     0.022 A 
BRANCH  74  78
ATOM     78  S   UNL A   1      34.920  33.164  30.019  1.00  0.00     0.124 S 
ATOM     79  O   UNL A   1      34.330  32.207  29.091  1.00  0.00    -0.237 OA
ATOM     80  O   UNL A   1      34.052  33.635  31.095  1.00  0.00    -0.237 OA
ATOM     81  O   UNL A   1      35.765  34.189  29.409  1.00  0.00    -0.744 OA
ENDBRANCH  74  78
ENDBRANCH  47  71
BRANCH  59  82
ATOM     82  C   UNL A   1      44.464  33.856  29.978  1.00  0.00     0.023 A 
ATOM     83  C   UNL A   1      44.327  34.952  29.110  1.00  0.00     0.031 A 
ATOM     84  C   UNL A   1      45.134  34.058  31.199  1.00  0.00     0.131 A 
ATOM     85  C   UNL A   1      44.898  36.189  29.451  1.00  0.00     0.055 A 
ATOM     86  C   UNL A   1      45.649  35.304  31.558  1.00  0.00     0.041 A 
ATOM     87  F   UNL A   1      45.295  33.045  32.066  1.00  0.00    -0.206 F 
ATOM     88  C   UNL A   1      45.543  36.375  30.676  1.00  0.00     0.022 A 
BRANCH  85  89
ATOM     89  S   UNL A   1      44.861  37.531  28.231  1.00  0.00     0.124 S 
ATOM     90  O   UNL A   1      46.273  37.669  27.889  1.00  0.00    -0.237 OA
ATOM     91  O   UNL A   1      44.003  36.981  27.186  1.00  0.00    -0.237 OA
ATOM     92  O   UNL A   1      44.290  38.654  28.973  1.00  0.00    -0.744 OA
ENDBRANCH  85  89
ENDBRANCH  59  82
ENDBRANCH  33  34
ENDBRANCH  26  28
ENDBRANCH  25  26
ENDBRANCH  24  25
ENDBRANCH  23  24
ENDBRANCH  22  23
ENDBRANCH   1  22
TORSDOF 21
ENDMDL
MODEL 3
REMARK VINA RESULT:     -10.0      5.078     10.530
REMARK SMILES CC[C@H](C)[C@@H](C)NC(=O)N1CC[C@H](C(=O)OCCOCCOC(=O)c2ccc(-c3c4nc(c(-c5cc(S(=O)(=O)[O-])ccc5F)c5ccc([nH]5)c(-c5cc(S(=O)(=O)[O-])ccc5F)c5nc(c(-c6cc(S(=O)(=O)[O-])ccc6F)c6ccc3[nH]6)C=C5)C=C4)cc2)[C@@H]1C
REMARK SMILES IDX 18 1 17 2 16 3 14 4 15 5 13 6 10 7 11 8 88 9 12 10 89 11
REMARK SMILES IDX 8 12 7 13 9 15 5 16 6 17 3 18 4 19 2 20 1 21 19 22 20 23
REMARK SMILES IDX 21 24 22 25 23 26 24 27 25 28 26 29 87 30 27 31 86 32 28 33
REMARK SMILES IDX 29 34 30 35 80 36 31 37 85 38 79 39 81 40 32 41 84 42 78 43
REMARK SMILES IDX 77 44 33 46 65 47 45 48 64 49 46 50 49 51 63 52 82 53 47 54
REMARK SMILES IDX 48 55 62 57 83 58 50 59 34 60 35 61 43 62 36 63 42 64 44 65
REMARK SMILES IDX 41 66 37 67 38 68 39 69 40 70 66 71 67 72 75 73 68 74 74 75
REMARK SMILES IDX 76 76 73 77 69 78 70 79 71 80 72 81 51 82 52 83 60 84 53 85
REMARK SMILES IDX 59 86 61 87 58 88 54 89 55 90 56 91 57 92
REMARK H PARENT 7 14 81 45 49 56
REMARK Flexibility Score: inf
ROOT
ATOM      1  C   UNL A   1      33.769  21.887  26.156  1.00  0.00     0.202 C 
ENDROOT
BRANCH   1   2
ATOM      2  C   UNL A   1      32.593  22.550  25.433  1.00  0.00     0.261 C 
BRANCH   2   3
ATOM      3  O   UNL A   1      33.072  23.535  24.507  1.00  0.00    -0.463 OA
BRANCH   3   4
ATOM      4  C   UNL A   1      32.969  24.835  24.902  1.00  0.00     0.311 C 
ATOM      5  O   UNL A   1      33.841  25.469  25.476  1.00  0.00    -0.252 OA
BRANCH   4   6
ATOM      6  C   UNL A   1      31.611  25.366  24.495  1.00  0.00     0.123 C 
ATOM      7  N   UNL A   1      31.414  27.556  23.555  1.00  0.00    -0.321 N 
ATOM      8  C   UNL A   1      31.579  27.687  24.992  1.00  0.00     0.122 C 
ATOM      9  C   UNL A   1      31.543  26.147  23.161  1.00  0.00     0.098 C 
ATOM     10  C   UNL A   1      31.098  26.355  25.534  1.00  0.00     0.039 C 
ATOM     11  C   UNL A   1      32.684  25.907  22.174  1.00  0.00     0.032 C 
BRANCH   7  12
ATOM     12  C   UNL A   1      31.365  28.682  22.797  1.00  0.00     0.317 C 
ATOM     13  N   UNL A   1      30.198  29.301  22.518  1.00  0.00    -0.335 N 
ATOM     14  H   UNL A   1      30.207  29.807  21.673  1.00  0.00     0.165 HD
ATOM     15  O   UNL A   1      32.386  29.217  22.358  1.00  0.00    -0.249 OA
BRANCH  13  16
ATOM     16  C   UNL A   1      28.924  29.365  23.234  1.00  0.00     0.083 C 
ATOM     17  C   UNL A   1      28.247  27.996  23.100  1.00  0.00     0.031 C 
BRANCH  16  18
ATOM     18  C   UNL A   1      28.016  30.522  22.710  1.00  0.00     0.008 C 
ATOM     19  C   UNL A   1      27.353  31.280  23.877  1.00  0.00     0.010 C 
BRANCH  18  20
ATOM     20  C   UNL A   1      28.782  31.509  21.793  1.00  0.00     0.002 C 
ATOM     21  C   UNL A   1      28.145  31.717  20.424  1.00  0.00     0.004 C 
ENDBRANCH  18  20
ENDBRANCH  16  18
ENDBRANCH  13  16
ENDBRANCH   7  12
ENDBRANCH   4   6
ENDBRANCH   3   4
ENDBRANCH   2   3
ENDBRANCH   1   2
BRANCH   1  22
ATOM     22  O   UNL A   1      34.455  20.856  25.443  1.00  0.00    -0.374 OA
BRANCH  22  23
ATOM     23  C   UNL A   1      35.618  21.210  24.696  1.00  0.00     0.202 C 
BRANCH  23  24
ATOM     24  C   UNL A   1      36.926  20.466  25.004  1.00  0.00     0.261 C 
BRANCH  24  25
ATOM     25  O   UNL A   1      38.090  21.307  24.930  1.00  0.00    -0.460 OA
BRANCH  25  26
ATOM     26  C   UNL A   1      39.046  21.029  25.848  1.00  0.00     0.338 C 
ATOM     27  O   UNL A   1      39.604  19.949  26.024  1.00  0.00    -0.246 OA
BRANCH  26  28
ATOM     28  C   UNL A   1      39.481  22.256  26.532  1.00  0.00     0.060 A 
ATOM     29  C   UNL A   1      38.877  23.463  26.158  1.00  0.00     0.016 A 
ATOM     30  C   UNL A   1      40.544  22.244  27.438  1.00  0.00     0.016 A 
ATOM     31  C   UNL A   1      39.355  24.669  26.666  1.00  0.00     0.010 A 
ATOM     32  C   UNL A   1      41.031  23.458  27.936  1.00  0.00     0.010 A 
ATOM     33  C   UNL A   1      40.458  24.678  27.528  1.00  0.00    -0.014 A 
BRANCH  33  34
ATOM     34  C   UNL A   1      41.104  25.969  27.872  1.00  0.00     0.031 A 
ATOM     35  C   UNL A   1      42.527  26.207  27.443  1.00  0.00     0.074 A 
ATOM     36  C   UNL A   1      40.421  26.928  28.520  1.00  0.00     0.049 A 
ATOM     37  N   UNL A   1      43.300  27.238  27.662  1.00  0.00    -0.248 NA
ATOM     38  C   UNL A   1      43.161  25.132  26.662  1.00  0.00     0.031 C 
ATOM     39  C   UNL A   1      39.021  26.833  28.936  1.00  0.00     0.029 A 
ATOM     40  N   UNL A   1      40.811  28.174  28.943  1.00  0.00    -0.354 N 
ATOM     41  C   UNL A   1      44.511  26.942  27.046  1.00  0.00     0.074 A 
ATOM     42  C   UNL A   1      44.380  25.616  26.477  1.00  0.00     0.031 C 
ATOM     43  C   UNL A   1      38.675  27.968  29.565  1.00  0.00     0.029 A 
ATOM     44  C   UNL A   1      39.835  28.856  29.631  1.00  0.00     0.049 A 
ATOM     45  H   UNL A   1      41.708  28.545  28.771  1.00  0.00     0.167 HD
ATOM     46  C   UNL A   1      45.627  27.708  26.956  1.00  0.00     0.034 A 
ATOM     47  C   UNL A   1      39.882  30.046  30.263  1.00  0.00     0.034 A 
ATOM     48  C   UNL A   1      45.748  29.020  27.541  1.00  0.00     0.049 A 
ATOM     49  C   UNL A   1      41.167  30.840  30.231  1.00  0.00     0.074 A 
ATOM     50  C   UNL A   1      46.830  29.883  27.511  1.00  0.00     0.029 A 
ATOM     51  N   UNL A   1      44.755  29.658  28.273  1.00  0.00    -0.354 N 
ATOM     52  N   UNL A   1      42.307  30.548  29.646  1.00  0.00    -0.248 NA
ATOM     53  C   UNL A   1      41.169  32.128  30.937  1.00  0.00     0.031 C 
ATOM     54  C   UNL A   1      46.517  31.009  28.280  1.00  0.00     0.029 A 
ATOM     55  C   UNL A   1      45.210  30.887  28.725  1.00  0.00     0.049 A 
ATOM     56  H   UNL A   1      43.857  29.292  28.445  1.00  0.00     0.167 HD
ATOM     57  C   UNL A   1      43.147  31.633  29.886  1.00  0.00     0.074 A 
ATOM     58  C   UNL A   1      42.380  32.589  30.658  1.00  0.00     0.031 C 
ATOM     59  C   UNL A   1      44.434  31.827  29.500  1.00  0.00     0.034 A 
BRANCH  46  60
ATOM     60  C   UNL A   1      46.818  27.115  26.243  1.00  0.00     0.023 A 
ATOM     61  C   UNL A   1      47.842  26.448  26.938  1.00  0.00     0.031 A 
ATOM     62  C   UNL A   1      46.945  27.244  24.848  1.00  0.00     0.131 A 
ATOM     63  C   UNL A   1      48.975  25.992  26.247  1.00  0.00     0.055 A 
ATOM     64  C   UNL A   1      48.039  26.721  24.157  1.00  0.00     0.041 A 
ATOM     65  F   UNL A   1      46.010  27.892  24.135  1.00  0.00    -0.206 F 
ATOM     66  C   UNL A   1      49.069  26.102  24.858  1.00  0.00     0.022 A 
BRANCH  63  67
ATOM     67  S   UNL A   1      50.385  25.369  27.205  1.00  0.00     0.124 S 
ATOM     68  O   UNL A   1      49.766  24.290  27.971  1.00  0.00    -0.237 OA
ATOM     69  O   UNL A   1      51.318  24.960  26.162  1.00  0.00    -0.237 OA
ATOM     70  O   UNL A   1      50.800  26.526  27.996  1.00  0.00    -0.744 OA
ENDBRANCH  63  67
ENDBRANCH  46  60
BRANCH  47  71
ATOM     71  C   UNL A   1      38.701  30.551  31.023  1.00  0.00     0.023 A 
ATOM     72  C   UNL A   1      37.634  31.188  30.371  1.00  0.00     0.031 A 
ATOM     73  C   UNL A   1      38.658  30.463  32.426  1.00  0.00     0.131 A 
ATOM     74  C   UNL A   1      36.596  31.760  31.124  1.00  0.00     0.055 A 
ATOM     75  C   UNL A   1      37.596  30.984  33.167  1.00  0.00     0.041 A 
ATOM     76  F   UNL A   1      39.654  29.865  33.101  1.00  0.00    -0.206 F 
ATOM     77  C   UNL A   1      36.563  31.651  32.516  1.00  0.00     0.022 A 
BRANCH  74  78
ATOM     78  S   UNL A   1      35.335  32.738  30.261  1.00  0.00     0.124 S 
ATOM     79  O   UNL A   1      34.855  31.789  29.263  1.00  0.00    -0.237 OA
ATOM     80  O   UNL A   1      34.408  33.056  31.343  1.00  0.00    -0.237 OA
ATOM     81  O   UNL A   1      36.088  33.874  29.733  1.00  0.00    -0.744 OA
ENDBRANCH  74  78
ENDBRANCH  47  71
BRANCH  59  82
ATOM     82  C   UNL A   1      45.070  33.146  29.866  1.00  0.00     0.023 A 
ATOM     83  C   UNL A   1      44.940  34.283  29.051  1.00  0.00     0.031 A 
ATOM     84  C   UNL A   1      45.826  33.261  31.047  1.00  0.00     0.131 A 
ATOM     85  C   UNL A   1      45.601  35.472  29.401  1.00  0.00     0.055 A 
ATOM     86  C   UNL A   1      46.432  34.461  31.419  1.00  0.00     0.041 A 
ATOM     87  F   UNL A   1      45.984  32.205  31.863  1.00  0.00    -0.206 F 
ATOM     88  C   UNL A   1      46.332  35.572  30.587  1.00  0.00     0.022 A 
BRANCH  85  89
ATOM     89  S   UNL A   1      45.563  36.864  28.238  1.00  0.00     0.124 S 
ATOM     90  O   UNL A   1      46.978  37.039  27.928  1.00  0.00    -0.237 OA
ATOM     91  O   UNL A   1      44.733  36.345  27.155  1.00  0.00    -0.237 OA
ATOM     92  O   UNL A   1      44.960  37.945  29.016  1.00  0.00    -0.744 OA
ENDBRANCH  85  89
ENDBRANCH  59  82
ENDBRANCH  33  34
ENDBRANCH  26  28
ENDBRANCH  25  26
ENDBRANCH  24  25
ENDBRANCH  23  24
ENDBRANCH  22  23
ENDBRANCH   1  22
TORSDOF 21
ENDMDL
