MODEL 1
REMARK VINA RESULT:     -10.5      0.000      0.000
REMARK SMILES CC(C)Cc1ccc([C@H](C)C(=O)OCCOCCOC(=O)c2ccc(-c3c4nc(c(-c5cc(S(=O)(=O)[O-])ccc5F)c5ccc([nH]5)c(-c5cc(S(=O)(=O)[O-])ccc5F)c5nc(c(-c6cc(S(=O)(=O)[O-])ccc6F)c6ccc3[nH]6)C=C5)C=C4)cc2)cc1
REMARK SMILES IDX 16 1 15 2 14 3 13 4 11 5 12 6 9 7 10 8 8 9 5 10 6 11 86 12
REMARK SMILES IDX 7 13 85 14 4 15 2 16 1 17 3 18 17 19 18 20 19 21 20 22 21 23
REMARK SMILES IDX 22 24 23 25 84 26 24 27 83 28 25 29 26 30 27 31 77 32 28 33
REMARK SMILES IDX 82 34 76 35 78 36 29 37 81 38 75 39 74 40 30 42 62 43 42 44
REMARK SMILES IDX 61 45 43 46 46 47 60 48 79 49 44 50 45 51 59 53 80 54 47 55
REMARK SMILES IDX 31 56 32 57 40 58 33 59 39 60 41 61 38 62 34 63 35 64 36 65
REMARK SMILES IDX 37 66 63 67 64 68 72 69 65 70 71 71 73 72 70 73 66 74 67 75
REMARK SMILES IDX 68 76 69 77 48 78 49 79 57 80 50 81 56 82 58 83 55 84 51 85
REMARK SMILES IDX 52 86 53 87 54 88
REMARK H PARENT 78 41 46 52
REMARK Flexibility Score: inf
ROOT
ATOM      1  O   UNL A   1      32.019  29.014  26.818  1.00  0.00    -0.374 OA
ENDROOT
BRANCH   1   2
ATOM      2  C   UNL A   1      33.000  28.014  26.550  1.00  0.00     0.202 C 
BRANCH   2   3
ATOM      3  C   UNL A   1      32.493  26.575  26.433  1.00  0.00     0.261 C 
BRANCH   3   4
ATOM      4  O   UNL A   1      31.098  26.481  26.768  1.00  0.00    -0.463 OA
BRANCH   4   5
ATOM      5  C   UNL A   1      30.339  25.673  25.978  1.00  0.00     0.313 C 
ATOM      6  O   UNL A   1      29.509  24.868  26.389  1.00  0.00    -0.252 OA
BRANCH   5   7
ATOM      7  C   UNL A   1      30.656  25.854  24.495  1.00  0.00     0.126 C 
ATOM      8  C   UNL A   1      30.424  24.618  23.630  1.00  0.00     0.025 C 
BRANCH   7   9
ATOM      9  C   UNL A   1      29.986  27.081  23.913  1.00  0.00    -0.034 A 
ATOM     10  C   UNL A   1      28.712  29.165  22.533  1.00  0.00    -0.048 A 
ATOM     11  C   UNL A   1      30.088  29.218  22.774  1.00  0.00     0.004 A 
ATOM     12  C   UNL A   1      27.959  28.126  23.091  1.00  0.00     0.004 A 
ATOM     13  C   UNL A   1      30.719  28.192  23.475  1.00  0.00     0.005 A 
ATOM     14  C   UNL A   1      28.592  27.086  23.766  1.00  0.00     0.005 A 
BRANCH  10  15
ATOM     15  C   UNL A   1      28.074  30.131  21.568  1.00  0.00     0.038 C 
BRANCH  15  16
ATOM     16  C   UNL A   1      27.684  31.454  22.268  1.00  0.00    -0.013 C 
ATOM     17  C   UNL A   1      27.456  31.282  23.775  1.00  0.00     0.008 C 
ATOM     18  C   UNL A   1      28.765  32.508  22.032  1.00  0.00     0.008 C 
ENDBRANCH  15  16
ENDBRANCH  10  15
ENDBRANCH   7   9
ENDBRANCH   5   7
ENDBRANCH   4   5
ENDBRANCH   3   4
ENDBRANCH   2   3
ENDBRANCH   1   2
BRANCH   1  19
ATOM     19  C   UNL A   1      31.998  30.169  25.982  1.00  0.00     0.202 C 
BRANCH  19  20
ATOM     20  C   UNL A   1      31.812  31.531  26.662  1.00  0.00     0.261 C 
BRANCH  20  21
ATOM     21  O   UNL A   1      32.642  31.711  27.825  1.00  0.00    -0.460 OA
BRANCH  21  22
ATOM     22  C   UNL A   1      33.589  32.672  27.685  1.00  0.00     0.338 C 
ATOM     23  O   UNL A   1      33.395  33.857  27.440  1.00  0.00    -0.246 OA
BRANCH  22  24
ATOM     24  C   UNL A   1      34.927  32.159  28.028  1.00  0.00     0.060 A 
ATOM     25  C   UNL A   1      35.039  30.788  28.292  1.00  0.00     0.016 A 
ATOM     26  C   UNL A   1      36.022  33.007  28.217  1.00  0.00     0.016 A 
ATOM     27  C   UNL A   1      36.225  30.269  28.806  1.00  0.00     0.010 A 
ATOM     28  C   UNL A   1      37.213  32.483  28.741  1.00  0.00     0.010 A 
ATOM     29  C   UNL A   1      37.306  31.119  29.077  1.00  0.00    -0.014 A 
BRANCH  29  30
ATOM     30  C   UNL A   1      38.454  30.592  29.859  1.00  0.00     0.031 A 
ATOM     31  C   UNL A   1      38.648  31.059  31.279  1.00  0.00     0.074 A 
ATOM     32  C   UNL A   1      39.268  29.655  29.339  1.00  0.00     0.049 A 
ATOM     33  N   UNL A   1      39.561  30.715  32.150  1.00  0.00    -0.248 NA
ATOM     34  C   UNL A   1      37.680  32.047  31.780  1.00  0.00     0.031 C 
ATOM     35  C   UNL A   1      39.152  29.091  27.994  1.00  0.00     0.029 A 
ATOM     36  N   UNL A   1      40.349  29.007  29.883  1.00  0.00    -0.354 N 
ATOM     37  C   UNL A   1      39.275  31.435  33.307  1.00  0.00     0.074 A 
ATOM     38  C   UNL A   1      38.130  32.268  33.007  1.00  0.00     0.031 C 
ATOM     39  C   UNL A   1      40.124  28.180  27.819  1.00  0.00     0.029 A 
ATOM     40  C   UNL A   1      40.950  28.117  29.023  1.00  0.00     0.049 A 
ATOM     41  H   UNL A   1      40.664  29.164  30.802  1.00  0.00     0.167 HD
ATOM     42  C   UNL A   1      39.901  31.396  34.509  1.00  0.00     0.034 A 
ATOM     43  C   UNL A   1      42.048  27.351  29.186  1.00  0.00     0.034 A 
ATOM     44  C   UNL A   1      41.050  30.572  34.793  1.00  0.00     0.049 A 
ATOM     45  C   UNL A   1      42.772  27.382  30.513  1.00  0.00     0.074 A 
ATOM     46  C   UNL A   1      41.769  30.466  35.972  1.00  0.00     0.029 A 
ATOM     47  N   UNL A   1      41.656  29.713  33.885  1.00  0.00    -0.354 N 
ATOM     48  N   UNL A   1      42.489  28.069  31.595  1.00  0.00    -0.248 NA
ATOM     49  C   UNL A   1      43.953  26.519  30.641  1.00  0.00     0.031 C 
ATOM     50  C   UNL A   1      42.841  29.593  35.759  1.00  0.00     0.029 A 
ATOM     51  C   UNL A   1      42.750  29.092  34.471  1.00  0.00     0.049 A 
ATOM     52  H   UNL A   1      41.353  29.565  32.959  1.00  0.00     0.167 HD
ATOM     53  C   UNL A   1      43.436  27.689  32.544  1.00  0.00     0.074 A 
ATOM     54  C   UNL A   1      44.285  26.702  31.910  1.00  0.00     0.031 C 
ATOM     55  C   UNL A   1      43.590  28.112  33.825  1.00  0.00     0.034 A 
BRANCH  42  56
ATOM     56  C   UNL A   1      39.377  32.309  35.592  1.00  0.00     0.023 A 
ATOM     57  C   UNL A   1      39.807  33.643  35.709  1.00  0.00     0.031 A 
ATOM     58  C   UNL A   1      38.444  31.832  36.532  1.00  0.00     0.131 A 
ATOM     59  C   UNL A   1      39.351  34.435  36.774  1.00  0.00     0.055 A 
ATOM     60  C   UNL A   1      37.939  32.648  37.546  1.00  0.00     0.041 A 
ATOM     61  F   UNL A   1      38.015  30.562  36.483  1.00  0.00    -0.206 F 
ATOM     62  C   UNL A   1      38.401  33.954  37.679  1.00  0.00     0.022 A 
BRANCH  59  63
ATOM     63  S   UNL A   1      40.104  36.064  37.031  1.00  0.00     0.124 S 
ATOM     64  O   UNL A   1      39.397  36.530  38.223  1.00  0.00    -0.237 OA
ATOM     65  O   UNL A   1      41.513  35.737  37.211  1.00  0.00    -0.237 OA
ATOM     66  O   UNL A   1      39.783  36.789  35.803  1.00  0.00    -0.744 OA
ENDBRANCH  59  63
ENDBRANCH  42  56
BRANCH  43  67
ATOM     67  C   UNL A   1      42.562  26.509  28.067  1.00  0.00     0.023 A 
ATOM     68  C   UNL A   1      42.076  25.211  27.847  1.00  0.00     0.031 A 
ATOM     69  C   UNL A   1      43.611  26.966  27.248  1.00  0.00     0.131 A 
ATOM     70  C   UNL A   1      42.675  24.394  26.876  1.00  0.00     0.055 A 
ATOM     71  C   UNL A   1      44.166  26.170  26.245  1.00  0.00     0.041 A 
ATOM     72  F   UNL A   1      44.116  28.199  27.415  1.00  0.00    -0.206 F 
ATOM     73  C   UNL A   1      43.709  24.868  26.066  1.00  0.00     0.022 A 
BRANCH  70  74
ATOM     74  S   UNL A   1      42.156  22.659  26.759  1.00  0.00     0.124 S 
ATOM     75  O   UNL A   1      43.243  21.976  27.452  1.00  0.00    -0.237 OA
ATOM     76  O   UNL A   1      40.870  22.682  27.449  1.00  0.00    -0.237 OA
ATOM     77  O   UNL A   1      42.085  22.422  25.319  1.00  0.00    -0.744 OA
ENDBRANCH  70  74
ENDBRANCH  43  67
BRANCH  55  78
ATOM     78  C   UNL A   1      44.685  27.460  34.635  1.00  0.00     0.023 A 
ATOM     79  C   UNL A   1      46.011  27.928  34.605  1.00  0.00     0.031 A 
ATOM     80  C   UNL A   1      44.401  26.332  35.426  1.00  0.00     0.131 A 
ATOM     81  C   UNL A   1      47.015  27.230  35.295  1.00  0.00     0.055 A 
ATOM     82  C   UNL A   1      45.392  25.679  36.160  1.00  0.00     0.041 A 
ATOM     83  F   UNL A   1      43.153  25.841  35.493  1.00  0.00    -0.206 F 
ATOM     84  C   UNL A   1      46.711  26.118  36.083  1.00  0.00     0.022 A 
BRANCH  81  85
ATOM     85  S   UNL A   1      48.743  27.731  35.057  1.00  0.00     0.124 S 
ATOM     86  O   UNL A   1      48.768  28.073  33.639  1.00  0.00    -0.237 OA
ATOM     87  O   UNL A   1      48.873  28.848  35.985  1.00  0.00    -0.237 OA
ATOM     88  O   UNL A   1      49.500  26.533  35.420  1.00  0.00    -0.744 OA
ENDBRANCH  81  85
ENDBRANCH  55  78
ENDBRANCH  29  30
ENDBRANCH  22  24
ENDBRANCH  21  22
ENDBRANCH  20  21
ENDBRANCH  19  20
ENDBRANCH   1  19
TORSDOF 20
ENDMDL
MODEL 2
REMARK VINA RESULT:     -10.3      2.274      3.014
REMARK SMILES CC(C)Cc1ccc([C@H](C)C(=O)OCCOCCOC(=O)c2ccc(-c3c4nc(c(-c5cc(S(=O)(=O)[O-])ccc5F)c5ccc([nH]5)c(-c5cc(S(=O)(=O)[O-])ccc5F)c5nc(c(-c6cc(S(=O)(=O)[O-])ccc6F)c6ccc3[nH]6)C=C5)C=C4)cc2)cc1
REMARK SMILES IDX 16 1 15 2 14 3 13 4 11 5 12 6 9 7 10 8 8 9 5 10 6 11 86 12
REMARK SMILES IDX 7 13 85 14 4 15 2 16 1 17 3 18 17 19 18 20 19 21 20 22 21 23
REMARK SMILES IDX 22 24 23 25 84 26 24 27 83 28 25 29 26 30 27 31 77 32 28 33
REMARK SMILES IDX 82 34 76 35 78 36 29 37 81 38 75 39 74 40 30 42 62 43 42 44
REMARK SMILES IDX 61 45 43 46 46 47 60 48 79 49 44 50 45 51 59 53 80 54 47 55
REMARK SMILES IDX 31 56 32 57 40 58 33 59 39 60 41 61 38 62 34 63 35 64 36 65
REMARK SMILES IDX 37 66 63 67 64 68 72 69 65 70 71 71 73 72 70 73 66 74 67 75
REMARK SMILES IDX 68 76 69 77 48 78 49 79 57 80 50 81 56 82 58 83 55 84 51 85
REMARK SMILES IDX 52 86 53 87 54 88
REMARK H PARENT 78 41 46 52
REMARK Flexibility Score: inf
ROOT
ATOM      1  O   UNL A   1      32.872  28.280  26.716  1.00  0.00    -0.374 OA
ENDROOT
BRANCH   1   2
ATOM      2  C   UNL A   1      33.705  27.202  26.291  1.00  0.00     0.202 C 
BRANCH   2   3
ATOM      3  C   UNL A   1      33.020  25.848  26.093  1.00  0.00     0.261 C 
BRANCH   3   4
ATOM      4  O   UNL A   1      31.735  25.810  26.737  1.00  0.00    -0.463 OA
BRANCH   4   5
ATOM      5  C   UNL A   1      30.719  25.248  26.025  1.00  0.00     0.313 C 
ATOM      6  O   UNL A   1      29.781  24.627  26.514  1.00  0.00    -0.252 OA
BRANCH   5   7
ATOM      7  C   UNL A   1      30.887  25.450  24.521  1.00  0.00     0.126 C 
ATOM      8  C   UNL A   1      30.541  24.236  23.664  1.00  0.00     0.025 C 
BRANCH   7   9
ATOM      9  C   UNL A   1      30.189  26.701  24.031  1.00  0.00    -0.034 A 
ATOM     10  C   UNL A   1      28.859  28.848  22.810  1.00  0.00    -0.048 A 
ATOM     11  C   UNL A   1      30.239  28.905  23.024  1.00  0.00     0.004 A 
ATOM     12  C   UNL A   1      28.131  27.766  23.319  1.00  0.00     0.004 A 
ATOM     13  C   UNL A   1      30.898  27.847  23.646  1.00  0.00     0.005 A 
ATOM     14  C   UNL A   1      28.792  26.696  23.914  1.00  0.00     0.005 A 
BRANCH  10  15
ATOM     15  C   UNL A   1      28.187  29.863  21.920  1.00  0.00     0.038 C 
BRANCH  15  16
ATOM     16  C   UNL A   1      28.412  31.303  22.437  1.00  0.00    -0.013 C 
ATOM     17  C   UNL A   1      28.084  32.369  21.383  1.00  0.00     0.008 C 
ATOM     18  C   UNL A   1      27.571  31.547  23.688  1.00  0.00     0.008 C 
ENDBRANCH  15  16
ENDBRANCH  10  15
ENDBRANCH   7   9
ENDBRANCH   5   7
ENDBRANCH   4   5
ENDBRANCH   3   4
ENDBRANCH   2   3
ENDBRANCH   1   2
BRANCH   1  19
ATOM     19  C   UNL A   1      32.994  29.526  26.034  1.00  0.00     0.202 C 
BRANCH  19  20
ATOM     20  C   UNL A   1      32.880  30.805  26.873  1.00  0.00     0.261 C 
BRANCH  20  21
ATOM     21  O   UNL A   1      33.720  30.803  28.042  1.00  0.00    -0.460 OA
BRANCH  21  22
ATOM     22  C   UNL A   1      34.905  31.441  27.872  1.00  0.00     0.338 C 
ATOM     23  O   UNL A   1      35.066  32.638  27.669  1.00  0.00    -0.246 OA
BRANCH  22  24
ATOM     24  C   UNL A   1      36.042  30.536  28.123  1.00  0.00     0.060 A 
ATOM     25  C   UNL A   1      36.046  29.835  29.335  1.00  0.00     0.016 A 
ATOM     26  C   UNL A   1      37.142  30.470  27.263  1.00  0.00     0.016 A 
ATOM     27  C   UNL A   1      37.174  29.114  29.722  1.00  0.00     0.010 A 
ATOM     28  C   UNL A   1      38.278  29.749  27.658  1.00  0.00     0.010 A 
ATOM     29  C   UNL A   1      38.315  29.103  28.908  1.00  0.00    -0.014 A 
BRANCH  29  30
ATOM     30  C   UNL A   1      39.581  28.550  29.456  1.00  0.00     0.031 A 
ATOM     31  C   UNL A   1      40.171  29.168  30.697  1.00  0.00     0.074 A 
ATOM     32  C   UNL A   1      40.155  27.468  28.900  1.00  0.00     0.049 A 
ATOM     33  N   UNL A   1      41.248  28.833  31.361  1.00  0.00    -0.248 NA
ATOM     34  C   UNL A   1      39.447  30.316  31.265  1.00  0.00     0.031 C 
ATOM     35  C   UNL A   1      39.652  26.756  27.726  1.00  0.00     0.029 A 
ATOM     36  N   UNL A   1      41.286  26.774  29.255  1.00  0.00    -0.354 N 
ATOM     37  C   UNL A   1      41.329  29.722  32.430  1.00  0.00     0.074 A 
ATOM     38  C   UNL A   1      40.215  30.637  32.297  1.00  0.00     0.031 C 
ATOM     39  C   UNL A   1      40.471  25.725  27.458  1.00  0.00     0.029 A 
ATOM     40  C   UNL A   1      41.572  25.719  28.419  1.00  0.00     0.049 A 
ATOM     41  H   UNL A   1      41.840  27.009  30.034  1.00  0.00     0.167 HD
ATOM     42  C   UNL A   1      42.239  29.764  33.434  1.00  0.00     0.034 A 
ATOM     43  C   UNL A   1      42.610  24.859  28.422  1.00  0.00     0.034 A 
ATOM     44  C   UNL A   1      43.354  28.855  33.549  1.00  0.00     0.049 A 
ATOM     45  C   UNL A   1      43.652  24.974  29.511  1.00  0.00     0.074 A 
ATOM     46  C   UNL A   1      44.342  28.817  34.519  1.00  0.00     0.029 A 
ATOM     47  N   UNL A   1      43.634  27.824  32.661  1.00  0.00    -0.354 N 
ATOM     48  N   UNL A   1      43.714  25.820  30.513  1.00  0.00    -0.248 NA
ATOM     49  C   UNL A   1      44.755  24.004  29.476  1.00  0.00     0.031 C 
ATOM     50  C   UNL A   1      45.250  27.807  34.185  1.00  0.00     0.029 A 
ATOM     51  C   UNL A   1      44.790  27.161  33.049  1.00  0.00     0.049 A 
ATOM     52  H   UNL A   1      43.092  27.597  31.872  1.00  0.00     0.167 HD
ATOM     53  C   UNL A   1      44.842  25.456  31.248  1.00  0.00     0.074 A 
ATOM     54  C   UNL A   1      45.417  24.306  30.582  1.00  0.00     0.031 C 
ATOM     55  C   UNL A   1      45.354  26.018  32.373  1.00  0.00     0.034 A 
BRANCH  42  56
ATOM     56  C   UNL A   1      42.086  30.859  34.462  1.00  0.00     0.023 A 
ATOM     57  C   UNL A   1      42.699  32.115  34.301  1.00  0.00     0.031 A 
ATOM     58  C   UNL A   1      41.329  30.640  35.627  1.00  0.00     0.131 A 
ATOM     59  C   UNL A   1      42.593  33.080  35.314  1.00  0.00     0.055 A 
ATOM     60  C   UNL A   1      41.167  31.630  36.598  1.00  0.00     0.041 A 
ATOM     61  F   UNL A   1      40.740  29.453  35.844  1.00  0.00    -0.206 F 
ATOM     62  C   UNL A   1      41.811  32.855  36.450  1.00  0.00     0.022 A 
BRANCH  59  63
ATOM     63  S   UNL A   1      43.587  34.592  35.184  1.00  0.00     0.124 S 
ATOM     64  O   UNL A   1      42.639  35.607  35.640  1.00  0.00    -0.237 OA
ATOM     65  O   UNL A   1      44.704  34.314  36.077  1.00  0.00    -0.237 OA
ATOM     66  O   UNL A   1      43.925  34.659  33.764  1.00  0.00    -0.744 OA
ENDBRANCH  59  63
ENDBRANCH  42  56
BRANCH  43  67
ATOM     67  C   UNL A   1      42.749  23.829  27.352  1.00  0.00     0.023 A 
ATOM     68  C   UNL A   1      42.066  22.606  27.423  1.00  0.00     0.031 A 
ATOM     69  C   UNL A   1      43.637  24.025  26.278  1.00  0.00     0.131 A 
ATOM     70  C   UNL A   1      42.324  21.603  26.475  1.00  0.00     0.055 A 
ATOM     71  C   UNL A   1      43.847  23.047  25.305  1.00  0.00     0.041 A 
ATOM     72  F   UNL A   1      44.318  25.177  26.161  1.00  0.00    -0.206 F 
ATOM     73  C   UNL A   1      43.201  21.820  25.410  1.00  0.00     0.022 A 
BRANCH  70  74
ATOM     74  S   UNL A   1      41.578  19.967  26.715  1.00  0.00     0.124 S 
ATOM     75  O   UNL A   1      42.420  19.407  27.767  1.00  0.00    -0.237 OA
ATOM     76  O   UNL A   1      40.213  20.312  27.102  1.00  0.00    -0.237 OA
ATOM     77  O   UNL A   1      41.712  19.336  25.404  1.00  0.00    -0.744 OA
ENDBRANCH  70  74
ENDBRANCH  43  67
BRANCH  55  78
ATOM     78  C   UNL A   1      46.566  25.352  32.980  1.00  0.00     0.023 A 
ATOM     79  C   UNL A   1      46.451  24.348  33.958  1.00  0.00     0.031 A 
ATOM     80  C   UNL A   1      47.858  25.752  32.593  1.00  0.00     0.131 A 
ATOM     81  C   UNL A   1      47.605  23.828  34.566  1.00  0.00     0.055 A 
ATOM     82  C   UNL A   1      49.003  25.187  33.157  1.00  0.00     0.041 A 
ATOM     83  F   UNL A   1      48.029  26.706  31.664  1.00  0.00    -0.206 F 
ATOM     84  C   UNL A   1      48.880  24.231  34.161  1.00  0.00     0.022 A 
BRANCH  81  85
ATOM     85  S   UNL A   1      47.413  22.699  35.973  1.00  0.00     0.124 S 
ATOM     86  O   UNL A   1      45.962  22.627  36.110  1.00  0.00    -0.237 OA
ATOM     87  O   UNL A   1      48.069  21.488  35.492  1.00  0.00    -0.237 OA
ATOM     88  O   UNL A   1      48.106  23.387  37.062  1.00  0.00    -0.744 OA
ENDBRANCH  81  85
ENDBRANCH  55  78
ENDBRANCH  29  30
ENDBRANCH  22  24
ENDBRANCH  21  22
ENDBRANCH  20  21
ENDBRANCH  19  20
ENDBRANCH   1  19
TORSDOF 20
ENDMDL
MODEL 3
REMARK VINA RESULT:     -10.0      2.339      3.119
REMARK SMILES CC(C)Cc1ccc([C@H](C)C(=O)OCCOCCOC(=O)c2ccc(-c3c4nc(c(-c5cc(S(=O)(=O)[O-])ccc5F)c5ccc([nH]5)c(-c5cc(S(=O)(=O)[O-])ccc5F)c5nc(c(-c6cc(S(=O)(=O)[O-])ccc6F)c6ccc3[nH]6)C=C5)C=C4)cc2)cc1
REMARK SMILES IDX 16 1 15 2 14 3 13 4 11 5 12 6 9 7 10 8 8 9 5 10 6 11 86 12
REMARK SMILES IDX 7 13 85 14 4 15 2 16 1 17 3 18 17 19 18 20 19 21 20 22 21 23
REMARK SMILES IDX 22 24 23 25 84 26 24 27 83 28 25 29 26 30 27 31 77 32 28 33
REMARK SMILES IDX 82 34 76 35 78 36 29 37 81 38 75 39 74 40 30 42 62 43 42 44
REMARK SMILES IDX 61 45 43 46 46 47 60 48 79 49 44 50 45 51 59 53 80 54 47 55
REMARK SMILES IDX 31 56 32 57 40 58 33 59 39 60 41 61 38 62 34 63 35 64 36 65
REMARK SMILES IDX 37 66 63 67 64 68 72 69 65 70 71 71 73 72 70 73 66 74 67 75
REMARK SMILES IDX 68 76 69 77 48 78 49 79 57 80 50 81 56 82 58 83 55 84 51 85
REMARK SMILES IDX 52 86 53 87 54 88
REMARK H PARENT 78 41 46 52
REMARK Flexibility Score: inf
ROOT
ATOM      1  O   UNL A   1      33.368  27.979  26.565  1.00  0.00    -0.374 OA
ENDROOT
BRANCH   1   2
ATOM      2  C   UNL A   1      34.018  26.799  26.096  1.00  0.00     0.202 C 
BRANCH   2   3
ATOM      3  C   UNL A   1      33.122  25.590  25.820  1.00  0.00     0.261 C 
BRANCH   3   4
ATOM      4  O   UNL A   1      31.855  25.713  26.488  1.00  0.00    -0.463 OA
BRANCH   4   5
ATOM      5  C   UNL A   1      30.782  25.159  25.858  1.00  0.00     0.313 C 
ATOM      6  O   UNL A   1      29.882  24.541  26.417  1.00  0.00    -0.252 OA
BRANCH   5   7
ATOM      7  C   UNL A   1      30.832  25.365  24.345  1.00  0.00     0.126 C 
ATOM      8  C   UNL A   1      30.387  24.164  23.516  1.00  0.00     0.025 C 
BRANCH   7   9
ATOM      9  C   UNL A   1      30.129  26.636  23.918  1.00  0.00    -0.034 A 
ATOM     10  C   UNL A   1      28.782  28.832  22.807  1.00  0.00    -0.048 A 
ATOM     11  C   UNL A   1      30.166  28.878  23.000  1.00  0.00     0.004 A 
ATOM     12  C   UNL A   1      28.062  27.731  23.284  1.00  0.00     0.004 A 
ATOM     13  C   UNL A   1      30.834  27.795  23.568  1.00  0.00     0.005 A 
ATOM     14  C   UNL A   1      28.730  26.637  23.825  1.00  0.00     0.005 A 
BRANCH  10  15
ATOM     15  C   UNL A   1      28.098  29.883  21.971  1.00  0.00     0.038 C 
BRANCH  15  16
ATOM     16  C   UNL A   1      28.422  31.307  22.478  1.00  0.00    -0.013 C 
ATOM     17  C   UNL A   1      28.095  32.393  21.445  1.00  0.00     0.008 C 
ATOM     18  C   UNL A   1      27.660  31.588  23.772  1.00  0.00     0.008 C 
ENDBRANCH  15  16
ENDBRANCH  10  15
ENDBRANCH   7   9
ENDBRANCH   5   7
ENDBRANCH   4   5
ENDBRANCH   3   4
ENDBRANCH   2   3
ENDBRANCH   1   2
BRANCH   1  19
ATOM     19  C   UNL A   1      33.513  29.171  25.796  1.00  0.00     0.202 C 
BRANCH  19  20
ATOM     20  C   UNL A   1      33.199  30.503  26.490  1.00  0.00     0.261 C 
BRANCH  20  21
ATOM     21  O   UNL A   1      33.827  30.641  27.779  1.00  0.00    -0.460 OA
BRANCH  21  22
ATOM     22  C   UNL A   1      35.000  31.321  27.752  1.00  0.00     0.338 C 
ATOM     23  O   UNL A   1      35.138  32.534  27.652  1.00  0.00    -0.246 OA
BRANCH  22  24
ATOM     24  C   UNL A   1      36.142  30.429  28.027  1.00  0.00     0.060 A 
ATOM     25  C   UNL A   1      36.113  29.701  29.222  1.00  0.00     0.016 A 
ATOM     26  C   UNL A   1      37.274  30.400  27.208  1.00  0.00     0.016 A 
ATOM     27  C   UNL A   1      37.237  28.991  29.637  1.00  0.00     0.010 A 
ATOM     28  C   UNL A   1      38.407  29.689  27.631  1.00  0.00     0.010 A 
ATOM     29  C   UNL A   1      38.408  29.016  28.867  1.00  0.00    -0.014 A 
BRANCH  29  30
ATOM     30  C   UNL A   1      39.662  28.472  29.450  1.00  0.00     0.031 A 
ATOM     31  C   UNL A   1      40.260  29.148  30.657  1.00  0.00     0.074 A 
ATOM     32  C   UNL A   1      40.217  27.349  28.960  1.00  0.00     0.049 A 
ATOM     33  N   UNL A   1      41.328  28.833  31.343  1.00  0.00    -0.248 NA
ATOM     34  C   UNL A   1      39.556  30.340  31.155  1.00  0.00     0.031 C 
ATOM     35  C   UNL A   1      39.704  26.580  27.826  1.00  0.00     0.029 A 
ATOM     36  N   UNL A   1      41.333  26.655  29.358  1.00  0.00    -0.354 N 
ATOM     37  C   UNL A   1      41.422  29.779  32.359  1.00  0.00     0.074 A 
ATOM     38  C   UNL A   1      40.326  30.705  32.170  1.00  0.00     0.031 C 
ATOM     39  C   UNL A   1      40.504  25.520  27.621  1.00  0.00     0.029 A 
ATOM     40  C   UNL A   1      41.602  25.550  28.585  1.00  0.00     0.049 A 
ATOM     41  H   UNL A   1      41.889  26.924  30.125  1.00  0.00     0.167 HD
ATOM     42  C   UNL A   1      42.330  29.861  33.363  1.00  0.00     0.034 A 
ATOM     43  C   UNL A   1      42.624  24.671  28.642  1.00  0.00     0.034 A 
ATOM     44  C   UNL A   1      43.428  28.940  33.535  1.00  0.00     0.049 A 
ATOM     45  C   UNL A   1      43.665  24.829  29.727  1.00  0.00     0.074 A 
ATOM     46  C   UNL A   1      44.412  28.939  34.509  1.00  0.00     0.029 A 
ATOM     47  N   UNL A   1      43.691  27.855  32.708  1.00  0.00    -0.354 N 
ATOM     48  N   UNL A   1      43.740  25.730  30.679  1.00  0.00    -0.248 NA
ATOM     49  C   UNL A   1      44.748  23.838  29.751  1.00  0.00     0.031 C 
ATOM     50  C   UNL A   1      45.302  27.894  34.237  1.00  0.00     0.029 A 
ATOM     51  C   UNL A   1      44.833  27.194  33.138  1.00  0.00     0.049 A 
ATOM     52  H   UNL A   1      43.147  27.593  31.931  1.00  0.00     0.167 HD
ATOM     53  C   UNL A   1      44.858  25.388  31.437  1.00  0.00     0.074 A 
ATOM     54  C   UNL A   1      45.413  24.191  30.840  1.00  0.00     0.031 C 
ATOM     55  C   UNL A   1      45.377  26.003  32.531  1.00  0.00     0.034 A 
BRANCH  42  56
ATOM     56  C   UNL A   1      42.195  31.017  34.326  1.00  0.00     0.023 A 
ATOM     57  C   UNL A   1      42.785  32.267  34.069  1.00  0.00     0.031 A 
ATOM     58  C   UNL A   1      41.479  30.861  35.526  1.00  0.00     0.131 A 
ATOM     59  C   UNL A   1      42.698  33.292  35.023  1.00  0.00     0.055 A 
ATOM     60  C   UNL A   1      41.334  31.907  36.439  1.00  0.00     0.041 A 
ATOM     61  F   UNL A   1      40.913  29.683  35.835  1.00  0.00    -0.206 F 
ATOM     62  C   UNL A   1      41.956  33.128  36.196  1.00  0.00     0.022 A 
BRANCH  59  63
ATOM     63  S   UNL A   1      43.667  34.804  34.768  1.00  0.00     0.124 S 
ATOM     64  O   UNL A   1      43.021  35.372  33.587  1.00  0.00    -0.237 OA
ATOM     65  O   UNL A   1      43.463  35.525  36.018  1.00  0.00    -0.237 OA
ATOM     66  O   UNL A   1      45.025  34.309  34.549  1.00  0.00    -0.744 OA
ENDBRANCH  59  63
ENDBRANCH  42  56
BRANCH  43  67
ATOM     67  C   UNL A   1      42.746  23.580  27.632  1.00  0.00     0.023 A 
ATOM     68  C   UNL A   1      43.743  23.608  26.645  1.00  0.00     0.031 A 
ATOM     69  C   UNL A   1      41.811  22.530  27.593  1.00  0.00     0.131 A 
ATOM     70  C   UNL A   1      43.748  22.642  25.627  1.00  0.00     0.055 A 
ATOM     71  C   UNL A   1      41.854  21.538  26.612  1.00  0.00     0.041 A 
ATOM     72  F   UNL A   1      40.835  22.454  28.513  1.00  0.00    -0.206 F 
ATOM     73  C   UNL A   1      42.817  21.601  25.610  1.00  0.00     0.022 A 
BRANCH  70  74
ATOM     74  S   UNL A   1      44.924  22.827  24.258  1.00  0.00     0.124 S 
ATOM     75  O   UNL A   1      44.164  22.284  23.137  1.00  0.00    -0.237 OA
ATOM     76  O   UNL A   1      45.145  24.269  24.244  1.00  0.00    -0.237 OA
ATOM     77  O   UNL A   1      46.070  22.026  24.683  1.00  0.00    -0.744 OA
ENDBRANCH  70  74
ENDBRANCH  43  67
BRANCH  55  78
ATOM     78  C   UNL A   1      46.575  25.350  33.179  1.00  0.00     0.023 A 
ATOM     79  C   UNL A   1      47.885  25.581  32.724  1.00  0.00     0.031 A 
ATOM     80  C   UNL A   1      46.397  24.457  34.251  1.00  0.00     0.131 A 
ATOM     81  C   UNL A   1      48.958  24.876  33.291  1.00  0.00     0.055 A 
ATOM     82  C   UNL A   1      47.474  23.806  34.853  1.00  0.00     0.041 A 
ATOM     83  F   UNL A   1      45.169  24.198  34.728  1.00  0.00    -0.206 F 
ATOM     84  C   UNL A   1      48.762  24.001  34.363  1.00  0.00     0.022 A 
BRANCH  81  85
ATOM     85  S   UNL A   1      50.600  25.034  32.536  1.00  0.00     0.124 S 
ATOM     86  O   UNL A   1      51.415  25.464  33.666  1.00  0.00    -0.237 OA
ATOM     87  O   UNL A   1      50.849  23.682  32.048  1.00  0.00    -0.237 OA
ATOM     88  O   UNL A   1      50.402  26.041  31.494  1.00  0.00    -0.744 OA
ENDBRANCH  81  85
ENDBRANCH  55  78
ENDBRANCH  29  30
ENDBRANCH  22  24
ENDBRANCH  21  22
ENDBRANCH  20  21
ENDBRANCH  19  20
ENDBRANCH   1  19
TORSDOF 20
ENDMDL
