MODEL 1
REMARK VINA RESULT:      -9.2      0.000      0.000
REMARK SMILES Cc1ccc(S(=O)(=O)n2cc(C(=O)C(=O)NCC(=O)N[C@@H](Cc3c[nH]c4ccccc34)C(=O)OCCOCCOC(=O)c3ccc(-c4c5nc(c(-c6cc(S(=O)(=O)[O-])ccc6F)c6ccc([nH]6)c(-c6cc(S(=O)(=O)[O-])ccc6F)c6nc(c(-c7cc(S(=O)(=O)[O-])ccc7F)c7ccc4[nH]7)C=C6)C=C5)cc3)c3ccccc32)cc1
REMARK SMILES IDX 35 1 34 2 32 3 33 4 21 5 20 6 18 7 19 8 17 10 16 11 14 12
REMARK SMILES IDX 15 13 12 15 13 16 11 17 9 18 10 19 111 20 106 21 110 22
REMARK SMILES IDX 107 23 109 24 108 25 6 26 7 27 8 28 5 29 1 30 2 31 3 32
REMARK SMILES IDX 113 33 4 34 112 35 22 36 23 37 24 38 31 39 25 40 26 41 30 42
REMARK SMILES IDX 27 44 29 45 28 46 36 47 37 48 38 49 39 50 40 51 41 52 42 53
REMARK SMILES IDX 43 54 44 55 105 56 45 57 104 58 46 59 47 60 48 61 98 62
REMARK SMILES IDX 49 63 103 64 97 65 99 66 50 67 102 68 96 69 95 70 51 72
REMARK SMILES IDX 83 73 63 74 82 75 64 76 67 77 81 78 100 79 65 80 66 81 80 83
REMARK SMILES IDX 101 84 68 85 52 86 53 87 61 88 54 89 60 90 62 91 59 92 55 93
REMARK SMILES IDX 56 94 57 95 58 96 84 97 85 98 93 99 86 100 92 101 94 102
REMARK SMILES IDX 91 103 87 104 88 105 89 106 90 107 69 108 70 109 78 110
REMARK SMILES IDX 71 111 77 112 79 113 76 114 72 115 73 116 74 117 75 118
REMARK H PARENT 20 9 16 14 25 43 99 71 67 82
REMARK Flexibility Score: inf
ROOT
ATOM      1  C   UNL A   1      35.815  31.754  31.993  1.00  0.00     0.261 C 
ENDROOT
BRANCH   1   2
ATOM      2  O   UNL A   1      35.289  31.128  30.835  1.00  0.00    -0.462 OA
BRANCH   2   3
ATOM      3  C   UNL A   1      35.972  30.096  30.278  1.00  0.00     0.329 C 
ATOM      4  O   UNL A   1      36.530  29.192  30.850  1.00  0.00    -0.250 OA
BRANCH   3   5
ATOM      5  C   UNL A   1      35.867  30.215  28.761  1.00  0.00     0.196 C 
BRANCH   5   6
ATOM      6  N   UNL A   1      34.480  30.559  28.404  1.00  0.00    -0.341 N 
ATOM      7  C   UNL A   1      33.635  29.913  27.546  1.00  0.00     0.240 C 
ATOM      8  O   UNL A   1      32.422  30.126  27.638  1.00  0.00    -0.273 OA
ATOM      9  H   UNL A   1      34.112  31.360  28.842  1.00  0.00     0.164 HD
BRANCH   7  10
ATOM     10  C   UNL A   1      34.144  28.819  26.582  1.00  0.00     0.216 C 
BRANCH  10  11
ATOM     11  N   UNL A   1      34.203  29.195  25.172  1.00  0.00    -0.340 N 
ATOM     12  C   UNL A   1      33.260  28.969  24.176  1.00  0.00     0.292 C 
ATOM     13  O   UNL A   1      33.537  29.183  23.002  1.00  0.00    -0.265 OA
ATOM     14  H   UNL A   1      35.017  29.672  24.890  1.00  0.00     0.164 HD
BRANCH  12  15
ATOM     15  C   UNL A   1      31.853  28.506  24.569  1.00  0.00     0.252 C 
ATOM     16  O   UNL A   1      31.067  29.418  24.842  1.00  0.00    -0.283 OA
BRANCH  15  17
ATOM     17  C   UNL A   1      31.459  27.092  24.697  1.00  0.00     0.054 A 
ATOM     18  N   UNL A   1      30.714  25.041  25.356  1.00  0.00    -0.240 N 
ATOM     19  C   UNL A   1      30.735  26.409  25.685  1.00  0.00     0.117 A 
ATOM     20  C   UNL A   1      31.090  24.970  23.996  1.00  0.00     0.065 A 
ATOM     21  C   UNL A   1      31.898  26.083  23.783  1.00  0.00     0.012 A 
ATOM     22  C   UNL A   1      31.115  23.865  23.126  1.00  0.00     0.028 A 
ATOM     23  C   UNL A   1      32.897  26.009  22.789  1.00  0.00     0.011 A 
ATOM     24  C   UNL A   1      32.185  23.767  22.236  1.00  0.00     0.002 A 
ATOM     25  C   UNL A   1      33.088  24.811  22.093  1.00  0.00     0.001 A 
BRANCH  18  26
ATOM     26  S   UNL A   1      31.620  23.806  26.265  1.00  0.00     0.268 S 
ATOM     27  O   UNL A   1      30.733  22.651  26.229  1.00  0.00    -0.201 OA
ATOM     28  O   UNL A   1      31.887  24.481  27.531  1.00  0.00    -0.201 OA
BRANCH  26  29
ATOM     29  C   UNL A   1      33.214  23.163  25.915  1.00  0.00     0.088 A 
ATOM     30  C   UNL A   1      36.568  20.572  25.066  1.00  0.00     0.044 C 
ATOM     31  C   UNL A   1      35.430  21.532  25.270  1.00  0.00    -0.051 A 
ATOM     32  C   UNL A   1      34.152  21.062  25.028  1.00  0.00     0.005 A 
ATOM     33  C   UNL A   1      35.588  22.830  25.808  1.00  0.00     0.005 A 
ATOM     34  C   UNL A   1      33.076  21.874  25.328  1.00  0.00     0.022 A 
ATOM     35  C   UNL A   1      34.482  23.656  26.149  1.00  0.00     0.022 A 
ENDBRANCH  26  29
ENDBRANCH  18  26
ENDBRANCH  15  17
ENDBRANCH  12  15
ENDBRANCH  10  11
ENDBRANCH   7  10
ENDBRANCH   5   6
BRANCH   5  36
ATOM     36  C   UNL A   1      36.948  31.093  28.122  1.00  0.00     0.074 C 
BRANCH  36  37
ATOM     37  C   UNL A   1      37.239  32.448  28.696  1.00  0.00    -0.020 A 
ATOM     38  C   UNL A   1      36.493  33.596  28.602  1.00  0.00     0.087 A 
ATOM     39  C   UNL A   1      38.364  32.800  29.518  1.00  0.00     0.003 A 
ATOM     40  N   UNL A   1      37.148  34.627  29.209  1.00  0.00    -0.361 N 
ATOM     41  C   UNL A   1      38.220  34.135  29.898  1.00  0.00     0.046 A 
ATOM     42  C   UNL A   1      39.489  32.098  29.990  1.00  0.00     0.010 A 
ATOM     43  H   UNL A   1      36.890  35.576  29.158  1.00  0.00     0.166 HD
ATOM     44  C   UNL A   1      39.073  34.783  30.792  1.00  0.00     0.026 A 
ATOM     45  C   UNL A   1      40.386  32.745  30.850  1.00  0.00     0.001 A 
ATOM     46  C   UNL A   1      40.164  34.057  31.264  1.00  0.00     0.002 A 
ENDBRANCH  36  37
ENDBRANCH   5  36
ENDBRANCH   3   5
ENDBRANCH   2   3
ENDBRANCH   1   2
BRANCH   1  47
ATOM     47  C   UNL A   1      34.856  32.764  32.502  1.00  0.00     0.202 C 
BRANCH  47  48
ATOM     48  O   UNL A   1      35.219  33.014  33.851  1.00  0.00    -0.374 OA
BRANCH  48  49
ATOM     49  C   UNL A   1      36.623  33.042  34.024  1.00  0.00     0.202 C 
BRANCH  49  50
ATOM     50  C   UNL A   1      37.080  32.853  35.486  1.00  0.00     0.261 C 
BRANCH  50  51
ATOM     51  O   UNL A   1      38.485  32.514  35.508  1.00  0.00    -0.460 OA
BRANCH  51  52
ATOM     52  C   UNL A   1      38.797  31.192  35.418  1.00  0.00     0.338 C 
ATOM     53  O   UNL A   1      38.520  30.338  36.246  1.00  0.00    -0.246 OA
BRANCH  52  54
ATOM     54  C   UNL A   1      39.701  30.970  34.253  1.00  0.00     0.060 A 
ATOM     55  C   UNL A   1      39.430  29.945  33.326  1.00  0.00     0.016 A 
ATOM     56  C   UNL A   1      40.953  31.572  34.265  1.00  0.00     0.016 A 
ATOM     57  C   UNL A   1      40.472  29.383  32.575  1.00  0.00     0.010 A 
ATOM     58  C   UNL A   1      41.984  30.958  33.592  1.00  0.00     0.010 A 
ATOM     59  C   UNL A   1      41.768  29.811  32.814  1.00  0.00    -0.014 A 
BRANCH  59  60
ATOM     60  C   UNL A   1      42.997  29.155  32.352  1.00  0.00     0.031 A 
ATOM     61  C   UNL A   1      43.504  28.079  33.226  1.00  0.00     0.074 A 
ATOM     62  C   UNL A   1      43.487  29.338  31.095  1.00  0.00     0.049 A 
ATOM     63  N   UNL A   1      44.604  27.461  33.029  1.00  0.00    -0.248 NA
ATOM     64  C   UNL A   1      42.806  27.600  34.418  1.00  0.00     0.031 C 
ATOM     65  C   UNL A   1      44.443  28.540  30.323  1.00  0.00     0.029 A 
ATOM     66  N   UNL A   1      43.251  30.404  30.221  1.00  0.00    -0.354 N 
ATOM     67  C   UNL A   1      44.637  26.356  33.844  1.00  0.00     0.074 A 
ATOM     68  C   UNL A   1      43.534  26.530  34.747  1.00  0.00     0.031 C 
ATOM     69  C   UNL A   1      44.962  29.296  29.331  1.00  0.00     0.029 A 
ATOM     70  C   UNL A   1      44.417  30.639  29.489  1.00  0.00     0.049 A 
ATOM     71  H   UNL A   1      42.408  30.902  30.136  1.00  0.00     0.167 HD
ATOM     72  C   UNL A   1      45.547  25.394  33.541  1.00  0.00     0.034 A 
ATOM     73  C   UNL A   1      45.053  31.831  29.635  1.00  0.00     0.034 A 
ATOM     74  C   UNL A   1      46.445  25.887  32.483  1.00  0.00     0.049 A 
ATOM     75  C   UNL A   1      46.369  31.459  30.282  1.00  0.00     0.074 A 
ATOM     76  C   UNL A   1      46.584  25.634  31.129  1.00  0.00     0.029 A 
ATOM     77  N   UNL A   1      47.143  27.071  32.726  1.00  0.00    -0.354 N 
ATOM     78  N   UNL A   1      46.511  30.442  31.103  1.00  0.00    -0.248 NA
ATOM     79  C   UNL A   1      47.642  31.999  29.818  1.00  0.00     0.031 C 
ATOM     80  C   UNL A   1      47.272  26.749  30.550  1.00  0.00     0.029 A 
ATOM     81  C   UNL A   1      47.555  27.670  31.552  1.00  0.00     0.049 A 
ATOM     82  H   UNL A   1      47.316  27.436  33.623  1.00  0.00     0.167 HD
ATOM     83  C   UNL A   1      47.829  30.070  31.112  1.00  0.00     0.074 A 
ATOM     84  C   UNL A   1      48.504  31.118  30.352  1.00  0.00     0.031 C 
ATOM     85  C   UNL A   1      48.334  28.899  31.610  1.00  0.00     0.034 A 
BRANCH  72  86
ATOM     86  C   UNL A   1      45.565  23.974  34.058  1.00  0.00     0.023 A 
ATOM     87  C   UNL A   1      46.762  23.503  34.634  1.00  0.00     0.031 A 
ATOM     88  C   UNL A   1      44.513  23.036  34.025  1.00  0.00     0.131 A 
ATOM     89  C   UNL A   1      46.878  22.201  35.147  1.00  0.00     0.055 A 
ATOM     90  C   UNL A   1      44.632  21.729  34.515  1.00  0.00     0.041 A 
ATOM     91  F   UNL A   1      43.297  23.328  33.560  1.00  0.00    -0.206 F 
ATOM     92  C   UNL A   1      45.815  21.309  35.097  1.00  0.00     0.022 A 
BRANCH  89  93
ATOM     93  S   UNL A   1      48.453  21.718  35.900  1.00  0.00     0.124 S 
ATOM     94  O   UNL A   1      49.423  22.438  35.079  1.00  0.00    -0.237 OA
ATOM     95  O   UNL A   1      48.297  22.192  37.270  1.00  0.00    -0.237 OA
ATOM     96  O   UNL A   1      48.479  20.264  35.757  1.00  0.00    -0.744 OA
ENDBRANCH  89  93
ENDBRANCH  72  86
BRANCH  73  97
ATOM     97  C   UNL A   1      44.055  32.947  29.894  1.00  0.00     0.023 A 
ATOM     98  C   UNL A   1      44.023  33.501  31.209  1.00  0.00     0.031 A 
ATOM     99  C   UNL A   1      43.544  33.765  28.885  1.00  0.00     0.131 A 
ATOM    100  C   UNL A   1      43.741  34.868  31.444  1.00  0.00     0.055 A 
ATOM    101  C   UNL A   1      43.172  35.104  29.138  1.00  0.00     0.041 A 
ATOM    102  F   UNL A   1      43.516  33.343  27.613  1.00  0.00    -0.206 F 
ATOM    103  C   UNL A   1      43.341  35.682  30.397  1.00  0.00     0.022 A 
BRANCH 100 104
ATOM    104  S   UNL A   1      44.004  35.608  33.097  1.00  0.00     0.124 S 
ATOM    105  O   UNL A   1      44.721  34.546  33.795  1.00  0.00    -0.237 OA
ATOM    106  O   UNL A   1      44.792  36.796  32.796  1.00  0.00    -0.237 OA
ATOM    107  O   UNL A   1      42.656  35.894  33.577  1.00  0.00    -0.744 OA
ENDBRANCH 100 104
ENDBRANCH  73  97
BRANCH  85 108
ATOM    108  C   UNL A   1      49.695  28.860  32.253  1.00  0.00     0.023 A 
ATOM    109  C   UNL A   1      50.051  29.783  33.239  1.00  0.00     0.031 A 
ATOM    110  C   UNL A   1      50.611  27.806  32.030  1.00  0.00     0.131 A 
ATOM    111  C   UNL A   1      51.292  29.725  33.871  1.00  0.00     0.055 A 
ATOM    112  C   UNL A   1      51.790  27.671  32.763  1.00  0.00     0.041 A 
ATOM    113  F   UNL A   1      50.392  26.850  31.118  1.00  0.00    -0.206 F 
ATOM    114  C   UNL A   1      52.152  28.650  33.676  1.00  0.00     0.022 A 
BRANCH 111 115
ATOM    115  S   UNL A   1      51.774  31.164  34.844  1.00  0.00     0.124 S 
ATOM    116  O   UNL A   1      50.482  31.609  35.364  1.00  0.00    -0.237 OA
ATOM    117  O   UNL A   1      52.687  30.593  35.829  1.00  0.00    -0.237 OA
ATOM    118  O   UNL A   1      52.388  32.051  33.860  1.00  0.00    -0.744 OA
ENDBRANCH 111 115
ENDBRANCH  85 108
ENDBRANCH  59  60
ENDBRANCH  52  54
ENDBRANCH  51  52
ENDBRANCH  50  51
ENDBRANCH  49  50
ENDBRANCH  48  49
ENDBRANCH  47  48
ENDBRANCH   1  47
TORSDOF 26
ENDMDL
MODEL 2
REMARK VINA RESULT:      -9.2      3.657      8.127
REMARK SMILES Cc1ccc(S(=O)(=O)n2cc(C(=O)C(=O)NCC(=O)N[C@@H](Cc3c[nH]c4ccccc34)C(=O)OCCOCCOC(=O)c3ccc(-c4c5nc(c(-c6cc(S(=O)(=O)[O-])ccc6F)c6ccc([nH]6)c(-c6cc(S(=O)(=O)[O-])ccc6F)c6nc(c(-c7cc(S(=O)(=O)[O-])ccc7F)c7ccc4[nH]7)C=C6)C=C5)cc3)c3ccccc32)cc1
REMARK SMILES IDX 35 1 34 2 32 3 33 4 21 5 20 6 18 7 19 8 17 10 16 11 14 12
REMARK SMILES IDX 15 13 12 15 13 16 11 17 9 18 10 19 111 20 106 21 110 22
REMARK SMILES IDX 107 23 109 24 108 25 6 26 7 27 8 28 5 29 1 30 2 31 3 32
REMARK SMILES IDX 113 33 4 34 112 35 22 36 23 37 24 38 31 39 25 40 26 41 30 42
REMARK SMILES IDX 27 44 29 45 28 46 36 47 37 48 38 49 39 50 40 51 41 52 42 53
REMARK SMILES IDX 43 54 44 55 105 56 45 57 104 58 46 59 47 60 48 61 98 62
REMARK SMILES IDX 49 63 103 64 97 65 99 66 50 67 102 68 96 69 95 70 51 72
REMARK SMILES IDX 83 73 63 74 82 75 64 76 67 77 81 78 100 79 65 80 66 81 80 83
REMARK SMILES IDX 101 84 68 85 52 86 53 87 61 88 54 89 60 90 62 91 59 92 55 93
REMARK SMILES IDX 56 94 57 95 58 96 84 97 85 98 93 99 86 100 92 101 94 102
REMARK SMILES IDX 91 103 87 104 88 105 89 106 90 107 69 108 70 109 78 110
REMARK SMILES IDX 71 111 77 112 79 113 76 114 72 115 73 116 74 117 75 118
REMARK H PARENT 20 9 16 14 25 43 99 71 67 82
REMARK Flexibility Score: inf
ROOT
ATOM      1  C   UNL A   1      36.449  31.610  31.958  1.00  0.00     0.261 C 
ENDROOT
BRANCH   1   2
ATOM      2  O   UNL A   1      36.557  31.213  30.601  1.00  0.00    -0.462 OA
BRANCH   2   3
ATOM      3  C   UNL A   1      36.566  29.889  30.303  1.00  0.00     0.329 C 
ATOM      4  O   UNL A   1      36.837  28.972  31.039  1.00  0.00    -0.250 OA
BRANCH   3   5
ATOM      5  C   UNL A   1      36.101  29.719  28.860  1.00  0.00     0.196 C 
BRANCH   5   6
ATOM      6  N   UNL A   1      35.232  30.854  28.502  1.00  0.00    -0.341 N 
ATOM      7  C   UNL A   1      34.172  30.878  27.640  1.00  0.00     0.240 C 
ATOM      8  O   UNL A   1      33.357  31.801  27.732  1.00  0.00    -0.273 OA
ATOM      9  H   UNL A   1      35.444  31.709  28.942  1.00  0.00     0.164 HD
BRANCH   7  10
ATOM     10  C   UNL A   1      33.890  29.707  26.675  1.00  0.00     0.216 C 
BRANCH  10  11
ATOM     11  N   UNL A   1      32.836  29.939  25.690  1.00  0.00    -0.340 N 
ATOM     12  C   UNL A   1      31.753  29.127  25.375  1.00  0.00     0.292 C 
ATOM     13  O   UNL A   1      31.058  29.374  24.396  1.00  0.00    -0.265 OA
ATOM     14  H   UNL A   1      32.901  30.782  25.185  1.00  0.00     0.164 HD
BRANCH  12  15
ATOM     15  C   UNL A   1      31.403  27.953  26.296  1.00  0.00     0.252 C 
ATOM     16  O   UNL A   1      31.361  28.236  27.498  1.00  0.00    -0.283 OA
BRANCH  15  17
ATOM     17  C   UNL A   1      31.206  26.571  25.828  1.00  0.00     0.054 A 
ATOM     18  N   UNL A   1      30.612  24.393  25.511  1.00  0.00    -0.240 N 
ATOM     19  C   UNL A   1      30.328  25.559  26.245  1.00  0.00     0.117 A 
ATOM     20  C   UNL A   1      31.386  24.816  24.408  1.00  0.00     0.065 A 
ATOM     21  C   UNL A   1      32.045  25.963  24.843  1.00  0.00     0.012 A 
ATOM     22  C   UNL A   1      31.836  24.087  23.292  1.00  0.00     0.028 A 
ATOM     23  C   UNL A   1      33.296  26.277  24.271  1.00  0.00     0.011 A 
ATOM     24  C   UNL A   1      33.126  24.346  22.829  1.00  0.00     0.002 A 
ATOM     25  C   UNL A   1      33.864  25.406  23.336  1.00  0.00     0.001 A 
BRANCH  18  26
ATOM     26  S   UNL A   1      31.376  22.952  26.227  1.00  0.00     0.268 S 
ATOM     27  O   UNL A   1      30.505  21.867  25.796  1.00  0.00    -0.201 OA
ATOM     28  O   UNL A   1      31.454  23.307  27.640  1.00  0.00    -0.201 OA
BRANCH  26  29
ATOM     29  C   UNL A   1      33.005  22.355  25.967  1.00  0.00     0.088 A 
ATOM     30  C   UNL A   1      37.282  22.007  25.450  1.00  0.00     0.044 C 
ATOM     31  C   UNL A   1      35.802  22.049  25.709  1.00  0.00    -0.051 A 
ATOM     32  C   UNL A   1      35.301  23.170  26.345  1.00  0.00     0.005 A 
ATOM     33  C   UNL A   1      34.896  21.075  25.231  1.00  0.00     0.005 A 
ATOM     34  C   UNL A   1      33.933  23.302  26.485  1.00  0.00     0.022 A 
ATOM     35  C   UNL A   1      33.486  21.223  25.342  1.00  0.00     0.022 A 
ENDBRANCH  26  29
ENDBRANCH  18  26
ENDBRANCH  15  17
ENDBRANCH  12  15
ENDBRANCH  10  11
ENDBRANCH   7  10
ENDBRANCH   5   6
BRANCH   5  36
ATOM     36  C   UNL A   1      37.226  29.412  27.867  1.00  0.00     0.074 C 
BRANCH  36  37
ATOM     37  C   UNL A   1      38.644  29.341  28.350  1.00  0.00    -0.020 A 
ATOM     38  C   UNL A   1      39.425  30.343  28.868  1.00  0.00     0.087 A 
ATOM     39  C   UNL A   1      39.464  28.161  28.409  1.00  0.00     0.003 A 
ATOM     40  N   UNL A   1      40.679  29.872  29.122  1.00  0.00    -0.361 N 
ATOM     41  C   UNL A   1      40.685  28.513  28.986  1.00  0.00     0.046 A 
ATOM     42  C   UNL A   1      39.273  26.817  28.039  1.00  0.00     0.010 A 
ATOM     43  H   UNL A   1      41.457  30.425  29.365  1.00  0.00     0.166 HD
ATOM     44  C   UNL A   1      41.686  27.595  29.302  1.00  0.00     0.026 A 
ATOM     45  C   UNL A   1      40.286  25.886  28.302  1.00  0.00     0.001 A 
ATOM     46  C   UNL A   1      41.461  26.266  28.948  1.00  0.00     0.002 A 
ENDBRANCH  36  37
ENDBRANCH   5  36
ENDBRANCH   3   5
ENDBRANCH   2   3
ENDBRANCH   1   2
BRANCH   1  47
ATOM     47  C   UNL A   1      35.276  32.500  32.133  1.00  0.00     0.202 C 
BRANCH  47  48
ATOM     48  O   UNL A   1      35.793  33.807  32.332  1.00  0.00    -0.374 OA
BRANCH  48  49
ATOM     49  C   UNL A   1      36.844  33.821  33.279  1.00  0.00     0.202 C 
BRANCH  49  50
ATOM     50  C   UNL A   1      36.379  33.620  34.736  1.00  0.00     0.261 C 
BRANCH  50  51
ATOM     51  O   UNL A   1      36.819  32.326  35.205  1.00  0.00    -0.460 OA
BRANCH  51  52
ATOM     52  C   UNL A   1      37.607  32.312  36.316  1.00  0.00     0.338 C 
ATOM     53  O   UNL A   1      37.269  32.676  37.432  1.00  0.00    -0.246 OA
BRANCH  52  54
ATOM     54  C   UNL A   1      39.007  31.972  35.932  1.00  0.00     0.060 A 
ATOM     55  C   UNL A   1      40.076  32.273  36.797  1.00  0.00     0.016 A 
ATOM     56  C   UNL A   1      39.267  31.641  34.607  1.00  0.00     0.016 A 
ATOM     57  C   UNL A   1      41.367  32.459  36.282  1.00  0.00     0.010 A 
ATOM     58  C   UNL A   1      40.515  31.911  34.096  1.00  0.00     0.010 A 
ATOM     59  C   UNL A   1      41.548  32.403  34.909  1.00  0.00    -0.014 A 
BRANCH  59  60
ATOM     60  C   UNL A   1      42.735  32.849  34.172  1.00  0.00     0.031 A 
ATOM     61  C   UNL A   1      42.783  34.291  33.864  1.00  0.00     0.074 A 
ATOM     62  C   UNL A   1      43.829  32.053  34.011  1.00  0.00     0.049 A 
ATOM     63  N   UNL A   1      43.693  34.839  33.156  1.00  0.00    -0.248 NA
ATOM     64  C   UNL A   1      41.791  35.258  34.334  1.00  0.00     0.031 C 
ATOM     65  C   UNL A   1      45.207  32.395  33.654  1.00  0.00     0.029 A 
ATOM     66  N   UNL A   1      43.902  30.658  34.080  1.00  0.00    -0.354 N 
ATOM     67  C   UNL A   1      43.598  36.202  33.300  1.00  0.00     0.074 A 
ATOM     68  C   UNL A   1      42.351  36.416  33.976  1.00  0.00     0.031 C 
ATOM     69  C   UNL A   1      45.839  31.293  33.190  1.00  0.00     0.029 A 
ATOM     70  C   UNL A   1      44.852  30.221  33.155  1.00  0.00     0.049 A 
ATOM     71  H   UNL A   1      43.374  30.083  34.679  1.00  0.00     0.167 HD
ATOM     72  C   UNL A   1      44.673  36.938  32.913  1.00  0.00     0.034 A 
ATOM     73  C   UNL A   1      44.446  29.437  32.120  1.00  0.00     0.034 A 
ATOM     74  C   UNL A   1      45.639  36.066  32.223  1.00  0.00     0.049 A 
ATOM     75  C   UNL A   1      44.681  30.302  30.901  1.00  0.00     0.074 A 
ATOM     76  C   UNL A   1      46.865  35.516  32.559  1.00  0.00     0.029 A 
ATOM     77  N   UNL A   1      45.190  35.353  31.111  1.00  0.00    -0.354 N 
ATOM     78  N   UNL A   1      44.586  31.613  30.914  1.00  0.00    -0.248 NA
ATOM     79  C   UNL A   1      45.326  29.788  29.698  1.00  0.00     0.031 C 
ATOM     80  C   UNL A   1      47.078  34.387  31.704  1.00  0.00     0.029 A 
ATOM     81  C   UNL A   1      45.989  34.259  30.849  1.00  0.00     0.049 A 
ATOM     82  H   UNL A   1      44.398  35.600  30.580  1.00  0.00     0.167 HD
ATOM     83  C   UNL A   1      45.315  32.112  29.867  1.00  0.00     0.074 A 
ATOM     84  C   UNL A   1      45.694  30.932  29.097  1.00  0.00     0.031 C 
ATOM     85  C   UNL A   1      45.696  33.416  29.699  1.00  0.00     0.034 A 
BRANCH  72  86
ATOM     86  C   UNL A   1      44.950  38.381  33.263  1.00  0.00     0.023 A 
ATOM     87  C   UNL A   1      44.169  39.369  32.631  1.00  0.00     0.031 A 
ATOM     88  C   UNL A   1      45.924  38.876  34.155  1.00  0.00     0.131 A 
ATOM     89  C   UNL A   1      44.346  40.738  32.893  1.00  0.00     0.055 A 
ATOM     90  C   UNL A   1      46.119  40.241  34.401  1.00  0.00     0.041 A 
ATOM     91  F   UNL A   1      46.717  38.080  34.875  1.00  0.00    -0.206 F 
ATOM     92  C   UNL A   1      45.316  41.182  33.782  1.00  0.00     0.022 A 
BRANCH  89  93
ATOM     93  S   UNL A   1      43.257  41.915  32.052  1.00  0.00     0.124 S 
ATOM     94  O   UNL A   1      43.843  41.980  30.715  1.00  0.00    -0.237 OA
ATOM     95  O   UNL A   1      41.959  41.258  32.150  1.00  0.00    -0.237 OA
ATOM     96  O   UNL A   1      43.384  43.137  32.843  1.00  0.00    -0.744 OA
ENDBRANCH  89  93
ENDBRANCH  72  86
BRANCH  73  97
ATOM     97  C   UNL A   1      43.296  28.539  32.542  1.00  0.00     0.023 A 
ATOM     98  C   UNL A   1      43.620  27.385  33.316  1.00  0.00     0.031 A 
ATOM     99  C   UNL A   1      41.978  28.985  32.652  1.00  0.00     0.131 A 
ATOM    100  C   UNL A   1      42.756  26.882  34.318  1.00  0.00     0.055 A 
ATOM    101  C   UNL A   1      41.084  28.420  33.588  1.00  0.00     0.041 A 
ATOM    102  F   UNL A   1      41.560  30.055  31.962  1.00  0.00    -0.206 F 
ATOM    103  C   UNL A   1      41.490  27.423  34.474  1.00  0.00     0.022 A 
BRANCH 100 104
ATOM    104  S   UNL A   1      43.327  25.598  35.490  1.00  0.00     0.124 S 
ATOM    105  O   UNL A   1      43.694  24.508  34.593  1.00  0.00    -0.237 OA
ATOM    106  O   UNL A   1      44.442  26.251  36.165  1.00  0.00    -0.237 OA
ATOM    107  O   UNL A   1      42.170  25.360  36.347  1.00  0.00    -0.744 OA
ENDBRANCH 100 104
ENDBRANCH  73  97
BRANCH  85 108
ATOM    108  C   UNL A   1      45.796  34.017  28.321  1.00  0.00     0.023 A 
ATOM    109  C   UNL A   1      47.038  34.334  27.763  1.00  0.00     0.031 A 
ATOM    110  C   UNL A   1      44.682  34.133  27.460  1.00  0.00     0.131 A 
ATOM    111  C   UNL A   1      47.141  34.848  26.472  1.00  0.00     0.055 A 
ATOM    112  C   UNL A   1      44.804  34.515  26.124  1.00  0.00     0.041 A 
ATOM    113  F   UNL A   1      43.434  33.856  27.863  1.00  0.00    -0.206 F 
ATOM    114  C   UNL A   1      46.039  34.901  25.626  1.00  0.00     0.022 A 
BRANCH 111 115
ATOM    115  S   UNL A   1      48.734  35.552  26.005  1.00  0.00     0.124 S 
ATOM    116  O   UNL A   1      49.606  35.012  27.047  1.00  0.00    -0.237 OA
ATOM    117  O   UNL A   1      48.942  35.011  24.666  1.00  0.00    -0.237 OA
ATOM    118  O   UNL A   1      48.503  36.992  26.071  1.00  0.00    -0.744 OA
ENDBRANCH 111 115
ENDBRANCH  85 108
ENDBRANCH  59  60
ENDBRANCH  52  54
ENDBRANCH  51  52
ENDBRANCH  50  51
ENDBRANCH  49  50
ENDBRANCH  48  49
ENDBRANCH  47  48
ENDBRANCH   1  47
TORSDOF 26
ENDMDL
MODEL 3
REMARK VINA RESULT:      -8.7      5.227     13.200
REMARK SMILES Cc1ccc(S(=O)(=O)n2cc(C(=O)C(=O)NCC(=O)N[C@@H](Cc3c[nH]c4ccccc34)C(=O)OCCOCCOC(=O)c3ccc(-c4c5nc(c(-c6cc(S(=O)(=O)[O-])ccc6F)c6ccc([nH]6)c(-c6cc(S(=O)(=O)[O-])ccc6F)c6nc(c(-c7cc(S(=O)(=O)[O-])ccc7F)c7ccc4[nH]7)C=C6)C=C5)cc3)c3ccccc32)cc1
REMARK SMILES IDX 35 1 34 2 32 3 33 4 21 5 20 6 18 7 19 8 17 10 16 11 14 12
REMARK SMILES IDX 15 13 12 15 13 16 11 17 9 18 10 19 111 20 106 21 110 22
REMARK SMILES IDX 107 23 109 24 108 25 6 26 7 27 8 28 5 29 1 30 2 31 3 32
REMARK SMILES IDX 113 33 4 34 112 35 22 36 23 37 24 38 31 39 25 40 26 41 30 42
REMARK SMILES IDX 27 44 29 45 28 46 36 47 37 48 38 49 39 50 40 51 41 52 42 53
REMARK SMILES IDX 43 54 44 55 105 56 45 57 104 58 46 59 47 60 48 61 98 62
REMARK SMILES IDX 49 63 103 64 97 65 99 66 50 67 102 68 96 69 95 70 51 72
REMARK SMILES IDX 83 73 63 74 82 75 64 76 67 77 81 78 100 79 65 80 66 81 80 83
REMARK SMILES IDX 101 84 68 85 52 86 53 87 61 88 54 89 60 90 62 91 59 92 55 93
REMARK SMILES IDX 56 94 57 95 58 96 84 97 85 98 93 99 86 100 92 101 94 102
REMARK SMILES IDX 91 103 87 104 88 105 89 106 90 107 69 108 70 109 78 110
REMARK SMILES IDX 71 111 77 112 79 113 76 114 72 115 73 116 74 117 75 118
REMARK H PARENT 20 9 16 14 25 43 99 71 67 82
REMARK Flexibility Score: inf
ROOT
ATOM      1  C   UNL A   1      44.140  23.044  29.959  1.00  0.00     0.261 C 
ENDROOT
BRANCH   1   2
ATOM      2  O   UNL A   1      44.069  24.024  30.981  1.00  0.00    -0.462 OA
BRANCH   2   3
ATOM      3  C   UNL A   1      43.943  23.621  32.270  1.00  0.00     0.329 C 
ATOM      4  O   UNL A   1      43.354  22.653  32.683  1.00  0.00    -0.250 OA
BRANCH   3   5
ATOM      5  C   UNL A   1      44.745  24.575  33.151  1.00  0.00     0.196 C 
BRANCH   5   6
ATOM      6  N   UNL A   1      45.971  23.892  33.600  1.00  0.00    -0.341 N 
ATOM      7  C   UNL A   1      46.478  23.794  34.865  1.00  0.00     0.240 C 
ATOM      8  O   UNL A   1      47.301  22.904  35.104  1.00  0.00    -0.273 OA
ATOM      9  H   UNL A   1      46.495  23.448  32.894  1.00  0.00     0.164 HD
BRANCH   7  10
ATOM     10  C   UNL A   1      45.934  24.658  36.022  1.00  0.00     0.216 C 
BRANCH  10  11
ATOM     11  N   UNL A   1      46.169  26.095  35.904  1.00  0.00    -0.340 N 
ATOM     12  C   UNL A   1      47.357  26.794  36.079  1.00  0.00     0.292 C 
ATOM     13  O   UNL A   1      47.354  28.019  36.126  1.00  0.00    -0.265 OA
ATOM     14  H   UNL A   1      45.382  26.639  35.669  1.00  0.00     0.164 HD
BRANCH  12  15
ATOM     15  C   UNL A   1      48.677  26.020  36.154  1.00  0.00     0.252 C 
ATOM     16  O   UNL A   1      48.826  25.352  37.182  1.00  0.00    -0.283 OA
BRANCH  15  17
ATOM     17  C   UNL A   1      49.739  26.105  35.135  1.00  0.00     0.054 A 
ATOM     18  N   UNL A   1      51.659  26.399  33.943  1.00  0.00    -0.240 N 
ATOM     19  C   UNL A   1      51.119  26.334  35.241  1.00  0.00     0.117 A 
ATOM     20  C   UNL A   1      50.682  25.835  33.094  1.00  0.00     0.065 A 
ATOM     21  C   UNL A   1      49.467  26.067  33.732  1.00  0.00     0.012 A 
ATOM     22  C   UNL A   1      50.747  25.536  31.721  1.00  0.00     0.028 A 
ATOM     23  C   UNL A   1      48.306  26.200  32.941  1.00  0.00     0.011 A 
ATOM     24  C   UNL A   1      49.613  25.791  30.950  1.00  0.00     0.002 A 
ATOM     25  C   UNL A   1      48.414  26.154  31.547  1.00  0.00     0.001 A 
BRANCH  18  26
ATOM     26  S   UNL A   1      52.251  27.910  33.208  1.00  0.00     0.268 S 
ATOM     27  O   UNL A   1      53.342  27.458  32.355  1.00  0.00    -0.201 OA
ATOM     28  O   UNL A   1      52.536  28.737  34.377  1.00  0.00    -0.201 OA
BRANCH  26  29
ATOM     29  C   UNL A   1      51.355  29.056  32.229  1.00  0.00     0.088 A 
ATOM     30  C   UNL A   1      48.359  31.745  30.656  1.00  0.00     0.044 C 
ATOM     31  C   UNL A   1      49.474  30.893  31.193  1.00  0.00    -0.051 A 
ATOM     32  C   UNL A   1      49.438  30.576  32.539  1.00  0.00     0.005 A 
ATOM     33  C   UNL A   1      50.473  30.308  30.382  1.00  0.00     0.005 A 
ATOM     34  C   UNL A   1      50.374  29.692  33.040  1.00  0.00     0.022 A 
ATOM     35  C   UNL A   1      51.416  29.371  30.886  1.00  0.00     0.022 A 
ENDBRANCH  26  29
ENDBRANCH  18  26
ENDBRANCH  15  17
ENDBRANCH  12  15
ENDBRANCH  10  11
ENDBRANCH   7  10
ENDBRANCH   5   6
BRANCH   5  36
ATOM     36  C   UNL A   1      44.951  25.968  32.547  1.00  0.00     0.074 C 
BRANCH  36  37
ATOM     37  C   UNL A   1      44.096  27.111  33.008  1.00  0.00    -0.020 A 
ATOM     38  C   UNL A   1      42.766  27.105  33.345  1.00  0.00     0.087 A 
ATOM     39  C   UNL A   1      44.534  28.461  33.239  1.00  0.00     0.003 A 
ATOM     40  N   UNL A   1      42.357  28.371  33.647  1.00  0.00    -0.361 N 
ATOM     41  C   UNL A   1      43.448  29.188  33.729  1.00  0.00     0.046 A 
ATOM     42  C   UNL A   1      45.763  29.130  33.092  1.00  0.00     0.010 A 
ATOM     43  H   UNL A   1      41.423  28.650  33.783  1.00  0.00     0.166 HD
ATOM     44  C   UNL A   1      43.535  30.509  34.168  1.00  0.00     0.026 A 
ATOM     45  C   UNL A   1      45.860  30.472  33.480  1.00  0.00     0.001 A 
ATOM     46  C   UNL A   1      44.770  31.140  34.035  1.00  0.00     0.002 A 
ENDBRANCH  36  37
ENDBRANCH   5  36
ENDBRANCH   3   5
ENDBRANCH   2   3
ENDBRANCH   1   2
BRANCH   1  47
ATOM     47  C   UNL A   1      42.811  22.879  29.323  1.00  0.00     0.202 C 
BRANCH  47  48
ATOM     48  O   UNL A   1      43.023  22.981  27.923  1.00  0.00    -0.374 OA
BRANCH  48  49
ATOM     49  C   UNL A   1      42.156  22.130  27.195  1.00  0.00     0.202 C 
BRANCH  49  50
ATOM     50  C   UNL A   1      42.882  21.021  26.406  1.00  0.00     0.261 C 
BRANCH  50  51
ATOM     51  O   UNL A   1      43.201  21.505  25.082  1.00  0.00    -0.460 OA
BRANCH  51  52
ATOM     52  C   UNL A   1      44.517  21.514  24.734  1.00  0.00     0.338 C 
ATOM     53  O   UNL A   1      45.152  20.552  24.329  1.00  0.00    -0.246 OA
BRANCH  52  54
ATOM     54  C   UNL A   1      45.124  22.825  25.105  1.00  0.00     0.060 A 
ATOM     55  C   UNL A   1      45.979  22.924  26.219  1.00  0.00     0.016 A 
ATOM     56  C   UNL A   1      44.602  23.979  24.534  1.00  0.00     0.016 A 
ATOM     57  C   UNL A   1      46.127  24.148  26.886  1.00  0.00     0.010 A 
ATOM     58  C   UNL A   1      44.681  25.155  25.243  1.00  0.00     0.010 A 
ATOM     59  C   UNL A   1      45.368  25.229  26.465  1.00  0.00    -0.014 A 
BRANCH  59  60
ATOM     60  C   UNL A   1      45.165  26.484  27.196  1.00  0.00     0.031 A 
ATOM     61  C   UNL A   1      43.775  26.979  27.228  1.00  0.00     0.074 A 
ATOM     62  C   UNL A   1      46.126  27.015  28.002  1.00  0.00     0.049 A 
ATOM     63  N   UNL A   1      43.428  28.096  27.740  1.00  0.00    -0.248 NA
ATOM     64  C   UNL A   1      42.637  26.248  26.674  1.00  0.00     0.031 C 
ATOM     65  C   UNL A   1      46.024  28.011  29.071  1.00  0.00     0.029 A 
ATOM     66  N   UNL A   1      47.506  26.792  27.967  1.00  0.00    -0.354 N 
ATOM     67  C   UNL A   1      42.060  28.119  27.854  1.00  0.00     0.074 A 
ATOM     68  C   UNL A   1      41.608  26.983  27.103  1.00  0.00     0.031 C 
ATOM     69  C   UNL A   1      47.241  28.553  29.300  1.00  0.00     0.029 A 
ATOM     70  C   UNL A   1      48.153  27.978  28.318  1.00  0.00     0.049 A 
ATOM     71  H   UNL A   1      47.946  25.943  27.735  1.00  0.00     0.167 HD
ATOM     72  C   UNL A   1      41.526  29.057  28.680  1.00  0.00     0.034 A 
ATOM     73  C   UNL A   1      48.948  28.588  27.399  1.00  0.00     0.034 A 
ATOM     74  C   UNL A   1      42.585  29.983  29.117  1.00  0.00     0.049 A 
ATOM     75  C   UNL A   1      48.229  29.887  27.108  1.00  0.00     0.074 A 
ATOM     76  C   UNL A   1      43.284  30.174  30.297  1.00  0.00     0.029 A 
ATOM     77  N   UNL A   1      43.309  30.650  28.128  1.00  0.00    -0.354 N 
ATOM     78  N   UNL A   1      46.921  30.017  27.154  1.00  0.00    -0.248 NA
ATOM     79  C   UNL A   1      48.928  31.166  27.053  1.00  0.00     0.031 C 
ATOM     80  C   UNL A   1      44.497  30.862  29.972  1.00  0.00     0.029 A 
ATOM     81  C   UNL A   1      44.528  31.093  28.601  1.00  0.00     0.049 A 
ATOM     82  H   UNL A   1      42.991  30.786  27.207  1.00  0.00     0.167 HD
ATOM     83  C   UNL A   1      46.622  31.340  27.342  1.00  0.00     0.074 A 
ATOM     84  C   UNL A   1      47.904  32.023  27.198  1.00  0.00     0.031 C 
ATOM     85  C   UNL A   1      45.407  31.848  27.719  1.00  0.00     0.034 A 
BRANCH  72  86
ATOM     86  C   UNL A   1      40.117  29.081  29.225  1.00  0.00     0.023 A 
ATOM     87  C   UNL A   1      39.950  28.904  30.613  1.00  0.00     0.031 A 
ATOM     88  C   UNL A   1      38.920  29.251  28.500  1.00  0.00     0.131 A 
ATOM     89  C   UNL A   1      38.682  28.916  31.217  1.00  0.00     0.055 A 
ATOM     90  C   UNL A   1      37.652  29.240  29.096  1.00  0.00     0.041 A 
ATOM     91  F   UNL A   1      38.895  29.479  27.186  1.00  0.00    -0.206 F 
ATOM     92  C   UNL A   1      37.527  29.089  30.465  1.00  0.00     0.022 A 
BRANCH  89  93
ATOM     93  S   UNL A   1      38.591  28.719  33.015  1.00  0.00     0.124 S 
ATOM     94  O   UNL A   1      39.270  29.920  33.494  1.00  0.00    -0.237 OA
ATOM     95  O   UNL A   1      37.153  28.662  33.247  1.00  0.00    -0.237 OA
ATOM     96  O   UNL A   1      39.300  27.466  33.266  1.00  0.00    -0.744 OA
ENDBRANCH  89  93
ENDBRANCH  72  86
BRANCH  73  97
ATOM     97  C   UNL A   1      49.627  27.562  26.508  1.00  0.00     0.023 A 
ATOM     98  C   UNL A   1      49.233  27.526  25.137  1.00  0.00     0.031 A 
ATOM     99  C   UNL A   1      50.883  27.021  26.786  1.00  0.00     0.131 A 
ATOM    100  C   UNL A   1      50.141  27.208  24.100  1.00  0.00     0.055 A 
ATOM    101  C   UNL A   1      51.757  26.614  25.753  1.00  0.00     0.041 A 
ATOM    102  F   UNL A   1      51.352  26.993  28.041  1.00  0.00    -0.206 F 
ATOM    103  C   UNL A   1      51.421  26.778  24.409  1.00  0.00     0.022 A 
BRANCH 100 104
ATOM    104  S   UNL A   1      49.687  27.466  22.346  1.00  0.00     0.124 S 
ATOM    105  O   UNL A   1      50.021  28.872  22.148  1.00  0.00    -0.237 OA
ATOM    106  O   UNL A   1      50.547  26.517  21.648  1.00  0.00    -0.237 OA
ATOM    107  O   UNL A   1      48.267  27.131  22.294  1.00  0.00    -0.744 OA
ENDBRANCH 100 104
ENDBRANCH  73  97
BRANCH  85 108
ATOM    108  C   UNL A   1      44.941  33.186  27.210  1.00  0.00     0.023 A 
ATOM    109  C   UNL A   1      45.222  34.361  27.912  1.00  0.00     0.031 A 
ATOM    110  C   UNL A   1      44.356  33.352  25.934  1.00  0.00     0.131 A 
ATOM    111  C   UNL A   1      44.833  35.607  27.424  1.00  0.00     0.055 A 
ATOM    112  C   UNL A   1      44.094  34.608  25.387  1.00  0.00     0.041 A 
ATOM    113  F   UNL A   1      44.038  32.311  25.152  1.00  0.00    -0.206 F 
ATOM    114  C   UNL A   1      44.310  35.750  26.144  1.00  0.00     0.022 A 
BRANCH 111 115
ATOM    115  S   UNL A   1      44.924  36.992  28.575  1.00  0.00     0.124 S 
ATOM    116  O   UNL A   1      43.978  37.931  27.976  1.00  0.00    -0.237 OA
ATOM    117  O   UNL A   1      44.501  36.388  29.834  1.00  0.00    -0.237 OA
ATOM    118  O   UNL A   1      46.326  37.395  28.512  1.00  0.00    -0.744 OA
ENDBRANCH 111 115
ENDBRANCH  85 108
ENDBRANCH  59  60
ENDBRANCH  52  54
ENDBRANCH  51  52
ENDBRANCH  50  51
ENDBRANCH  49  50
ENDBRANCH  48  49
ENDBRANCH  47  48
ENDBRANCH   1  47
TORSDOF 26
ENDMDL
