MODEL 1
REMARK VINA RESULT:     -10.8      0.000      0.000
REMARK SMILES CC[C@H](C)[C@H](NC(=O)N1CCCCC1)C(=O)OCCOCCOC(=O)c1ccc(-c2c3nc(c(-c4cc(S(=O)(=O)[O-])ccc4F)c4ccc([nH]4)c(-c4cc(S(=O)(=O)[O-])ccc4F)c4nc(c(-c5cc(S(=O)(=O)[O-])ccc5F)c5ccc2[nH]5)C=C4)C=C3)cc1
REMARK SMILES IDX 21 1 20 2 19 3 18 4 17 5 15 6 16 7 5 8 3 9 4 10 2 11 1 12
REMARK SMILES IDX 6 13 7 14 8 16 9 17 10 18 14 19 11 20 13 21 12 22 22 23
REMARK SMILES IDX 23 24 24 25 25 26 26 27 27 28 88 29 28 30 87 31 29 32 30 33
REMARK SMILES IDX 31 34 81 35 32 36 86 37 80 38 82 39 33 40 85 41 79 42 78 43
REMARK SMILES IDX 34 45 66 46 46 47 65 48 47 49 50 50 64 51 83 52 48 53 49 54
REMARK SMILES IDX 63 56 84 57 51 58 35 59 36 60 44 61 37 62 43 63 45 64 42 65
REMARK SMILES IDX 38 66 39 67 40 68 41 69 67 70 68 71 76 72 69 73 75 74 77 75
REMARK SMILES IDX 74 76 70 77 71 78 72 79 73 80 52 81 53 82 61 83 54 84 60 85
REMARK SMILES IDX 62 86 59 87 55 88 56 89 57 90 58 91
REMARK H PARENT 6 15 82 44 50 55
REMARK Flexibility Score: inf
ROOT
ATOM      1  C   UNL A   1      31.794  26.972  26.666  1.00  0.00     0.202 C 
ENDROOT
BRANCH   1   2
ATOM      2  O   UNL A   1      30.688  26.553  25.828  1.00  0.00    -0.374 OA
BRANCH   2   3
ATOM      3  C   UNL A   1      30.019  25.264  25.940  1.00  0.00     0.202 C 
BRANCH   3   4
ATOM      4  C   UNL A   1      30.670  23.963  26.468  1.00  0.00     0.261 C 
BRANCH   4   5
ATOM      5  O   UNL A   1      31.528  23.424  25.474  1.00  0.00    -0.462 OA
BRANCH   5   6
ATOM      6  C   UNL A   1      32.866  23.373  25.702  1.00  0.00     0.329 C 
ATOM      7  O   UNL A   1      33.436  23.824  26.672  1.00  0.00    -0.250 OA
BRANCH   6   8
ATOM      8  C   UNL A   1      33.491  22.450  24.645  1.00  0.00     0.196 C 
BRANCH   8   9
ATOM      9  C   UNL A   1      34.769  21.636  25.000  1.00  0.00     0.019 C 
ATOM     10  C   UNL A   1      34.567  20.125  24.752  1.00  0.00     0.010 C 
BRANCH   9  11
ATOM     11  C   UNL A   1      36.102  22.096  24.397  1.00  0.00     0.002 C 
ATOM     12  C   UNL A   1      36.461  23.546  24.625  1.00  0.00     0.004 C 
ENDBRANCH   9  11
ENDBRANCH   8   9
BRANCH   8  13
ATOM     13  N   UNL A   1      33.392  22.818  23.227  1.00  0.00    -0.324 N 
ATOM     14  C   UNL A   1      33.223  23.851  22.399  1.00  0.00     0.318 C 
ATOM     15  H   UNL A   1      33.486  21.999  22.687  1.00  0.00     0.166 HD
ATOM     16  O   UNL A   1      33.464  23.525  21.239  1.00  0.00    -0.249 OA
ATOM     17  N   UNL A   1      32.757  25.091  22.777  1.00  0.00    -0.325 N 
ATOM     18  C   UNL A   1      31.537  25.674  22.163  1.00  0.00     0.121 C 
ATOM     19  C   UNL A   1      33.759  26.009  23.256  1.00  0.00     0.121 C 
ATOM     20  C   UNL A   1      31.258  27.167  22.147  1.00  0.00     0.022 C 
ATOM     21  C   UNL A   1      33.573  27.486  22.935  1.00  0.00     0.022 C 
ATOM     22  C   UNL A   1      32.139  27.956  23.071  1.00  0.00     0.004 C 
ENDBRANCH   8  13
ENDBRANCH   6   8
ENDBRANCH   5   6
ENDBRANCH   4   5
ENDBRANCH   3   4
ENDBRANCH   2   3
ENDBRANCH   1   2
BRANCH   1  23
ATOM     23  C   UNL A   1      31.560  28.157  27.742  1.00  0.00     0.261 C 
BRANCH  23  24
ATOM     24  O   UNL A   1      31.619  29.567  27.270  1.00  0.00    -0.460 OA
BRANCH  24  25
ATOM     25  C   UNL A   1      32.660  30.123  26.537  1.00  0.00     0.338 C 
ATOM     26  O   UNL A   1      32.506  30.567  25.405  1.00  0.00    -0.246 OA
BRANCH  25  27
ATOM     27  C   UNL A   1      34.049  30.205  27.268  1.00  0.00     0.060 A 
ATOM     28  C   UNL A   1      34.884  29.110  27.497  1.00  0.00     0.016 A 
ATOM     29  C   UNL A   1      34.620  31.412  27.686  1.00  0.00     0.016 A 
ATOM     30  C   UNL A   1      36.080  29.100  28.219  1.00  0.00     0.010 A 
ATOM     31  C   UNL A   1      35.902  31.450  28.341  1.00  0.00     0.010 A 
ATOM     32  C   UNL A   1      36.642  30.280  28.637  1.00  0.00    -0.014 A 
BRANCH  32  33
ATOM     33  C   UNL A   1      37.904  30.233  29.450  1.00  0.00     0.031 A 
ATOM     34  C   UNL A   1      39.083  29.513  28.861  1.00  0.00     0.074 A 
ATOM     35  C   UNL A   1      38.114  30.919  30.600  1.00  0.00     0.049 A 
ATOM     36  N   UNL A   1      40.138  29.015  29.445  1.00  0.00    -0.248 NA
ATOM     37  C   UNL A   1      39.060  29.353  27.401  1.00  0.00     0.031 C 
ATOM     38  C   UNL A   1      37.209  31.901  31.205  1.00  0.00     0.029 A 
ATOM     39  N   UNL A   1      39.184  30.898  31.476  1.00  0.00    -0.354 N 
ATOM     40  C   UNL A   1      40.854  28.378  28.436  1.00  0.00     0.074 A 
ATOM     41  C   UNL A   1      40.137  28.611  27.200  1.00  0.00     0.031 C 
ATOM     42  C   UNL A   1      37.757  32.379  32.336  1.00  0.00     0.029 A 
ATOM     43  C   UNL A   1      38.991  31.652  32.619  1.00  0.00     0.049 A 
ATOM     44  H   UNL A   1      40.011  30.392  31.302  1.00  0.00     0.167 HD
ATOM     45  C   UNL A   1      41.980  27.630  28.556  1.00  0.00     0.034 A 
ATOM     46  C   UNL A   1      39.670  31.683  33.790  1.00  0.00     0.034 A 
ATOM     47  C   UNL A   1      42.688  27.459  29.801  1.00  0.00     0.049 A 
ATOM     48  C   UNL A   1      40.841  30.737  33.968  1.00  0.00     0.074 A 
ATOM     49  C   UNL A   1      43.760  26.634  30.088  1.00  0.00     0.029 A 
ATOM     50  N   UNL A   1      42.401  28.154  30.970  1.00  0.00    -0.354 N 
ATOM     51  N   UNL A   1      41.387  29.923  33.092  1.00  0.00    -0.248 NA
ATOM     52  C   UNL A   1      41.459  30.679  35.301  1.00  0.00     0.031 C 
ATOM     53  C   UNL A   1      44.087  26.791  31.441  1.00  0.00     0.029 A 
ATOM     54  C   UNL A   1      43.264  27.767  31.982  1.00  0.00     0.049 A 
ATOM     55  H   UNL A   1      41.687  28.824  31.065  1.00  0.00     0.167 HD
ATOM     56  C   UNL A   1      42.419  29.272  33.767  1.00  0.00     0.074 A 
ATOM     57  C   UNL A   1      42.435  29.803  35.113  1.00  0.00     0.031 C 
ATOM     58  C   UNL A   1      43.271  28.313  33.318  1.00  0.00     0.034 A 
BRANCH  45  59
ATOM     59  C   UNL A   1      42.387  26.830  27.345  1.00  0.00     0.023 A 
ATOM     60  C   UNL A   1      42.017  25.488  27.160  1.00  0.00     0.031 A 
ATOM     61  C   UNL A   1      43.270  27.405  26.410  1.00  0.00     0.131 A 
ATOM     62  C   UNL A   1      42.606  24.740  26.128  1.00  0.00     0.055 A 
ATOM     63  C   UNL A   1      43.781  26.680  25.333  1.00  0.00     0.041 A 
ATOM     64  F   UNL A   1      43.684  28.675  26.551  1.00  0.00    -0.206 F 
ATOM     65  C   UNL A   1      43.466  25.332  25.200  1.00  0.00     0.022 A 
BRANCH  62  66
ATOM     66  S   UNL A   1      42.379  22.939  26.126  1.00  0.00     0.124 S 
ATOM     67  O   UNL A   1      43.207  22.537  27.260  1.00  0.00    -0.237 OA
ATOM     68  O   UNL A   1      40.938  22.802  26.307  1.00  0.00    -0.237 OA
ATOM     69  O   UNL A   1      42.884  22.531  24.817  1.00  0.00    -0.744 OA
ENDBRANCH  62  66
ENDBRANCH  45  59
BRANCH  46  70
ATOM     70  C   UNL A   1      39.192  32.501  34.957  1.00  0.00     0.023 A 
ATOM     71  C   UNL A   1      39.690  33.794  35.210  1.00  0.00     0.031 A 
ATOM     72  C   UNL A   1      38.307  31.955  35.906  1.00  0.00     0.131 A 
ATOM     73  C   UNL A   1      39.333  34.471  36.393  1.00  0.00     0.055 A 
ATOM     74  C   UNL A   1      37.906  32.657  37.047  1.00  0.00     0.041 A 
ATOM     75  F   UNL A   1      37.817  30.715  35.747  1.00  0.00    -0.206 F 
ATOM     76  C   UNL A   1      38.431  33.918  37.303  1.00  0.00     0.022 A 
BRANCH  73  77
ATOM     77  S   UNL A   1      40.143  36.050  36.786  1.00  0.00     0.124 S 
ATOM     78  O   UNL A   1      41.510  35.624  37.059  1.00  0.00    -0.237 OA
ATOM     79  O   UNL A   1      39.939  36.809  35.556  1.00  0.00    -0.237 OA
ATOM     80  O   UNL A   1      39.396  36.538  37.945  1.00  0.00    -0.744 OA
ENDBRANCH  73  77
ENDBRANCH  46  70
BRANCH  58  81
ATOM     81  C   UNL A   1      44.328  27.826  34.277  1.00  0.00     0.023 A 
ATOM     82  C   UNL A   1      44.094  26.762  35.167  1.00  0.00     0.031 A 
ATOM     83  C   UNL A   1      45.595  28.436  34.294  1.00  0.00     0.131 A 
ATOM     84  C   UNL A   1      45.099  26.371  36.066  1.00  0.00     0.055 A 
ATOM     85  C   UNL A   1      46.607  28.008  35.153  1.00  0.00     0.041 A 
ATOM     86  F   UNL A   1      45.871  29.457  33.466  1.00  0.00    -0.206 F 
ATOM     87  C   UNL A   1      46.358  26.977  36.053  1.00  0.00     0.022 A 
BRANCH  84  88
ATOM     88  S   UNL A   1      44.718  25.102  37.305  1.00  0.00     0.124 S 
ATOM     89  O   UNL A   1      43.261  25.167  37.370  1.00  0.00    -0.237 OA
ATOM     90  O   UNL A   1      45.276  23.896  36.702  1.00  0.00    -0.237 OA
ATOM     91  O   UNL A   1      45.413  25.572  38.503  1.00  0.00    -0.744 OA
ENDBRANCH  84  88
ENDBRANCH  58  81
ENDBRANCH  32  33
ENDBRANCH  25  27
ENDBRANCH  24  25
ENDBRANCH  23  24
ENDBRANCH   1  23
TORSDOF 20
ENDMDL
MODEL 2
REMARK VINA RESULT:     -10.8      1.048      2.721
REMARK SMILES CC[C@H](C)[C@H](NC(=O)N1CCCCC1)C(=O)OCCOCCOC(=O)c1ccc(-c2c3nc(c(-c4cc(S(=O)(=O)[O-])ccc4F)c4ccc([nH]4)c(-c4cc(S(=O)(=O)[O-])ccc4F)c4nc(c(-c5cc(S(=O)(=O)[O-])ccc5F)c5ccc2[nH]5)C=C4)C=C3)cc1
REMARK SMILES IDX 21 1 20 2 19 3 18 4 17 5 15 6 16 7 5 8 3 9 4 10 2 11 1 12
REMARK SMILES IDX 6 13 7 14 8 16 9 17 10 18 14 19 11 20 13 21 12 22 22 23
REMARK SMILES IDX 23 24 24 25 25 26 26 27 27 28 88 29 28 30 87 31 29 32 30 33
REMARK SMILES IDX 31 34 81 35 32 36 86 37 80 38 82 39 33 40 85 41 79 42 78 43
REMARK SMILES IDX 34 45 66 46 46 47 65 48 47 49 50 50 64 51 83 52 48 53 49 54
REMARK SMILES IDX 63 56 84 57 51 58 35 59 36 60 44 61 37 62 43 63 45 64 42 65
REMARK SMILES IDX 38 66 39 67 40 68 41 69 67 70 68 71 76 72 69 73 75 74 77 75
REMARK SMILES IDX 74 76 70 77 71 78 72 79 73 80 52 81 53 82 61 83 54 84 60 85
REMARK SMILES IDX 62 86 59 87 55 88 56 89 57 90 58 91
REMARK H PARENT 6 15 82 44 50 55
REMARK Flexibility Score: inf
ROOT
ATOM      1  C   UNL A   1      32.636  27.061  25.702  1.00  0.00     0.202 C 
ENDROOT
BRANCH   1   2
ATOM      2  O   UNL A   1      33.118  27.373  24.371  1.00  0.00    -0.374 OA
BRANCH   2   3
ATOM      3  C   UNL A   1      32.505  26.885  23.143  1.00  0.00     0.202 C 
BRANCH   3   4
ATOM      4  C   UNL A   1      33.222  26.039  22.063  1.00  0.00     0.261 C 
BRANCH   4   5
ATOM      5  O   UNL A   1      34.032  25.057  22.688  1.00  0.00    -0.462 OA
BRANCH   5   6
ATOM      6  C   UNL A   1      33.731  23.742  22.529  1.00  0.00     0.329 C 
ATOM      7  O   UNL A   1      33.507  23.190  21.473  1.00  0.00    -0.250 OA
BRANCH   6   8
ATOM      8  C   UNL A   1      33.951  23.039  23.877  1.00  0.00     0.196 C 
BRANCH   8   9
ATOM      9  C   UNL A   1      35.388  22.605  24.287  1.00  0.00     0.019 C 
ATOM     10  C   UNL A   1      36.371  22.700  23.099  1.00  0.00     0.010 C 
BRANCH   9  11
ATOM     11  C   UNL A   1      36.004  23.252  25.534  1.00  0.00     0.002 C 
ATOM     12  C   UNL A   1      35.296  24.481  26.053  1.00  0.00     0.004 C 
ENDBRANCH   9  11
ENDBRANCH   8   9
BRANCH   8  13
ATOM     13  N   UNL A   1      32.891  22.178  24.416  1.00  0.00    -0.324 N 
ATOM     14  C   UNL A   1      32.538  20.904  24.600  1.00  0.00     0.318 C 
ATOM     15  H   UNL A   1      32.176  22.753  24.774  1.00  0.00     0.166 HD
ATOM     16  O   UNL A   1      31.569  20.824  25.352  1.00  0.00    -0.249 OA
ATOM     17  N   UNL A   1      33.121  19.828  23.968  1.00  0.00    -0.325 N 
ATOM     18  C   UNL A   1      32.318  18.896  23.136  1.00  0.00     0.121 C 
ATOM     19  C   UNL A   1      34.296  19.295  24.610  1.00  0.00     0.121 C 
ATOM     20  C   UNL A   1      32.757  17.473  22.839  1.00  0.00     0.022 C 
ATOM     21  C   UNL A   1      34.519  17.791  24.534  1.00  0.00     0.022 C 
ATOM     22  C   UNL A   1      34.193  17.201  23.177  1.00  0.00     0.004 C 
ENDBRANCH   8  13
ENDBRANCH   6   8
ENDBRANCH   5   6
ENDBRANCH   4   5
ENDBRANCH   3   4
ENDBRANCH   2   3
ENDBRANCH   1   2
BRANCH   1  23
ATOM     23  C   UNL A   1      31.407  27.918  26.314  1.00  0.00     0.261 C 
BRANCH  23  24
ATOM     24  O   UNL A   1      31.717  29.155  27.082  1.00  0.00    -0.460 OA
BRANCH  24  25
ATOM     25  C   UNL A   1      32.557  30.174  26.651  1.00  0.00     0.338 C 
ATOM     26  O   UNL A   1      32.218  30.995  25.806  1.00  0.00    -0.246 OA
BRANCH  25  27
ATOM     27  C   UNL A   1      33.959  30.256  27.356  1.00  0.00     0.060 A 
ATOM     28  C   UNL A   1      34.781  29.154  27.605  1.00  0.00     0.016 A 
ATOM     29  C   UNL A   1      34.557  31.465  27.728  1.00  0.00     0.016 A 
ATOM     30  C   UNL A   1      35.988  29.147  28.307  1.00  0.00     0.010 A 
ATOM     31  C   UNL A   1      35.850  31.502  28.360  1.00  0.00     0.010 A 
ATOM     32  C   UNL A   1      36.576  30.330  28.680  1.00  0.00    -0.014 A 
BRANCH  32  33
ATOM     33  C   UNL A   1      37.851  30.286  29.473  1.00  0.00     0.031 A 
ATOM     34  C   UNL A   1      39.021  29.568  28.866  1.00  0.00     0.074 A 
ATOM     35  C   UNL A   1      38.077  30.974  30.619  1.00  0.00     0.049 A 
ATOM     36  N   UNL A   1      40.087  29.072  29.434  1.00  0.00    -0.248 NA
ATOM     37  C   UNL A   1      38.976  29.406  27.407  1.00  0.00     0.031 C 
ATOM     38  C   UNL A   1      37.180  31.954  31.237  1.00  0.00     0.029 A 
ATOM     39  N   UNL A   1      39.161  30.957  31.478  1.00  0.00    -0.354 N 
ATOM     40  C   UNL A   1      40.788  28.436  28.416  1.00  0.00     0.074 A 
ATOM     41  C   UNL A   1      40.052  28.666  27.190  1.00  0.00     0.031 C 
ATOM     42  C   UNL A   1      37.744  32.436  32.359  1.00  0.00     0.029 A 
ATOM     43  C   UNL A   1      38.984  31.711  32.623  1.00  0.00     0.049 A 
ATOM     44  H   UNL A   1      39.985  30.452  31.291  1.00  0.00     0.167 HD
ATOM     45  C   UNL A   1      41.917  27.691  28.519  1.00  0.00     0.034 A 
ATOM     46  C   UNL A   1      39.681  31.745  33.783  1.00  0.00     0.034 A 
ATOM     47  C   UNL A   1      42.645  27.523  29.753  1.00  0.00     0.049 A 
ATOM     48  C   UNL A   1      40.857  30.802  33.943  1.00  0.00     0.074 A 
ATOM     49  C   UNL A   1      43.724  26.701  30.024  1.00  0.00     0.029 A 
ATOM     50  N   UNL A   1      42.375  28.219  30.925  1.00  0.00    -0.354 N 
ATOM     51  N   UNL A   1      41.391  29.988  33.060  1.00  0.00    -0.248 NA
ATOM     52  C   UNL A   1      41.496  30.748  35.267  1.00  0.00     0.031 C 
ATOM     53  C   UNL A   1      44.071  26.860  31.371  1.00  0.00     0.029 A 
ATOM     54  C   UNL A   1      43.255  27.835  31.923  1.00  0.00     0.049 A 
ATOM     55  H   UNL A   1      41.661  28.888  31.031  1.00  0.00     0.167 HD
ATOM     56  C   UNL A   1      42.434  29.340  33.720  1.00  0.00     0.074 A 
ATOM     57  C   UNL A   1      42.471  29.873  35.064  1.00  0.00     0.031 C 
ATOM     58  C   UNL A   1      43.281  28.382  33.259  1.00  0.00     0.034 A 
BRANCH  45  59
ATOM     59  C   UNL A   1      42.308  26.891  27.302  1.00  0.00     0.023 A 
ATOM     60  C   UNL A   1      42.015  25.524  27.165  1.00  0.00     0.031 A 
ATOM     61  C   UNL A   1      43.099  27.498  26.307  1.00  0.00     0.131 A 
ATOM     62  C   UNL A   1      42.593  24.791  26.116  1.00  0.00     0.055 A 
ATOM     63  C   UNL A   1      43.594  26.782  25.218  1.00  0.00     0.041 A 
ATOM     64  F   UNL A   1      43.437  28.794  26.399  1.00  0.00    -0.206 F 
ATOM     65  C   UNL A   1      43.361  25.414  25.129  1.00  0.00     0.022 A 
BRANCH  62  66
ATOM     66  S   UNL A   1      42.483  22.980  26.162  1.00  0.00     0.124 S 
ATOM     67  O   UNL A   1      43.537  22.645  27.116  1.00  0.00    -0.237 OA
ATOM     68  O   UNL A   1      41.115  22.757  26.619  1.00  0.00    -0.237 OA
ATOM     69  O   UNL A   1      42.751  22.583  24.782  1.00  0.00    -0.744 OA
ENDBRANCH  62  66
ENDBRANCH  45  59
BRANCH  46  70
ATOM     70  C   UNL A   1      39.220  32.564  34.957  1.00  0.00     0.023 A 
ATOM     71  C   UNL A   1      39.704  33.865  35.189  1.00  0.00     0.031 A 
ATOM     72  C   UNL A   1      38.366  32.011  35.930  1.00  0.00     0.131 A 
ATOM     73  C   UNL A   1      39.366  34.545  36.376  1.00  0.00     0.055 A 
ATOM     74  C   UNL A   1      37.983  32.714  37.076  1.00  0.00     0.041 A 
ATOM     75  F   UNL A   1      37.891  30.763  35.791  1.00  0.00    -0.206 F 
ATOM     76  C   UNL A   1      38.495  33.984  37.312  1.00  0.00     0.022 A 
BRANCH  73  77
ATOM     77  S   UNL A   1      40.161  36.138  36.739  1.00  0.00     0.124 S 
ATOM     78  O   UNL A   1      39.390  36.600  37.888  1.00  0.00    -0.237 OA
ATOM     79  O   UNL A   1      41.538  35.736  37.008  1.00  0.00    -0.237 OA
ATOM     80  O   UNL A   1      39.969  36.905  35.509  1.00  0.00    -0.744 OA
ENDBRANCH  73  77
ENDBRANCH  46  70
BRANCH  58  81
ATOM     81  C   UNL A   1      44.355  27.899  34.202  1.00  0.00     0.023 A 
ATOM     82  C   UNL A   1      44.209  26.721  34.957  1.00  0.00     0.031 A 
ATOM     83  C   UNL A   1      45.548  28.630  34.340  1.00  0.00     0.131 A 
ATOM     84  C   UNL A   1      45.221  26.334  35.848  1.00  0.00     0.055 A 
ATOM     85  C   UNL A   1      46.573  28.211  35.189  1.00  0.00     0.041 A 
ATOM     86  F   UNL A   1      45.739  29.763  33.644  1.00  0.00    -0.206 F 
ATOM     87  C   UNL A   1      46.408  27.063  35.957  1.00  0.00     0.022 A 
BRANCH  84  88
ATOM     88  S   UNL A   1      44.939  24.898  36.921  1.00  0.00     0.124 S 
ATOM     89  O   UNL A   1      44.831  25.518  38.238  1.00  0.00    -0.237 OA
ATOM     90  O   UNL A   1      43.707  24.336  36.376  1.00  0.00    -0.237 OA
ATOM     91  O   UNL A   1      46.134  24.079  36.718  1.00  0.00    -0.744 OA
ENDBRANCH  84  88
ENDBRANCH  58  81
ENDBRANCH  32  33
ENDBRANCH  25  27
ENDBRANCH  24  25
ENDBRANCH  23  24
ENDBRANCH   1  23
TORSDOF 20
ENDMDL
MODEL 3
REMARK VINA RESULT:     -10.5      4.618      9.515
REMARK SMILES CC[C@H](C)[C@H](NC(=O)N1CCCCC1)C(=O)OCCOCCOC(=O)c1ccc(-c2c3nc(c(-c4cc(S(=O)(=O)[O-])ccc4F)c4ccc([nH]4)c(-c4cc(S(=O)(=O)[O-])ccc4F)c4nc(c(-c5cc(S(=O)(=O)[O-])ccc5F)c5ccc2[nH]5)C=C4)C=C3)cc1
REMARK SMILES IDX 21 1 20 2 19 3 18 4 17 5 15 6 16 7 5 8 3 9 4 10 2 11 1 12
REMARK SMILES IDX 6 13 7 14 8 16 9 17 10 18 14 19 11 20 13 21 12 22 22 23
REMARK SMILES IDX 23 24 24 25 25 26 26 27 27 28 88 29 28 30 87 31 29 32 30 33
REMARK SMILES IDX 31 34 81 35 32 36 86 37 80 38 82 39 33 40 85 41 79 42 78 43
REMARK SMILES IDX 34 45 66 46 46 47 65 48 47 49 50 50 64 51 83 52 48 53 49 54
REMARK SMILES IDX 63 56 84 57 51 58 35 59 36 60 44 61 37 62 43 63 45 64 42 65
REMARK SMILES IDX 38 66 39 67 40 68 41 69 67 70 68 71 76 72 69 73 75 74 77 75
REMARK SMILES IDX 74 76 70 77 71 78 72 79 73 80 52 81 53 82 61 83 54 84 60 85
REMARK SMILES IDX 62 86 59 87 55 88 56 89 57 90 58 91
REMARK H PARENT 6 15 82 44 50 55
REMARK Flexibility Score: inf
ROOT
ATOM      1  C   UNL A   1      33.950  21.457  26.064  1.00  0.00     0.202 C 
ENDROOT
BRANCH   1   2
ATOM      2  O   UNL A   1      33.669  22.791  26.557  1.00  0.00    -0.374 OA
BRANCH   2   3
ATOM      3  C   UNL A   1      33.715  23.994  25.736  1.00  0.00     0.202 C 
BRANCH   3   4
ATOM      4  C   UNL A   1      32.655  25.121  25.745  1.00  0.00     0.261 C 
BRANCH   4   5
ATOM      5  O   UNL A   1      32.272  25.424  24.413  1.00  0.00    -0.462 OA
BRANCH   5   6
ATOM      6  C   UNL A   1      32.778  26.528  23.806  1.00  0.00     0.329 C 
ATOM      7  O   UNL A   1      33.680  26.540  22.996  1.00  0.00    -0.250 OA
BRANCH   6   8
ATOM      8  C   UNL A   1      31.863  27.716  24.144  1.00  0.00     0.196 C 
BRANCH   8   9
ATOM      9  C   UNL A   1      32.267  28.690  25.288  1.00  0.00     0.019 C 
ATOM     10  C   UNL A   1      31.531  28.356  26.605  1.00  0.00     0.010 C 
BRANCH   9  11
ATOM     11  C   UNL A   1      33.762  28.899  25.558  1.00  0.00     0.002 C 
ATOM     12  C   UNL A   1      34.210  28.675  26.983  1.00  0.00     0.004 C 
ENDBRANCH   9  11
ENDBRANCH   8   9
BRANCH   8  13
ATOM     13  N   UNL A   1      30.412  27.575  23.964  1.00  0.00    -0.324 N 
ATOM     14  C   UNL A   1      29.333  28.182  23.468  1.00  0.00     0.318 C 
ATOM     15  H   UNL A   1      30.134  26.714  24.352  1.00  0.00     0.166 HD
ATOM     16  O   UNL A   1      28.377  27.411  23.428  1.00  0.00    -0.249 OA
ATOM     17  N   UNL A   1      29.269  29.516  23.127  1.00  0.00    -0.325 N 
ATOM     18  C   UNL A   1      28.272  30.422  23.752  1.00  0.00     0.121 C 
ATOM     19  C   UNL A   1      29.708  29.836  21.792  1.00  0.00     0.121 C 
ATOM     20  C   UNL A   1      27.814  31.715  23.100  1.00  0.00     0.022 C 
ATOM     21  C   UNL A   1      28.988  30.964  21.066  1.00  0.00     0.022 C 
ATOM     22  C   UNL A   1      28.678  32.152  21.953  1.00  0.00     0.004 C 
ENDBRANCH   8  13
ENDBRANCH   6   8
ENDBRANCH   5   6
ENDBRANCH   4   5
ENDBRANCH   3   4
ENDBRANCH   2   3
ENDBRANCH   1   2
BRANCH   1  23
ATOM     23  C   UNL A   1      34.863  21.285  24.739  1.00  0.00     0.261 C 
BRANCH  23  24
ATOM     24  O   UNL A   1      36.184  21.971  24.692  1.00  0.00    -0.460 OA
BRANCH  24  25
ATOM     25  C   UNL A   1      37.371  21.455  25.195  1.00  0.00     0.338 C 
ATOM     26  O   UNL A   1      37.673  20.272  25.089  1.00  0.00    -0.246 OA
BRANCH  25  27
ATOM     27  C   UNL A   1      38.344  22.492  25.864  1.00  0.00     0.060 A 
ATOM     28  C   UNL A   1      38.069  23.855  26.000  1.00  0.00     0.016 A 
ATOM     29  C   UNL A   1      39.553  22.126  26.466  1.00  0.00     0.016 A 
ATOM     30  C   UNL A   1      38.926  24.841  26.497  1.00  0.00     0.010 A 
ATOM     31  C   UNL A   1      40.413  23.104  27.081  1.00  0.00     0.010 A 
ATOM     32  C   UNL A   1      40.116  24.488  27.083  1.00  0.00    -0.014 A 
BRANCH  32  33
ATOM     33  C   UNL A   1      41.035  25.573  27.566  1.00  0.00     0.031 A 
ATOM     34  C   UNL A   1      40.474  26.581  28.526  1.00  0.00     0.074 A 
ATOM     35  C   UNL A   1      42.368  25.626  27.327  1.00  0.00     0.049 A 
ATOM     36  N   UNL A   1      40.892  27.782  28.822  1.00  0.00    -0.248 NA
ATOM     37  C   UNL A   1      39.277  26.153  29.263  1.00  0.00     0.031 C 
ATOM     38  C   UNL A   1      43.173  24.601  26.656  1.00  0.00     0.029 A 
ATOM     39  N   UNL A   1      43.299  26.600  27.640  1.00  0.00    -0.354 N 
ATOM     40  C   UNL A   1      39.943  28.301  29.697  1.00  0.00     0.074 A 
ATOM     41  C   UNL A   1      38.966  27.257  29.925  1.00  0.00     0.031 C 
ATOM     42  C   UNL A   1      44.457  24.998  26.610  1.00  0.00     0.029 A 
ATOM     43  C   UNL A   1      44.559  26.360  27.126  1.00  0.00     0.049 A 
ATOM     44  H   UNL A   1      43.083  27.394  28.181  1.00  0.00     0.167 HD
ATOM     45  C   UNL A   1      39.882  29.553  30.214  1.00  0.00     0.034 A 
ATOM     46  C   UNL A   1      45.638  27.169  26.998  1.00  0.00     0.034 A 
ATOM     47  C   UNL A   1      40.901  30.551  29.996  1.00  0.00     0.049 A 
ATOM     48  C   UNL A   1      45.512  28.611  27.448  1.00  0.00     0.074 A 
ATOM     49  C   UNL A   1      40.904  31.887  30.354  1.00  0.00     0.029 A 
ATOM     50  N   UNL A   1      42.121  30.305  29.376  1.00  0.00    -0.354 N 
ATOM     51  N   UNL A   1      44.509  29.203  28.059  1.00  0.00    -0.248 NA
ATOM     52  C   UNL A   1      46.641  29.505  27.154  1.00  0.00     0.031 C 
ATOM     53  C   UNL A   1      42.100  32.460  29.904  1.00  0.00     0.029 A 
ATOM     54  C   UNL A   1      42.876  31.466  29.329  1.00  0.00     0.049 A 
ATOM     55  H   UNL A   1      42.406  29.433  29.022  1.00  0.00     0.167 HD
ATOM     56  C   UNL A   1      44.898  30.531  28.232  1.00  0.00     0.074 A 
ATOM     57  C   UNL A   1      46.232  30.648  27.685  1.00  0.00     0.031 C 
ATOM     58  C   UNL A   1      44.209  31.564  28.784  1.00  0.00     0.034 A 
BRANCH  45  59
ATOM     59  C   UNL A   1      38.600  29.930  30.912  1.00  0.00     0.023 A 
ATOM     60  C   UNL A   1      37.558  30.616  30.268  1.00  0.00     0.031 A 
ATOM     61  C   UNL A   1      38.476  29.692  32.295  1.00  0.00     0.131 A 
ATOM     62  C   UNL A   1      36.490  31.128  31.024  1.00  0.00     0.055 A 
ATOM     63  C   UNL A   1      37.368  30.124  33.023  1.00  0.00     0.041 A 
ATOM     64  F   UNL A   1      39.454  29.067  32.971  1.00  0.00    -0.206 F 
ATOM     65  C   UNL A   1      36.376  30.866  32.392  1.00  0.00     0.022 A 
BRANCH  62  66
ATOM     66  S   UNL A   1      35.350  32.297  30.232  1.00  0.00     0.124 S 
ATOM     67  O   UNL A   1      34.394  32.550  31.307  1.00  0.00    -0.237 OA
ATOM     68  O   UNL A   1      36.228  33.409  29.884  1.00  0.00    -0.237 OA
ATOM     69  O   UNL A   1      34.818  31.544  29.098  1.00  0.00    -0.744 OA
ENDBRANCH  62  66
ENDBRANCH  45  59
BRANCH  46  70
ATOM     70  C   UNL A   1      46.879  26.721  26.279  1.00  0.00     0.023 A 
ATOM     71  C   UNL A   1      47.961  26.133  26.962  1.00  0.00     0.031 A 
ATOM     72  C   UNL A   1      47.049  26.978  24.905  1.00  0.00     0.131 A 
ATOM     73  C   UNL A   1      49.165  25.863  26.283  1.00  0.00     0.055 A 
ATOM     74  C   UNL A   1      48.223  26.649  24.221  1.00  0.00     0.041 A 
ATOM     75  F   UNL A   1      46.072  27.566  24.196  1.00  0.00    -0.206 F 
ATOM     76  C   UNL A   1      49.296  26.101  24.914  1.00  0.00     0.022 A 
BRANCH  73  77
ATOM     77  S   UNL A   1      50.605  25.287  27.231  1.00  0.00     0.124 S 
ATOM     78  O   UNL A   1      51.525  24.900  26.167  1.00  0.00    -0.237 OA
ATOM     79  O   UNL A   1      50.965  26.480  27.990  1.00  0.00    -0.237 OA
ATOM     80  O   UNL A   1      50.071  24.184  28.028  1.00  0.00    -0.744 OA
ENDBRANCH  73  77
ENDBRANCH  46  70
BRANCH  58  81
ATOM     81  C   UNL A   1      44.916  32.893  28.877  1.00  0.00     0.023 A 
ATOM     82  C   UNL A   1      45.813  33.187  29.920  1.00  0.00     0.031 A 
ATOM     83  C   UNL A   1      44.692  33.878  27.899  1.00  0.00     0.131 A 
ATOM     84  C   UNL A   1      46.419  34.452  29.983  1.00  0.00     0.055 A 
ATOM     85  C   UNL A   1      45.337  35.114  27.938  1.00  0.00     0.041 A 
ATOM     86  F   UNL A   1      43.845  33.648  26.882  1.00  0.00    -0.206 F 
ATOM     87  C   UNL A   1      46.198  35.411  28.990  1.00  0.00     0.022 A 
BRANCH  84  88
ATOM     88  S   UNL A   1      47.448  34.859  31.421  1.00  0.00     0.124 S 
ATOM     89  O   UNL A   1      48.318  33.691  31.513  1.00  0.00    -0.237 OA
ATOM     90  O   UNL A   1      48.090  36.102  31.005  1.00  0.00    -0.237 OA
ATOM     91  O   UNL A   1      46.480  34.997  32.508  1.00  0.00    -0.744 OA
ENDBRANCH  84  88
ENDBRANCH  58  81
ENDBRANCH  32  33
ENDBRANCH  25  27
ENDBRANCH  24  25
ENDBRANCH  23  24
ENDBRANCH   1  23
TORSDOF 20
ENDMDL
