MODEL 1
REMARK VINA RESULT:     -11.9      0.000      0.000
REMARK SMILES O=C(OCCOCCOC(=O)c1ccc(-c2c3nc(c(-c4cc(S(=O)(=O)[O-])ccc4F)c4ccc([nH]4)c(-c4cc(S(=O)(=O)[O-])ccc4F)c4nc(c(-c5cc(S(=O)(=O)[O-])ccc5F)c5ccc2[nH]5)C=C4)C=C3)cc1)C1=Cc2cc(S(F)(F)(F)(F)F)ccc2O[C@H]1C(F)(F)F
REMARK SMILES IDX 7 1 6 2 5 3 4 4 3 5 2 6 1 7 75 8 76 9 90 10 77 11 89 12
REMARK SMILES IDX 78 13 88 14 79 15 87 16 86 17 91 18 92 19 93 20 94 21 80 22
REMARK SMILES IDX 81 23 82 24 83 25 84 26 85 27 8 28 9 29 10 30 11 31 12 32
REMARK SMILES IDX 13 33 74 34 14 35 73 36 15 37 16 38 17 39 67 40 18 41 72 42
REMARK SMILES IDX 66 43 68 44 19 45 71 46 65 47 64 48 20 50 52 51 32 52 51 53
REMARK SMILES IDX 33 54 36 55 50 56 69 57 34 58 35 59 49 61 70 62 37 63 21 64
REMARK SMILES IDX 22 65 30 66 23 67 29 68 31 69 28 70 24 71 25 72 26 73 27 74
REMARK SMILES IDX 53 75 54 76 62 77 55 78 61 79 63 80 60 81 56 82 57 83 58 84
REMARK SMILES IDX 59 85 38 86 39 87 47 88 40 89 46 90 48 91 45 92 41 93 42 94
REMARK SMILES IDX 43 95 44 96
REMARK H PARENT 68 49 36 60
REMARK Flexibility Score: inf
ROOT
ATOM      1  C   UNL A   1      31.777  28.803  27.027  1.00  0.00     0.202 C 
ENDROOT
BRANCH   1   2
ATOM      2  O   UNL A   1      32.380  27.707  26.356  1.00  0.00    -0.374 OA
BRANCH   2   3
ATOM      3  C   UNL A   1      31.580  26.546  26.532  1.00  0.00     0.202 C 
BRANCH   3   4
ATOM      4  C   UNL A   1      32.346  25.325  26.048  1.00  0.00     0.261 C 
BRANCH   4   5
ATOM      5  O   UNL A   1      33.232  25.704  25.005  1.00  0.00    -0.460 OA
BRANCH   5   6
ATOM      6  C   UNL A   1      33.161  25.057  23.743  1.00  0.00     0.338 C 
ATOM      7  O   UNL A   1      34.195  24.986  23.007  1.00  0.00    -0.246 OA
BRANCH   6   8
ATOM      8  C   UNL A   1      31.849  24.450  23.272  1.00  0.00     0.087 C 
ATOM      9  C   UNL A   1      30.815  25.259  22.916  1.00  0.00     0.027 C 
ATOM     10  C   UNL A   1      31.693  22.940  23.201  1.00  0.00     0.316 C 
ATOM     11  C   UNL A   1      30.971  26.770  22.988  1.00  0.00     0.019 A 
ATOM     12  O   UNL A   1      33.190  26.403  22.221  1.00  0.00    -0.475 OA
ATOM     13  C   UNL A   1      29.946  27.596  23.418  1.00  0.00     0.036 A 
ATOM     14  C   UNL A   1      32.101  27.270  22.501  1.00  0.00     0.128 A 
ATOM     15  C   UNL A   1      30.095  28.946  23.023  1.00  0.00     0.107 A 
ATOM     16  C   UNL A   1      32.225  28.617  22.266  1.00  0.00     0.048 A 
ATOM     17  C   UNL A   1      31.227  29.486  22.611  1.00  0.00     0.028 A 
BRANCH  10  18
ATOM     18  C   UNL A   1      32.984  22.275  23.649  1.00  0.00     0.430 C 
ATOM     19  F   UNL A   1      33.319  22.720  24.857  1.00  0.00    -0.167 F 
ATOM     20  F   UNL A   1      32.811  20.957  23.695  1.00  0.00    -0.167 F 
ATOM     21  F   UNL A   1      33.952  22.566  22.785  1.00  0.00    -0.167 F 
ENDBRANCH  10  18
BRANCH  15  22
ATOM     22  S   UNL A   1      28.629  30.007  23.085  1.00  0.00     0.310 S 
ATOM     23  F   UNL A   1      29.212  30.989  21.983  1.00  0.00    -0.094 F 
ATOM     24  F   UNL A   1      29.358  30.895  24.163  1.00  0.00    -0.094 F 
ATOM     25  F   UNL A   1      27.371  30.919  23.143  1.00  0.00    -0.094 F 
ATOM     26  F   UNL A   1      27.972  29.190  21.904  1.00  0.00    -0.094 F 
ATOM     27  F   UNL A   1      29.943  29.142  22.933  1.00  0.00    -0.094 F 
ENDBRANCH  15  22
ENDBRANCH   6   8
ENDBRANCH   5   6
ENDBRANCH   4   5
ENDBRANCH   3   4
ENDBRANCH   2   3
ENDBRANCH   1   2
BRANCH   1  28
ATOM     28  C   UNL A   1      31.917  30.056  26.179  1.00  0.00     0.261 C 
BRANCH  28  29
ATOM     29  O   UNL A   1      33.265  30.502  26.211  1.00  0.00    -0.460 OA
BRANCH  29  30
ATOM     30  C   UNL A   1      33.706  31.353  27.258  1.00  0.00     0.338 C 
ATOM     31  O   UNL A   1      33.018  32.372  27.582  1.00  0.00    -0.246 OA
BRANCH  30  32
ATOM     32  C   UNL A   1      35.002  31.047  27.991  1.00  0.00     0.060 A 
ATOM     33  C   UNL A   1      36.034  31.970  28.031  1.00  0.00     0.016 A 
ATOM     34  C   UNL A   1      35.167  29.809  28.442  1.00  0.00     0.016 A 
ATOM     35  C   UNL A   1      37.301  31.402  28.305  1.00  0.00     0.010 A 
ATOM     36  C   UNL A   1      36.410  29.363  28.821  1.00  0.00     0.010 A 
ATOM     37  C   UNL A   1      37.487  30.205  28.830  1.00  0.00    -0.014 A 
BRANCH  37  38
ATOM     38  C   UNL A   1      38.827  29.785  29.410  1.00  0.00     0.031 A 
ATOM     39  C   UNL A   1      39.122  30.334  30.659  1.00  0.00     0.074 A 
ATOM     40  C   UNL A   1      39.591  28.807  28.795  1.00  0.00     0.049 A 
ATOM     41  N   UNL A   1      40.127  30.010  31.474  1.00  0.00    -0.248 NA
ATOM     42  C   UNL A   1      38.332  31.397  31.300  1.00  0.00     0.031 C 
ATOM     43  C   UNL A   1      39.297  28.243  27.539  1.00  0.00     0.029 A 
ATOM     44  N   UNL A   1      40.742  28.215  29.264  1.00  0.00    -0.354 N 
ATOM     45  C   UNL A   1      40.070  30.739  32.591  1.00  0.00     0.074 A 
ATOM     46  C   UNL A   1      38.917  31.646  32.491  1.00  0.00     0.031 C 
ATOM     47  C   UNL A   1      40.262  27.332  27.250  1.00  0.00     0.029 A 
ATOM     48  C   UNL A   1      41.176  27.311  28.320  1.00  0.00     0.049 A 
ATOM     49  H   UNL A   1      41.180  28.405  30.125  1.00  0.00     0.167 HD
ATOM     50  C   UNL A   1      40.931  30.683  33.688  1.00  0.00     0.034 A 
ATOM     51  C   UNL A   1      42.303  26.506  28.370  1.00  0.00     0.034 A 
ATOM     52  C   UNL A   1      42.033  29.847  33.757  1.00  0.00     0.049 A 
ATOM     53  C   UNL A   1      43.198  26.491  29.442  1.00  0.00     0.074 A 
ATOM     54  C   UNL A   1      42.907  29.771  34.858  1.00  0.00     0.029 A 
ATOM     55  N   UNL A   1      42.481  28.960  32.801  1.00  0.00    -0.354 N 
ATOM     56  N   UNL A   1      43.118  27.192  30.576  1.00  0.00    -0.248 NA
ATOM     57  C   UNL A   1      44.412  25.667  29.493  1.00  0.00     0.031 C 
ATOM     58  C   UNL A   1      43.874  28.860  34.568  1.00  0.00     0.029 A 
ATOM     59  C   UNL A   1      43.620  28.351  33.280  1.00  0.00     0.049 A 
ATOM     60  H   UNL A   1      42.059  28.792  31.927  1.00  0.00     0.167 HD
ATOM     61  C   UNL A   1      44.148  26.897  31.372  1.00  0.00     0.074 A 
ATOM     62  C   UNL A   1      44.999  25.917  30.684  1.00  0.00     0.031 C 
ATOM     63  C   UNL A   1      44.409  27.404  32.646  1.00  0.00     0.034 A 
BRANCH  50  64
ATOM     64  C   UNL A   1      40.643  31.590  34.873  1.00  0.00     0.023 A 
ATOM     65  C   UNL A   1      39.765  31.197  35.871  1.00  0.00     0.031 A 
ATOM     66  C   UNL A   1      41.246  32.771  34.912  1.00  0.00     0.131 A 
ATOM     67  C   UNL A   1      39.366  32.249  36.728  1.00  0.00     0.055 A 
ATOM     68  C   UNL A   1      40.901  33.702  35.862  1.00  0.00     0.041 A 
ATOM     69  F   UNL A   1      42.193  33.057  34.023  1.00  0.00    -0.206 F 
ATOM     70  C   UNL A   1      39.997  33.403  36.844  1.00  0.00     0.022 A 
BRANCH  67  71
ATOM     71  S   UNL A   1      37.884  31.996  37.738  1.00  0.00     0.124 S 
ATOM     72  O   UNL A   1      37.416  30.545  37.601  1.00  0.00    -0.237 OA
ATOM     73  O   UNL A   1      38.209  32.292  39.203  1.00  0.00    -0.237 OA
ATOM     74  O   UNL A   1      36.645  33.047  37.205  1.00  0.00    -0.744 OA
ENDBRANCH  67  71
ENDBRANCH  50  64
BRANCH  51  75
ATOM     75  C   UNL A   1      42.582  25.588  27.191  1.00  0.00     0.023 A 
ATOM     76  C   UNL A   1      41.943  24.358  27.154  1.00  0.00     0.031 A 
ATOM     77  C   UNL A   1      43.412  25.963  26.225  1.00  0.00     0.131 A 
ATOM     78  C   UNL A   1      42.472  23.468  26.190  1.00  0.00     0.055 A 
ATOM     79  C   UNL A   1      43.779  25.082  25.237  1.00  0.00     0.041 A 
ATOM     80  F   UNL A   1      43.890  27.204  26.212  1.00  0.00    -0.206 F 
ATOM     81  C   UNL A   1      43.232  23.830  25.172  1.00  0.00     0.022 A 
BRANCH  78  82
ATOM     82  S   UNL A   1      42.077  21.710  26.362  1.00  0.00     0.124 S 
ATOM     83  O   UNL A   1      42.356  21.264  27.799  1.00  0.00    -0.237 OA
ATOM     84  O   UNL A   1      40.599  21.484  26.036  1.00  0.00    -0.237 OA
ATOM     85  O   UNL A   1      43.044  20.800  25.284  1.00  0.00    -0.744 OA
ENDBRANCH  78  82
ENDBRANCH  51  75
BRANCH  63  86
ATOM     86  C   UNL A   1      45.632  26.885  33.383  1.00  0.00     0.023 A 
ATOM     87  C   UNL A   1      45.571  25.758  34.187  1.00  0.00     0.031 A 
ATOM     88  C   UNL A   1      46.729  27.630  33.325  1.00  0.00     0.131 A 
ATOM     89  C   UNL A   1      46.630  25.662  35.121  1.00  0.00     0.055 A 
ATOM     90  C   UNL A   1      47.782  27.395  34.176  1.00  0.00     0.041 A 
ATOM     91  F   UNL A   1      46.810  28.615  32.434  1.00  0.00    -0.206 F 
ATOM     92  C   UNL A   1      47.764  26.334  35.039  1.00  0.00     0.022 A 
BRANCH  89  93
ATOM     93  S   UNL A   1      46.415  24.541  36.525  1.00  0.00     0.124 S 
ATOM     94  O   UNL A   1      47.673  23.684  36.690  1.00  0.00    -0.237 OA
ATOM     95  O   UNL A   1      46.183  25.356  37.799  1.00  0.00    -0.237 OA
ATOM     96  O   UNL A   1      45.068  23.526  36.244  1.00  0.00    -0.744 OA
ENDBRANCH  89  93
ENDBRANCH  63  86
ENDBRANCH  37  38
ENDBRANCH  30  32
ENDBRANCH  29  30
ENDBRANCH  28  29
ENDBRANCH   1  28
TORSDOF 19
ENDMDL
MODEL 2
REMARK VINA RESULT:     -11.8      1.388      1.861
REMARK SMILES O=C(OCCOCCOC(=O)c1ccc(-c2c3nc(c(-c4cc(S(=O)(=O)[O-])ccc4F)c4ccc([nH]4)c(-c4cc(S(=O)(=O)[O-])ccc4F)c4nc(c(-c5cc(S(=O)(=O)[O-])ccc5F)c5ccc2[nH]5)C=C4)C=C3)cc1)C1=Cc2cc(S(F)(F)(F)(F)F)ccc2O[C@H]1C(F)(F)F
REMARK SMILES IDX 7 1 6 2 5 3 4 4 3 5 2 6 1 7 75 8 76 9 90 10 77 11 89 12
REMARK SMILES IDX 78 13 88 14 79 15 87 16 86 17 91 18 92 19 93 20 94 21 80 22
REMARK SMILES IDX 81 23 82 24 83 25 84 26 85 27 8 28 9 29 10 30 11 31 12 32
REMARK SMILES IDX 13 33 74 34 14 35 73 36 15 37 16 38 17 39 67 40 18 41 72 42
REMARK SMILES IDX 66 43 68 44 19 45 71 46 65 47 64 48 20 50 52 51 32 52 51 53
REMARK SMILES IDX 33 54 36 55 50 56 69 57 34 58 35 59 49 61 70 62 37 63 21 64
REMARK SMILES IDX 22 65 30 66 23 67 29 68 31 69 28 70 24 71 25 72 26 73 27 74
REMARK SMILES IDX 53 75 54 76 62 77 55 78 61 79 63 80 60 81 56 82 57 83 58 84
REMARK SMILES IDX 59 85 38 86 39 87 47 88 40 89 46 90 48 91 45 92 41 93 42 94
REMARK SMILES IDX 43 95 44 96
REMARK H PARENT 68 49 36 60
REMARK Flexibility Score: inf
ROOT
ATOM      1  C   UNL A   1      31.673  30.619  26.443  1.00  0.00     0.202 C 
ENDROOT
BRANCH   1   2
ATOM      2  O   UNL A   1      32.941  30.091  26.804  1.00  0.00    -0.374 OA
BRANCH   2   3
ATOM      3  C   UNL A   1      33.400  29.221  25.779  1.00  0.00     0.202 C 
BRANCH   3   4
ATOM      4  C   UNL A   1      33.630  27.834  26.357  1.00  0.00     0.261 C 
BRANCH   4   5
ATOM      5  O   UNL A   1      32.417  27.097  26.317  1.00  0.00    -0.460 OA
BRANCH   5   6
ATOM      6  C   UNL A   1      32.266  26.029  25.393  1.00  0.00     0.338 C 
ATOM      7  O   UNL A   1      33.279  25.579  24.770  1.00  0.00    -0.246 OA
BRANCH   6   8
ATOM      8  C   UNL A   1      30.894  25.422  25.151  1.00  0.00     0.087 C 
ATOM      9  C   UNL A   1      29.962  26.110  24.435  1.00  0.00     0.027 C 
ATOM     10  C   UNL A   1      30.561  24.047  25.707  1.00  0.00     0.316 C 
ATOM     11  C   UNL A   1      30.295  27.486  23.880  1.00  0.00     0.019 A 
ATOM     12  O   UNL A   1      32.458  26.599  23.453  1.00  0.00    -0.475 OA
ATOM     13  C   UNL A   1      29.373  28.519  23.871  1.00  0.00     0.036 A 
ATOM     14  C   UNL A   1      31.477  27.612  23.288  1.00  0.00     0.128 A 
ATOM     15  C   UNL A   1      29.680  29.554  22.958  1.00  0.00     0.107 A 
ATOM     16  C   UNL A   1      31.760  28.715  22.520  1.00  0.00     0.048 A 
ATOM     17  C   UNL A   1      30.870  29.748  22.419  1.00  0.00     0.028 A 
BRANCH  10  18
ATOM     18  C   UNL A   1      31.763  23.500  26.459  1.00  0.00     0.430 C 
ATOM     19  F   UNL A   1      32.745  23.237  25.601  1.00  0.00    -0.167 F 
ATOM     20  F   UNL A   1      32.179  24.401  27.345  1.00  0.00    -0.167 F 
ATOM     21  F   UNL A   1      31.415  22.383  27.091  1.00  0.00    -0.167 F 
ENDBRANCH  10  18
BRANCH  15  22
ATOM     22  S   UNL A   1      28.349  30.691  22.494  1.00  0.00     0.310 S 
ATOM     23  F   UNL A   1      27.292  29.922  23.392  1.00  0.00    -0.094 F 
ATOM     24  F   UNL A   1      27.965  29.710  21.322  1.00  0.00    -0.094 F 
ATOM     25  F   UNL A   1      27.207  31.665  22.091  1.00  0.00    -0.094 F 
ATOM     26  F   UNL A   1      28.659  31.588  23.756  1.00  0.00    -0.094 F 
ATOM     27  F   UNL A   1      29.438  29.654  22.983  1.00  0.00    -0.094 F 
ENDBRANCH  15  22
ENDBRANCH   6   8
ENDBRANCH   5   6
ENDBRANCH   4   5
ENDBRANCH   3   4
ENDBRANCH   2   3
ENDBRANCH   1   2
BRANCH   1  28
ATOM     28  C   UNL A   1      31.558  32.050  26.944  1.00  0.00     0.261 C 
BRANCH  28  29
ATOM     29  O   UNL A   1      32.820  32.692  26.839  1.00  0.00    -0.460 OA
BRANCH  29  30
ATOM     30  C   UNL A   1      33.331  33.436  27.935  1.00  0.00     0.338 C 
ATOM     31  O   UNL A   1      32.719  34.475  28.338  1.00  0.00    -0.246 OA
BRANCH  30  32
ATOM     32  C   UNL A   1      34.611  32.992  28.625  1.00  0.00     0.060 A 
ATOM     33  C   UNL A   1      35.813  33.635  28.381  1.00  0.00     0.016 A 
ATOM     34  C   UNL A   1      34.561  31.871  29.334  1.00  0.00     0.016 A 
ATOM     35  C   UNL A   1      36.953  32.854  28.687  1.00  0.00     0.010 A 
ATOM     36  C   UNL A   1      35.716  31.232  29.716  1.00  0.00     0.010 A 
ATOM     37  C   UNL A   1      36.941  31.781  29.456  1.00  0.00    -0.014 A 
BRANCH  37  38
ATOM     38  C   UNL A   1      38.221  31.187  30.021  1.00  0.00     0.031 A 
ATOM     39  C   UNL A   1      38.536  31.601  31.316  1.00  0.00     0.074 A 
ATOM     40  C   UNL A   1      38.903  30.194  29.338  1.00  0.00     0.049 A 
ATOM     41  N   UNL A   1      39.486  31.115  32.117  1.00  0.00    -0.248 NA
ATOM     42  C   UNL A   1      37.835  32.679  32.031  1.00  0.00     0.031 C 
ATOM     43  C   UNL A   1      38.586  29.766  28.035  1.00  0.00     0.029 A 
ATOM     44  N   UNL A   1      39.980  29.456  29.774  1.00  0.00    -0.354 N 
ATOM     45  C   UNL A   1      39.471  31.753  33.290  1.00  0.00     0.074 A 
ATOM     46  C   UNL A   1      38.413  32.772  33.248  1.00  0.00     0.031 C 
ATOM     47  C   UNL A   1      39.467  28.792  27.685  1.00  0.00     0.029 A 
ATOM     48  C   UNL A   1      40.349  28.595  28.765  1.00  0.00     0.049 A 
ATOM     49  H   UNL A   1      40.414  29.531  30.655  1.00  0.00     0.167 HD
ATOM     50  C   UNL A   1      40.296  31.523  34.392  1.00  0.00     0.034 A 
ATOM     51  C   UNL A   1      41.392  27.683  28.765  1.00  0.00     0.034 A 
ATOM     52  C   UNL A   1      41.312  30.581  34.408  1.00  0.00     0.049 A 
ATOM     53  C   UNL A   1      42.256  27.494  29.847  1.00  0.00     0.074 A 
ATOM     54  C   UNL A   1      42.147  30.331  35.513  1.00  0.00     0.029 A 
ATOM     55  N   UNL A   1      41.696  29.737  33.389  1.00  0.00    -0.354 N 
ATOM     56  N   UNL A   1      42.215  28.103  31.034  1.00  0.00    -0.248 NA
ATOM     57  C   UNL A   1      43.384  26.554  29.847  1.00  0.00     0.031 C 
ATOM     58  C   UNL A   1      43.030  29.357  35.164  1.00  0.00     0.029 A 
ATOM     59  C   UNL A   1      42.760  28.983  33.834  1.00  0.00     0.049 A 
ATOM     60  H   UNL A   1      41.282  29.682  32.497  1.00  0.00     0.167 HD
ATOM     61  C   UNL A   1      43.193  27.646  31.819  1.00  0.00     0.074 A 
ATOM     62  C   UNL A   1      43.963  26.648  31.065  1.00  0.00     0.031 C 
ATOM     63  C   UNL A   1      43.470  28.019  33.135  1.00  0.00     0.034 A 
BRANCH  50  64
ATOM     64  C   UNL A   1      40.067  32.353  35.644  1.00  0.00     0.023 A 
ATOM     65  C   UNL A   1      39.236  31.899  36.656  1.00  0.00     0.031 A 
ATOM     66  C   UNL A   1      40.676  33.530  35.730  1.00  0.00     0.131 A 
ATOM     67  C   UNL A   1      38.881  32.895  37.596  1.00  0.00     0.055 A 
ATOM     68  C   UNL A   1      40.379  34.399  36.751  1.00  0.00     0.041 A 
ATOM     69  F   UNL A   1      41.581  33.871  34.817  1.00  0.00    -0.206 F 
ATOM     70  C   UNL A   1      39.521  34.039  37.754  1.00  0.00     0.022 A 
BRANCH  67  71
ATOM     71  S   UNL A   1      37.448  32.579  38.656  1.00  0.00     0.124 S 
ATOM     72  O   UNL A   1      37.345  31.078  38.939  1.00  0.00    -0.237 OA
ATOM     73  O   UNL A   1      37.611  33.338  39.974  1.00  0.00    -0.237 OA
ATOM     74  O   UNL A   1      36.027  33.109  37.865  1.00  0.00    -0.744 OA
ENDBRANCH  67  71
ENDBRANCH  50  64
BRANCH  51  75
ATOM     75  C   UNL A   1      41.611  26.842  27.518  1.00  0.00     0.023 A 
ATOM     76  C   UNL A   1      41.095  25.556  27.497  1.00  0.00     0.031 A 
ATOM     77  C   UNL A   1      42.274  27.335  26.479  1.00  0.00     0.131 A 
ATOM     78  C   UNL A   1      41.584  24.760  26.435  1.00  0.00     0.055 A 
ATOM     79  C   UNL A   1      42.600  26.532  25.413  1.00  0.00     0.041 A 
ATOM     80  F   UNL A   1      42.624  28.618  26.470  1.00  0.00    -0.206 F 
ATOM     81  C   UNL A   1      42.174  25.234  25.353  1.00  0.00     0.022 A 
BRANCH  78  82
ATOM     82  S   UNL A   1      41.387  22.965  26.568  1.00  0.00     0.124 S 
ATOM     83  O   UNL A   1      41.876  22.499  27.940  1.00  0.00    -0.237 OA
ATOM     84  O   UNL A   1      39.909  22.601  26.402  1.00  0.00    -0.237 OA
ATOM     85  O   UNL A   1      42.303  22.199  25.344  1.00  0.00    -0.744 OA
ENDBRANCH  78  82
ENDBRANCH  51  75
BRANCH  63  86
ATOM     86  C   UNL A   1      44.620  27.325  33.846  1.00  0.00     0.023 A 
ATOM     87  C   UNL A   1      44.431  26.150  34.556  1.00  0.00     0.031 A 
ATOM     88  C   UNL A   1      45.786  27.960  33.863  1.00  0.00     0.131 A 
ATOM     89  C   UNL A   1      45.455  25.877  35.494  1.00  0.00     0.055 A 
ATOM     90  C   UNL A   1      46.791  27.555  34.708  1.00  0.00     0.041 A 
ATOM     91  F   UNL A   1      45.982  28.998  33.056  1.00  0.00    -0.206 F 
ATOM     92  C   UNL A   1      46.651  26.438  35.482  1.00  0.00     0.022 A 
BRANCH  89  93
ATOM     93  S   UNL A   1      45.101  24.676  36.801  1.00  0.00     0.124 S 
ATOM     94  O   UNL A   1      44.969  23.280  36.187  1.00  0.00    -0.237 OA
ATOM     95  O   UNL A   1      46.242  24.679  37.821  1.00  0.00    -0.237 OA
ATOM     96  O   UNL A   1      43.638  25.095  37.580  1.00  0.00    -0.744 OA
ENDBRANCH  89  93
ENDBRANCH  63  86
ENDBRANCH  37  38
ENDBRANCH  30  32
ENDBRANCH  29  30
ENDBRANCH  28  29
ENDBRANCH   1  28
TORSDOF 19
ENDMDL
MODEL 3
REMARK VINA RESULT:     -11.7      4.834      9.956
REMARK SMILES O=C(OCCOCCOC(=O)c1ccc(-c2c3nc(c(-c4cc(S(=O)(=O)[O-])ccc4F)c4ccc([nH]4)c(-c4cc(S(=O)(=O)[O-])ccc4F)c4nc(c(-c5cc(S(=O)(=O)[O-])ccc5F)c5ccc2[nH]5)C=C4)C=C3)cc1)C1=Cc2cc(S(F)(F)(F)(F)F)ccc2O[C@H]1C(F)(F)F
REMARK SMILES IDX 7 1 6 2 5 3 4 4 3 5 2 6 1 7 75 8 76 9 90 10 77 11 89 12
REMARK SMILES IDX 78 13 88 14 79 15 87 16 86 17 91 18 92 19 93 20 94 21 80 22
REMARK SMILES IDX 81 23 82 24 83 25 84 26 85 27 8 28 9 29 10 30 11 31 12 32
REMARK SMILES IDX 13 33 74 34 14 35 73 36 15 37 16 38 17 39 67 40 18 41 72 42
REMARK SMILES IDX 66 43 68 44 19 45 71 46 65 47 64 48 20 50 52 51 32 52 51 53
REMARK SMILES IDX 33 54 36 55 50 56 69 57 34 58 35 59 49 61 70 62 37 63 21 64
REMARK SMILES IDX 22 65 30 66 23 67 29 68 31 69 28 70 24 71 25 72 26 73 27 74
REMARK SMILES IDX 53 75 54 76 62 77 55 78 61 79 63 80 60 81 56 82 57 83 58 84
REMARK SMILES IDX 59 85 38 86 39 87 47 88 40 89 46 90 48 91 45 92 41 93 42 94
REMARK SMILES IDX 43 95 44 96
REMARK H PARENT 68 49 36 60
REMARK Flexibility Score: inf
ROOT
ATOM      1  C   UNL A   1      36.759  22.709  23.973  1.00  0.00     0.202 C 
ENDROOT
BRANCH   1   2
ATOM      2  O   UNL A   1      35.495  23.182  24.415  1.00  0.00    -0.374 OA
BRANCH   2   3
ATOM      3  C   UNL A   1      35.684  24.173  25.415  1.00  0.00     0.202 C 
BRANCH   3   4
ATOM      4  C   UNL A   1      34.734  25.333  25.165  1.00  0.00     0.261 C 
BRANCH   4   5
ATOM      5  O   UNL A   1      33.619  24.878  24.412  1.00  0.00    -0.460 OA
BRANCH   5   6
ATOM      6  C   UNL A   1      32.322  24.881  24.990  1.00  0.00     0.338 C 
ATOM      7  O   UNL A   1      32.162  25.276  26.188  1.00  0.00    -0.246 OA
BRANCH   6   8
ATOM      8  C   UNL A   1      31.126  24.412  24.178  1.00  0.00     0.087 C 
ATOM      9  C   UNL A   1      30.975  23.090  23.891  1.00  0.00     0.027 C 
ATOM     10  C   UNL A   1      30.100  25.419  23.685  1.00  0.00     0.316 C 
ATOM     11  C   UNL A   1      32.002  22.083  24.384  1.00  0.00     0.019 A 
ATOM     12  O   UNL A   1      32.088  23.399  26.360  1.00  0.00    -0.475 OA
ATOM     13  C   UNL A   1      32.413  21.012  23.608  1.00  0.00     0.036 A 
ATOM     14  C   UNL A   1      32.395  22.211  25.645  1.00  0.00     0.128 A 
ATOM     15  C   UNL A   1      33.014  19.966  24.347  1.00  0.00     0.107 A 
ATOM     16  C   UNL A   1      33.097  21.206  26.265  1.00  0.00     0.048 A 
ATOM     17  C   UNL A   1      33.485  20.091  25.574  1.00  0.00     0.028 A 
BRANCH  10  18
ATOM     18  C   UNL A   1      30.500  26.813  24.137  1.00  0.00     0.430 C 
ATOM     19  F   UNL A   1      31.761  27.052  23.787  1.00  0.00    -0.167 F 
ATOM     20  F   UNL A   1      29.704  27.711  23.564  1.00  0.00    -0.167 F 
ATOM     21  F   UNL A   1      30.384  26.897  25.460  1.00  0.00    -0.167 F 
ENDBRANCH  10  18
BRANCH  15  22
ATOM     22  S   UNL A   1      33.143  18.343  23.556  1.00  0.00     0.310 S 
ATOM     23  F   UNL A   1      32.118  17.691  24.577  1.00  0.00    -0.094 F 
ATOM     24  F   UNL A   1      34.287  17.974  24.576  1.00  0.00    -0.094 F 
ATOM     25  F   UNL A   1      33.260  16.949  22.878  1.00  0.00    -0.094 F 
ATOM     26  F   UNL A   1      31.903  18.678  22.638  1.00  0.00    -0.094 F 
ATOM     27  F   UNL A   1      32.937  19.717  24.310  1.00  0.00    -0.094 F 
ENDBRANCH  15  22
ENDBRANCH   6   8
ENDBRANCH   5   6
ENDBRANCH   4   5
ENDBRANCH   3   4
ENDBRANCH   2   3
ENDBRANCH   1   2
BRANCH   1  28
ATOM     28  C   UNL A   1      37.068  21.382  24.647  1.00  0.00     0.261 C 
BRANCH  28  29
ATOM     29  O   UNL A   1      37.604  21.621  25.940  1.00  0.00    -0.460 OA
BRANCH  29  30
ATOM     30  C   UNL A   1      39.008  21.584  26.144  1.00  0.00     0.338 C 
ATOM     31  O   UNL A   1      39.650  20.503  25.956  1.00  0.00    -0.246 OA
BRANCH  30  32
ATOM     32  C   UNL A   1      39.745  22.837  26.588  1.00  0.00     0.060 A 
ATOM     33  C   UNL A   1      40.690  22.789  27.599  1.00  0.00     0.016 A 
ATOM     34  C   UNL A   1      39.329  23.995  26.089  1.00  0.00     0.016 A 
ATOM     35  C   UNL A   1      40.928  24.037  28.222  1.00  0.00     0.010 A 
ATOM     36  C   UNL A   1      39.711  25.183  26.665  1.00  0.00     0.010 A 
ATOM     37  C   UNL A   1      40.597  25.206  27.706  1.00  0.00    -0.014 A 
BRANCH  37  38
ATOM     38  C   UNL A   1      41.168  26.508  28.242  1.00  0.00     0.031 A 
ATOM     39  C   UNL A   1      42.508  26.735  27.923  1.00  0.00     0.074 A 
ATOM     40  C   UNL A   1      40.349  27.444  28.853  1.00  0.00     0.049 A 
ATOM     41  N   UNL A   1      43.209  27.856  28.104  1.00  0.00    -0.248 NA
ATOM     42  C   UNL A   1      43.389  25.733  27.305  1.00  0.00     0.031 C 
ATOM     43  C   UNL A   1      38.995  27.225  29.172  1.00  0.00     0.029 A 
ATOM     44  N   UNL A   1      40.676  28.719  29.256  1.00  0.00    -0.354 N 
ATOM     45  C   UNL A   1      44.456  27.697  27.654  1.00  0.00     0.074 A 
ATOM     46  C   UNL A   1      44.591  26.327  27.140  1.00  0.00     0.031 C 
ATOM     47  C   UNL A   1      38.516  28.348  29.769  1.00  0.00     0.029 A 
ATOM     48  C   UNL A   1      39.563  29.287  29.832  1.00  0.00     0.049 A 
ATOM     49  H   UNL A   1      41.556  29.150  29.151  1.00  0.00     0.167 HD
ATOM     50  C   UNL A   1      45.484  28.641  27.651  1.00  0.00     0.034 A 
ATOM     51  C   UNL A   1      39.446  30.551  30.389  1.00  0.00     0.034 A 
ATOM     52  C   UNL A   1      45.355  29.919  28.168  1.00  0.00     0.049 A 
ATOM     53  C   UNL A   1      40.492  31.476  30.439  1.00  0.00     0.074 A 
ATOM     54  C   UNL A   1      46.379  30.885  28.166  1.00  0.00     0.029 A 
ATOM     55  N   UNL A   1      44.247  30.479  28.767  1.00  0.00    -0.354 N 
ATOM     56  N   UNL A   1      41.727  31.331  29.953  1.00  0.00    -0.248 NA
ATOM     57  C   UNL A   1      40.390  32.805  31.055  1.00  0.00     0.031 C 
ATOM     58  C   UNL A   1      45.900  32.010  28.764  1.00  0.00     0.029 A 
ATOM     59  C   UNL A   1      44.569  31.764  29.149  1.00  0.00     0.049 A 
ATOM     60  H   UNL A   1      43.377  30.038  28.899  1.00  0.00     0.167 HD
ATOM     61  C   UNL A   1      42.440  32.437  30.173  1.00  0.00     0.074 A 
ATOM     62  C   UNL A   1      41.592  33.399  30.891  1.00  0.00     0.031 C 
ATOM     63  C   UNL A   1      43.762  32.684  29.800  1.00  0.00     0.034 A 
BRANCH  50  64
ATOM     64  C   UNL A   1      46.821  28.243  27.047  1.00  0.00     0.023 A 
ATOM     65  C   UNL A   1      47.064  28.404  25.692  1.00  0.00     0.031 A 
ATOM     66  C   UNL A   1      47.738  27.724  27.854  1.00  0.00     0.131 A 
ATOM     67  C   UNL A   1      48.210  27.715  25.230  1.00  0.00     0.055 A 
ATOM     68  C   UNL A   1      48.897  27.190  27.345  1.00  0.00     0.041 A 
ATOM     69  F   UNL A   1      47.533  27.721  29.168  1.00  0.00    -0.206 F 
ATOM     70  C   UNL A   1      49.176  27.261  26.008  1.00  0.00     0.022 A 
BRANCH  67  71
ATOM     71  S   UNL A   1      48.364  27.437  23.448  1.00  0.00     0.124 S 
ATOM     72  O   UNL A   1      49.726  27.945  22.968  1.00  0.00    -0.237 OA
ATOM     73  O   UNL A   1      48.245  25.940  23.154  1.00  0.00    -0.237 OA
ATOM     74  O   UNL A   1      47.120  28.279  22.631  1.00  0.00    -0.744 OA
ENDBRANCH  67  71
ENDBRANCH  50  64
BRANCH  51  75
ATOM     75  C   UNL A   1      38.104  30.955  30.979  1.00  0.00     0.023 A 
ATOM     76  C   UNL A   1      37.142  31.470  30.125  1.00  0.00     0.031 A 
ATOM     77  C   UNL A   1      37.867  30.808  32.277  1.00  0.00     0.131 A 
ATOM     78  C   UNL A   1      36.051  32.075  30.792  1.00  0.00     0.055 A 
ATOM     79  C   UNL A   1      36.715  31.305  32.838  1.00  0.00     0.041 A 
ATOM     80  F   UNL A   1      38.752  30.173  33.041  1.00  0.00    -0.206 F 
ATOM     81  C   UNL A   1      35.746  31.880  32.062  1.00  0.00     0.022 A 
BRANCH  78  82
ATOM     82  S   UNL A   1      34.996  33.194  29.836  1.00  0.00     0.124 S 
ATOM     83  O   UNL A   1      35.869  34.217  29.107  1.00  0.00    -0.237 OA
ATOM     84  O   UNL A   1      34.192  32.388  28.813  1.00  0.00    -0.237 OA
ATOM     85  O   UNL A   1      33.924  34.007  30.891  1.00  0.00    -0.744 OA
ENDBRANCH  78  82
ENDBRANCH  51  75
BRANCH  63  86
ATOM     86  C   UNL A   1      44.353  34.046  30.126  1.00  0.00     0.023 A 
ATOM     87  C   UNL A   1      44.297  35.096  29.224  1.00  0.00     0.031 A 
ATOM     88  C   UNL A   1      45.036  34.148  31.260  1.00  0.00     0.131 A 
ATOM     89  C   UNL A   1      45.241  36.119  29.477  1.00  0.00     0.055 A 
ATOM     90  C   UNL A   1      45.834  35.240  31.501  1.00  0.00     0.041 A 
ATOM     91  F   UNL A   1      44.948  33.183  32.171  1.00  0.00    -0.206 F 
ATOM     92  C   UNL A   1      45.873  36.288  30.624  1.00  0.00     0.022 A 
BRANCH  89  93
ATOM     93  S   UNL A   1      45.608  37.276  28.135  1.00  0.00     0.124 S 
ATOM     94  O   UNL A   1      45.207  36.650  26.797  1.00  0.00    -0.237 OA
ATOM     95  O   UNL A   1      44.820  38.572  28.348  1.00  0.00    -0.237 OA
ATOM     96  O   UNL A   1      47.282  37.623  28.121  1.00  0.00    -0.744 OA
ENDBRANCH  89  93
ENDBRANCH  63  86
ENDBRANCH  37  38
ENDBRANCH  30  32
ENDBRANCH  29  30
ENDBRANCH  28  29
ENDBRANCH   1  28
TORSDOF 19
ENDMDL
