MODEL 1
REMARK VINA RESULT:     -11.9      0.000      0.000
REMARK SMILES Cc1ccc(S(=O)(=O)n2cc(C(=O)C(=O)NCC(=O)NCC(=O)OCCOCCOC(=O)c3ccc(-c4c5nc(c(-c6cc(S(=O)(=O)[O-])ccc6F)c6ccc([nH]6)c(-c6cc(S(=O)(=O)[O-])ccc6F)c6nc(c(-c7cc(S(=O)(=O)[O-])ccc7F)c7ccc4[nH]7)C=C6)C=C5)cc3)c3ccccc32)cc1
REMARK SMILES IDX 25 1 24 2 22 3 23 4 21 5 20 6 18 7 19 8 17 10 16 11 14 12
REMARK SMILES IDX 15 13 12 15 13 16 11 17 9 18 10 19 101 20 96 21 100 22 97 23
REMARK SMILES IDX 99 24 98 25 6 26 7 27 8 28 5 29 1 30 2 31 3 32 103 33 4 34
REMARK SMILES IDX 102 35 26 36 27 37 28 38 29 39 30 40 31 41 32 42 33 43 34 44
REMARK SMILES IDX 95 45 35 46 94 47 36 48 37 49 38 50 88 51 39 52 93 53 87 54
REMARK SMILES IDX 89 55 40 56 92 57 86 58 85 59 41 61 73 62 53 63 72 64 54 65
REMARK SMILES IDX 57 66 71 67 90 68 55 69 56 70 70 72 91 73 58 74 42 75 43 76
REMARK SMILES IDX 51 77 44 78 50 79 52 80 49 81 45 82 46 83 47 84 48 85 74 86
REMARK SMILES IDX 75 87 83 88 76 89 82 90 84 91 81 92 77 93 78 94 79 95 80 96
REMARK SMILES IDX 59 97 60 98 68 99 61 100 67 101 69 102 66 103 62 104 63 105
REMARK SMILES IDX 64 106 65 107
REMARK H PARENT 20 9 16 14 89 60 57 71
REMARK Flexibility Score: inf
ROOT
ATOM      1  C   UNL A   1      34.596  22.513  26.900  1.00  0.00     0.261 C 
ENDROOT
BRANCH   1   2
ATOM      2  O   UNL A   1      33.663  21.864  26.043  1.00  0.00    -0.462 OA
BRANCH   2   3
ATOM      3  C   UNL A   1      33.993  20.646  25.553  1.00  0.00     0.325 C 
ATOM      4  O   UNL A   1      35.106  20.259  25.225  1.00  0.00    -0.250 OA
BRANCH   3   5
ATOM      5  C   UNL A   1      32.734  19.790  25.468  1.00  0.00     0.238 C 
BRANCH   5   6
ATOM      6  N   UNL A   1      32.496  19.239  24.133  1.00  0.00    -0.344 N 
ATOM      7  C   UNL A   1      32.220  19.849  22.945  1.00  0.00     0.239 C 
ATOM      8  O   UNL A   1      32.143  19.114  21.953  1.00  0.00    -0.273 OA
ATOM      9  H   UNL A   1      32.545  18.256  24.084  1.00  0.00     0.164 HD
BRANCH   7  10
ATOM     10  C   UNL A   1      32.251  21.379  22.793  1.00  0.00     0.216 C 
BRANCH  10  11
ATOM     11  N   UNL A   1      33.558  21.961  23.013  1.00  0.00    -0.340 N 
ATOM     12  C   UNL A   1      34.064  23.187  22.662  1.00  0.00     0.292 C 
ATOM     13  O   UNL A   1      35.279  23.329  22.623  1.00  0.00    -0.265 OA
ATOM     14  H   UNL A   1      34.190  21.379  23.495  1.00  0.00     0.164 HD
BRANCH  12  15
ATOM     15  C   UNL A   1      33.185  24.378  22.221  1.00  0.00     0.252 C 
ATOM     16  O   UNL A   1      32.938  24.561  21.035  1.00  0.00    -0.283 OA
BRANCH  15  17
ATOM     17  C   UNL A   1      32.736  25.340  23.239  1.00  0.00     0.054 A 
ATOM     18  N   UNL A   1      32.338  27.242  24.344  1.00  0.00    -0.240 N 
ATOM     19  C   UNL A   1      33.016  26.694  23.280  1.00  0.00     0.117 A 
ATOM     20  C   UNL A   1      31.557  26.295  24.968  1.00  0.00     0.065 A 
ATOM     21  C   UNL A   1      31.852  25.076  24.337  1.00  0.00     0.012 A 
ATOM     22  C   UNL A   1      30.597  26.388  25.989  1.00  0.00     0.028 A 
ATOM     23  C   UNL A   1      31.206  23.907  24.789  1.00  0.00     0.011 A 
ATOM     24  C   UNL A   1      29.962  25.215  26.404  1.00  0.00     0.002 A 
ATOM     25  C   UNL A   1      30.272  23.988  25.826  1.00  0.00     0.001 A 
BRANCH  18  26
ATOM     26  S   UNL A   1      32.275  28.912  24.646  1.00  0.00     0.268 S 
ATOM     27  O   UNL A   1      33.366  29.462  23.893  1.00  0.00    -0.201 OA
ATOM     28  O   UNL A   1      32.103  29.008  26.092  1.00  0.00    -0.201 OA
BRANCH  26  29
ATOM     29  C   UNL A   1      30.816  29.648  24.024  1.00  0.00     0.088 A 
ATOM     30  C   UNL A   1      27.802  31.704  21.810  1.00  0.00     0.044 C 
ATOM     31  C   UNL A   1      28.812  30.955  22.624  1.00  0.00    -0.051 A 
ATOM     32  C   UNL A   1      29.380  29.795  22.090  1.00  0.00     0.005 A 
ATOM     33  C   UNL A   1      29.233  31.428  23.879  1.00  0.00     0.005 A 
ATOM     34  C   UNL A   1      30.380  29.138  22.791  1.00  0.00     0.022 A 
ATOM     35  C   UNL A   1      30.243  30.777  24.588  1.00  0.00     0.022 A 
ENDBRANCH  26  29
ENDBRANCH  18  26
ENDBRANCH  15  17
ENDBRANCH  12  15
ENDBRANCH  10  11
ENDBRANCH   7  10
ENDBRANCH   5   6
ENDBRANCH   3   5
ENDBRANCH   2   3
ENDBRANCH   1   2
BRANCH   1  36
ATOM     36  C   UNL A   1      35.368  23.531  26.087  1.00  0.00     0.202 C 
BRANCH  36  37
ATOM     37  O   UNL A   1      36.768  23.323  26.302  1.00  0.00    -0.374 OA
BRANCH  37  38
ATOM     38  C   UNL A   1      37.439  22.688  25.220  1.00  0.00     0.202 C 
BRANCH  38  39
ATOM     39  C   UNL A   1      38.519  21.669  25.620  1.00  0.00     0.261 C 
BRANCH  39  40
ATOM     40  O   UNL A   1      39.262  22.151  26.755  1.00  0.00    -0.460 OA
BRANCH  40  41
ATOM     41  C   UNL A   1      40.360  22.889  26.437  1.00  0.00     0.338 C 
ATOM     42  O   UNL A   1      41.398  22.438  25.987  1.00  0.00    -0.246 OA
BRANCH  41  43
ATOM     43  C   UNL A   1      40.139  24.306  26.825  1.00  0.00     0.060 A 
ATOM     44  C   UNL A   1      40.789  25.340  26.130  1.00  0.00     0.016 A 
ATOM     45  C   UNL A   1      39.464  24.576  28.015  1.00  0.00     0.016 A 
ATOM     46  C   UNL A   1      40.835  26.626  26.677  1.00  0.00     0.010 A 
ATOM     47  C   UNL A   1      39.599  25.812  28.596  1.00  0.00     0.010 A 
ATOM     48  C   UNL A   1      40.271  26.844  27.933  1.00  0.00    -0.014 A 
BRANCH  48  49
ATOM     49  C   UNL A   1      40.433  28.051  28.734  1.00  0.00     0.031 A 
ATOM     50  C   UNL A   1      39.407  29.122  28.711  1.00  0.00     0.074 A 
ATOM     51  C   UNL A   1      41.384  28.038  29.688  1.00  0.00     0.049 A 
ATOM     52  N   UNL A   1      39.600  30.329  29.121  1.00  0.00    -0.248 NA
ATOM     53  C   UNL A   1      38.065  28.932  28.165  1.00  0.00     0.031 C 
ATOM     54  C   UNL A   1      41.416  28.814  30.910  1.00  0.00     0.029 A 
ATOM     55  N   UNL A   1      42.604  27.379  29.672  1.00  0.00    -0.354 N 
ATOM     56  C   UNL A   1      38.363  30.938  29.230  1.00  0.00     0.074 A 
ATOM     57  C   UNL A   1      37.458  30.063  28.532  1.00  0.00     0.031 C 
ATOM     58  C   UNL A   1      42.665  28.818  31.394  1.00  0.00     0.029 A 
ATOM     59  C   UNL A   1      43.504  28.079  30.483  1.00  0.00     0.049 A 
ATOM     60  H   UNL A   1      42.803  26.555  29.173  1.00  0.00     0.167 HD
ATOM     61  C   UNL A   1      38.213  32.019  30.052  1.00  0.00     0.034 A 
ATOM     62  C   UNL A   1      44.704  28.485  29.987  1.00  0.00     0.034 A 
ATOM     63  C   UNL A   1      39.477  32.308  30.715  1.00  0.00     0.049 A 
ATOM     64  C   UNL A   1      44.709  29.984  29.818  1.00  0.00     0.074 A 
ATOM     65  C   UNL A   1      39.965  31.784  31.892  1.00  0.00     0.029 A 
ATOM     66  N   UNL A   1      40.570  32.814  30.021  1.00  0.00    -0.354 N 
ATOM     67  N   UNL A   1      43.629  30.716  29.906  1.00  0.00    -0.248 NA
ATOM     68  C   UNL A   1      45.895  30.785  29.554  1.00  0.00     0.031 C 
ATOM     69  C   UNL A   1      41.372  31.864  31.825  1.00  0.00     0.029 A 
ATOM     70  C   UNL A   1      41.749  32.576  30.710  1.00  0.00     0.049 A 
ATOM     71  H   UNL A   1      40.515  33.280  29.156  1.00  0.00     0.167 HD
ATOM     72  C   UNL A   1      43.958  32.041  29.896  1.00  0.00     0.074 A 
ATOM     73  C   UNL A   1      45.374  32.028  29.546  1.00  0.00     0.031 C 
ATOM     74  C   UNL A   1      43.057  33.017  30.242  1.00  0.00     0.034 A 
BRANCH  61  75
ATOM     75  C   UNL A   1      36.884  32.543  30.567  1.00  0.00     0.023 A 
ATOM     76  C   UNL A   1      36.006  33.229  29.690  1.00  0.00     0.031 A 
ATOM     77  C   UNL A   1      36.437  32.433  31.897  1.00  0.00     0.131 A 
ATOM     78  C   UNL A   1      34.822  33.837  30.157  1.00  0.00     0.055 A 
ATOM     79  C   UNL A   1      35.294  33.090  32.375  1.00  0.00     0.041 A 
ATOM     80  F   UNL A   1      37.049  31.635  32.781  1.00  0.00    -0.206 F 
ATOM     81  C   UNL A   1      34.485  33.805  31.507  1.00  0.00     0.022 A 
BRANCH  78  82
ATOM     82  S   UNL A   1      33.671  34.619  28.984  1.00  0.00     0.124 S 
ATOM     83  O   UNL A   1      33.388  33.541  28.045  1.00  0.00    -0.237 OA
ATOM     84  O   UNL A   1      32.571  35.040  29.847  1.00  0.00    -0.237 OA
ATOM     85  O   UNL A   1      34.456  35.723  28.427  1.00  0.00    -0.744 OA
ENDBRANCH  78  82
ENDBRANCH  61  75
BRANCH  62  86
ATOM     86  C   UNL A   1      45.308  27.407  29.151  1.00  0.00     0.023 A 
ATOM     87  C   UNL A   1      45.029  27.511  27.762  1.00  0.00     0.031 A 
ATOM     88  C   UNL A   1      46.485  26.753  29.534  1.00  0.00     0.131 A 
ATOM     89  C   UNL A   1      46.012  27.188  26.817  1.00  0.00     0.055 A 
ATOM     90  C   UNL A   1      47.435  26.362  28.578  1.00  0.00     0.041 A 
ATOM     91  F   UNL A   1      46.810  26.635  30.830  1.00  0.00    -0.206 F 
ATOM     92  C   UNL A   1      47.227  26.632  27.221  1.00  0.00     0.022 A 
BRANCH  89  93
ATOM     93  S   UNL A   1      45.840  27.820  25.111  1.00  0.00     0.124 S 
ATOM     94  O   UNL A   1      46.542  26.806  24.337  1.00  0.00    -0.237 OA
ATOM     95  O   UNL A   1      44.390  27.883  24.925  1.00  0.00    -0.237 OA
ATOM     96  O   UNL A   1      46.487  29.129  25.187  1.00  0.00    -0.744 OA
ENDBRANCH  89  93
ENDBRANCH  62  86
BRANCH  74  97
ATOM     97  C   UNL A   1      43.391  34.487  30.299  1.00  0.00     0.023 A 
ATOM     98  C   UNL A   1      43.442  35.278  29.148  1.00  0.00     0.031 A 
ATOM     99  C   UNL A   1      43.675  35.153  31.511  1.00  0.00     0.131 A 
ATOM    100  C   UNL A   1      43.497  36.674  29.237  1.00  0.00     0.055 A 
ATOM    101  C   UNL A   1      43.852  36.535  31.590  1.00  0.00     0.041 A 
ATOM    102  F   UNL A   1      43.752  34.510  32.684  1.00  0.00    -0.206 F 
ATOM    103  C   UNL A   1      43.703  37.314  30.455  1.00  0.00     0.022 A 
BRANCH 100 104
ATOM    104  S   UNL A   1      43.099  37.620  27.748  1.00  0.00     0.124 S 
ATOM    105  O   UNL A   1      42.822  38.949  28.281  1.00  0.00    -0.237 OA
ATOM    106  O   UNL A   1      44.331  37.494  26.973  1.00  0.00    -0.237 OA
ATOM    107  O   UNL A   1      41.946  36.914  27.193  1.00  0.00    -0.744 OA
ENDBRANCH 100 104
ENDBRANCH  74  97
ENDBRANCH  48  49
ENDBRANCH  41  43
ENDBRANCH  40  41
ENDBRANCH  39  40
ENDBRANCH  38  39
ENDBRANCH  37  38
ENDBRANCH  36  37
ENDBRANCH   1  36
TORSDOF 24
ENDMDL
MODEL 2
REMARK VINA RESULT:     -11.7      2.196      2.770
REMARK SMILES Cc1ccc(S(=O)(=O)n2cc(C(=O)C(=O)NCC(=O)NCC(=O)OCCOCCOC(=O)c3ccc(-c4c5nc(c(-c6cc(S(=O)(=O)[O-])ccc6F)c6ccc([nH]6)c(-c6cc(S(=O)(=O)[O-])ccc6F)c6nc(c(-c7cc(S(=O)(=O)[O-])ccc7F)c7ccc4[nH]7)C=C6)C=C5)cc3)c3ccccc32)cc1
REMARK SMILES IDX 25 1 24 2 22 3 23 4 21 5 20 6 18 7 19 8 17 10 16 11 14 12
REMARK SMILES IDX 15 13 12 15 13 16 11 17 9 18 10 19 101 20 96 21 100 22 97 23
REMARK SMILES IDX 99 24 98 25 6 26 7 27 8 28 5 29 1 30 2 31 3 32 103 33 4 34
REMARK SMILES IDX 102 35 26 36 27 37 28 38 29 39 30 40 31 41 32 42 33 43 34 44
REMARK SMILES IDX 95 45 35 46 94 47 36 48 37 49 38 50 88 51 39 52 93 53 87 54
REMARK SMILES IDX 89 55 40 56 92 57 86 58 85 59 41 61 73 62 53 63 72 64 54 65
REMARK SMILES IDX 57 66 71 67 90 68 55 69 56 70 70 72 91 73 58 74 42 75 43 76
REMARK SMILES IDX 51 77 44 78 50 79 52 80 49 81 45 82 46 83 47 84 48 85 74 86
REMARK SMILES IDX 75 87 83 88 76 89 82 90 84 91 81 92 77 93 78 94 79 95 80 96
REMARK SMILES IDX 59 97 60 98 68 99 61 100 67 101 69 102 66 103 62 104 63 105
REMARK SMILES IDX 64 106 65 107
REMARK H PARENT 20 9 16 14 89 60 57 71
REMARK Flexibility Score: inf
ROOT
ATOM      1  C   UNL A   1      35.423  23.492  26.564  1.00  0.00     0.261 C 
ENDROOT
BRANCH   1   2
ATOM      2  O   UNL A   1      34.227  22.850  26.138  1.00  0.00    -0.462 OA
BRANCH   2   3
ATOM      3  C   UNL A   1      33.710  21.882  26.930  1.00  0.00     0.325 C 
ATOM      4  O   UNL A   1      34.228  21.385  27.921  1.00  0.00    -0.250 OA
BRANCH   3   5
ATOM      5  C   UNL A   1      32.337  21.488  26.398  1.00  0.00     0.238 C 
BRANCH   5   6
ATOM      6  N   UNL A   1      32.356  20.264  25.594  1.00  0.00    -0.344 N 
ATOM      7  C   UNL A   1      32.345  20.076  24.243  1.00  0.00     0.239 C 
ATOM      8  O   UNL A   1      32.446  18.908  23.849  1.00  0.00    -0.273 OA
ATOM      9  H   UNL A   1      32.381  19.432  26.121  1.00  0.00     0.164 HD
BRANCH   7  10
ATOM     10  C   UNL A   1      32.457  21.253  23.261  1.00  0.00     0.216 C 
BRANCH  10  11
ATOM     11  N   UNL A   1      33.756  21.892  23.260  1.00  0.00    -0.340 N 
ATOM     12  C   UNL A   1      34.189  23.042  22.649  1.00  0.00     0.292 C 
ATOM     13  O   UNL A   1      35.391  23.199  22.483  1.00  0.00    -0.265 OA
ATOM     14  H   UNL A   1      34.444  21.423  23.786  1.00  0.00     0.164 HD
BRANCH  12  15
ATOM     15  C   UNL A   1      33.237  24.113  22.074  1.00  0.00     0.252 C 
ATOM     16  O   UNL A   1      32.913  24.084  20.892  1.00  0.00    -0.283 OA
BRANCH  15  17
ATOM     17  C   UNL A   1      32.809  25.219  22.943  1.00  0.00     0.054 A 
ATOM     18  N   UNL A   1      32.477  27.265  23.781  1.00  0.00    -0.240 N 
ATOM     19  C   UNL A   1      33.159  26.551  22.822  1.00  0.00     0.117 A 
ATOM     20  C   UNL A   1      31.629  26.445  24.491  1.00  0.00     0.065 A 
ATOM     21  C   UNL A   1      31.878  25.142  24.032  1.00  0.00     0.012 A 
ATOM     22  C   UNL A   1      30.645  26.716  25.456  1.00  0.00     0.028 A 
ATOM     23  C   UNL A   1      31.158  24.074  24.605  1.00  0.00     0.011 A 
ATOM     24  C   UNL A   1      29.936  25.638  25.993  1.00  0.00     0.002 A 
ATOM     25  C   UNL A   1      30.198  24.333  25.588  1.00  0.00     0.001 A 
BRANCH  18  26
ATOM     26  S   UNL A   1      32.494  28.961  23.866  1.00  0.00     0.268 S 
ATOM     27  O   UNL A   1      31.124  29.350  23.691  1.00  0.00    -0.201 OA
ATOM     28  O   UNL A   1      33.607  29.351  23.007  1.00  0.00    -0.201 OA
BRANCH  26  29
ATOM     29  C   UNL A   1      32.983  29.546  25.439  1.00  0.00     0.088 A 
ATOM     30  C   UNL A   1      34.303  31.770  28.834  1.00  0.00     0.044 C 
ATOM     31  C   UNL A   1      33.819  30.942  27.683  1.00  0.00    -0.051 A 
ATOM     32  C   UNL A   1      32.603  31.275  27.079  1.00  0.00     0.005 A 
ATOM     33  C   UNL A   1      34.587  29.881  27.174  1.00  0.00     0.005 A 
ATOM     34  C   UNL A   1      32.182  30.575  25.959  1.00  0.00     0.022 A 
ATOM     35  C   UNL A   1      34.175  29.176  26.043  1.00  0.00     0.022 A 
ENDBRANCH  26  29
ENDBRANCH  18  26
ENDBRANCH  15  17
ENDBRANCH  12  15
ENDBRANCH  10  11
ENDBRANCH   7  10
ENDBRANCH   5   6
ENDBRANCH   3   5
ENDBRANCH   2   3
ENDBRANCH   1   2
BRANCH   1  36
ATOM     36  C   UNL A   1      36.070  24.150  25.362  1.00  0.00     0.202 C 
BRANCH  36  37
ATOM     37  O   UNL A   1      37.443  23.749  25.303  1.00  0.00    -0.374 OA
BRANCH  37  38
ATOM     38  C   UNL A   1      37.639  22.342  25.205  1.00  0.00     0.202 C 
BRANCH  38  39
ATOM     39  C   UNL A   1      38.883  21.797  25.927  1.00  0.00     0.261 C 
BRANCH  39  40
ATOM     40  O   UNL A   1      39.284  22.698  26.976  1.00  0.00    -0.460 OA
BRANCH  40  41
ATOM     41  C   UNL A   1      40.388  23.441  26.690  1.00  0.00     0.338 C 
ATOM     42  O   UNL A   1      41.441  22.993  26.272  1.00  0.00    -0.246 OA
BRANCH  41  43
ATOM     43  C   UNL A   1      40.149  24.857  27.068  1.00  0.00     0.060 A 
ATOM     44  C   UNL A   1      40.584  25.897  26.229  1.00  0.00     0.016 A 
ATOM     45  C   UNL A   1      39.695  25.137  28.357  1.00  0.00     0.016 A 
ATOM     46  C   UNL A   1      40.644  27.206  26.716  1.00  0.00     0.010 A 
ATOM     47  C   UNL A   1      39.853  26.404  28.862  1.00  0.00     0.010 A 
ATOM     48  C   UNL A   1      40.315  27.444  28.050  1.00  0.00    -0.014 A 
BRANCH  48  49
ATOM     49  C   UNL A   1      40.544  28.693  28.766  1.00  0.00     0.031 A 
ATOM     50  C   UNL A   1      39.414  29.589  29.111  1.00  0.00     0.074 A 
ATOM     51  C   UNL A   1      41.752  28.867  29.338  1.00  0.00     0.049 A 
ATOM     52  N   UNL A   1      39.538  30.827  29.449  1.00  0.00    -0.248 NA
ATOM     53  C   UNL A   1      38.015  29.171  29.053  1.00  0.00     0.031 C 
ATOM     54  C   UNL A   1      42.071  29.687  30.488  1.00  0.00     0.029 A 
ATOM     55  N   UNL A   1      42.982  28.406  28.896  1.00  0.00    -0.354 N 
ATOM     56  C   UNL A   1      38.331  31.240  29.984  1.00  0.00     0.074 A 
ATOM     57  C   UNL A   1      37.395  30.207  29.623  1.00  0.00     0.031 C 
ATOM     58  C   UNL A   1      43.393  29.904  30.516  1.00  0.00     0.029 A 
ATOM     59  C   UNL A   1      43.979  29.270  29.362  1.00  0.00     0.049 A 
ATOM     60  H   UNL A   1      43.130  27.604  28.346  1.00  0.00     0.167 HD
ATOM     61  C   UNL A   1      38.298  32.317  30.825  1.00  0.00     0.034 A 
ATOM     62  C   UNL A   1      44.858  29.837  28.493  1.00  0.00     0.034 A 
ATOM     63  C   UNL A   1      39.649  32.825  31.021  1.00  0.00     0.049 A 
ATOM     64  C   UNL A   1      44.566  31.310  28.355  1.00  0.00     0.074 A 
ATOM     65  C   UNL A   1      40.584  32.431  31.953  1.00  0.00     0.029 A 
ATOM     66  N   UNL A   1      40.345  33.467  30.004  1.00  0.00    -0.354 N 
ATOM     67  N   UNL A   1      43.478  31.868  28.818  1.00  0.00    -0.248 NA
ATOM     68  C   UNL A   1      45.447  32.276  27.715  1.00  0.00     0.031 C 
ATOM     69  C   UNL A   1      41.853  32.727  31.411  1.00  0.00     0.029 A 
ATOM     70  C   UNL A   1      41.710  33.444  30.246  1.00  0.00     0.049 A 
ATOM     71  H   UNL A   1      39.926  33.884  29.217  1.00  0.00     0.167 HD
ATOM     72  C   UNL A   1      43.567  33.227  28.718  1.00  0.00     0.074 A 
ATOM     73  C   UNL A   1      44.763  33.420  27.905  1.00  0.00     0.031 C 
ATOM     74  C   UNL A   1      42.693  34.064  29.365  1.00  0.00     0.034 A 
BRANCH  61  75
ATOM     75  C   UNL A   1      37.157  32.647  31.771  1.00  0.00     0.023 A 
ATOM     76  C   UNL A   1      36.194  33.622  31.405  1.00  0.00     0.031 A 
ATOM     77  C   UNL A   1      36.975  32.074  33.043  1.00  0.00     0.131 A 
ATOM     78  C   UNL A   1      35.193  34.045  32.304  1.00  0.00     0.055 A 
ATOM     79  C   UNL A   1      36.022  32.538  33.961  1.00  0.00     0.041 A 
ATOM     80  F   UNL A   1      37.670  30.998  33.436  1.00  0.00    -0.206 F 
ATOM     81  C   UNL A   1      35.131  33.534  33.598  1.00  0.00     0.022 A 
BRANCH  78  82
ATOM     82  S   UNL A   1      33.915  35.222  31.763  1.00  0.00     0.124 S 
ATOM     83  O   UNL A   1      32.723  34.736  32.448  1.00  0.00    -0.237 OA
ATOM     84  O   UNL A   1      34.449  36.503  32.211  1.00  0.00    -0.237 OA
ATOM     85  O   UNL A   1      33.895  35.051  30.308  1.00  0.00    -0.744 OA
ENDBRANCH  78  82
ENDBRANCH  61  75
BRANCH  62  86
ATOM     86  C   UNL A   1      45.308  28.834  27.484  1.00  0.00     0.023 A 
ATOM     87  C   UNL A   1      46.265  27.901  27.965  1.00  0.00     0.031 A 
ATOM     88  C   UNL A   1      44.484  28.439  26.424  1.00  0.00     0.131 A 
ATOM     89  C   UNL A   1      46.214  26.562  27.555  1.00  0.00     0.055 A 
ATOM     90  C   UNL A   1      44.489  27.112  25.964  1.00  0.00     0.041 A 
ATOM     91  F   UNL A   1      43.552  29.271  25.935  1.00  0.00    -0.206 F 
ATOM     92  C   UNL A   1      45.313  26.157  26.569  1.00  0.00     0.022 A 
BRANCH  89  93
ATOM     93  S   UNL A   1      47.073  25.298  28.558  1.00  0.00     0.124 S 
ATOM     94  O   UNL A   1      45.975  24.712  29.316  1.00  0.00    -0.237 OA
ATOM     95  O   UNL A   1      47.690  24.437  27.549  1.00  0.00    -0.237 OA
ATOM     96  O   UNL A   1      48.029  26.093  29.326  1.00  0.00    -0.744 OA
ENDBRANCH  89  93
ENDBRANCH  62  86
BRANCH  74  97
ATOM     97  C   UNL A   1      42.787  35.569  29.328  1.00  0.00     0.023 A 
ATOM     98  C   UNL A   1      43.482  36.290  30.303  1.00  0.00     0.031 A 
ATOM     99  C   UNL A   1      42.181  36.341  28.313  1.00  0.00     0.131 A 
ATOM    100  C   UNL A   1      43.778  37.646  30.120  1.00  0.00     0.055 A 
ATOM    101  C   UNL A   1      42.374  37.718  28.194  1.00  0.00     0.041 A 
ATOM    102  F   UNL A   1      41.408  35.799  27.362  1.00  0.00    -0.206 F 
ATOM    103  C   UNL A   1      43.228  38.370  29.067  1.00  0.00     0.022 A 
BRANCH 100 104
ATOM    104  S   UNL A   1      45.049  38.371  31.181  1.00  0.00     0.124 S 
ATOM    105  O   UNL A   1      45.529  39.492  30.381  1.00  0.00    -0.237 OA
ATOM    106  O   UNL A   1      44.279  38.728  32.372  1.00  0.00    -0.237 OA
ATOM    107  O   UNL A   1      46.002  37.280  31.368  1.00  0.00    -0.744 OA
ENDBRANCH 100 104
ENDBRANCH  74  97
ENDBRANCH  48  49
ENDBRANCH  41  43
ENDBRANCH  40  41
ENDBRANCH  39  40
ENDBRANCH  38  39
ENDBRANCH  37  38
ENDBRANCH  36  37
ENDBRANCH   1  36
TORSDOF 24
ENDMDL
MODEL 3
REMARK VINA RESULT:     -11.2      3.678      9.602
REMARK SMILES Cc1ccc(S(=O)(=O)n2cc(C(=O)C(=O)NCC(=O)NCC(=O)OCCOCCOC(=O)c3ccc(-c4c5nc(c(-c6cc(S(=O)(=O)[O-])ccc6F)c6ccc([nH]6)c(-c6cc(S(=O)(=O)[O-])ccc6F)c6nc(c(-c7cc(S(=O)(=O)[O-])ccc7F)c7ccc4[nH]7)C=C6)C=C5)cc3)c3ccccc32)cc1
REMARK SMILES IDX 25 1 24 2 22 3 23 4 21 5 20 6 18 7 19 8 17 10 16 11 14 12
REMARK SMILES IDX 15 13 12 15 13 16 11 17 9 18 10 19 101 20 96 21 100 22 97 23
REMARK SMILES IDX 99 24 98 25 6 26 7 27 8 28 5 29 1 30 2 31 3 32 103 33 4 34
REMARK SMILES IDX 102 35 26 36 27 37 28 38 29 39 30 40 31 41 32 42 33 43 34 44
REMARK SMILES IDX 95 45 35 46 94 47 36 48 37 49 38 50 88 51 39 52 93 53 87 54
REMARK SMILES IDX 89 55 40 56 92 57 86 58 85 59 41 61 73 62 53 63 72 64 54 65
REMARK SMILES IDX 57 66 71 67 90 68 55 69 56 70 70 72 91 73 58 74 42 75 43 76
REMARK SMILES IDX 51 77 44 78 50 79 52 80 49 81 45 82 46 83 47 84 48 85 74 86
REMARK SMILES IDX 75 87 83 88 76 89 82 90 84 91 81 92 77 93 78 94 79 95 80 96
REMARK SMILES IDX 59 97 60 98 68 99 61 100 67 101 69 102 66 103 62 104 63 105
REMARK SMILES IDX 64 106 65 107
REMARK H PARENT 20 9 16 14 89 60 57 71
REMARK Flexibility Score: inf
ROOT
ATOM      1  C   UNL A   1      35.813  30.372  28.632  1.00  0.00     0.261 C 
ENDROOT
BRANCH   1   2
ATOM      2  O   UNL A   1      35.204  30.935  27.476  1.00  0.00    -0.462 OA
BRANCH   2   3
ATOM      3  C   UNL A   1      33.899  30.659  27.248  1.00  0.00     0.325 C 
ATOM      4  O   UNL A   1      32.947  31.410  27.406  1.00  0.00    -0.250 OA
BRANCH   3   5
ATOM      5  C   UNL A   1      33.778  29.225  26.743  1.00  0.00     0.238 C 
BRANCH   5   6
ATOM      6  N   UNL A   1      33.816  29.119  25.283  1.00  0.00    -0.344 N 
ATOM      7  C   UNL A   1      32.823  29.188  24.351  1.00  0.00     0.239 C 
ATOM      8  O   UNL A   1      33.176  29.139  23.166  1.00  0.00    -0.273 OA
ATOM      9  H   UNL A   1      34.716  28.973  24.909  1.00  0.00     0.164 HD
BRANCH   7  10
ATOM     10  C   UNL A   1      31.381  29.560  24.730  1.00  0.00     0.216 C 
BRANCH  10  11
ATOM     11  N   UNL A   1      30.490  29.678  23.596  1.00  0.00    -0.340 N 
ATOM     12  C   UNL A   1      29.753  28.730  22.931  1.00  0.00     0.292 C 
ATOM     13  O   UNL A   1      29.364  28.979  21.799  1.00  0.00    -0.265 OA
ATOM     14  H   UNL A   1      30.397  30.592  23.241  1.00  0.00     0.164 HD
BRANCH  12  15
ATOM     15  C   UNL A   1      29.464  27.323  23.500  1.00  0.00     0.252 C 
ATOM     16  O   UNL A   1      28.312  26.973  23.730  1.00  0.00    -0.283 OA
BRANCH  15  17
ATOM     17  C   UNL A   1      30.597  26.455  23.852  1.00  0.00     0.054 A 
ATOM     18  N   UNL A   1      31.990  25.124  24.986  1.00  0.00    -0.240 N 
ATOM     19  C   UNL A   1      30.904  25.960  25.107  1.00  0.00     0.117 A 
ATOM     20  C   UNL A   1      32.367  24.997  23.669  1.00  0.00     0.065 A 
ATOM     21  C   UNL A   1      31.554  25.885  22.947  1.00  0.00     0.012 A 
ATOM     22  C   UNL A   1      33.306  24.169  23.032  1.00  0.00     0.028 A 
ATOM     23  C   UNL A   1      31.734  25.987  21.553  1.00  0.00     0.011 A 
ATOM     24  C   UNL A   1      33.450  24.281  21.647  1.00  0.00     0.002 A 
ATOM     25  C   UNL A   1      32.688  25.188  20.917  1.00  0.00     0.001 A 
BRANCH  18  26
ATOM     26  S   UNL A   1      32.580  24.178  26.266  1.00  0.00     0.268 S 
ATOM     27  O   UNL A   1      31.560  24.245  27.274  1.00  0.00    -0.201 OA
ATOM     28  O   UNL A   1      33.964  24.613  26.424  1.00  0.00    -0.201 OA
BRANCH  26  29
ATOM     29  C   UNL A   1      32.742  22.492  25.831  1.00  0.00     0.088 A 
ATOM     30  C   UNL A   1      33.768  18.694  24.177  1.00  0.00     0.044 C 
ATOM     31  C   UNL A   1      33.377  19.996  24.806  1.00  0.00    -0.051 A 
ATOM     32  C   UNL A   1      34.329  20.695  25.554  1.00  0.00     0.005 A 
ATOM     33  C   UNL A   1      32.097  20.544  24.612  1.00  0.00     0.005 A 
ATOM     34  C   UNL A   1      34.011  21.942  26.070  1.00  0.00     0.022 A 
ATOM     35  C   UNL A   1      31.772  21.801  25.122  1.00  0.00     0.022 A 
ENDBRANCH  26  29
ENDBRANCH  18  26
ENDBRANCH  15  17
ENDBRANCH  12  15
ENDBRANCH  10  11
ENDBRANCH   7  10
ENDBRANCH   5   6
ENDBRANCH   3   5
ENDBRANCH   2   3
ENDBRANCH   1   2
BRANCH   1  36
ATOM     36  C   UNL A   1      37.020  31.211  28.996  1.00  0.00     0.202 C 
BRANCH  36  37
ATOM     37  O   UNL A   1      36.721  31.955  30.182  1.00  0.00    -0.374 OA
BRANCH  37  38
ATOM     38  C   UNL A   1      37.070  31.293  31.393  1.00  0.00     0.202 C 
BRANCH  38  39
ATOM     39  C   UNL A   1      38.578  31.145  31.654  1.00  0.00     0.261 C 
BRANCH  39  40
ATOM     40  O   UNL A   1      38.806  30.284  32.784  1.00  0.00    -0.460 OA
BRANCH  40  41
ATOM     41  C   UNL A   1      38.455  28.984  32.582  1.00  0.00     0.338 C 
ATOM     42  O   UNL A   1      37.451  28.456  33.025  1.00  0.00    -0.246 OA
BRANCH  41  43
ATOM     43  C   UNL A   1      39.533  28.286  31.836  1.00  0.00     0.060 A 
ATOM     44  C   UNL A   1      40.860  28.338  32.295  1.00  0.00     0.016 A 
ATOM     45  C   UNL A   1      39.247  27.775  30.571  1.00  0.00     0.016 A 
ATOM     46  C   UNL A   1      41.906  27.959  31.448  1.00  0.00     0.010 A 
ATOM     47  C   UNL A   1      40.281  27.502  29.709  1.00  0.00     0.010 A 
ATOM     48  C   UNL A   1      41.609  27.580  30.139  1.00  0.00    -0.014 A 
BRANCH  48  49
ATOM     49  C   UNL A   1      42.585  27.381  29.076  1.00  0.00     0.031 A 
ATOM     50  C   UNL A   1      43.109  26.028  28.767  1.00  0.00     0.074 A 
ATOM     51  C   UNL A   1      42.781  28.401  28.216  1.00  0.00     0.049 A 
ATOM     52  N   UNL A   1      44.176  25.795  28.083  1.00  0.00    -0.248 NA
ATOM     53  C   UNL A   1      42.488  24.800  29.258  1.00  0.00     0.031 C 
ATOM     54  C   UNL A   1      43.236  28.319  26.844  1.00  0.00     0.029 A 
ATOM     55  N   UNL A   1      42.712  29.761  28.472  1.00  0.00    -0.354 N 
ATOM     56  C   UNL A   1      44.175  24.453  27.749  1.00  0.00     0.074 A 
ATOM     57  C   UNL A   1      43.161  23.865  28.584  1.00  0.00     0.031 C 
ATOM     58  C   UNL A   1      43.666  29.527  26.454  1.00  0.00     0.029 A 
ATOM     59  C   UNL A   1      43.546  30.431  27.571  1.00  0.00     0.049 A 
ATOM     60  H   UNL A   1      42.166  30.185  29.172  1.00  0.00     0.167 HD
ATOM     61  C   UNL A   1      44.905  24.024  26.676  1.00  0.00     0.034 A 
ATOM     62  C   UNL A   1      44.507  31.280  28.024  1.00  0.00     0.034 A 
ATOM     63  C   UNL A   1      45.557  25.162  26.043  1.00  0.00     0.049 A 
ATOM     64  C   UNL A   1      45.871  30.670  27.816  1.00  0.00     0.074 A 
ATOM     65  C   UNL A   1      45.062  25.997  25.065  1.00  0.00     0.029 A 
ATOM     66  N   UNL A   1      46.603  25.842  26.656  1.00  0.00    -0.354 N 
ATOM     67  N   UNL A   1      46.049  29.419  27.481  1.00  0.00    -0.248 NA
ATOM     68  C   UNL A   1      47.131  31.387  27.946  1.00  0.00     0.031 C 
ATOM     69  C   UNL A   1      45.735  27.230  25.198  1.00  0.00     0.029 A 
ATOM     70  C   UNL A   1      46.748  27.114  26.122  1.00  0.00     0.049 A 
ATOM     71  H   UNL A   1      47.166  25.471  27.372  1.00  0.00     0.167 HD
ATOM     72  C   UNL A   1      47.362  29.195  27.181  1.00  0.00     0.074 A 
ATOM     73  C   UNL A   1      48.014  30.427  27.612  1.00  0.00     0.031 C 
ATOM     74  C   UNL A   1      47.780  28.051  26.548  1.00  0.00     0.034 A 
BRANCH  61  75
ATOM     75  C   UNL A   1      44.709  22.697  25.964  1.00  0.00     0.023 A 
ATOM     76  C   UNL A   1      43.659  21.829  26.362  1.00  0.00     0.031 A 
ATOM     77  C   UNL A   1      45.523  22.214  24.923  1.00  0.00     0.131 A 
ATOM     78  C   UNL A   1      43.520  20.538  25.811  1.00  0.00     0.055 A 
ATOM     79  C   UNL A   1      45.426  20.908  24.421  1.00  0.00     0.041 A 
ATOM     80  F   UNL A   1      46.410  23.001  24.301  1.00  0.00    -0.206 F 
ATOM     81  C   UNL A   1      44.428  20.060  24.870  1.00  0.00     0.022 A 
BRANCH  78  82
ATOM     82  S   UNL A   1      42.102  19.494  26.272  1.00  0.00     0.124 S 
ATOM     83  O   UNL A   1      42.479  18.190  25.740  1.00  0.00    -0.237 OA
ATOM     84  O   UNL A   1      42.070  19.622  27.725  1.00  0.00    -0.237 OA
ATOM     85  O   UNL A   1      40.978  20.132  25.584  1.00  0.00    -0.744 OA
ENDBRANCH  78  82
ENDBRANCH  61  75
BRANCH  62  86
ATOM     86  C   UNL A   1      43.974  32.117  29.138  1.00  0.00     0.023 A 
ATOM     87  C   UNL A   1      44.380  31.701  30.435  1.00  0.00     0.031 A 
ATOM     88  C   UNL A   1      43.654  33.467  28.954  1.00  0.00     0.131 A 
ATOM     89  C   UNL A   1      44.680  32.652  31.420  1.00  0.00     0.055 A 
ATOM     90  C   UNL A   1      43.886  34.407  29.971  1.00  0.00     0.041 A 
ATOM     91  F   UNL A   1      43.277  33.923  27.750  1.00  0.00    -0.206 F 
ATOM     92  C   UNL A   1      44.455  34.009  31.186  1.00  0.00     0.022 A 
BRANCH  89  93
ATOM     93  S   UNL A   1      45.688  32.146  32.858  1.00  0.00     0.124 S 
ATOM     94  O   UNL A   1      44.760  32.338  33.964  1.00  0.00    -0.237 OA
ATOM     95  O   UNL A   1      46.039  30.760  32.546  1.00  0.00    -0.237 OA
ATOM     96  O   UNL A   1      46.817  33.072  32.801  1.00  0.00    -0.744 OA
ENDBRANCH  89  93
ENDBRANCH  62  86
BRANCH  74  97
ATOM     97  C   UNL A   1      49.210  27.786  26.148  1.00  0.00     0.023 A 
ATOM     98  C   UNL A   1      49.587  27.631  24.811  1.00  0.00     0.031 A 
ATOM     99  C   UNL A   1      50.253  27.676  27.094  1.00  0.00     0.131 A 
ATOM    100  C   UNL A   1      50.936  27.645  24.438  1.00  0.00     0.055 A 
ATOM    101  C   UNL A   1      51.596  27.567  26.728  1.00  0.00     0.041 A 
ATOM    102  F   UNL A   1      50.033  27.712  28.415  1.00  0.00    -0.206 F 
ATOM    103  C   UNL A   1      51.950  27.612  25.391  1.00  0.00     0.022 A 
BRANCH 100 104
ATOM    104  S   UNL A   1      51.314  27.902  22.689  1.00  0.00     0.124 S 
ATOM    105  O   UNL A   1      52.739  27.595  22.623  1.00  0.00    -0.237 OA
ATOM    106  O   UNL A   1      50.428  26.935  22.044  1.00  0.00    -0.237 OA
ATOM    107  O   UNL A   1      50.964  29.303  22.466  1.00  0.00    -0.744 OA
ENDBRANCH 100 104
ENDBRANCH  74  97
ENDBRANCH  48  49
ENDBRANCH  41  43
ENDBRANCH  40  41
ENDBRANCH  39  40
ENDBRANCH  38  39
ENDBRANCH  37  38
ENDBRANCH  36  37
ENDBRANCH   1  36
TORSDOF 24
ENDMDL
