MODEL 1
REMARK VINA RESULT:     -10.4      0.000      0.000
REMARK SMILES C[C@](NC(=O)CSCc1cccs1)(C(=O)OCCOCCOC(=O)c1ccc(-c2c3nc(c(-c4cc(S(=O)(=O)[O-])ccc4F)c4ccc([nH]4)c(-c4cc(S(=O)(=O)[O-])ccc4F)c4nc(c(-c5cc(S(=O)(=O)[O-])ccc5F)c5ccc2[nH]5)C=C4)C=C3)cc1)C(F)(F)F
REMARK SMILES IDX 18 1 17 2 16 3 14 4 15 5 2 6 1 7 88 8 89 9 90 10 91 11 3 12
REMARK SMILES IDX 4 13 5 15 6 16 7 17 8 18 9 19 10 20 13 21 11 22 12 23 19 24
REMARK SMILES IDX 20 25 21 26 22 27 23 28 24 29 25 30 26 31 87 32 27 33 86 34
REMARK SMILES IDX 28 35 29 36 30 37 80 38 31 39 85 40 79 41 81 42 32 43 84 44
REMARK SMILES IDX 78 45 77 46 33 48 65 49 45 50 64 51 46 52 49 53 63 54 82 55
REMARK SMILES IDX 47 56 48 57 62 59 83 60 50 61 34 62 35 63 43 64 36 65 42 66
REMARK SMILES IDX 44 67 41 68 37 69 38 70 39 71 40 72 66 73 67 74 75 75 68 76
REMARK SMILES IDX 74 77 76 78 73 79 69 80 70 81 71 82 72 83 51 84 52 85 60 86
REMARK SMILES IDX 53 87 59 88 61 89 58 90 54 91 55 92 56 93 57 94
REMARK H PARENT 3 14 81 47 49 58
REMARK Flexibility Score: inf
ROOT
ATOM      1  C   UNL A   1      35.640  23.247  24.569  1.00  0.00     0.202 C 
ENDROOT
BRANCH   1   2
ATOM      2  C   UNL A   1      34.940  23.349  25.928  1.00  0.00     0.261 C 
BRANCH   2   3
ATOM      3  O   UNL A   1      34.171  24.563  26.033  1.00  0.00    -0.461 OA
BRANCH   3   4
ATOM      4  C   UNL A   1      32.816  24.424  25.993  1.00  0.00     0.341 C 
ATOM      5  O   UNL A   1      32.197  23.567  26.612  1.00  0.00    -0.249 OA
BRANCH   4   6
ATOM      6  C   UNL A   1      32.141  25.449  25.071  1.00  0.00     0.231 C 
ATOM      7  C   UNL A   1      30.704  24.983  24.825  1.00  0.00     0.058 C 
BRANCH   6   8
ATOM      8  C   UNL A   1      32.072  26.740  25.917  1.00  0.00     0.422 C 
ATOM      9  F   UNL A   1      33.030  27.625  25.552  1.00  0.00    -0.168 F 
ATOM     10  F   UNL A   1      30.882  27.369  25.707  1.00  0.00    -0.168 F 
ATOM     11  F   UNL A   1      32.171  26.547  27.246  1.00  0.00    -0.168 F 
ENDBRANCH   6   8
BRANCH   6  12
ATOM     12  N   UNL A   1      32.935  25.738  23.818  1.00  0.00    -0.332 N 
ATOM     13  C   UNL A   1      32.692  26.234  22.583  1.00  0.00     0.231 C 
ATOM     14  H   UNL A   1      33.884  25.499  23.931  1.00  0.00     0.164 HD
ATOM     15  O   UNL A   1      33.603  26.115  21.759  1.00  0.00    -0.274 OA
BRANCH  13  16
ATOM     16  C   UNL A   1      31.418  26.955  22.221  1.00  0.00     0.169 C 
BRANCH  16  17
ATOM     17  S   UNL A   1      31.450  28.690  22.753  1.00  0.00    -0.146 SA
BRANCH  17  18
ATOM     18  C   UNL A   1      29.689  28.958  23.108  1.00  0.00     0.116 C 
BRANCH  18  19
ATOM     19  C   UNL A   1      29.093  30.301  22.775  1.00  0.00     0.014 A 
ATOM     20  C   UNL A   1      28.937  31.345  23.673  1.00  0.00     0.016 A 
ATOM     21  S   UNL A   1      28.587  30.779  21.206  1.00  0.00    -0.148 S 
ATOM     22  C   UNL A   1      28.370  32.508  23.082  1.00  0.00     0.012 A 
ATOM     23  C   UNL A   1      28.108  32.327  21.744  1.00  0.00     0.065 A 
ENDBRANCH  18  19
ENDBRANCH  17  18
ENDBRANCH  16  17
ENDBRANCH  13  16
ENDBRANCH   6  12
ENDBRANCH   4   6
ENDBRANCH   3   4
ENDBRANCH   2   3
ENDBRANCH   1   2
BRANCH   1  24
ATOM     24  O   UNL A   1      36.843  22.478  24.543  1.00  0.00    -0.374 OA
BRANCH  24  25
ATOM     25  C   UNL A   1      36.741  21.097  24.887  1.00  0.00     0.202 C 
BRANCH  25  26
ATOM     26  C   UNL A   1      38.016  20.378  25.338  1.00  0.00     0.261 C 
BRANCH  26  27
ATOM     27  O   UNL A   1      39.157  21.252  25.349  1.00  0.00    -0.460 OA
BRANCH  27  28
ATOM     28  C   UNL A   1      40.023  21.015  26.362  1.00  0.00     0.338 C 
ATOM     29  O   UNL A   1      40.642  19.977  26.563  1.00  0.00    -0.246 OA
BRANCH  28  30
ATOM     30  C   UNL A   1      40.295  22.250  27.121  1.00  0.00     0.060 A 
ATOM     31  C   UNL A   1      39.495  23.361  26.825  1.00  0.00     0.016 A 
ATOM     32  C   UNL A   1      41.358  22.360  28.021  1.00  0.00     0.016 A 
ATOM     33  C   UNL A   1      39.810  24.608  27.353  1.00  0.00     0.010 A 
ATOM     34  C   UNL A   1      41.678  23.618  28.547  1.00  0.00     0.010 A 
ATOM     35  C   UNL A   1      40.938  24.755  28.169  1.00  0.00    -0.014 A 
BRANCH  35  36
ATOM     36  C   UNL A   1      41.449  26.124  28.431  1.00  0.00     0.031 A 
ATOM     37  C   UNL A   1      42.816  26.492  27.914  1.00  0.00     0.074 A 
ATOM     38  C   UNL A   1      40.683  27.046  29.038  1.00  0.00     0.049 A 
ATOM     39  N   UNL A   1      43.457  27.629  27.988  1.00  0.00    -0.248 NA
ATOM     40  C   UNL A   1      43.557  25.426  27.223  1.00  0.00     0.031 C 
ATOM     41  C   UNL A   1      39.324  26.823  29.528  1.00  0.00     0.029 A 
ATOM     42  N   UNL A   1      40.938  28.360  29.335  1.00  0.00    -0.354 N 
ATOM     43  C   UNL A   1      44.680  27.415  27.359  1.00  0.00     0.074 A 
ATOM     44  C   UNL A   1      44.705  26.027  26.952  1.00  0.00     0.031 C 
ATOM     45  C   UNL A   1      38.861  27.968  30.058  1.00  0.00     0.029 A 
ATOM     46  C   UNL A   1      39.900  28.993  29.974  1.00  0.00     0.049 A 
ATOM     47  H   UNL A   1      41.785  28.808  29.110  1.00  0.00     0.167 HD
ATOM     48  C   UNL A   1      45.685  28.298  27.129  1.00  0.00     0.034 A 
ATOM     49  C   UNL A   1      39.804  30.253  30.445  1.00  0.00     0.034 A 
ATOM     50  C   UNL A   1      45.647  29.679  27.547  1.00  0.00     0.049 A 
ATOM     51  C   UNL A   1      40.965  31.198  30.251  1.00  0.00     0.074 A 
ATOM     52  C   UNL A   1      46.601  30.664  27.362  1.00  0.00     0.029 A 
ATOM     53  N   UNL A   1      44.601  30.270  28.248  1.00  0.00    -0.354 N 
ATOM     54  N   UNL A   1      42.116  30.987  29.654  1.00  0.00    -0.248 NA
ATOM     55  C   UNL A   1      40.806  32.557  30.787  1.00  0.00     0.031 C 
ATOM     56  C   UNL A   1      46.167  31.825  28.013  1.00  0.00     0.029 A 
ATOM     57  C   UNL A   1      44.903  31.593  28.532  1.00  0.00     0.049 A 
ATOM     58  H   UNL A   1      43.768  29.813  28.505  1.00  0.00     0.167 HD
ATOM     59  C   UNL A   1      42.799  32.200  29.705  1.00  0.00     0.074 A 
ATOM     60  C   UNL A   1      41.929  33.136  30.389  1.00  0.00     0.031 C 
ATOM     61  C   UNL A   1      44.030  32.515  29.223  1.00  0.00     0.034 A 
BRANCH  48  62
ATOM     62  C   UNL A   1      46.928  27.766  26.453  1.00  0.00     0.023 A 
ATOM     63  C   UNL A   1      47.213  28.029  25.101  1.00  0.00     0.031 A 
ATOM     64  C   UNL A   1      47.810  26.926  27.156  1.00  0.00     0.131 A 
ATOM     65  C   UNL A   1      48.291  27.388  24.474  1.00  0.00     0.055 A 
ATOM     66  C   UNL A   1      48.935  26.361  26.548  1.00  0.00     0.041 A 
ATOM     67  F   UNL A   1      47.582  26.616  28.442  1.00  0.00    -0.206 F 
ATOM     68  C   UNL A   1      49.170  26.575  25.194  1.00  0.00     0.022 A 
BRANCH  65  69
ATOM     69  S   UNL A   1      48.425  27.484  22.665  1.00  0.00     0.124 S 
ATOM     70  O   UNL A   1      47.228  28.248  22.322  1.00  0.00    -0.237 OA
ATOM     71  O   UNL A   1      49.697  28.172  22.481  1.00  0.00    -0.237 OA
ATOM     72  O   UNL A   1      48.404  26.085  22.245  1.00  0.00    -0.744 OA
ENDBRANCH  65  69
ENDBRANCH  48  62
BRANCH  49  73
ATOM     73  C   UNL A   1      38.574  30.697  31.160  1.00  0.00     0.023 A 
ATOM     74  C   UNL A   1      37.528  31.339  30.479  1.00  0.00     0.031 A 
ATOM     75  C   UNL A   1      38.447  30.520  32.550  1.00  0.00     0.131 A 
ATOM     76  C   UNL A   1      36.418  31.817  31.193  1.00  0.00     0.055 A 
ATOM     77  C   UNL A   1      37.319  30.953  33.248  1.00  0.00     0.041 A 
ATOM     78  F   UNL A   1      39.418  29.912  33.248  1.00  0.00    -0.206 F 
ATOM     79  C   UNL A   1      36.301  31.617  32.571  1.00  0.00     0.022 A 
BRANCH  76  80
ATOM     80  S   UNL A   1      35.155  32.765  30.303  1.00  0.00     0.124 S 
ATOM     81  O   UNL A   1      34.104  32.877  31.307  1.00  0.00    -0.237 OA
ATOM     82  O   UNL A   1      35.870  33.995  29.981  1.00  0.00    -0.237 OA
ATOM     83  O   UNL A   1      34.837  31.914  29.157  1.00  0.00    -0.744 OA
ENDBRANCH  76  80
ENDBRANCH  49  73
BRANCH  61  84
ATOM     84  C   UNL A   1      44.478  33.952  29.366  1.00  0.00     0.023 A 
ATOM     85  C   UNL A   1      45.167  34.410  30.503  1.00  0.00     0.031 A 
ATOM     86  C   UNL A   1      44.190  34.883  28.350  1.00  0.00     0.131 A 
ATOM     87  C   UNL A   1      45.487  35.772  30.626  1.00  0.00     0.055 A 
ATOM     88  C   UNL A   1      44.568  36.222  28.449  1.00  0.00     0.041 A 
ATOM     89  F   UNL A   1      43.532  34.503  27.242  1.00  0.00    -0.206 F 
ATOM     90  C   UNL A   1      45.207  36.677  29.599  1.00  0.00     0.022 A 
BRANCH  87  91
ATOM     91  S   UNL A   1      46.177  36.367  32.195  1.00  0.00     0.124 S 
ATOM     92  O   UNL A   1      44.985  36.470  33.031  1.00  0.00    -0.237 OA
ATOM     93  O   UNL A   1      47.113  35.305  32.547  1.00  0.00    -0.237 OA
ATOM     94  O   UNL A   1      46.793  37.643  31.835  1.00  0.00    -0.744 OA
ENDBRANCH  87  91
ENDBRANCH  61  84
ENDBRANCH  35  36
ENDBRANCH  28  30
ENDBRANCH  27  28
ENDBRANCH  26  27
ENDBRANCH  25  26
ENDBRANCH  24  25
ENDBRANCH   1  24
TORSDOF 23
ENDMDL
MODEL 2
REMARK VINA RESULT:     -10.3      2.535      8.361
REMARK SMILES C[C@](NC(=O)CSCc1cccs1)(C(=O)OCCOCCOC(=O)c1ccc(-c2c3nc(c(-c4cc(S(=O)(=O)[O-])ccc4F)c4ccc([nH]4)c(-c4cc(S(=O)(=O)[O-])ccc4F)c4nc(c(-c5cc(S(=O)(=O)[O-])ccc5F)c5ccc2[nH]5)C=C4)C=C3)cc1)C(F)(F)F
REMARK SMILES IDX 18 1 17 2 16 3 14 4 15 5 2 6 1 7 88 8 89 9 90 10 91 11 3 12
REMARK SMILES IDX 4 13 5 15 6 16 7 17 8 18 9 19 10 20 13 21 11 22 12 23 19 24
REMARK SMILES IDX 20 25 21 26 22 27 23 28 24 29 25 30 26 31 87 32 27 33 86 34
REMARK SMILES IDX 28 35 29 36 30 37 80 38 31 39 85 40 79 41 81 42 32 43 84 44
REMARK SMILES IDX 78 45 77 46 33 48 65 49 45 50 64 51 46 52 49 53 63 54 82 55
REMARK SMILES IDX 47 56 48 57 62 59 83 60 50 61 34 62 35 63 43 64 36 65 42 66
REMARK SMILES IDX 44 67 41 68 37 69 38 70 39 71 40 72 66 73 67 74 75 75 68 76
REMARK SMILES IDX 74 77 76 78 73 79 69 80 70 81 71 82 72 83 51 84 52 85 60 86
REMARK SMILES IDX 53 87 59 88 61 89 58 90 54 91 55 92 56 93 57 94
REMARK H PARENT 3 14 81 47 49 58
REMARK Flexibility Score: inf
ROOT
ATOM      1  C   UNL A   1      35.653  24.077  24.523  1.00  0.00     0.202 C 
ENDROOT
BRANCH   1   2
ATOM      2  C   UNL A   1      34.348  24.035  23.722  1.00  0.00     0.261 C 
BRANCH   2   3
ATOM      3  O   UNL A   1      33.590  25.249  23.888  1.00  0.00    -0.461 OA
BRANCH   3   4
ATOM      4  C   UNL A   1      32.272  25.100  24.196  1.00  0.00     0.341 C 
ATOM      5  O   UNL A   1      31.479  24.455  23.520  1.00  0.00    -0.249 OA
BRANCH   4   6
ATOM      6  C   UNL A   1      31.873  25.844  25.479  1.00  0.00     0.231 C 
ATOM      7  C   UNL A   1      33.152  26.375  26.129  1.00  0.00     0.058 C 
BRANCH   6   8
ATOM      8  C   UNL A   1      31.065  27.063  24.981  1.00  0.00     0.422 C 
ATOM      9  F   UNL A   1      31.524  27.509  23.787  1.00  0.00    -0.168 F 
ATOM     10  F   UNL A   1      29.768  26.704  24.772  1.00  0.00    -0.168 F 
ATOM     11  F   UNL A   1      31.040  28.106  25.831  1.00  0.00    -0.168 F 
ENDBRANCH   6   8
BRANCH   6  12
ATOM     12  N   UNL A   1      30.993  25.024  26.393  1.00  0.00    -0.332 N 
ATOM     13  C   UNL A   1      30.777  23.713  26.648  1.00  0.00     0.231 C 
ATOM     14  H   UNL A   1      30.422  25.599  26.954  1.00  0.00     0.164 HD
ATOM     15  O   UNL A   1      29.795  23.448  27.349  1.00  0.00    -0.274 OA
BRANCH  13  16
ATOM     16  C   UNL A   1      31.700  22.619  26.173  1.00  0.00     0.169 C 
BRANCH  16  17
ATOM     17  S   UNL A   1      33.287  22.647  27.051  1.00  0.00    -0.146 SA
BRANCH  17  18
ATOM     18  C   UNL A   1      33.865  20.953  26.741  1.00  0.00     0.116 C 
BRANCH  18  19
ATOM     19  C   UNL A   1      33.276  20.204  25.575  1.00  0.00     0.014 A 
ATOM     20  C   UNL A   1      33.079  20.733  24.309  1.00  0.00     0.016 A 
ATOM     21  S   UNL A   1      32.830  18.546  25.608  1.00  0.00    -0.148 S 
ATOM     22  C   UNL A   1      32.529  19.794  23.392  1.00  0.00     0.012 A 
ATOM     23  C   UNL A   1      32.322  18.568  23.978  1.00  0.00     0.065 A 
ENDBRANCH  18  19
ENDBRANCH  17  18
ENDBRANCH  16  17
ENDBRANCH  13  16
ENDBRANCH   6  12
ENDBRANCH   4   6
ENDBRANCH   3   4
ENDBRANCH   2   3
ENDBRANCH   1   2
BRANCH   1  24
ATOM     24  O   UNL A   1      36.691  23.206  24.071  1.00  0.00    -0.374 OA
BRANCH  24  25
ATOM     25  C   UNL A   1      36.444  21.803  24.152  1.00  0.00     0.202 C 
BRANCH  25  26
ATOM     26  C   UNL A   1      37.560  20.914  24.713  1.00  0.00     0.261 C 
BRANCH  26  27
ATOM     27  O   UNL A   1      37.948  21.303  26.040  1.00  0.00    -0.460 OA
BRANCH  27  28
ATOM     28  C   UNL A   1      39.284  21.280  26.253  1.00  0.00     0.338 C 
ATOM     29  O   UNL A   1      40.068  20.421  25.868  1.00  0.00    -0.246 OA
BRANCH  28  30
ATOM     30  C   UNL A   1      39.742  22.545  26.858  1.00  0.00     0.060 A 
ATOM     31  C   UNL A   1      39.162  23.723  26.371  1.00  0.00     0.016 A 
ATOM     32  C   UNL A   1      40.774  22.598  27.798  1.00  0.00     0.016 A 
ATOM     33  C   UNL A   1      39.672  24.960  26.748  1.00  0.00     0.010 A 
ATOM     34  C   UNL A   1      41.291  23.845  28.173  1.00  0.00     0.010 A 
ATOM     35  C   UNL A   1      40.778  25.027  27.605  1.00  0.00    -0.014 A 
BRANCH  35  36
ATOM     36  C   UNL A   1      41.512  26.312  27.714  1.00  0.00     0.031 A 
ATOM     37  C   UNL A   1      40.891  27.430  28.511  1.00  0.00     0.074 A 
ATOM     38  C   UNL A   1      42.742  26.455  27.190  1.00  0.00     0.049 A 
ATOM     39  N   UNL A   1      41.354  28.624  28.775  1.00  0.00    -0.248 NA
ATOM     40  C   UNL A   1      39.563  27.159  29.081  1.00  0.00     0.031 C 
ATOM     41  C   UNL A   1      43.469  25.425  26.451  1.00  0.00     0.029 A 
ATOM     42  N   UNL A   1      43.600  27.524  27.213  1.00  0.00    -0.354 N 
ATOM     43  C   UNL A   1      40.373  29.250  29.538  1.00  0.00     0.074 A 
ATOM     44  C   UNL A   1      39.272  28.318  29.651  1.00  0.00     0.031 C 
ATOM     45  C   UNL A   1      44.671  25.912  26.097  1.00  0.00     0.029 A 
ATOM     46  C   UNL A   1      44.785  27.295  26.555  1.00  0.00     0.049 A 
ATOM     47  H   UNL A   1      43.388  28.376  27.659  1.00  0.00     0.167 HD
ATOM     48  C   UNL A   1      40.392  30.484  30.102  1.00  0.00     0.034 A 
ATOM     49  C   UNL A   1      45.836  28.112  26.341  1.00  0.00     0.034 A 
ATOM     50  C   UNL A   1      41.496  31.405  29.974  1.00  0.00     0.049 A 
ATOM     51  C   UNL A   1      45.805  29.510  26.910  1.00  0.00     0.074 A 
ATOM     52  C   UNL A   1      41.629  32.675  30.508  1.00  0.00     0.029 A 
ATOM     53  N   UNL A   1      42.656  31.160  29.246  1.00  0.00    -0.354 N 
ATOM     54  N   UNL A   1      44.873  30.092  27.631  1.00  0.00    -0.248 NA
ATOM     55  C   UNL A   1      46.975  30.357  26.643  1.00  0.00     0.031 C 
ATOM     56  C   UNL A   1      42.831  33.224  30.045  1.00  0.00     0.029 A 
ATOM     57  C   UNL A   1      43.490  32.266  29.291  1.00  0.00     0.049 A 
ATOM     58  H   UNL A   1      42.855  30.322  28.770  1.00  0.00     0.167 HD
ATOM     59  C   UNL A   1      45.367  31.358  27.939  1.00  0.00     0.074 A 
ATOM     60  C   UNL A   1      46.677  31.451  27.328  1.00  0.00     0.031 C 
ATOM     61  C   UNL A   1      44.793  32.351  28.669  1.00  0.00     0.034 A 
BRANCH  48  62
ATOM     62  C   UNL A   1      39.151  30.919  30.849  1.00  0.00     0.023 A 
ATOM     63  C   UNL A   1      38.107  31.616  30.217  1.00  0.00     0.031 A 
ATOM     64  C   UNL A   1      39.042  30.688  32.232  1.00  0.00     0.131 A 
ATOM     65  C   UNL A   1      37.049  32.137  30.979  1.00  0.00     0.055 A 
ATOM     66  C   UNL A   1      37.942  31.132  32.970  1.00  0.00     0.041 A 
ATOM     67  F   UNL A   1      40.017  30.049  32.899  1.00  0.00    -0.206 F 
ATOM     68  C   UNL A   1      36.946  31.878  32.348  1.00  0.00     0.022 A 
BRANCH  65  69
ATOM     69  S   UNL A   1      35.908  33.309  30.192  1.00  0.00     0.124 S 
ATOM     70  O   UNL A   1      34.829  32.424  29.759  1.00  0.00    -0.237 OA
ATOM     71  O   UNL A   1      35.589  34.220  31.285  1.00  0.00    -0.237 OA
ATOM     72  O   UNL A   1      36.702  33.886  29.109  1.00  0.00    -0.744 OA
ENDBRANCH  65  69
ENDBRANCH  48  62
BRANCH  49  73
ATOM     73  C   UNL A   1      47.002  27.643  25.541  1.00  0.00     0.023 A 
ATOM     74  C   UNL A   1      47.133  27.975  24.183  1.00  0.00     0.031 A 
ATOM     75  C   UNL A   1      47.983  26.817  26.117  1.00  0.00     0.131 A 
ATOM     76  C   UNL A   1      48.201  27.452  23.436  1.00  0.00     0.055 A 
ATOM     77  C   UNL A   1      49.069  26.339  25.382  1.00  0.00     0.041 A 
ATOM     78  F   UNL A   1      47.904  26.470  27.411  1.00  0.00    -0.206 F 
ATOM     79  C   UNL A   1      49.176  26.647  24.029  1.00  0.00     0.022 A 
BRANCH  76  80
ATOM     80  S   UNL A   1      48.261  27.787  21.655  1.00  0.00     0.124 S 
ATOM     81  O   UNL A   1      46.924  28.314  21.406  1.00  0.00    -0.237 OA
ATOM     82  O   UNL A   1      49.357  28.746  21.564  1.00  0.00    -0.237 OA
ATOM     83  O   UNL A   1      48.534  26.475  21.072  1.00  0.00    -0.744 OA
ENDBRANCH  76  80
ENDBRANCH  49  73
BRANCH  61  84
ATOM     84  C   UNL A   1      45.614  33.599  28.896  1.00  0.00     0.023 A 
ATOM     85  C   UNL A   1      45.536  34.711  28.038  1.00  0.00     0.031 A 
ATOM     86  C   UNL A   1      46.505  33.667  29.983  1.00  0.00     0.131 A 
ATOM     87  C   UNL A   1      46.379  35.814  28.244  1.00  0.00     0.055 A 
ATOM     88  C   UNL A   1      47.295  34.793  30.219  1.00  0.00     0.041 A 
ATOM     89  F   UNL A   1      46.625  32.635  30.835  1.00  0.00    -0.206 F 
ATOM     90  C   UNL A   1      47.246  35.869  29.338  1.00  0.00     0.022 A 
BRANCH  87  91
ATOM     91  S   UNL A   1      46.409  37.133  26.998  1.00  0.00     0.124 S 
ATOM     92  O   UNL A   1      45.007  37.536  26.949  1.00  0.00    -0.237 OA
ATOM     93  O   UNL A   1      47.330  38.098  27.587  1.00  0.00    -0.237 OA
ATOM     94  O   UNL A   1      46.901  36.459  25.797  1.00  0.00    -0.744 OA
ENDBRANCH  87  91
ENDBRANCH  61  84
ENDBRANCH  35  36
ENDBRANCH  28  30
ENDBRANCH  27  28
ENDBRANCH  26  27
ENDBRANCH  25  26
ENDBRANCH  24  25
ENDBRANCH   1  24
TORSDOF 23
ENDMDL
MODEL 3
REMARK VINA RESULT:     -10.3      2.181      3.425
REMARK SMILES C[C@](NC(=O)CSCc1cccs1)(C(=O)OCCOCCOC(=O)c1ccc(-c2c3nc(c(-c4cc(S(=O)(=O)[O-])ccc4F)c4ccc([nH]4)c(-c4cc(S(=O)(=O)[O-])ccc4F)c4nc(c(-c5cc(S(=O)(=O)[O-])ccc5F)c5ccc2[nH]5)C=C4)C=C3)cc1)C(F)(F)F
REMARK SMILES IDX 18 1 17 2 16 3 14 4 15 5 2 6 1 7 88 8 89 9 90 10 91 11 3 12
REMARK SMILES IDX 4 13 5 15 6 16 7 17 8 18 9 19 10 20 13 21 11 22 12 23 19 24
REMARK SMILES IDX 20 25 21 26 22 27 23 28 24 29 25 30 26 31 87 32 27 33 86 34
REMARK SMILES IDX 28 35 29 36 30 37 80 38 31 39 85 40 79 41 81 42 32 43 84 44
REMARK SMILES IDX 78 45 77 46 33 48 65 49 45 50 64 51 46 52 49 53 63 54 82 55
REMARK SMILES IDX 47 56 48 57 62 59 83 60 50 61 34 62 35 63 43 64 36 65 42 66
REMARK SMILES IDX 44 67 41 68 37 69 38 70 39 71 40 72 66 73 67 74 75 75 68 76
REMARK SMILES IDX 74 77 76 78 73 79 69 80 70 81 71 82 72 83 51 84 52 85 60 86
REMARK SMILES IDX 53 87 59 88 61 89 58 90 54 91 55 92 56 93 57 94
REMARK H PARENT 3 14 81 47 49 58
REMARK Flexibility Score: inf
ROOT
ATOM      1  C   UNL A   1      35.555  23.837  24.195  1.00  0.00     0.202 C 
ENDROOT
BRANCH   1   2
ATOM      2  C   UNL A   1      34.916  24.775  25.223  1.00  0.00     0.261 C 
BRANCH   2   3
ATOM      3  O   UNL A   1      34.064  25.748  24.588  1.00  0.00    -0.461 OA
BRANCH   3   4
ATOM      4  C   UNL A   1      33.179  26.394  25.398  1.00  0.00     0.341 C 
ATOM      5  O   UNL A   1      32.923  26.049  26.546  1.00  0.00    -0.249 OA
BRANCH   4   6
ATOM      6  C   UNL A   1      32.516  27.598  24.713  1.00  0.00     0.231 C 
ATOM      7  C   UNL A   1      31.425  28.125  25.646  1.00  0.00     0.058 C 
BRANCH   6   8
ATOM      8  C   UNL A   1      33.631  28.666  24.651  1.00  0.00     0.422 C 
ATOM      9  F   UNL A   1      33.117  29.919  24.625  1.00  0.00    -0.168 F 
ATOM     10  F   UNL A   1      34.398  28.599  25.774  1.00  0.00    -0.168 F 
ATOM     11  F   UNL A   1      34.472  28.540  23.608  1.00  0.00    -0.168 F 
ENDBRANCH   6   8
BRANCH   6  12
ATOM     12  N   UNL A   1      32.055  27.302  23.305  1.00  0.00    -0.332 N 
ATOM     13  C   UNL A   1      31.260  26.395  22.692  1.00  0.00     0.231 C 
ATOM     14  H   UNL A   1      32.437  27.941  22.659  1.00  0.00     0.164 HD
ATOM     15  O   UNL A   1      31.307  26.374  21.458  1.00  0.00    -0.274 OA
BRANCH  13  16
ATOM     16  C   UNL A   1      30.313  25.491  23.440  1.00  0.00     0.169 C 
BRANCH  16  17
ATOM     17  S   UNL A   1      30.899  23.774  23.469  1.00  0.00    -0.146 SA
BRANCH  17  18
ATOM     18  C   UNL A   1      30.996  23.489  25.260  1.00  0.00     0.116 C 
BRANCH  18  19
ATOM     19  C   UNL A   1      32.063  22.559  25.775  1.00  0.00     0.014 A 
ATOM     20  C   UNL A   1      32.715  21.601  25.015  1.00  0.00     0.016 A 
ATOM     21  S   UNL A   1      32.698  22.593  27.369  1.00  0.00    -0.148 S 
ATOM     22  C   UNL A   1      33.696  20.879  25.750  1.00  0.00     0.012 A 
ATOM     23  C   UNL A   1      33.773  21.304  27.055  1.00  0.00     0.065 A 
ENDBRANCH  18  19
ENDBRANCH  17  18
ENDBRANCH  16  17
ENDBRANCH  13  16
ENDBRANCH   6  12
ENDBRANCH   4   6
ENDBRANCH   3   4
ENDBRANCH   2   3
ENDBRANCH   1   2
BRANCH   1  24
ATOM     24  O   UNL A   1      36.739  23.160  24.619  1.00  0.00    -0.374 OA
BRANCH  24  25
ATOM     25  C   UNL A   1      36.934  21.829  24.142  1.00  0.00     0.202 C 
BRANCH  25  26
ATOM     26  C   UNL A   1      37.916  20.935  24.906  1.00  0.00     0.261 C 
BRANCH  26  27
ATOM     27  O   UNL A   1      38.314  21.513  26.160  1.00  0.00    -0.460 OA
BRANCH  27  28
ATOM     28  C   UNL A   1      39.654  21.621  26.316  1.00  0.00     0.338 C 
ATOM     29  O   UNL A   1      40.510  20.946  25.756  1.00  0.00    -0.246 OA
BRANCH  28  30
ATOM     30  C   UNL A   1      39.995  22.810  27.120  1.00  0.00     0.060 A 
ATOM     31  C   UNL A   1      39.168  23.929  26.973  1.00  0.00     0.016 A 
ATOM     32  C   UNL A   1      41.142  22.874  27.917  1.00  0.00     0.016 A 
ATOM     33  C   UNL A   1      39.528  25.145  27.544  1.00  0.00     0.010 A 
ATOM     34  C   UNL A   1      41.507  24.100  28.486  1.00  0.00     0.010 A 
ATOM     35  C   UNL A   1      40.731  25.252  28.254  1.00  0.00    -0.014 A 
BRANCH  35  36
ATOM     36  C   UNL A   1      41.261  26.607  28.548  1.00  0.00     0.031 A 
ATOM     37  C   UNL A   1      42.662  26.943  28.106  1.00  0.00     0.074 A 
ATOM     38  C   UNL A   1      40.486  27.545  29.118  1.00  0.00     0.049 A 
ATOM     39  N   UNL A   1      43.326  28.063  28.220  1.00  0.00    -0.248 NA
ATOM     40  C   UNL A   1      43.412  25.861  27.451  1.00  0.00     0.031 C 
ATOM     41  C   UNL A   1      39.098  27.355  29.534  1.00  0.00     0.029 A 
ATOM     42  N   UNL A   1      40.757  28.852  29.434  1.00  0.00    -0.354 N 
ATOM     43  C   UNL A   1      44.575  27.821  27.656  1.00  0.00     0.074 A 
ATOM     44  C   UNL A   1      44.588  26.434  27.245  1.00  0.00     0.031 C 
ATOM     45  C   UNL A   1      38.635  28.509  30.044  1.00  0.00     0.029 A 
ATOM     46  C   UNL A   1      39.702  29.508  30.020  1.00  0.00     0.049 A 
ATOM     47  H   UNL A   1      41.626  29.280  29.257  1.00  0.00     0.167 HD
ATOM     48  C   UNL A   1      45.612  28.679  27.484  1.00  0.00     0.034 A 
ATOM     49  C   UNL A   1      39.612  30.769  30.491  1.00  0.00     0.034 A 
ATOM     50  C   UNL A   1      45.586  30.060  27.906  1.00  0.00     0.049 A 
ATOM     51  C   UNL A   1      40.805  31.685  30.364  1.00  0.00     0.074 A 
ATOM     52  C   UNL A   1      46.572  31.022  27.777  1.00  0.00     0.029 A 
ATOM     53  N   UNL A   1      44.519  30.673  28.553  1.00  0.00    -0.354 N 
ATOM     54  N   UNL A   1      41.980  31.447  29.828  1.00  0.00    -0.248 NA
ATOM     55  C   UNL A   1      40.651  33.046  30.896  1.00  0.00     0.031 C 
ATOM     56  C   UNL A   1      46.133  32.191  28.409  1.00  0.00     0.029 A 
ATOM     57  C   UNL A   1      44.838  31.988  28.859  1.00  0.00     0.049 A 
ATOM     58  H   UNL A   1      43.662  30.237  28.763  1.00  0.00     0.167 HD
ATOM     59  C   UNL A   1      42.690  32.643  29.921  1.00  0.00     0.074 A 
ATOM     60  C   UNL A   1      41.808  33.598  30.561  1.00  0.00     0.031 C 
ATOM     61  C   UNL A   1      43.952  32.929  29.507  1.00  0.00     0.034 A 
BRANCH  48  62
ATOM     62  C   UNL A   1      46.876  28.119  26.873  1.00  0.00     0.023 A 
ATOM     63  C   UNL A   1      47.151  28.227  25.498  1.00  0.00     0.031 A 
ATOM     64  C   UNL A   1      47.790  27.406  27.669  1.00  0.00     0.131 A 
ATOM     65  C   UNL A   1      48.255  27.557  24.949  1.00  0.00     0.055 A 
ATOM     66  C   UNL A   1      48.937  26.817  27.130  1.00  0.00     0.041 A 
ATOM     67  F   UNL A   1      47.573  27.245  28.984  1.00  0.00    -0.206 F 
ATOM     68  C   UNL A   1      49.164  26.874  25.759  1.00  0.00     0.022 A 
BRANCH  65  69
ATOM     69  S   UNL A   1      48.387  27.439  23.142  1.00  0.00     0.124 S 
ATOM     70  O   UNL A   1      49.675  28.085  22.897  1.00  0.00    -0.237 OA
ATOM     71  O   UNL A   1      48.340  26.000  22.917  1.00  0.00    -0.237 OA
ATOM     72  O   UNL A   1      47.224  28.185  22.664  1.00  0.00    -0.744 OA
ENDBRANCH  65  69
ENDBRANCH  48  62
BRANCH  49  73
ATOM     73  C   UNL A   1      38.357  31.240  31.142  1.00  0.00     0.023 A 
ATOM     74  C   UNL A   1      37.319  31.813  30.390  1.00  0.00     0.031 A 
ATOM     75  C   UNL A   1      38.197  31.162  32.537  1.00  0.00     0.131 A 
ATOM     76  C   UNL A   1      36.183  32.321  31.041  1.00  0.00     0.055 A 
ATOM     77  C   UNL A   1      37.044  31.624  33.174  1.00  0.00     0.041 A 
ATOM     78  F   UNL A   1      39.160  30.623  33.301  1.00  0.00    -0.206 F 
ATOM     79  C   UNL A   1      36.034  32.218  32.426  1.00  0.00     0.022 A 
BRANCH  76  80
ATOM     80  S   UNL A   1      34.928  33.179  30.053  1.00  0.00     0.124 S 
ATOM     81  O   UNL A   1      35.726  34.190  29.370  1.00  0.00    -0.237 OA
ATOM     82  O   UNL A   1      34.407  32.100  29.220  1.00  0.00    -0.237 OA
ATOM     83  O   UNL A   1      33.997  33.691  31.058  1.00  0.00    -0.744 OA
ENDBRANCH  76  80
ENDBRANCH  49  73
BRANCH  61  84
ATOM     84  C   UNL A   1      44.426  34.354  29.680  1.00  0.00     0.023 A 
ATOM     85  C   UNL A   1      44.449  35.268  28.611  1.00  0.00     0.031 A 
ATOM     86  C   UNL A   1      44.882  34.796  30.936  1.00  0.00     0.131 A 
ATOM     87  C   UNL A   1      44.977  36.555  28.803  1.00  0.00     0.055 A 
ATOM     88  C   UNL A   1      45.345  36.098  31.135  1.00  0.00     0.041 A 
ATOM     89  F   UNL A   1      44.886  33.968  31.992  1.00  0.00    -0.206 F 
ATOM     90  C   UNL A   1      45.409  36.981  30.061  1.00  0.00     0.022 A 
BRANCH  87  91
ATOM     91  S   UNL A   1      45.193  37.633  27.359  1.00  0.00     0.124 S 
ATOM     92  O   UNL A   1      46.142  38.623  27.859  1.00  0.00    -0.237 OA
ATOM     93  O   UNL A   1      45.707  36.708  26.354  1.00  0.00    -0.237 OA
ATOM     94  O   UNL A   1      43.846  38.139  27.104  1.00  0.00    -0.744 OA
ENDBRANCH  87  91
ENDBRANCH  61  84
ENDBRANCH  35  36
ENDBRANCH  28  30
ENDBRANCH  27  28
ENDBRANCH  26  27
ENDBRANCH  25  26
ENDBRANCH  24  25
ENDBRANCH   1  24
TORSDOF 23
ENDMDL
