MODEL 1
REMARK VINA RESULT:     -12.2      0.000      0.000
REMARK SMILES O=C(OCCOCCOC(=O)[C@@H]1CCn2c(C(=O)c3ccccc3)ccc21)c1ccc(-c2c3nc(c(-c4cc(S(=O)(=O)[O-])ccc4F)c4ccc([nH]4)c(-c4cc(S(=O)(=O)[O-])ccc4F)c4nc(c(-c5cc(S(=O)(=O)[O-])ccc5F)c5ccc2[nH]5)C=C4)C=C3)cc1
REMARK SMILES IDX 5 1 4 2 3 3 2 4 1 5 28 6 29 7 90 8 30 9 89 10 31 11 32 12
REMARK SMILES IDX 33 13 83 14 34 15 88 16 82 17 84 18 35 19 87 20 81 21 80 22
REMARK SMILES IDX 36 24 68 25 48 26 67 27 49 28 52 29 66 30 85 31 50 32 51 33
REMARK SMILES IDX 65 35 86 36 53 37 37 38 38 39 46 40 39 41 45 42 47 43 44 44
REMARK SMILES IDX 40 45 41 46 42 47 43 48 69 49 70 50 78 51 71 52 77 53 79 54
REMARK SMILES IDX 76 55 72 56 73 57 74 58 75 59 54 60 55 61 63 62 56 63 62 64
REMARK SMILES IDX 64 65 61 66 57 67 58 68 59 69 60 70 6 71 7 72 8 73 9 74
REMARK SMILES IDX 10 75 11 76 12 77 13 78 27 79 14 80 15 81 26 82 16 83 25 84
REMARK SMILES IDX 17 85 18 86 19 87 20 88 24 89 21 90 23 91 22 92
REMARK H PARENT 84 23 52 34
REMARK Flexibility Score: inf
ROOT
ATOM      1  C   UNL A   1      46.747  22.375  38.395  1.00  0.00     0.202 C 
ENDROOT
BRANCH   1   2
ATOM      2  C   UNL A   1      47.379  23.316  37.374  1.00  0.00     0.261 C 
BRANCH   2   3
ATOM      3  O   UNL A   1      46.390  24.236  36.882  1.00  0.00    -0.460 OA
BRANCH   3   4
ATOM      4  C   UNL A   1      46.639  25.399  36.232  1.00  0.00     0.338 C 
ATOM      5  O   UNL A   1      47.790  25.823  36.170  1.00  0.00    -0.246 OA
BRANCH   4   6
ATOM      6  C   UNL A   1      45.554  26.178  35.579  1.00  0.00     0.060 A 
ATOM      7  C   UNL A   1      45.769  27.422  34.991  1.00  0.00     0.016 A 
ATOM      8  C   UNL A   1      44.292  25.592  35.448  1.00  0.00     0.016 A 
ATOM      9  C   UNL A   1      44.778  28.110  34.337  1.00  0.00     0.010 A 
ATOM     10  C   UNL A   1      43.295  26.242  34.714  1.00  0.00     0.010 A 
ATOM     11  C   UNL A   1      43.558  27.492  34.138  1.00  0.00    -0.014 A 
BRANCH  11  12
ATOM     12  C   UNL A   1      42.595  28.217  33.305  1.00  0.00     0.031 A 
ATOM     13  C   UNL A   1      41.735  29.240  33.956  1.00  0.00     0.074 A 
ATOM     14  C   UNL A   1      42.626  28.022  31.972  1.00  0.00     0.049 A 
ATOM     15  N   UNL A   1      40.726  29.893  33.461  1.00  0.00    -0.248 NA
ATOM     16  C   UNL A   1      42.058  29.580  35.353  1.00  0.00     0.031 C 
ATOM     17  C   UNL A   1      43.584  27.158  31.266  1.00  0.00     0.029 A 
ATOM     18  N   UNL A   1      41.860  28.544  30.969  1.00  0.00    -0.354 N 
ATOM     19  C   UNL A   1      40.248  30.676  34.502  1.00  0.00     0.074 A 
ATOM     20  C   UNL A   1      41.097  30.441  35.647  1.00  0.00     0.031 C 
ATOM     21  C   UNL A   1      43.346  27.217  29.948  1.00  0.00     0.029 A 
ATOM     22  C   UNL A   1      42.153  28.019  29.729  1.00  0.00     0.049 A 
ATOM     23  H   UNL A   1      41.167  29.227  31.117  1.00  0.00     0.167 HD
ATOM     24  C   UNL A   1      39.165  31.483  34.481  1.00  0.00     0.034 A 
ATOM     25  C   UNL A   1      41.469  28.114  28.574  1.00  0.00     0.034 A 
ATOM     26  C   UNL A   1      38.368  31.664  33.294  1.00  0.00     0.049 A 
ATOM     27  C   UNL A   1      40.198  28.926  28.613  1.00  0.00     0.074 A 
ATOM     28  C   UNL A   1      37.225  32.420  33.127  1.00  0.00     0.029 A 
ATOM     29  N   UNL A   1      38.638  31.061  32.068  1.00  0.00    -0.354 N 
ATOM     30  N   UNL A   1      39.696  29.619  29.614  1.00  0.00    -0.248 NA
ATOM     31  C   UNL A   1      39.387  28.953  27.393  1.00  0.00     0.031 C 
ATOM     32  C   UNL A   1      36.759  32.208  31.826  1.00  0.00     0.029 A 
ATOM     33  C   UNL A   1      37.655  31.388  31.153  1.00  0.00     0.049 A 
ATOM     34  H   UNL A   1      39.415  30.486  31.881  1.00  0.00     0.167 HD
ATOM     35  C   UNL A   1      38.515  30.172  29.139  1.00  0.00     0.074 A 
ATOM     36  C   UNL A   1      38.398  29.758  27.754  1.00  0.00     0.031 C 
ATOM     37  C   UNL A   1      37.598  30.940  29.781  1.00  0.00     0.034 A 
BRANCH  24  38
ATOM     38  C   UNL A   1      38.728  32.090  35.785  1.00  0.00     0.023 A 
ATOM     39  C   UNL A   1      38.144  31.334  36.814  1.00  0.00     0.031 A 
ATOM     40  C   UNL A   1      38.844  33.480  35.969  1.00  0.00     0.131 A 
ATOM     41  C   UNL A   1      37.650  31.980  37.959  1.00  0.00     0.055 A 
ATOM     42  C   UNL A   1      38.416  34.108  37.138  1.00  0.00     0.041 A 
ATOM     43  F   UNL A   1      39.356  34.256  34.999  1.00  0.00    -0.206 F 
ATOM     44  C   UNL A   1      37.805  33.358  38.138  1.00  0.00     0.022 A 
BRANCH  41  45
ATOM     45  S   UNL A   1      36.689  31.018  39.158  1.00  0.00     0.124 S 
ATOM     46  O   UNL A   1      36.600  29.721  38.491  1.00  0.00    -0.237 OA
ATOM     47  O   UNL A   1      37.527  31.067  40.350  1.00  0.00    -0.237 OA
ATOM     48  O   UNL A   1      35.426  31.750  39.254  1.00  0.00    -0.744 OA
ENDBRANCH  41  45
ENDBRANCH  24  38
BRANCH  25  49
ATOM     49  C   UNL A   1      41.871  27.337  27.362  1.00  0.00     0.023 A 
ATOM     50  C   UNL A   1      41.699  25.946  27.298  1.00  0.00     0.031 A 
ATOM     51  C   UNL A   1      42.519  27.961  26.278  1.00  0.00     0.131 A 
ATOM     52  C   UNL A   1      42.223  25.222  26.215  1.00  0.00     0.055 A 
ATOM     53  C   UNL A   1      42.972  27.246  25.166  1.00  0.00     0.041 A 
ATOM     54  F   UNL A   1      42.732  29.288  26.279  1.00  0.00    -0.206 F 
ATOM     55  C   UNL A   1      42.844  25.863  25.141  1.00  0.00     0.022 A 
BRANCH  52  56
ATOM     56  S   UNL A   1      42.212  23.409  26.297  1.00  0.00     0.124 S 
ATOM     57  O   UNL A   1      42.854  23.052  25.037  1.00  0.00    -0.237 OA
ATOM     58  O   UNL A   1      42.989  23.158  27.507  1.00  0.00    -0.237 OA
ATOM     59  O   UNL A   1      40.792  23.080  26.389  1.00  0.00    -0.744 OA
ENDBRANCH  52  56
ENDBRANCH  25  49
BRANCH  37  60
ATOM     60  C   UNL A   1      36.418  31.391  28.964  1.00  0.00     0.023 A 
ATOM     61  C   UNL A   1      35.457  30.477  28.508  1.00  0.00     0.031 A 
ATOM     62  C   UNL A   1      36.247  32.753  28.668  1.00  0.00     0.131 A 
ATOM     63  C   UNL A   1      34.379  30.934  27.739  1.00  0.00     0.055 A 
ATOM     64  C   UNL A   1      35.138  33.210  27.960  1.00  0.00     0.041 A 
ATOM     65  F   UNL A   1      37.145  33.662  29.083  1.00  0.00    -0.206 F 
ATOM     66  C   UNL A   1      34.201  32.296  27.484  1.00  0.00     0.022 A 
BRANCH  63  67
ATOM     67  S   UNL A   1      33.251  29.714  27.020  1.00  0.00     0.124 S 
ATOM     68  O   UNL A   1      33.620  28.499  27.740  1.00  0.00    -0.237 OA
ATOM     69  O   UNL A   1      31.940  30.270  27.339  1.00  0.00    -0.237 OA
ATOM     70  O   UNL A   1      33.597  29.723  25.600  1.00  0.00    -0.744 OA
ENDBRANCH  63  67
ENDBRANCH  37  60
ENDBRANCH  11  12
ENDBRANCH   4   6
ENDBRANCH   3   4
ENDBRANCH   2   3
ENDBRANCH   1   2
BRANCH   1  71
ATOM     71  O   UNL A   1      47.213  21.033  38.378  1.00  0.00    -0.374 OA
BRANCH  71  72
ATOM     72  C   UNL A   1      46.784  20.164  39.417  1.00  0.00     0.202 C 
BRANCH  72  73
ATOM     73  C   UNL A   1      46.718  18.754  38.826  1.00  0.00     0.261 C 
BRANCH  73  74
ATOM     74  O   UNL A   1      45.420  18.194  39.100  1.00  0.00    -0.463 OA
BRANCH  74  75
ATOM     75  C   UNL A   1      45.362  17.114  39.943  1.00  0.00     0.315 C 
ATOM     76  O   UNL A   1      46.135  16.172  39.929  1.00  0.00    -0.251 OA
BRANCH  75  77
ATOM     77  C   UNL A   1      44.173  17.250  40.891  1.00  0.00     0.148 C 
ATOM     78  C   UNL A   1      44.602  17.245  42.388  1.00  0.00     0.043 C 
ATOM     79  C   UNL A   1      43.216  16.092  40.869  1.00  0.00     0.033 A 
ATOM     80  C   UNL A   1      43.473  16.568  43.148  1.00  0.00     0.124 C 
ATOM     81  N   UNL A   1      42.864  15.721  42.140  1.00  0.00    -0.341 N 
ATOM     82  C   UNL A   1      42.550  15.264  40.004  1.00  0.00     0.025 A 
ATOM     83  C   UNL A   1      42.079  14.606  42.161  1.00  0.00     0.090 A 
ATOM     84  C   UNL A   1      41.895  14.285  40.816  1.00  0.00     0.032 A 
BRANCH  83  85
ATOM     85  C   UNL A   1      41.569  13.876  43.316  1.00  0.00     0.209 C 
ATOM     86  O   UNL A   1      40.639  14.273  44.015  1.00  0.00    -0.287 OA
BRANCH  85  87
ATOM     87  C   UNL A   1      42.180  12.573  43.679  1.00  0.00     0.024 A 
ATOM     88  C   UNL A   1      43.180  12.537  44.656  1.00  0.00     0.012 A 
ATOM     89  C   UNL A   1      41.714  11.386  43.101  1.00  0.00     0.012 A 
ATOM     90  C   UNL A   1      43.650  11.304  45.113  1.00  0.00     0.001 A 
ATOM     91  C   UNL A   1      42.168  10.158  43.581  1.00  0.00     0.001 A 
ATOM     92  C   UNL A   1      43.125  10.118  44.595  1.00  0.00     0.000 A 
ENDBRANCH  85  87
ENDBRANCH  83  85
ENDBRANCH  75  77
ENDBRANCH  74  75
ENDBRANCH  73  74
ENDBRANCH  72  73
ENDBRANCH  71  72
ENDBRANCH   1  71
TORSDOF 19
ENDMDL
MODEL 2
REMARK VINA RESULT:     -12.1      6.909     15.528
REMARK SMILES O=C(OCCOCCOC(=O)[C@@H]1CCn2c(C(=O)c3ccccc3)ccc21)c1ccc(-c2c3nc(c(-c4cc(S(=O)(=O)[O-])ccc4F)c4ccc([nH]4)c(-c4cc(S(=O)(=O)[O-])ccc4F)c4nc(c(-c5cc(S(=O)(=O)[O-])ccc5F)c5ccc2[nH]5)C=C4)C=C3)cc1
REMARK SMILES IDX 5 1 4 2 3 3 2 4 1 5 28 6 29 7 90 8 30 9 89 10 31 11 32 12
REMARK SMILES IDX 33 13 83 14 34 15 88 16 82 17 84 18 35 19 87 20 81 21 80 22
REMARK SMILES IDX 36 24 68 25 48 26 67 27 49 28 52 29 66 30 85 31 50 32 51 33
REMARK SMILES IDX 65 35 86 36 53 37 37 38 38 39 46 40 39 41 45 42 47 43 44 44
REMARK SMILES IDX 40 45 41 46 42 47 43 48 69 49 70 50 78 51 71 52 77 53 79 54
REMARK SMILES IDX 76 55 72 56 73 57 74 58 75 59 54 60 55 61 63 62 56 63 62 64
REMARK SMILES IDX 64 65 61 66 57 67 58 68 59 69 60 70 6 71 7 72 8 73 9 74
REMARK SMILES IDX 10 75 11 76 12 77 13 78 27 79 14 80 15 81 26 82 16 83 25 84
REMARK SMILES IDX 17 85 18 86 19 87 20 88 24 89 21 90 23 91 22 92
REMARK H PARENT 84 23 52 34
REMARK Flexibility Score: inf
ROOT
ATOM      1  C   UNL A   1      31.287  31.671  26.691  1.00  0.00     0.202 C 
ENDROOT
BRANCH   1   2
ATOM      2  C   UNL A   1      31.884  33.063  26.512  1.00  0.00     0.261 C 
BRANCH   2   3
ATOM      3  O   UNL A   1      32.445  33.516  27.755  1.00  0.00    -0.460 OA
BRANCH   3   4
ATOM      4  C   UNL A   1      33.697  34.003  27.932  1.00  0.00     0.338 C 
ATOM      5  O   UNL A   1      33.930  35.182  27.679  1.00  0.00    -0.246 OA
BRANCH   4   6
ATOM      6  C   UNL A   1      34.805  33.149  28.436  1.00  0.00     0.060 A 
ATOM      7  C   UNL A   1      36.084  33.640  28.680  1.00  0.00     0.016 A 
ATOM      8  C   UNL A   1      34.526  31.824  28.787  1.00  0.00     0.016 A 
ATOM      9  C   UNL A   1      37.088  32.862  29.202  1.00  0.00     0.010 A 
ATOM     10  C   UNL A   1      35.512  31.043  29.396  1.00  0.00     0.010 A 
ATOM     11  C   UNL A   1      36.785  31.581  29.624  1.00  0.00    -0.014 A 
BRANCH  11  12
ATOM     12  C   UNL A   1      37.860  30.857  30.308  1.00  0.00     0.031 A 
ATOM     13  C   UNL A   1      38.040  31.081  31.766  1.00  0.00     0.074 A 
ATOM     14  C   UNL A   1      38.545  29.925  29.616  1.00  0.00     0.049 A 
ATOM     15  N   UNL A   1      38.999  30.672  32.542  1.00  0.00    -0.248 NA
ATOM     16  C   UNL A   1      36.996  31.868  32.445  1.00  0.00     0.031 C 
ATOM     17  C   UNL A   1      38.277  29.540  28.222  1.00  0.00     0.029 A 
ATOM     18  N   UNL A   1      39.583  29.116  29.982  1.00  0.00    -0.354 N 
ATOM     19  C   UNL A   1      38.713  31.204  33.791  1.00  0.00     0.074 A 
ATOM     20  C   UNL A   1      37.474  31.938  33.677  1.00  0.00     0.031 C 
ATOM     21  C   UNL A   1      39.127  28.568  27.860  1.00  0.00     0.029 A 
ATOM     22  C   UNL A   1      40.070  28.351  28.945  1.00  0.00     0.049 A 
ATOM     23  H   UNL A   1      39.947  29.083  30.896  1.00  0.00     0.167 HD
ATOM     24  C   UNL A   1      39.463  31.100  34.910  1.00  0.00     0.034 A 
ATOM     25  C   UNL A   1      41.205  27.631  28.870  1.00  0.00     0.034 A 
ATOM     26  C   UNL A   1      40.690  30.346  34.942  1.00  0.00     0.049 A 
ATOM     27  C   UNL A   1      42.081  27.632  30.098  1.00  0.00     0.074 A 
ATOM     28  C   UNL A   1      41.575  30.177  35.988  1.00  0.00     0.029 A 
ATOM     29  N   UNL A   1      41.206  29.641  33.857  1.00  0.00    -0.354 N 
ATOM     30  N   UNL A   1      41.854  28.190  31.269  1.00  0.00    -0.248 NA
ATOM     31  C   UNL A   1      43.369  26.941  29.998  1.00  0.00     0.031 C 
ATOM     32  C   UNL A   1      42.664  29.441  35.512  1.00  0.00     0.029 A 
ATOM     33  C   UNL A   1      42.422  29.078  34.193  1.00  0.00     0.049 A 
ATOM     34  H   UNL A   1      40.769  29.557  32.979  1.00  0.00     0.167 HD
ATOM     35  C   UNL A   1      42.968  27.907  32.047  1.00  0.00     0.074 A 
ATOM     36  C   UNL A   1      43.849  27.102  31.223  1.00  0.00     0.031 C 
ATOM     37  C   UNL A   1      43.254  28.282  33.320  1.00  0.00     0.034 A 
BRANCH  24  38
ATOM     38  C   UNL A   1      39.047  31.917  36.101  1.00  0.00     0.023 A 
ATOM     39  C   UNL A   1      38.231  31.405  37.123  1.00  0.00     0.031 A 
ATOM     40  C   UNL A   1      39.431  33.269  36.175  1.00  0.00     0.131 A 
ATOM     41  C   UNL A   1      37.781  32.256  38.146  1.00  0.00     0.055 A 
ATOM     42  C   UNL A   1      39.039  34.091  37.231  1.00  0.00     0.041 A 
ATOM     43  F   UNL A   1      40.175  33.821  35.202  1.00  0.00    -0.206 F 
ATOM     44  C   UNL A   1      38.201  33.587  38.221  1.00  0.00     0.022 A 
BRANCH  41  45
ATOM     45  S   UNL A   1      36.540  31.635  39.314  1.00  0.00     0.124 S 
ATOM     46  O   UNL A   1      35.460  32.601  39.135  1.00  0.00    -0.237 OA
ATOM     47  O   UNL A   1      36.282  30.288  38.817  1.00  0.00    -0.237 OA
ATOM     48  O   UNL A   1      37.221  31.703  40.607  1.00  0.00    -0.744 OA
ENDBRANCH  41  45
ENDBRANCH  24  38
BRANCH  25  49
ATOM     49  C   UNL A   1      41.639  26.989  27.592  1.00  0.00     0.023 A 
ATOM     50  C   UNL A   1      41.556  25.600  27.409  1.00  0.00     0.031 A 
ATOM     51  C   UNL A   1      42.231  27.745  26.560  1.00  0.00     0.131 A 
ATOM     52  C   UNL A   1      42.111  25.008  26.262  1.00  0.00     0.055 A 
ATOM     53  C   UNL A   1      42.712  27.160  25.388  1.00  0.00     0.041 A 
ATOM     54  F   UNL A   1      42.357  29.078  26.676  1.00  0.00    -0.206 F 
ATOM     55  C   UNL A   1      42.673  25.779  25.243  1.00  0.00     0.022 A 
BRANCH  52  56
ATOM     56  S   UNL A   1      42.219  23.199  26.187  1.00  0.00     0.124 S 
ATOM     57  O   UNL A   1      43.094  22.907  27.317  1.00  0.00    -0.237 OA
ATOM     58  O   UNL A   1      40.822  22.806  26.339  1.00  0.00    -0.237 OA
ATOM     59  O   UNL A   1      42.797  22.946  24.869  1.00  0.00    -0.744 OA
ENDBRANCH  52  56
ENDBRANCH  25  49
BRANCH  37  60
ATOM     60  C   UNL A   1      44.560  27.791  33.882  1.00  0.00     0.023 A 
ATOM     61  C   UNL A   1      44.680  26.502  34.422  1.00  0.00     0.031 A 
ATOM     62  C   UNL A   1      45.696  28.616  33.847  1.00  0.00     0.131 A 
ATOM     63  C   UNL A   1      45.910  26.085  34.947  1.00  0.00     0.055 A 
ATOM     64  C   UNL A   1      46.932  28.172  34.310  1.00  0.00     0.041 A 
ATOM     65  F   UNL A   1      45.624  29.858  33.341  1.00  0.00    -0.206 F 
ATOM     66  C   UNL A   1      47.041  26.903  34.872  1.00  0.00     0.022 A 
BRANCH  63  67
ATOM     67  S   UNL A   1      45.992  24.485  35.791  1.00  0.00     0.124 S 
ATOM     68  O   UNL A   1      47.310  24.540  36.417  1.00  0.00    -0.237 OA
ATOM     69  O   UNL A   1      44.852  24.549  36.699  1.00  0.00    -0.237 OA
ATOM     70  O   UNL A   1      45.862  23.518  34.702  1.00  0.00    -0.744 OA
ENDBRANCH  63  67
ENDBRANCH  37  60
ENDBRANCH  11  12
ENDBRANCH   4   6
ENDBRANCH   3   4
ENDBRANCH   2   3
ENDBRANCH   1   2
BRANCH   1  71
ATOM     71  O   UNL A   1      32.217  30.609  26.852  1.00  0.00    -0.374 OA
BRANCH  71  72
ATOM     72  C   UNL A   1      31.826  29.308  26.435  1.00  0.00     0.202 C 
BRANCH  72  73
ATOM     73  C   UNL A   1      33.072  28.422  26.496  1.00  0.00     0.261 C 
BRANCH  73  74
ATOM     74  O   UNL A   1      33.615  28.291  25.169  1.00  0.00    -0.463 OA
BRANCH  74  75
ATOM     75  C   UNL A   1      33.406  27.104  24.514  1.00  0.00     0.315 C 
ATOM     76  O   UNL A   1      33.894  26.033  24.833  1.00  0.00    -0.251 OA
BRANCH  75  77
ATOM     77  C   UNL A   1      32.490  27.320  23.313  1.00  0.00     0.148 C 
ATOM     78  C   UNL A   1      32.455  28.807  22.851  1.00  0.00     0.043 C 
ATOM     79  C   UNL A   1      31.032  27.075  23.581  1.00  0.00     0.033 A 
ATOM     80  C   UNL A   1      31.049  29.054  22.328  1.00  0.00     0.124 C 
ATOM     81  N   UNL A   1      30.258  28.069  23.042  1.00  0.00    -0.341 N 
ATOM     82  C   UNL A   1      30.185  26.182  24.184  1.00  0.00     0.025 A 
ATOM     83  C   UNL A   1      28.939  27.934  23.358  1.00  0.00     0.090 A 
ATOM     84  C   UNL A   1      28.879  26.759  24.107  1.00  0.00     0.032 A 
BRANCH  83  85
ATOM     85  C   UNL A   1      27.831  28.825  23.030  1.00  0.00     0.209 C 
ATOM     86  O   UNL A   1      26.649  28.492  23.094  1.00  0.00    -0.287 OA
BRANCH  85  87
ATOM     87  C   UNL A   1      28.120  30.218  22.610  1.00  0.00     0.024 A 
ATOM     88  C   UNL A   1      28.000  30.563  21.260  1.00  0.00     0.012 A 
ATOM     89  C   UNL A   1      28.442  31.193  23.561  1.00  0.00     0.012 A 
ATOM     90  C   UNL A   1      28.117  31.900  20.879  1.00  0.00     0.001 A 
ATOM     91  C   UNL A   1      28.533  32.531  23.178  1.00  0.00     0.001 A 
ATOM     92  C   UNL A   1      28.357  32.884  21.840  1.00  0.00     0.000 A 
ENDBRANCH  85  87
ENDBRANCH  83  85
ENDBRANCH  75  77
ENDBRANCH  74  75
ENDBRANCH  73  74
ENDBRANCH  72  73
ENDBRANCH  71  72
ENDBRANCH   1  71
TORSDOF 19
ENDMDL
MODEL 3
REMARK VINA RESULT:     -12.0      6.907     15.346
REMARK SMILES O=C(OCCOCCOC(=O)[C@@H]1CCn2c(C(=O)c3ccccc3)ccc21)c1ccc(-c2c3nc(c(-c4cc(S(=O)(=O)[O-])ccc4F)c4ccc([nH]4)c(-c4cc(S(=O)(=O)[O-])ccc4F)c4nc(c(-c5cc(S(=O)(=O)[O-])ccc5F)c5ccc2[nH]5)C=C4)C=C3)cc1
REMARK SMILES IDX 5 1 4 2 3 3 2 4 1 5 28 6 29 7 90 8 30 9 89 10 31 11 32 12
REMARK SMILES IDX 33 13 83 14 34 15 88 16 82 17 84 18 35 19 87 20 81 21 80 22
REMARK SMILES IDX 36 24 68 25 48 26 67 27 49 28 52 29 66 30 85 31 50 32 51 33
REMARK SMILES IDX 65 35 86 36 53 37 37 38 38 39 46 40 39 41 45 42 47 43 44 44
REMARK SMILES IDX 40 45 41 46 42 47 43 48 69 49 70 50 78 51 71 52 77 53 79 54
REMARK SMILES IDX 76 55 72 56 73 57 74 58 75 59 54 60 55 61 63 62 56 63 62 64
REMARK SMILES IDX 64 65 61 66 57 67 58 68 59 69 60 70 6 71 7 72 8 73 9 74
REMARK SMILES IDX 10 75 11 76 12 77 13 78 27 79 14 80 15 81 26 82 16 83 25 84
REMARK SMILES IDX 17 85 18 86 19 87 20 88 24 89 21 90 23 91 22 92
REMARK H PARENT 84 23 52 34
REMARK Flexibility Score: inf
ROOT
ATOM      1  C   UNL A   1      31.018  29.558  24.589  1.00  0.00     0.202 C 
ENDROOT
BRANCH   1   2
ATOM      2  C   UNL A   1      31.819  29.501  25.886  1.00  0.00     0.261 C 
BRANCH   2   3
ATOM      3  O   UNL A   1      32.852  30.500  25.865  1.00  0.00    -0.460 OA
BRANCH   3   4
ATOM      4  C   UNL A   1      33.334  31.167  26.941  1.00  0.00     0.338 C 
ATOM      5  O   UNL A   1      32.658  32.053  27.458  1.00  0.00    -0.246 OA
BRANCH   4   6
ATOM      6  C   UNL A   1      34.665  30.853  27.525  1.00  0.00     0.060 A 
ATOM      7  C   UNL A   1      35.578  31.837  27.893  1.00  0.00     0.016 A 
ATOM      8  C   UNL A   1      34.970  29.521  27.821  1.00  0.00     0.016 A 
ATOM      9  C   UNL A   1      36.781  31.544  28.487  1.00  0.00     0.010 A 
ATOM     10  C   UNL A   1      36.153  29.213  28.501  1.00  0.00     0.010 A 
ATOM     11  C   UNL A   1      37.041  30.237  28.854  1.00  0.00    -0.014 A 
BRANCH  11  12
ATOM     12  C   UNL A   1      38.272  30.014  29.616  1.00  0.00     0.031 A 
ATOM     13  C   UNL A   1      39.339  29.183  28.998  1.00  0.00     0.074 A 
ATOM     14  C   UNL A   1      38.436  30.677  30.777  1.00  0.00     0.049 A 
ATOM     15  N   UNL A   1      40.436  28.734  29.531  1.00  0.00    -0.248 NA
ATOM     16  C   UNL A   1      39.150  28.814  27.584  1.00  0.00     0.031 C 
ATOM     17  C   UNL A   1      37.486  31.651  31.336  1.00  0.00     0.029 A 
ATOM     18  N   UNL A   1      39.455  30.661  31.686  1.00  0.00    -0.354 N 
ATOM     19  C   UNL A   1      41.041  27.973  28.543  1.00  0.00     0.074 A 
ATOM     20  C   UNL A   1      40.206  28.047  27.365  1.00  0.00     0.031 C 
ATOM     21  C   UNL A   1      37.975  32.137  32.486  1.00  0.00     0.029 A 
ATOM     22  C   UNL A   1      39.202  31.425  32.804  1.00  0.00     0.049 A 
ATOM     23  H   UNL A   1      40.289  30.154  31.555  1.00  0.00     0.167 HD
ATOM     24  C   UNL A   1      42.179  27.253  28.653  1.00  0.00     0.034 A 
ATOM     25  C   UNL A   1      39.852  31.464  33.982  1.00  0.00     0.034 A 
ATOM     26  C   UNL A   1      42.957  27.232  29.865  1.00  0.00     0.049 A 
ATOM     27  C   UNL A   1      41.051  30.558  34.115  1.00  0.00     0.074 A 
ATOM     28  C   UNL A   1      44.110  26.526  30.140  1.00  0.00     0.029 A 
ATOM     29  N   UNL A   1      42.639  27.953  31.014  1.00  0.00    -0.354 N 
ATOM     30  N   UNL A   1      41.596  29.778  33.205  1.00  0.00    -0.248 NA
ATOM     31  C   UNL A   1      41.707  30.510  35.424  1.00  0.00     0.031 C 
ATOM     32  C   UNL A   1      44.443  26.755  31.479  1.00  0.00     0.029 A 
ATOM     33  C   UNL A   1      43.547  27.670  32.017  1.00  0.00     0.049 A 
ATOM     34  H   UNL A   1      41.880  28.573  31.099  1.00  0.00     0.167 HD
ATOM     35  C   UNL A   1      42.666  29.153  33.832  1.00  0.00     0.074 A 
ATOM     36  C   UNL A   1      42.707  29.674  35.186  1.00  0.00     0.031 C 
ATOM     37  C   UNL A   1      43.531  28.225  33.350  1.00  0.00     0.034 A 
BRANCH  24  38
ATOM     38  C   UNL A   1      42.543  26.354  27.505  1.00  0.00     0.023 A 
ATOM     39  C   UNL A   1      42.096  25.026  27.411  1.00  0.00     0.031 A 
ATOM     40  C   UNL A   1      43.420  26.829  26.512  1.00  0.00     0.131 A 
ATOM     41  C   UNL A   1      42.569  24.203  26.375  1.00  0.00     0.055 A 
ATOM     42  C   UNL A   1      43.831  26.029  25.446  1.00  0.00     0.041 A 
ATOM     43  F   UNL A   1      43.912  28.077  26.577  1.00  0.00    -0.206 F 
ATOM     44  C   UNL A   1      43.413  24.704  25.379  1.00  0.00     0.022 A 
BRANCH  41  45
ATOM     45  S   UNL A   1      42.168  22.435  26.413  1.00  0.00     0.124 S 
ATOM     46  O   UNL A   1      40.718  22.459  26.240  1.00  0.00    -0.237 OA
ATOM     47  O   UNL A   1      42.937  21.910  25.291  1.00  0.00    -0.237 OA
ATOM     48  O   UNL A   1      42.624  22.008  27.736  1.00  0.00    -0.744 OA
ENDBRANCH  41  45
ENDBRANCH  24  38
BRANCH  25  49
ATOM     49  C   UNL A   1      39.326  32.251  35.139  1.00  0.00     0.023 A 
ATOM     50  C   UNL A   1      39.747  33.568  35.377  1.00  0.00     0.031 A 
ATOM     51  C   UNL A   1      38.457  31.667  36.083  1.00  0.00     0.131 A 
ATOM     52  C   UNL A   1      39.356  34.230  36.552  1.00  0.00     0.055 A 
ATOM     53  C   UNL A   1      38.010  32.356  37.212  1.00  0.00     0.041 A 
ATOM     54  F   UNL A   1      38.026  30.404  35.927  1.00  0.00    -0.206 F 
ATOM     55  C   UNL A   1      38.478  33.640  37.463  1.00  0.00     0.022 A 
BRANCH  52  56
ATOM     56  S   UNL A   1      40.130  35.822  36.949  1.00  0.00     0.124 S 
ATOM     57  O   UNL A   1      39.494  36.152  38.219  1.00  0.00    -0.237 OA
ATOM     58  O   UNL A   1      41.544  35.463  37.012  1.00  0.00    -0.237 OA
ATOM     59  O   UNL A   1      39.754  36.674  35.823  1.00  0.00    -0.744 OA
ENDBRANCH  52  56
ENDBRANCH  25  49
BRANCH  37  60
ATOM     60  C   UNL A   1      44.599  27.755  34.298  1.00  0.00     0.023 A 
ATOM     61  C   UNL A   1      44.348  26.737  35.230  1.00  0.00     0.031 A 
ATOM     62  C   UNL A   1      45.886  28.315  34.244  1.00  0.00     0.131 A 
ATOM     63  C   UNL A   1      45.365  26.334  36.105  1.00  0.00     0.055 A 
ATOM     64  C   UNL A   1      46.911  27.865  35.071  1.00  0.00     0.041 A 
ATOM     65  F   UNL A   1      46.169  29.294  33.369  1.00  0.00    -0.206 F 
ATOM     66  C   UNL A   1      46.650  26.875  36.015  1.00  0.00     0.022 A 
BRANCH  63  67
ATOM     67  S   UNL A   1      44.963  25.143  37.408  1.00  0.00     0.124 S 
ATOM     68  O   UNL A   1      45.480  25.810  38.599  1.00  0.00    -0.237 OA
ATOM     69  O   UNL A   1      43.510  25.047  37.311  1.00  0.00    -0.237 OA
ATOM     70  O   UNL A   1      45.689  23.939  37.006  1.00  0.00    -0.744 OA
ENDBRANCH  63  67
ENDBRANCH  37  60
ENDBRANCH  11  12
ENDBRANCH   4   6
ENDBRANCH   3   4
ENDBRANCH   2   3
ENDBRANCH   1   2
BRANCH   1  71
ATOM     71  O   UNL A   1      31.323  28.562  23.624  1.00  0.00    -0.374 OA
BRANCH  71  72
ATOM     72  C   UNL A   1      32.567  27.882  23.735  1.00  0.00     0.202 C 
BRANCH  72  73
ATOM     73  C   UNL A   1      32.276  26.386  23.597  1.00  0.00     0.261 C 
BRANCH  73  74
ATOM     74  O   UNL A   1      32.160  25.811  24.912  1.00  0.00    -0.463 OA
BRANCH  74  75
ATOM     75  C   UNL A   1      30.923  25.363  25.299  1.00  0.00     0.315 C 
ATOM     76  O   UNL A   1      29.900  26.027  25.282  1.00  0.00    -0.251 OA
BRANCH  75  77
ATOM     77  C   UNL A   1      31.013  23.916  25.778  1.00  0.00     0.148 C 
ATOM     78  C   UNL A   1      32.005  23.744  26.966  1.00  0.00     0.043 C 
ATOM     79  C   UNL A   1      31.602  22.959  24.780  1.00  0.00     0.033 A 
ATOM     80  C   UNL A   1      32.626  22.366  26.802  1.00  0.00     0.124 C 
ATOM     81  N   UNL A   1      32.512  22.127  25.375  1.00  0.00    -0.341 N 
ATOM     82  C   UNL A   1      31.539  22.614  23.455  1.00  0.00     0.025 A 
ATOM     83  C   UNL A   1      33.143  21.316  24.478  1.00  0.00     0.090 A 
ATOM     84  C   UNL A   1      32.560  21.633  23.252  1.00  0.00     0.032 A 
BRANCH  83  85
ATOM     85  C   UNL A   1      34.215  20.355  24.719  1.00  0.00     0.209 C 
ATOM     86  O   UNL A   1      35.389  20.676  24.891  1.00  0.00    -0.287 OA
BRANCH  85  87
ATOM     87  C   UNL A   1      33.893  18.909  24.780  1.00  0.00     0.024 A 
ATOM     88  C   UNL A   1      32.785  18.486  25.523  1.00  0.00     0.012 A 
ATOM     89  C   UNL A   1      34.646  17.983  24.049  1.00  0.00     0.012 A 
ATOM     90  C   UNL A   1      32.384  17.151  25.460  1.00  0.00     0.001 A 
ATOM     91  C   UNL A   1      34.225  16.655  23.969  1.00  0.00     0.001 A 
ATOM     92  C   UNL A   1      33.088  16.245  24.664  1.00  0.00     0.000 A 
ENDBRANCH  85  87
ENDBRANCH  83  85
ENDBRANCH  75  77
ENDBRANCH  74  75
ENDBRANCH  73  74
ENDBRANCH  72  73
ENDBRANCH  71  72
ENDBRANCH   1  71
TORSDOF 19
ENDMDL
