MODEL 1
REMARK VINA RESULT:     -12.4      0.000      0.000
REMARK SMILES CC(C)=C1[C@H]2CC[C@@H]1[C@H](C(=O)NNC(=O)c1ccoc1C)[C@H]2C(=O)OCCOCCOC(=O)c1ccc(-c2c3nc(c(-c4cc(S(=O)(=O)[O-])ccc4F)c4ccc([nH]4)c(-c4cc(S(=O)(=O)[O-])ccc4F)c4nc(c(-c5cc(S(=O)(=O)[O-])ccc5F)c5ccc2[nH]5)C=C4)C=C3)cc1
REMARK SMILES IDX 28 1 27 2 26 3 25 4 23 5 24 6 22 7 1 8 2 9 3 10 4 11 5 12
REMARK SMILES IDX 8 13 6 14 7 15 9 16 10 17 11 18 12 19 13 21 14 22 15 24
REMARK SMILES IDX 16 25 17 26 20 27 18 28 19 29 21 30 29 31 30 32 31 33 32 34
REMARK SMILES IDX 33 35 34 36 35 37 96 38 36 39 95 40 37 41 38 42 39 43 89 44
REMARK SMILES IDX 40 45 94 46 88 47 90 48 41 49 93 50 87 51 86 52 42 54 74 55
REMARK SMILES IDX 54 56 73 57 55 58 58 59 72 60 91 61 56 62 57 63 71 65 92 66
REMARK SMILES IDX 59 67 43 68 44 69 52 70 45 71 51 72 53 73 50 74 46 75 47 76
REMARK SMILES IDX 48 77 49 78 75 79 76 80 84 81 77 82 83 83 85 84 82 85 78 86
REMARK SMILES IDX 79 87 80 88 81 89 60 90 61 91 69 92 62 93 68 94 70 95 67 96
REMARK SMILES IDX 63 97 64 98 65 99 66 100
REMARK H PARENT 12 20 13 23 90 53 58 64
REMARK Flexibility Score: inf
ROOT
ATOM      1  O   UNL A   1      32.992  29.692  25.020  1.00  0.00    -0.374 OA
ENDROOT
BRANCH   1   2
ATOM      2  C   UNL A   1      33.322  28.319  25.220  1.00  0.00     0.202 C 
BRANCH   2   3
ATOM      3  C   UNL A   1      32.641  27.612  26.391  1.00  0.00     0.261 C 
BRANCH   3   4
ATOM      4  O   UNL A   1      31.760  26.567  25.944  1.00  0.00    -0.463 OA
BRANCH   4   5
ATOM      5  C   UNL A   1      32.223  25.314  26.138  1.00  0.00     0.310 C 
ATOM      6  O   UNL A   1      31.822  24.547  27.010  1.00  0.00    -0.252 OA
BRANCH   5   7
ATOM      7  C   UNL A   1      33.338  24.899  25.210  1.00  0.00     0.119 C 
ATOM      8  C   UNL A   1      33.031  20.260  25.477  1.00  0.00     0.039 C 
ATOM      9  C   UNL A   1      33.674  21.496  26.032  1.00  0.00    -0.077 C 
ATOM     10  C   UNL A   1      34.167  21.426  27.452  1.00  0.00     0.039 C 
ATOM     11  C   UNL A   1      33.846  22.607  25.298  1.00  0.00    -0.064 C 
ATOM     12  C   UNL A   1      34.429  23.931  25.699  1.00  0.00     0.030 C 
ATOM     13  C   UNL A   1      33.594  22.918  23.841  1.00  0.00     0.029 C 
ATOM     14  C   UNL A   1      35.603  23.968  24.702  1.00  0.00     0.009 C 
ATOM     15  C   UNL A   1      35.048  23.235  23.464  1.00  0.00     0.009 C 
ATOM     16  C   UNL A   1      32.696  24.156  24.012  1.00  0.00     0.102 C 
BRANCH  16  17
ATOM     17  C   UNL A   1      32.601  25.152  22.865  1.00  0.00     0.243 C 
ATOM     18  O   UNL A   1      33.520  25.351  22.070  1.00  0.00    -0.273 OA
ATOM     19  N   UNL A   1      31.503  25.974  22.806  1.00  0.00    -0.267 N 
ATOM     20  H   UNL A   1      31.581  26.805  22.284  1.00  0.00     0.191 HD
BRANCH  19  21
ATOM     21  N   UNL A   1      30.287  25.716  23.434  1.00  0.00    -0.263 N 
ATOM     22  C   UNL A   1      29.257  26.631  23.554  1.00  0.00     0.273 C 
ATOM     23  H   UNL A   1      30.152  24.820  23.820  1.00  0.00     0.191 HD
ATOM     24  O   UNL A   1      28.264  26.342  24.218  1.00  0.00    -0.267 OA
BRANCH  22  25
ATOM     25  C   UNL A   1      29.426  27.963  22.996  1.00  0.00     0.082 A 
ATOM     26  C   UNL A   1      30.660  28.499  22.515  1.00  0.00     0.056 A 
ATOM     27  C   UNL A   1      28.499  28.982  22.834  1.00  0.00     0.113 A 
ATOM     28  C   UNL A   1      30.386  29.751  22.027  1.00  0.00     0.196 A 
ATOM     29  O   UNL A   1      29.078  30.053  22.216  1.00  0.00    -0.469 OA
ATOM     30  C   UNL A   1      27.070  29.163  23.176  1.00  0.00     0.088 C 
ENDBRANCH  22  25
ENDBRANCH  19  21
ENDBRANCH  16  17
ENDBRANCH   5   7
ENDBRANCH   4   5
ENDBRANCH   3   4
ENDBRANCH   2   3
ENDBRANCH   1   2
BRANCH   1  31
ATOM     31  C   UNL A   1      31.759  30.170  25.560  1.00  0.00     0.202 C 
BRANCH  31  32
ATOM     32  C   UNL A   1      31.821  31.294  26.603  1.00  0.00     0.261 C 
BRANCH  32  33
ATOM     33  O   UNL A   1      32.843  31.086  27.595  1.00  0.00    -0.460 OA
BRANCH  33  34
ATOM     34  C   UNL A   1      33.701  32.126  27.743  1.00  0.00     0.338 C 
ATOM     35  O   UNL A   1      33.402  33.311  27.840  1.00  0.00    -0.246 OA
BRANCH  34  36
ATOM     36  C   UNL A   1      35.073  31.643  27.982  1.00  0.00     0.060 A 
ATOM     37  C   UNL A   1      35.249  30.263  28.143  1.00  0.00     0.016 A 
ATOM     38  C   UNL A   1      36.152  32.517  28.143  1.00  0.00     0.016 A 
ATOM     39  C   UNL A   1      36.489  29.756  28.522  1.00  0.00     0.010 A 
ATOM     40  C   UNL A   1      37.400  32.004  28.519  1.00  0.00     0.010 A 
ATOM     41  C   UNL A   1      37.562  30.626  28.758  1.00  0.00    -0.014 A 
BRANCH  41  42
ATOM     42  C   UNL A   1      38.773  30.095  29.438  1.00  0.00     0.031 A 
ATOM     43  C   UNL A   1      39.087  30.565  30.834  1.00  0.00     0.074 A 
ATOM     44  C   UNL A   1      39.532  29.149  28.857  1.00  0.00     0.049 A 
ATOM     45  N   UNL A   1      40.048  30.194  31.642  1.00  0.00    -0.248 NA
ATOM     46  C   UNL A   1      38.198  31.595  31.392  1.00  0.00     0.031 C 
ATOM     47  C   UNL A   1      39.313  28.592  27.523  1.00  0.00     0.029 A 
ATOM     48  N   UNL A   1      40.637  28.481  29.323  1.00  0.00    -0.354 N 
ATOM     49  C   UNL A   1      39.879  30.944  32.801  1.00  0.00     0.074 A 
ATOM     50  C   UNL A   1      38.755  31.825  32.570  1.00  0.00     0.031 C 
ATOM     51  C   UNL A   1      40.254  27.663  27.278  1.00  0.00     0.029 A 
ATOM     52  C   UNL A   1      41.155  27.576  28.426  1.00  0.00     0.049 A 
ATOM     53  H   UNL A   1      41.024  28.636  30.215  1.00  0.00     0.167 HD
ATOM     54  C   UNL A   1      40.584  30.892  33.959  1.00  0.00     0.034 A 
ATOM     55  C   UNL A   1      42.236  26.774  28.519  1.00  0.00     0.034 A 
ATOM     56  C   UNL A   1      41.708  30.014  34.177  1.00  0.00     0.049 A 
ATOM     57  C   UNL A   1      43.040  26.772  29.797  1.00  0.00     0.074 A 
ATOM     58  C   UNL A   1      42.480  29.865  35.316  1.00  0.00     0.029 A 
ATOM     59  N   UNL A   1      42.230  29.140  33.231  1.00  0.00    -0.354 N 
ATOM     60  N   UNL A   1      42.853  27.467  30.895  1.00  0.00    -0.248 NA
ATOM     61  C   UNL A   1      44.190  25.859  29.850  1.00  0.00     0.031 C 
ATOM     62  C   UNL A   1      43.509  28.958  35.036  1.00  0.00     0.029 A 
ATOM     63  C   UNL A   1      43.334  28.477  33.749  1.00  0.00     0.049 A 
ATOM     64  H   UNL A   1      41.869  29.011  32.324  1.00  0.00     0.167 HD
ATOM     65  C   UNL A   1      43.850  27.057  31.779  1.00  0.00     0.074 A 
ATOM     66  C   UNL A   1      44.617  26.038  31.092  1.00  0.00     0.031 C 
ATOM     67  C   UNL A   1      44.107  27.479  33.045  1.00  0.00     0.034 A 
BRANCH  54  68
ATOM     68  C   UNL A   1      40.184  31.855  35.053  1.00  0.00     0.023 A 
ATOM     69  C   UNL A   1      39.357  31.464  36.122  1.00  0.00     0.031 A 
ATOM     70  C   UNL A   1      40.599  33.197  35.002  1.00  0.00     0.131 A 
ATOM     71  C   UNL A   1      38.907  32.420  37.045  1.00  0.00     0.055 A 
ATOM     72  C   UNL A   1      40.214  34.126  35.971  1.00  0.00     0.041 A 
ATOM     73  F   UNL A   1      41.370  33.636  33.994  1.00  0.00    -0.206 F 
ATOM     74  C   UNL A   1      39.349  33.743  36.992  1.00  0.00     0.022 A 
BRANCH  71  75
ATOM     75  S   UNL A   1      37.612  31.945  38.224  1.00  0.00     0.124 S 
ATOM     76  O   UNL A   1      37.304  30.584  37.793  1.00  0.00    -0.237 OA
ATOM     77  O   UNL A   1      38.292  32.071  39.508  1.00  0.00    -0.237 OA
ATOM     78  O   UNL A   1      36.552  32.921  37.980  1.00  0.00    -0.744 OA
ENDBRANCH  71  75
ENDBRANCH  54  68
BRANCH  55  79
ATOM     79  C   UNL A   1      42.647  25.926  27.363  1.00  0.00     0.023 A 
ATOM     80  C   UNL A   1      42.247  24.585  27.259  1.00  0.00     0.031 A 
ATOM     81  C   UNL A   1      43.497  26.441  26.367  1.00  0.00     0.131 A 
ATOM     82  C   UNL A   1      42.732  23.791  26.207  1.00  0.00     0.055 A 
ATOM     83  C   UNL A   1      43.936  25.661  25.296  1.00  0.00     0.041 A 
ATOM     84  F   UNL A   1      43.907  27.718  26.418  1.00  0.00    -0.206 F 
ATOM     85  C   UNL A   1      43.564  24.323  25.220  1.00  0.00     0.022 A 
BRANCH  82  86
ATOM     86  S   UNL A   1      42.321  22.024  26.190  1.00  0.00     0.124 S 
ATOM     87  O   UNL A   1      40.891  22.053  25.908  1.00  0.00    -0.237 OA
ATOM     88  O   UNL A   1      43.176  21.525  25.117  1.00  0.00    -0.237 OA
ATOM     89  O   UNL A   1      42.686  21.576  27.533  1.00  0.00    -0.744 OA
ENDBRANCH  82  86
ENDBRANCH  55  79
BRANCH  67  90
ATOM     90  C   UNL A   1      45.250  26.809  33.771  1.00  0.00     0.023 A 
ATOM     91  C   UNL A   1      45.094  25.565  34.409  1.00  0.00     0.031 A 
ATOM     92  C   UNL A   1      46.506  27.439  33.854  1.00  0.00     0.131 A 
ATOM     93  C   UNL A   1      46.148  25.026  35.161  1.00  0.00     0.055 A 
ATOM     94  C   UNL A   1      47.572  26.865  34.550  1.00  0.00     0.041 A 
ATOM     95  F   UNL A   1      46.714  28.627  33.266  1.00  0.00    -0.206 F 
ATOM     96  C   UNL A   1      47.391  25.661  35.224  1.00  0.00     0.022 A 
BRANCH  93  97
ATOM     97  S   UNL A   1      45.836  23.544  36.161  1.00  0.00     0.124 S 
ATOM     98  O   UNL A   1      46.923  22.663  35.744  1.00  0.00    -0.237 OA
ATOM     99  O   UNL A   1      45.923  24.063  37.521  1.00  0.00    -0.237 OA
ATOM    100  O   UNL A   1      44.502  23.122  35.741  1.00  0.00    -0.744 OA
ENDBRANCH  93  97
ENDBRANCH  67  90
ENDBRANCH  41  42
ENDBRANCH  34  36
ENDBRANCH  33  34
ENDBRANCH  32  33
ENDBRANCH  31  32
ENDBRANCH   1  31
TORSDOF 20
ENDMDL
MODEL 2
REMARK VINA RESULT:     -12.1      2.045      4.157
REMARK SMILES CC(C)=C1[C@H]2CC[C@@H]1[C@H](C(=O)NNC(=O)c1ccoc1C)[C@H]2C(=O)OCCOCCOC(=O)c1ccc(-c2c3nc(c(-c4cc(S(=O)(=O)[O-])ccc4F)c4ccc([nH]4)c(-c4cc(S(=O)(=O)[O-])ccc4F)c4nc(c(-c5cc(S(=O)(=O)[O-])ccc5F)c5ccc2[nH]5)C=C4)C=C3)cc1
REMARK SMILES IDX 28 1 27 2 26 3 25 4 23 5 24 6 22 7 1 8 2 9 3 10 4 11 5 12
REMARK SMILES IDX 8 13 6 14 7 15 9 16 10 17 11 18 12 19 13 21 14 22 15 24
REMARK SMILES IDX 16 25 17 26 20 27 18 28 19 29 21 30 29 31 30 32 31 33 32 34
REMARK SMILES IDX 33 35 34 36 35 37 96 38 36 39 95 40 37 41 38 42 39 43 89 44
REMARK SMILES IDX 40 45 94 46 88 47 90 48 41 49 93 50 87 51 86 52 42 54 74 55
REMARK SMILES IDX 54 56 73 57 55 58 58 59 72 60 91 61 56 62 57 63 71 65 92 66
REMARK SMILES IDX 59 67 43 68 44 69 52 70 45 71 51 72 53 73 50 74 46 75 47 76
REMARK SMILES IDX 48 77 49 78 75 79 76 80 84 81 77 82 83 83 85 84 82 85 78 86
REMARK SMILES IDX 79 87 80 88 81 89 60 90 61 91 69 92 62 93 68 94 70 95 67 96
REMARK SMILES IDX 63 97 64 98 65 99 66 100
REMARK H PARENT 12 20 13 23 90 53 58 64
REMARK Flexibility Score: inf
ROOT
ATOM      1  O   UNL A   1      33.128  29.662  24.601  1.00  0.00    -0.374 OA
ENDROOT
BRANCH   1   2
ATOM      2  C   UNL A   1      33.901  28.495  24.874  1.00  0.00     0.202 C 
BRANCH   2   3
ATOM      3  C   UNL A   1      33.141  27.171  24.957  1.00  0.00     0.261 C 
BRANCH   3   4
ATOM      4  O   UNL A   1      33.373  26.500  26.207  1.00  0.00    -0.463 OA
BRANCH   4   5
ATOM      5  C   UNL A   1      33.798  25.224  26.094  1.00  0.00     0.310 C 
ATOM      6  O   UNL A   1      34.928  24.891  25.745  1.00  0.00    -0.252 OA
BRANCH   5   7
ATOM      7  C   UNL A   1      32.754  24.178  26.399  1.00  0.00     0.119 C 
ATOM      8  C   UNL A   1      29.903  24.688  22.751  1.00  0.00     0.039 C 
ATOM      9  C   UNL A   1      30.200  25.100  24.163  1.00  0.00    -0.077 C 
ATOM     10  C   UNL A   1      29.688  26.446  24.600  1.00  0.00     0.039 C 
ATOM     11  C   UNL A   1      30.855  24.301  25.021  1.00  0.00    -0.064 C 
ATOM     12  C   UNL A   1      31.265  24.564  26.441  1.00  0.00     0.030 C 
ATOM     13  C   UNL A   1      31.348  22.877  24.917  1.00  0.00     0.029 C 
ATOM     14  C   UNL A   1      30.479  23.423  27.114  1.00  0.00     0.009 C 
ATOM     15  C   UNL A   1      30.495  22.301  26.056  1.00  0.00     0.009 C 
ATOM     16  C   UNL A   1      32.826  23.107  25.281  1.00  0.00     0.102 C 
BRANCH  16  17
ATOM     17  C   UNL A   1      33.632  21.939  25.830  1.00  0.00     0.243 C 
ATOM     18  O   UNL A   1      33.268  21.266  26.793  1.00  0.00    -0.273 OA
ATOM     19  N   UNL A   1      34.891  21.725  25.327  1.00  0.00    -0.267 N 
ATOM     20  H   UNL A   1      35.520  21.202  25.874  1.00  0.00     0.191 HD
BRANCH  19  21
ATOM     21  N   UNL A   1      35.342  22.196  24.096  1.00  0.00    -0.263 N 
ATOM     22  C   UNL A   1      36.645  22.576  23.832  1.00  0.00     0.273 C 
ATOM     23  H   UNL A   1      34.688  22.264  23.364  1.00  0.00     0.191 HD
ATOM     24  O   UNL A   1      36.922  23.079  22.745  1.00  0.00    -0.267 OA
BRANCH  22  25
ATOM     25  C   UNL A   1      37.636  22.490  24.894  1.00  0.00     0.082 A 
ATOM     26  C   UNL A   1      38.122  23.599  25.652  1.00  0.00     0.056 A 
ATOM     27  C   UNL A   1      38.328  21.388  25.374  1.00  0.00     0.113 A 
ATOM     28  C   UNL A   1      38.996  23.092  26.580  1.00  0.00     0.196 A 
ATOM     29  O   UNL A   1      39.127  21.753  26.419  1.00  0.00    -0.469 OA
ATOM     30  C   UNL A   1      38.394  19.954  25.015  1.00  0.00     0.088 C 
ENDBRANCH  22  25
ENDBRANCH  19  21
ENDBRANCH  16  17
ENDBRANCH   5   7
ENDBRANCH   4   5
ENDBRANCH   3   4
ENDBRANCH   2   3
ENDBRANCH   1   2
BRANCH   1  31
ATOM     31  C   UNL A   1      31.829  29.757  25.189  1.00  0.00     0.202 C 
BRANCH  31  32
ATOM     32  C   UNL A   1      31.587  30.872  26.216  1.00  0.00     0.261 C 
BRANCH  32  33
ATOM     33  O   UNL A   1      32.478  30.800  27.345  1.00  0.00    -0.460 OA
BRANCH  33  34
ATOM     34  C   UNL A   1      33.268  31.891  27.505  1.00  0.00     0.338 C 
ATOM     35  O   UNL A   1      32.899  33.060  27.552  1.00  0.00    -0.246 OA
BRANCH  34  36
ATOM     36  C   UNL A   1      34.650  31.494  27.830  1.00  0.00     0.060 A 
ATOM     37  C   UNL A   1      34.893  30.131  28.046  1.00  0.00     0.016 A 
ATOM     38  C   UNL A   1      35.670  32.430  28.014  1.00  0.00     0.016 A 
ATOM     39  C   UNL A   1      36.137  29.706  28.504  1.00  0.00     0.010 A 
ATOM     40  C   UNL A   1      36.923  32.000  28.470  1.00  0.00     0.010 A 
ATOM     41  C   UNL A   1      37.147  30.642  28.764  1.00  0.00    -0.014 A 
BRANCH  41  42
ATOM     42  C   UNL A   1      38.348  30.201  29.521  1.00  0.00     0.031 A 
ATOM     43  C   UNL A   1      38.526  30.674  30.940  1.00  0.00     0.074 A 
ATOM     44  C   UNL A   1      39.221  29.329  28.986  1.00  0.00     0.049 A 
ATOM     45  N   UNL A   1      39.456  30.371  31.809  1.00  0.00    -0.248 NA
ATOM     46  C   UNL A   1      37.519  31.620  31.444  1.00  0.00     0.031 C 
ATOM     47  C   UNL A   1      39.140  28.776  27.635  1.00  0.00     0.029 A 
ATOM     48  N   UNL A   1      40.342  28.746  29.521  1.00  0.00    -0.354 N 
ATOM     49  C   UNL A   1      39.147  31.087  32.961  1.00  0.00     0.074 A 
ATOM     50  C   UNL A   1      37.973  31.878  32.661  1.00  0.00     0.031 C 
ATOM     51  C   UNL A   1      40.169  27.930  27.447  1.00  0.00     0.029 A 
ATOM     52  C   UNL A   1      40.993  27.899  28.655  1.00  0.00     0.049 A 
ATOM     53  H   UNL A   1      40.652  28.919  30.439  1.00  0.00     0.167 HD
ATOM     54  C   UNL A   1      39.774  31.076  34.164  1.00  0.00     0.034 A 
ATOM     55  C   UNL A   1      42.127  27.187  28.815  1.00  0.00     0.034 A 
ATOM     56  C   UNL A   1      40.948  30.289  34.452  1.00  0.00     0.049 A 
ATOM     57  C   UNL A   1      42.839  27.231  30.145  1.00  0.00     0.074 A 
ATOM     58  C   UNL A   1      41.650  30.186  35.641  1.00  0.00     0.029 A 
ATOM     59  N   UNL A   1      41.603  29.475  33.537  1.00  0.00    -0.354 N 
ATOM     60  N   UNL A   1      42.521  27.893  31.235  1.00  0.00    -0.248 NA
ATOM     61  C   UNL A   1      44.054  26.415  30.270  1.00  0.00     0.031 C 
ATOM     62  C   UNL A   1      42.767  29.370  35.425  1.00  0.00     0.029 A 
ATOM     63  C   UNL A   1      42.720  28.896  34.124  1.00  0.00     0.049 A 
ATOM     64  H   UNL A   1      41.318  29.330  32.605  1.00  0.00     0.167 HD
ATOM     65  C   UNL A   1      43.485  27.552  32.182  1.00  0.00     0.074 A 
ATOM     66  C   UNL A   1      44.378  26.609  31.540  1.00  0.00     0.031 C 
ATOM     67  C   UNL A   1      43.619  27.975  33.466  1.00  0.00     0.034 A 
BRANCH  54  68
ATOM     68  C   UNL A   1      39.222  31.987  35.237  1.00  0.00     0.023 A 
ATOM     69  C   UNL A   1      39.653  33.318  35.376  1.00  0.00     0.031 A 
ATOM     70  C   UNL A   1      38.284  31.501  36.165  1.00  0.00     0.131 A 
ATOM     71  C   UNL A   1      39.211  34.089  36.461  1.00  0.00     0.055 A 
ATOM     72  C   UNL A   1      37.784  32.300  37.196  1.00  0.00     0.041 A 
ATOM     73  F   UNL A   1      37.852  30.232  36.099  1.00  0.00    -0.206 F 
ATOM     74  C   UNL A   1      38.260  33.598  37.358  1.00  0.00     0.022 A 
BRANCH  71  75
ATOM     75  S   UNL A   1      40.011  35.687  36.775  1.00  0.00     0.124 S 
ATOM     76  O   UNL A   1      41.415  35.297  36.887  1.00  0.00    -0.237 OA
ATOM     77  O   UNL A   1      39.654  36.458  35.591  1.00  0.00    -0.237 OA
ATOM     78  O   UNL A   1      39.398  36.138  38.023  1.00  0.00    -0.744 OA
ENDBRANCH  71  75
ENDBRANCH  54  68
BRANCH  55  79
ATOM     79  C   UNL A   1      42.685  26.393  27.682  1.00  0.00     0.023 A 
ATOM     80  C   UNL A   1      42.482  25.007  27.589  1.00  0.00     0.031 A 
ATOM     81  C   UNL A   1      43.478  27.012  26.699  1.00  0.00     0.131 A 
ATOM     82  C   UNL A   1      43.103  24.278  26.562  1.00  0.00     0.055 A 
ATOM     83  C   UNL A   1      44.052  26.290  25.652  1.00  0.00     0.041 A 
ATOM     84  F   UNL A   1      43.701  28.335  26.741  1.00  0.00    -0.206 F 
ATOM     85  C   UNL A   1      43.876  24.911  25.587  1.00  0.00     0.022 A 
BRANCH  82  86
ATOM     86  S   UNL A   1      42.948  22.470  26.562  1.00  0.00     0.124 S 
ATOM     87  O   UNL A   1      44.344  22.051  26.513  1.00  0.00    -0.237 OA
ATOM     88  O   UNL A   1      42.248  22.227  27.820  1.00  0.00    -0.237 OA
ATOM     89  O   UNL A   1      42.169  22.195  25.356  1.00  0.00    -0.744 OA
ENDBRANCH  82  86
ENDBRANCH  55  79
BRANCH  67  90
ATOM     90  C   UNL A   1      44.761  27.389  34.264  1.00  0.00     0.023 A 
ATOM     91  C   UNL A   1      44.605  26.220  35.030  1.00  0.00     0.031 A 
ATOM     92  C   UNL A   1      46.014  28.028  34.284  1.00  0.00     0.131 A 
ATOM     93  C   UNL A   1      45.657  25.767  35.840  1.00  0.00     0.055 A 
ATOM     94  C   UNL A   1      47.079  27.535  35.041  1.00  0.00     0.041 A 
ATOM     95  F   UNL A   1      46.223  29.147  33.573  1.00  0.00    -0.206 F 
ATOM     96  C   UNL A   1      46.899  26.408  35.838  1.00  0.00     0.022 A 
BRANCH  93  97
ATOM     97  S   UNL A   1      45.346  24.399  36.990  1.00  0.00     0.124 S 
ATOM     98  O   UNL A   1      45.160  23.273  36.080  1.00  0.00    -0.237 OA
ATOM     99  O   UNL A   1      46.566  24.380  37.788  1.00  0.00    -0.237 OA
ATOM    100  O   UNL A   1      44.143  24.820  37.706  1.00  0.00    -0.744 OA
ENDBRANCH  93  97
ENDBRANCH  67  90
ENDBRANCH  41  42
ENDBRANCH  34  36
ENDBRANCH  33  34
ENDBRANCH  32  33
ENDBRANCH  31  32
ENDBRANCH   1  31
TORSDOF 20
ENDMDL
MODEL 3
REMARK VINA RESULT:     -12.1      4.948      8.011
REMARK SMILES CC(C)=C1[C@H]2CC[C@@H]1[C@H](C(=O)NNC(=O)c1ccoc1C)[C@H]2C(=O)OCCOCCOC(=O)c1ccc(-c2c3nc(c(-c4cc(S(=O)(=O)[O-])ccc4F)c4ccc([nH]4)c(-c4cc(S(=O)(=O)[O-])ccc4F)c4nc(c(-c5cc(S(=O)(=O)[O-])ccc5F)c5ccc2[nH]5)C=C4)C=C3)cc1
REMARK SMILES IDX 28 1 27 2 26 3 25 4 23 5 24 6 22 7 1 8 2 9 3 10 4 11 5 12
REMARK SMILES IDX 8 13 6 14 7 15 9 16 10 17 11 18 12 19 13 21 14 22 15 24
REMARK SMILES IDX 16 25 17 26 20 27 18 28 19 29 21 30 29 31 30 32 31 33 32 34
REMARK SMILES IDX 33 35 34 36 35 37 96 38 36 39 95 40 37 41 38 42 39 43 89 44
REMARK SMILES IDX 40 45 94 46 88 47 90 48 41 49 93 50 87 51 86 52 42 54 74 55
REMARK SMILES IDX 54 56 73 57 55 58 58 59 72 60 91 61 56 62 57 63 71 65 92 66
REMARK SMILES IDX 59 67 43 68 44 69 52 70 45 71 51 72 53 73 50 74 46 75 47 76
REMARK SMILES IDX 48 77 49 78 75 79 76 80 84 81 77 82 83 83 85 84 82 85 78 86
REMARK SMILES IDX 79 87 80 88 81 89 60 90 61 91 69 92 62 93 68 94 70 95 67 96
REMARK SMILES IDX 63 97 64 98 65 99 66 100
REMARK H PARENT 12 20 13 23 90 53 58 64
REMARK Flexibility Score: inf
ROOT
ATOM      1  O   UNL A   1      37.377  20.560  25.344  1.00  0.00    -0.374 OA
ENDROOT
BRANCH   1   2
ATOM      2  C   UNL A   1      37.616  21.964  25.268  1.00  0.00     0.202 C 
BRANCH   2   3
ATOM      3  C   UNL A   1      36.474  22.880  25.710  1.00  0.00     0.261 C 
BRANCH   3   4
ATOM      4  O   UNL A   1      36.165  23.868  24.712  1.00  0.00    -0.463 OA
BRANCH   4   5
ATOM      5  C   UNL A   1      35.854  23.368  23.498  1.00  0.00     0.310 C 
ATOM      6  O   UNL A   1      36.672  22.954  22.680  1.00  0.00    -0.252 OA
BRANCH   5   7
ATOM      7  C   UNL A   1      34.382  23.379  23.166  1.00  0.00     0.119 C 
ATOM      8  C   UNL A   1      32.524  22.576  27.360  1.00  0.00     0.039 C 
ATOM      9  C   UNL A   1      33.018  21.965  26.083  1.00  0.00    -0.077 C 
ATOM     10  C   UNL A   1      33.493  20.539  26.152  1.00  0.00     0.039 C 
ATOM     11  C   UNL A   1      33.006  22.630  24.917  1.00  0.00    -0.064 C 
ATOM     12  C   UNL A   1      33.491  22.190  23.566  1.00  0.00     0.030 C 
ATOM     13  C   UNL A   1      32.466  23.984  24.519  1.00  0.00     0.029 C 
ATOM     14  C   UNL A   1      32.156  22.297  22.805  1.00  0.00     0.009 C 
ATOM     15  C   UNL A   1      31.444  23.481  23.488  1.00  0.00     0.009 C 
ATOM     16  C   UNL A   1      33.746  24.582  23.907  1.00  0.00     0.102 C 
BRANCH  16  17
ATOM     17  C   UNL A   1      33.611  25.712  22.896  1.00  0.00     0.243 C 
ATOM     18  O   UNL A   1      33.654  25.534  21.680  1.00  0.00    -0.273 OA
ATOM     19  N   UNL A   1      33.598  27.003  23.363  1.00  0.00    -0.267 N 
ATOM     20  H   UNL A   1      33.830  27.721  22.731  1.00  0.00     0.191 HD
BRANCH  19  21
ATOM     21  N   UNL A   1      33.278  27.370  24.668  1.00  0.00    -0.263 N 
ATOM     22  C   UNL A   1      32.095  27.979  25.043  1.00  0.00     0.273 C 
ATOM     23  H   UNL A   1      33.941  27.183  25.371  1.00  0.00     0.191 HD
ATOM     24  O   UNL A   1      31.950  28.360  26.203  1.00  0.00    -0.267 OA
BRANCH  22  25
ATOM     25  C   UNL A   1      31.096  28.270  24.027  1.00  0.00     0.082 A 
ATOM     26  C   UNL A   1      31.093  29.428  23.190  1.00  0.00     0.056 A 
ATOM     27  C   UNL A   1      29.960  27.559  23.670  1.00  0.00     0.113 A 
ATOM     28  C   UNL A   1      30.024  29.300  22.340  1.00  0.00     0.196 A 
ATOM     29  O   UNL A   1      29.331  28.170  22.623  1.00  0.00    -0.469 OA
ATOM     30  C   UNL A   1      29.297  26.329  24.157  1.00  0.00     0.088 C 
ENDBRANCH  22  25
ENDBRANCH  19  21
ENDBRANCH  16  17
ENDBRANCH   5   7
ENDBRANCH   4   5
ENDBRANCH   3   4
ENDBRANCH   2   3
ENDBRANCH   1   2
BRANCH   1  31
ATOM     31  C   UNL A   1      38.403  19.681  24.880  1.00  0.00     0.202 C 
BRANCH  31  32
ATOM     32  C   UNL A   1      39.465  19.224  25.889  1.00  0.00     0.261 C 
BRANCH  32  33
ATOM     33  O   UNL A   1      40.808  19.324  25.377  1.00  0.00    -0.460 OA
BRANCH  33  34
ATOM     34  C   UNL A   1      41.757  19.506  26.328  1.00  0.00     0.338 C 
ATOM     35  O   UNL A   1      42.573  18.676  26.714  1.00  0.00    -0.246 OA
BRANCH  34  36
ATOM     36  C   UNL A   1      41.838  20.924  26.723  1.00  0.00     0.060 A 
ATOM     37  C   UNL A   1      41.518  21.881  25.752  1.00  0.00     0.016 A 
ATOM     38  C   UNL A   1      42.304  21.322  27.979  1.00  0.00     0.016 A 
ATOM     39  C   UNL A   1      41.719  23.234  26.009  1.00  0.00     0.010 A 
ATOM     40  C   UNL A   1      42.501  22.684  28.238  1.00  0.00     0.010 A 
ATOM     41  C   UNL A   1      42.256  23.643  27.237  1.00  0.00    -0.014 A 
BRANCH  41  42
ATOM     42  C   UNL A   1      42.730  25.045  27.375  1.00  0.00     0.031 A 
ATOM     43  C   UNL A   1      41.836  26.051  28.051  1.00  0.00     0.074 A 
ATOM     44  C   UNL A   1      43.967  25.399  26.982  1.00  0.00     0.049 A 
ATOM     45  N   UNL A   1      42.062  27.308  28.337  1.00  0.00    -0.248 NA
ATOM     46  C   UNL A   1      40.504  25.574  28.454  1.00  0.00     0.031 C 
ATOM     47  C   UNL A   1      44.936  24.509  26.343  1.00  0.00     0.029 A 
ATOM     48  N   UNL A   1      44.624  26.601  27.073  1.00  0.00    -0.354 N 
ATOM     49  C   UNL A   1      40.904  27.772  28.954  1.00  0.00     0.074 A 
ATOM     50  C   UNL A   1      39.961  26.674  28.953  1.00  0.00     0.031 C 
ATOM     51  C   UNL A   1      46.066  25.196  26.102  1.00  0.00     0.029 A 
ATOM     52  C   UNL A   1      45.894  26.578  26.547  1.00  0.00     0.049 A 
ATOM     53  H   UNL A   1      44.222  27.404  27.476  1.00  0.00     0.167 HD
ATOM     54  C   UNL A   1      40.654  28.993  29.488  1.00  0.00     0.034 A 
ATOM     55  C   UNL A   1      46.810  27.561  26.432  1.00  0.00     0.034 A 
ATOM     56  C   UNL A   1      41.600  30.083  29.478  1.00  0.00     0.049 A 
ATOM     57  C   UNL A   1      46.490  28.930  26.984  1.00  0.00     0.074 A 
ATOM     58  C   UNL A   1      41.458  31.354  30.007  1.00  0.00     0.029 A 
ATOM     59  N   UNL A   1      42.862  30.036  28.899  1.00  0.00    -0.354 N 
ATOM     60  N   UNL A   1      45.401  29.347  27.588  1.00  0.00    -0.248 NA
ATOM     61  C   UNL A   1      47.536  29.954  26.853  1.00  0.00     0.031 C 
ATOM     62  C   UNL A   1      42.602  32.096  29.687  1.00  0.00     0.029 A 
ATOM     63  C   UNL A   1      43.493  31.265  29.027  1.00  0.00     0.049 A 
ATOM     64  H   UNL A   1      43.251  29.245  28.460  1.00  0.00     0.167 HD
ATOM     65  C   UNL A   1      45.641  30.676  27.931  1.00  0.00     0.074 A 
ATOM     66  C   UNL A   1      46.986  30.980  27.487  1.00  0.00     0.031 C 
ATOM     67  C   UNL A   1      44.828  31.565  28.559  1.00  0.00     0.034 A 
BRANCH  54  68
ATOM     68  C   UNL A   1      39.281  29.220  30.077  1.00  0.00     0.023 A 
ATOM     69  C   UNL A   1      38.264  29.876  29.360  1.00  0.00     0.031 A 
ATOM     70  C   UNL A   1      38.999  28.816  31.393  1.00  0.00     0.131 A 
ATOM     71  C   UNL A   1      37.046  30.178  29.988  1.00  0.00     0.055 A 
ATOM     72  C   UNL A   1      37.756  29.047  31.986  1.00  0.00     0.041 A 
ATOM     73  F   UNL A   1      39.937  28.207  32.136  1.00  0.00    -0.206 F 
ATOM     74  C   UNL A   1      36.776  29.747  31.288  1.00  0.00     0.022 A 
BRANCH  71  75
ATOM     75  S   UNL A   1      35.881  31.279  29.139  1.00  0.00     0.124 S 
ATOM     76  O   UNL A   1      35.214  31.929  30.264  1.00  0.00    -0.237 OA
ATOM     77  O   UNL A   1      36.765  32.123  28.344  1.00  0.00    -0.237 OA
ATOM     78  O   UNL A   1      35.039  30.362  28.373  1.00  0.00    -0.744 OA
ENDBRANCH  71  75
ENDBRANCH  54  68
BRANCH  55  79
ATOM     79  C   UNL A   1      48.107  27.307  25.740  1.00  0.00     0.023 A 
ATOM     80  C   UNL A   1      48.274  27.580  24.373  1.00  0.00     0.031 A 
ATOM     81  C   UNL A   1      49.186  26.732  26.435  1.00  0.00     0.131 A 
ATOM     82  C   UNL A   1      49.476  27.237  23.735  1.00  0.00     0.055 A 
ATOM     83  C   UNL A   1      50.396  26.439  25.807  1.00  0.00     0.041 A 
ATOM     84  F   UNL A   1      49.078  26.452  27.744  1.00  0.00    -0.206 F 
ATOM     85  C   UNL A   1      50.542  26.680  24.445  1.00  0.00     0.022 A 
BRANCH  82  86
ATOM     86  S   UNL A   1      49.602  27.461  21.939  1.00  0.00     0.124 S 
ATOM     87  O   UNL A   1      49.925  28.879  21.836  1.00  0.00    -0.237 OA
ATOM     88  O   UNL A   1      50.673  26.532  21.593  1.00  0.00    -0.237 OA
ATOM     89  O   UNL A   1      48.275  27.085  21.455  1.00  0.00    -0.744 OA
ENDBRANCH  82  86
ENDBRANCH  55  79
BRANCH  67  90
ATOM     90  C   UNL A   1      45.394  32.940  28.826  1.00  0.00     0.023 A 
ATOM     91  C   UNL A   1      45.164  34.018  27.952  1.00  0.00     0.031 A 
ATOM     92  C   UNL A   1      46.204  33.168  29.954  1.00  0.00     0.131 A 
ATOM     93  C   UNL A   1      45.794  35.251  28.179  1.00  0.00     0.055 A 
ATOM     94  C   UNL A   1      46.774  34.416  30.210  1.00  0.00     0.041 A 
ATOM     95  F   UNL A   1      46.459  32.177  30.823  1.00  0.00    -0.206 F 
ATOM     96  C   UNL A   1      46.585  35.461  29.311  1.00  0.00     0.022 A 
BRANCH  93  97
ATOM     97  S   UNL A   1      45.665  36.542  26.910  1.00  0.00     0.124 S 
ATOM     98  O   UNL A   1      46.430  37.632  27.508  1.00  0.00    -0.237 OA
ATOM     99  O   UNL A   1      46.272  35.899  25.751  1.00  0.00    -0.237 OA
ATOM    100  O   UNL A   1      44.227  36.779  26.807  1.00  0.00    -0.744 OA
ENDBRANCH  93  97
ENDBRANCH  67  90
ENDBRANCH  41  42
ENDBRANCH  34  36
ENDBRANCH  33  34
ENDBRANCH  32  33
ENDBRANCH  31  32
ENDBRANCH   1  31
TORSDOF 20
ENDMDL
