MODEL 1
REMARK VINA RESULT:     -11.0      0.000      0.000
REMARK SMILES Cc1ccc([C@@](C)(O)[C@H](F)C(=O)OCCOCCOC(=O)c2ccc(-c3c4nc(c(-c5cc(S(=O)(=O)[O-])ccc5F)c5ccc([nH]5)c(-c5cc(S(=O)(=O)[O-])ccc5F)c5nc(c(-c6cc(S(=O)(=O)[O-])ccc6F)c6ccc3[nH]6)C=C5)C=C4)cc2)cc1F
REMARK SMILES IDX 17 1 16 2 15 3 14 4 13 5 11 6 12 7 9 8 10 9 6 10 7 11 5 12
REMARK SMILES IDX 1 13 2 14 3 15 86 16 4 17 85 18 87 19 8 20 18 22 19 23 20 24
REMARK SMILES IDX 21 25 22 26 23 27 84 28 24 29 83 30 25 31 26 32 27 33 77 34
REMARK SMILES IDX 28 35 82 36 76 37 78 38 29 39 81 40 75 41 74 42 30 44 62 45
REMARK SMILES IDX 42 46 61 47 43 48 46 49 60 50 79 51 44 52 45 53 59 55 80 56
REMARK SMILES IDX 47 57 31 58 32 59 40 60 33 61 39 62 41 63 38 64 34 65 35 66
REMARK SMILES IDX 36 67 37 68 63 69 64 70 72 71 65 72 71 73 73 74 70 75 66 76
REMARK SMILES IDX 67 77 68 78 69 79 48 80 49 81 57 82 50 83 56 84 58 85 55 86
REMARK SMILES IDX 51 87 52 88 53 89 54 90
REMARK H PARENT 8 21 78 43 46 54
REMARK Flexibility Score: inf
ROOT
ATOM      1  C   UNL A   1      39.355  21.226  25.756  1.00  0.00     0.202 C 
ENDROOT
BRANCH   1   2
ATOM      2  O   UNL A   1      38.253  22.085  25.480  1.00  0.00    -0.374 OA
BRANCH   2   3
ATOM      3  C   UNL A   1      37.158  21.634  24.681  1.00  0.00     0.202 C 
BRANCH   3   4
ATOM      4  C   UNL A   1      36.368  22.678  23.881  1.00  0.00     0.261 C 
BRANCH   4   5
ATOM      5  O   UNL A   1      34.950  22.439  23.869  1.00  0.00    -0.461 OA
BRANCH   5   6
ATOM      6  C   UNL A   1      34.187  23.330  23.177  1.00  0.00     0.344 C 
ATOM      7  O   UNL A   1      33.470  23.040  22.224  1.00  0.00    -0.249 OA
BRANCH   6   8
ATOM      8  C   UNL A   1      34.195  24.703  23.830  1.00  0.00     0.311 C 
ATOM      9  F   UNL A   1      34.099  25.716  22.908  1.00  0.00    -0.231 F 
BRANCH   8  10
ATOM     10  C   UNL A   1      33.085  24.897  24.893  1.00  0.00     0.129 C 
ATOM     11  C   UNL A   1      33.407  24.124  26.185  1.00  0.00     0.051 C 
BRANCH  10  12
ATOM     12  C   UNL A   1      32.820  26.370  25.260  1.00  0.00    -0.010 A 
ATOM     13  C   UNL A   1      31.905  30.515  26.172  1.00  0.00     0.047 C 
ATOM     14  C   UNL A   1      32.229  29.085  25.873  1.00  0.00    -0.015 A 
ATOM     15  C   UNL A   1      33.312  28.439  26.474  1.00  0.00     0.007 A 
ATOM     16  C   UNL A   1      31.455  28.369  24.963  1.00  0.00     0.126 A 
ATOM     17  C   UNL A   1      33.601  27.100  26.175  1.00  0.00     0.007 A 
ATOM     18  C   UNL A   1      31.741  27.042  24.655  1.00  0.00     0.046 A 
ATOM     19  F   UNL A   1      30.408  28.960  24.368  1.00  0.00    -0.207 F 
ENDBRANCH  10  12
BRANCH  10  20
ATOM     20  O   UNL A   1      31.852  24.360  24.383  1.00  0.00    -0.382 OA
ATOM     21  H   UNL A   1      31.823  23.404  24.547  1.00  0.00     0.212 HD
ENDBRANCH  10  20
ENDBRANCH   8  10
ENDBRANCH   6   8
ENDBRANCH   5   6
ENDBRANCH   4   5
ENDBRANCH   3   4
ENDBRANCH   2   3
ENDBRANCH   1   2
BRANCH   1  22
ATOM     22  C   UNL A   1      40.249  21.505  26.962  1.00  0.00     0.261 C 
BRANCH  22  23
ATOM     23  O   UNL A   1      41.296  22.414  26.631  1.00  0.00    -0.460 OA
BRANCH  23  24
ATOM     24  C   UNL A   1      41.308  23.492  27.434  1.00  0.00     0.338 C 
ATOM     25  O   UNL A   1      42.081  23.701  28.370  1.00  0.00    -0.246 OA
BRANCH  24  26
ATOM     26  C   UNL A   1      40.223  24.416  27.088  1.00  0.00     0.060 A 
ATOM     27  C   UNL A   1      40.654  25.508  26.317  1.00  0.00     0.016 A 
ATOM     28  C   UNL A   1      39.320  24.560  28.138  1.00  0.00     0.016 A 
ATOM     29  C   UNL A   1      40.545  26.771  26.864  1.00  0.00     0.010 A 
ATOM     30  C   UNL A   1      39.219  25.814  28.686  1.00  0.00     0.010 A 
ATOM     31  C   UNL A   1      39.939  26.874  28.109  1.00  0.00    -0.014 A 
BRANCH  31  32
ATOM     32  C   UNL A   1      40.108  28.027  28.963  1.00  0.00     0.031 A 
ATOM     33  C   UNL A   1      39.219  29.178  28.799  1.00  0.00     0.074 A 
ATOM     34  C   UNL A   1      40.992  27.952  29.982  1.00  0.00     0.049 A 
ATOM     35  N   UNL A   1      39.463  30.343  29.283  1.00  0.00    -0.248 NA
ATOM     36  C   UNL A   1      37.997  29.105  28.012  1.00  0.00     0.031 C 
ATOM     37  C   UNL A   1      40.997  28.763  31.191  1.00  0.00     0.029 A 
ATOM     38  N   UNL A   1      42.200  27.247  30.031  1.00  0.00    -0.354 N 
ATOM     39  C   UNL A   1      38.309  31.078  29.148  1.00  0.00     0.074 A 
ATOM     40  C   UNL A   1      37.471  30.309  28.254  1.00  0.00     0.031 C 
ATOM     41  C   UNL A   1      42.224  28.724  31.730  1.00  0.00     0.029 A 
ATOM     42  C   UNL A   1      43.084  28.042  30.777  1.00  0.00     0.049 A 
ATOM     43  H   UNL A   1      42.390  26.370  29.626  1.00  0.00     0.167 HD
ATOM     44  C   UNL A   1      38.126  32.164  29.950  1.00  0.00     0.034 A 
ATOM     45  C   UNL A   1      44.269  28.530  30.314  1.00  0.00     0.034 A 
ATOM     46  C   UNL A   1      39.304  32.407  30.784  1.00  0.00     0.049 A 
ATOM     47  C   UNL A   1      44.387  30.032  30.456  1.00  0.00     0.074 A 
ATOM     48  C   UNL A   1      39.614  32.068  32.091  1.00  0.00     0.029 A 
ATOM     49  N   UNL A   1      40.497  32.806  30.192  1.00  0.00    -0.354 N 
ATOM     50  N   UNL A   1      43.369  30.832  30.602  1.00  0.00    -0.248 NA
ATOM     51  C   UNL A   1      45.653  30.752  30.417  1.00  0.00     0.031 C 
ATOM     52  C   UNL A   1      41.004  32.266  32.287  1.00  0.00     0.029 A 
ATOM     53  C   UNL A   1      41.541  32.736  31.101  1.00  0.00     0.049 A 
ATOM     54  H   UNL A   1      40.587  33.098  29.256  1.00  0.00     0.167 HD
ATOM     55  C   UNL A   1      43.794  32.140  30.643  1.00  0.00     0.074 A 
ATOM     56  C   UNL A   1      45.239  32.025  30.548  1.00  0.00     0.031 C 
ATOM     57  C   UNL A   1      42.891  33.168  30.730  1.00  0.00     0.034 A 
BRANCH  44  58
ATOM     58  C   UNL A   1      36.764  32.780  30.195  1.00  0.00     0.023 A 
ATOM     59  C   UNL A   1      36.122  32.786  31.451  1.00  0.00     0.031 A 
ATOM     60  C   UNL A   1      36.088  33.474  29.169  1.00  0.00     0.131 A 
ATOM     61  C   UNL A   1      34.973  33.563  31.688  1.00  0.00     0.055 A 
ATOM     62  C   UNL A   1      34.906  34.190  29.387  1.00  0.00     0.041 A 
ATOM     63  F   UNL A   1      36.567  33.529  27.919  1.00  0.00    -0.206 F 
ATOM     64  C   UNL A   1      34.359  34.267  30.658  1.00  0.00     0.022 A 
BRANCH  61  65
ATOM     65  S   UNL A   1      34.319  33.777  33.370  1.00  0.00     0.124 S 
ATOM     66  O   UNL A   1      34.253  35.232  33.498  1.00  0.00    -0.237 OA
ATOM     67  O   UNL A   1      33.028  33.100  33.296  1.00  0.00    -0.237 OA
ATOM     68  O   UNL A   1      35.321  33.137  34.219  1.00  0.00    -0.744 OA
ENDBRANCH  61  65
ENDBRANCH  44  58
BRANCH  45  69
ATOM     69  C   UNL A   1      44.898  27.731  29.231  1.00  0.00     0.023 A 
ATOM     70  C   UNL A   1      44.592  27.978  27.882  1.00  0.00     0.031 A 
ATOM     71  C   UNL A   1      45.495  26.500  29.568  1.00  0.00     0.131 A 
ATOM     72  C   UNL A   1      44.798  26.963  26.932  1.00  0.00     0.055 A 
ATOM     73  C   UNL A   1      45.695  25.497  28.619  1.00  0.00     0.041 A 
ATOM     74  F   UNL A   1      45.804  26.226  30.847  1.00  0.00    -0.206 F 
ATOM     75  C   UNL A   1      45.318  25.717  27.299  1.00  0.00     0.022 A 
BRANCH  72  76
ATOM     76  S   UNL A   1      44.257  27.177  25.210  1.00  0.00     0.124 S 
ATOM     77  O   UNL A   1      43.733  25.851  24.901  1.00  0.00    -0.237 OA
ATOM     78  O   UNL A   1      43.256  28.238  25.310  1.00  0.00    -0.237 OA
ATOM     79  O   UNL A   1      45.482  27.557  24.517  1.00  0.00    -0.744 OA
ENDBRANCH  72  76
ENDBRANCH  45  69
BRANCH  57  80
ATOM     80  C   UNL A   1      43.111  34.669  30.546  1.00  0.00     0.023 A 
ATOM     81  C   UNL A   1      42.857  35.225  29.260  1.00  0.00     0.031 A 
ATOM     82  C   UNL A   1      43.632  35.574  31.482  1.00  0.00     0.131 A 
ATOM     83  C   UNL A   1      43.163  36.554  28.937  1.00  0.00     0.055 A 
ATOM     84  C   UNL A   1      43.883  36.923  31.178  1.00  0.00     0.041 A 
ATOM     85  F   UNL A   1      43.958  35.214  32.726  1.00  0.00    -0.206 F 
ATOM     86  C   UNL A   1      43.670  37.414  29.899  1.00  0.00     0.022 A 
BRANCH  83  87
ATOM     87  S   UNL A   1      43.030  37.152  27.228  1.00  0.00     0.124 S 
ATOM     88  O   UNL A   1      44.372  37.674  26.990  1.00  0.00    -0.237 OA
ATOM     89  O   UNL A   1      42.697  35.928  26.501  1.00  0.00    -0.237 OA
ATOM     90  O   UNL A   1      41.963  38.144  27.289  1.00  0.00    -0.744 OA
ENDBRANCH  83  87
ENDBRANCH  57  80
ENDBRANCH  31  32
ENDBRANCH  24  26
ENDBRANCH  23  24
ENDBRANCH  22  23
ENDBRANCH   1  22
TORSDOF 20
ENDMDL
MODEL 2
REMARK VINA RESULT:     -10.8      1.982      3.205
REMARK SMILES Cc1ccc([C@@](C)(O)[C@H](F)C(=O)OCCOCCOC(=O)c2ccc(-c3c4nc(c(-c5cc(S(=O)(=O)[O-])ccc5F)c5ccc([nH]5)c(-c5cc(S(=O)(=O)[O-])ccc5F)c5nc(c(-c6cc(S(=O)(=O)[O-])ccc6F)c6ccc3[nH]6)C=C5)C=C4)cc2)cc1F
REMARK SMILES IDX 17 1 16 2 15 3 14 4 13 5 11 6 12 7 9 8 10 9 6 10 7 11 5 12
REMARK SMILES IDX 1 13 2 14 3 15 86 16 4 17 85 18 87 19 8 20 18 22 19 23 20 24
REMARK SMILES IDX 21 25 22 26 23 27 84 28 24 29 83 30 25 31 26 32 27 33 77 34
REMARK SMILES IDX 28 35 82 36 76 37 78 38 29 39 81 40 75 41 74 42 30 44 62 45
REMARK SMILES IDX 42 46 61 47 43 48 46 49 60 50 79 51 44 52 45 53 59 55 80 56
REMARK SMILES IDX 47 57 31 58 32 59 40 60 33 61 39 62 41 63 38 64 34 65 35 66
REMARK SMILES IDX 36 67 37 68 63 69 64 70 72 71 65 72 71 73 73 74 70 75 66 76
REMARK SMILES IDX 67 77 68 78 69 79 48 80 49 81 57 82 50 83 56 84 58 85 55 86
REMARK SMILES IDX 51 87 52 88 53 89 54 90
REMARK H PARENT 8 21 78 43 46 54
REMARK Flexibility Score: inf
ROOT
ATOM      1  C   UNL A   1      40.025  20.738  25.873  1.00  0.00     0.202 C 
ENDROOT
BRANCH   1   2
ATOM      2  O   UNL A   1      38.724  21.208  26.208  1.00  0.00    -0.374 OA
BRANCH   2   3
ATOM      3  C   UNL A   1      38.034  22.121  25.353  1.00  0.00     0.202 C 
BRANCH   3   4
ATOM      4  C   UNL A   1      36.500  22.084  25.341  1.00  0.00     0.261 C 
BRANCH   4   5
ATOM      5  O   UNL A   1      35.896  23.379  25.180  1.00  0.00    -0.461 OA
BRANCH   5   6
ATOM      6  C   UNL A   1      35.318  23.636  23.975  1.00  0.00     0.344 C 
ATOM      7  O   UNL A   1      35.727  23.207  22.900  1.00  0.00    -0.249 OA
BRANCH   6   8
ATOM      8  C   UNL A   1      34.002  24.382  24.130  1.00  0.00     0.311 C 
ATOM      9  F   UNL A   1      33.526  24.850  22.930  1.00  0.00    -0.231 F 
BRANCH   8  10
ATOM     10  C   UNL A   1      32.888  23.549  24.811  1.00  0.00     0.129 C 
ATOM     11  C   UNL A   1      31.527  24.265  24.734  1.00  0.00     0.051 C 
BRANCH  10  12
ATOM     12  C   UNL A   1      32.724  22.129  24.233  1.00  0.00    -0.010 A 
ATOM     13  C   UNL A   1      32.320  18.055  22.791  1.00  0.00     0.047 C 
ATOM     14  C   UNL A   1      32.448  19.465  23.276  1.00  0.00    -0.015 A 
ATOM     15  C   UNL A   1      32.153  20.552  22.450  1.00  0.00     0.007 A 
ATOM     16  C   UNL A   1      32.887  19.719  24.572  1.00  0.00     0.126 A 
ATOM     17  C   UNL A   1      32.286  21.865  22.923  1.00  0.00     0.007 A 
ATOM     18  C   UNL A   1      33.030  21.021  25.046  1.00  0.00     0.046 A 
ATOM     19  F   UNL A   1      33.180  18.699  25.391  1.00  0.00    -0.207 F 
ENDBRANCH  10  12
BRANCH  10  20
ATOM     20  O   UNL A   1      33.202  23.403  26.207  1.00  0.00    -0.382 OA
ATOM     21  H   UNL A   1      33.664  24.197  26.520  1.00  0.00     0.212 HD
ENDBRANCH  10  20
ENDBRANCH   8  10
ENDBRANCH   6   8
ENDBRANCH   5   6
ENDBRANCH   4   5
ENDBRANCH   3   4
ENDBRANCH   2   3
ENDBRANCH   1   2
BRANCH   1  22
ATOM     22  C   UNL A   1      41.240  21.265  26.632  1.00  0.00     0.261 C 
BRANCH  22  23
ATOM     23  O   UNL A   1      41.545  22.606  26.254  1.00  0.00    -0.460 OA
BRANCH  23  24
ATOM     24  C   UNL A   1      41.328  23.480  27.252  1.00  0.00     0.338 C 
ATOM     25  O   UNL A   1      41.905  23.511  28.339  1.00  0.00    -0.246 OA
BRANCH  24  26
ATOM     26  C   UNL A   1      40.248  24.411  26.906  1.00  0.00     0.060 A 
ATOM     27  C   UNL A   1      40.685  25.502  26.138  1.00  0.00     0.016 A 
ATOM     28  C   UNL A   1      39.346  24.558  27.957  1.00  0.00     0.016 A 
ATOM     29  C   UNL A   1      40.583  26.764  26.686  1.00  0.00     0.010 A 
ATOM     30  C   UNL A   1      39.251  25.812  28.507  1.00  0.00     0.010 A 
ATOM     31  C   UNL A   1      39.978  26.869  27.931  1.00  0.00    -0.014 A 
BRANCH  31  32
ATOM     32  C   UNL A   1      40.153  28.019  28.788  1.00  0.00     0.031 A 
ATOM     33  C   UNL A   1      39.244  29.158  28.654  1.00  0.00     0.074 A 
ATOM     34  C   UNL A   1      41.065  27.952  29.782  1.00  0.00     0.049 A 
ATOM     35  N   UNL A   1      39.483  30.324  29.139  1.00  0.00    -0.248 NA
ATOM     36  C   UNL A   1      38.002  29.072  27.900  1.00  0.00     0.031 C 
ATOM     37  C   UNL A   1      41.091  28.756  30.996  1.00  0.00     0.029 A 
ATOM     38  N   UNL A   1      42.284  27.263  29.795  1.00  0.00    -0.354 N 
ATOM     39  C   UNL A   1      38.317  31.043  29.039  1.00  0.00     0.074 A 
ATOM     40  C   UNL A   1      37.466  30.267  28.163  1.00  0.00     0.031 C 
ATOM     41  C   UNL A   1      42.333  28.732  31.502  1.00  0.00     0.029 A 
ATOM     42  C   UNL A   1      43.176  28.067  30.522  1.00  0.00     0.049 A 
ATOM     43  H   UNL A   1      42.475  26.391  29.379  1.00  0.00     0.167 HD
ATOM     44  C   UNL A   1      38.139  32.121  29.852  1.00  0.00     0.034 A 
ATOM     45  C   UNL A   1      44.341  28.574  30.030  1.00  0.00     0.034 A 
ATOM     46  C   UNL A   1      39.336  32.377  30.655  1.00  0.00     0.049 A 
ATOM     47  C   UNL A   1      44.442  30.077  30.177  1.00  0.00     0.074 A 
ATOM     48  C   UNL A   1      39.685  32.035  31.951  1.00  0.00     0.029 A 
ATOM     49  N   UNL A   1      40.507  32.796  30.034  1.00  0.00    -0.354 N 
ATOM     50  N   UNL A   1      43.417  30.862  30.355  1.00  0.00    -0.248 NA
ATOM     51  C   UNL A   1      45.695  30.815  30.109  1.00  0.00     0.031 C 
ATOM     52  C   UNL A   1      41.077  32.252  32.111  1.00  0.00     0.029 A 
ATOM     53  C   UNL A   1      41.575  32.736  30.914  1.00  0.00     0.049 A 
ATOM     54  H   UNL A   1      40.567  33.095  29.098  1.00  0.00     0.167 HD
ATOM     55  C   UNL A   1      43.824  32.175  30.393  1.00  0.00     0.074 A 
ATOM     56  C   UNL A   1      45.267  32.082  30.259  1.00  0.00     0.031 C 
ATOM     57  C   UNL A   1      42.909  33.190  30.510  1.00  0.00     0.034 A 
BRANCH  44  58
ATOM     58  C   UNL A   1      36.776  32.716  30.137  1.00  0.00     0.023 A 
ATOM     59  C   UNL A   1      36.174  32.720  31.412  1.00  0.00     0.031 A 
ATOM     60  C   UNL A   1      36.056  33.393  29.128  1.00  0.00     0.131 A 
ATOM     61  C   UNL A   1      35.020  33.480  31.682  1.00  0.00     0.055 A 
ATOM     62  C   UNL A   1      34.870  34.091  29.380  1.00  0.00     0.041 A 
ATOM     63  F   UNL A   1      36.493  33.448  27.863  1.00  0.00    -0.206 F 
ATOM     64  C   UNL A   1      34.362  34.167  30.668  1.00  0.00     0.022 A 
BRANCH  61  65
ATOM     65  S   UNL A   1      34.417  33.693  33.382  1.00  0.00     0.124 S 
ATOM     66  O   UNL A   1      34.380  35.148  33.522  1.00  0.00    -0.237 OA
ATOM     67  O   UNL A   1      33.113  33.039  33.340  1.00  0.00    -0.237 OA
ATOM     68  O   UNL A   1      35.431  33.029  34.199  1.00  0.00    -0.744 OA
ENDBRANCH  61  65
ENDBRANCH  44  58
BRANCH  45  69
ATOM     69  C   UNL A   1      44.952  27.791  28.925  1.00  0.00     0.023 A 
ATOM     70  C   UNL A   1      46.059  26.958  29.157  1.00  0.00     0.031 A 
ATOM     71  C   UNL A   1      44.665  28.171  27.599  1.00  0.00     0.131 A 
ATOM     72  C   UNL A   1      46.897  26.612  28.083  1.00  0.00     0.055 A 
ATOM     73  C   UNL A   1      45.502  27.824  26.538  1.00  0.00     0.041 A 
ATOM     74  F   UNL A   1      43.613  28.965  27.335  1.00  0.00    -0.206 F 
ATOM     75  C   UNL A   1      46.641  27.065  26.784  1.00  0.00     0.022 A 
BRANCH  72  76
ATOM     76  S   UNL A   1      48.433  25.682  28.364  1.00  0.00     0.124 S 
ATOM     77  O   UNL A   1      48.167  24.447  27.633  1.00  0.00    -0.237 OA
ATOM     78  O   UNL A   1      49.453  26.548  27.775  1.00  0.00    -0.237 OA
ATOM     79  O   UNL A   1      48.495  25.565  29.815  1.00  0.00    -0.744 OA
ENDBRANCH  72  76
ENDBRANCH  45  69
BRANCH  57  80
ATOM     80  C   UNL A   1      43.102  34.695  30.329  1.00  0.00     0.023 A 
ATOM     81  C   UNL A   1      42.877  35.242  29.034  1.00  0.00     0.031 A 
ATOM     82  C   UNL A   1      43.574  35.613  31.278  1.00  0.00     0.131 A 
ATOM     83  C   UNL A   1      43.165  36.578  28.717  1.00  0.00     0.055 A 
ATOM     84  C   UNL A   1      43.806  36.966  30.978  1.00  0.00     0.041 A 
ATOM     85  F   UNL A   1      43.868  35.263  32.533  1.00  0.00    -0.206 F 
ATOM     86  C   UNL A   1      43.622  37.450  29.692  1.00  0.00     0.022 A 
BRANCH  83  87
ATOM     87  S   UNL A   1      43.072  37.169  27.003  1.00  0.00     0.124 S 
ATOM     88  O   UNL A   1      41.822  37.922  27.016  1.00  0.00    -0.237 OA
ATOM     89  O   UNL A   1      44.287  37.976  26.892  1.00  0.00    -0.237 OA
ATOM     90  O   UNL A   1      43.070  35.945  26.212  1.00  0.00    -0.744 OA
ENDBRANCH  83  87
ENDBRANCH  57  80
ENDBRANCH  31  32
ENDBRANCH  24  26
ENDBRANCH  23  24
ENDBRANCH  22  23
ENDBRANCH   1  22
TORSDOF 20
ENDMDL
MODEL 3
REMARK VINA RESULT:     -10.7      3.729      9.771
REMARK SMILES Cc1ccc([C@@](C)(O)[C@H](F)C(=O)OCCOCCOC(=O)c2ccc(-c3c4nc(c(-c5cc(S(=O)(=O)[O-])ccc5F)c5ccc([nH]5)c(-c5cc(S(=O)(=O)[O-])ccc5F)c5nc(c(-c6cc(S(=O)(=O)[O-])ccc6F)c6ccc3[nH]6)C=C5)C=C4)cc2)cc1F
REMARK SMILES IDX 17 1 16 2 15 3 14 4 13 5 11 6 12 7 9 8 10 9 6 10 7 11 5 12
REMARK SMILES IDX 1 13 2 14 3 15 86 16 4 17 85 18 87 19 8 20 18 22 19 23 20 24
REMARK SMILES IDX 21 25 22 26 23 27 84 28 24 29 83 30 25 31 26 32 27 33 77 34
REMARK SMILES IDX 28 35 82 36 76 37 78 38 29 39 81 40 75 41 74 42 30 44 62 45
REMARK SMILES IDX 42 46 61 47 43 48 46 49 60 50 79 51 44 52 45 53 59 55 80 56
REMARK SMILES IDX 47 57 31 58 32 59 40 60 33 61 39 62 41 63 38 64 34 65 35 66
REMARK SMILES IDX 36 67 37 68 63 69 64 70 72 71 65 72 71 73 73 74 70 75 66 76
REMARK SMILES IDX 67 77 68 78 69 79 48 80 49 81 57 82 50 83 56 84 58 85 55 86
REMARK SMILES IDX 51 87 52 88 53 89 54 90
REMARK H PARENT 8 21 78 43 46 54
REMARK Flexibility Score: inf
ROOT
ATOM      1  C   UNL A   1      33.595  32.970  28.012  1.00  0.00     0.202 C 
ENDROOT
BRANCH   1   2
ATOM      2  O   UNL A   1      33.473  31.594  27.666  1.00  0.00    -0.374 OA
BRANCH   2   3
ATOM      3  C   UNL A   1      32.459  31.157  26.759  1.00  0.00     0.202 C 
BRANCH   3   4
ATOM      4  C   UNL A   1      32.701  29.860  25.974  1.00  0.00     0.261 C 
BRANCH   4   5
ATOM      5  O   UNL A   1      31.623  29.518  25.086  1.00  0.00    -0.461 OA
BRANCH   5   6
ATOM      6  C   UNL A   1      31.967  28.929  23.908  1.00  0.00     0.344 C 
ATOM      7  O   UNL A   1      33.056  29.058  23.356  1.00  0.00    -0.249 OA
BRANCH   6   8
ATOM      8  C   UNL A   1      30.903  27.950  23.437  1.00  0.00     0.311 C 
ATOM      9  F   UNL A   1      31.014  27.668  22.098  1.00  0.00    -0.231 F 
BRANCH   8  10
ATOM     10  C   UNL A   1      30.887  26.616  24.223  1.00  0.00     0.129 C 
ATOM     11  C   UNL A   1      29.611  25.807  23.928  1.00  0.00     0.051 C 
BRANCH  10  12
ATOM     12  C   UNL A   1      32.108  25.715  23.951  1.00  0.00    -0.010 A 
ATOM     13  C   UNL A   1      35.625  23.237  23.369  1.00  0.00     0.047 C 
ATOM     14  C   UNL A   1      34.404  24.081  23.559  1.00  0.00    -0.015 A 
ATOM     15  C   UNL A   1      33.371  24.094  22.619  1.00  0.00     0.007 A 
ATOM     16  C   UNL A   1      34.284  24.892  24.684  1.00  0.00     0.126 A 
ATOM     17  C   UNL A   1      32.238  24.897  22.814  1.00  0.00     0.007 A 
ATOM     18  C   UNL A   1      33.166  25.698  24.881  1.00  0.00     0.046 A 
ATOM     19  F   UNL A   1      35.258  24.903  25.606  1.00  0.00    -0.207 F 
ENDBRANCH  10  12
BRANCH  10  20
ATOM     20  O   UNL A   1      30.880  26.905  25.631  1.00  0.00    -0.382 OA
ATOM     21  H   UNL A   1      30.525  27.795  25.778  1.00  0.00     0.212 HD
ENDBRANCH  10  20
ENDBRANCH   8  10
ENDBRANCH   6   8
ENDBRANCH   5   6
ENDBRANCH   4   5
ENDBRANCH   3   4
ENDBRANCH   2   3
ENDBRANCH   1   2
BRANCH   1  22
ATOM     22  C   UNL A   1      34.495  33.381  29.174  1.00  0.00     0.261 C 
BRANCH  22  23
ATOM     23  O   UNL A   1      35.053  32.242  29.825  1.00  0.00    -0.460 OA
BRANCH  23  24
ATOM     24  C   UNL A   1      36.257  31.908  29.328  1.00  0.00     0.338 C 
ATOM     25  O   UNL A   1      37.215  32.661  29.158  1.00  0.00    -0.246 OA
BRANCH  24  26
ATOM     26  C   UNL A   1      36.293  30.490  28.953  1.00  0.00     0.060 A 
ATOM     27  C   UNL A   1      36.458  29.632  30.051  1.00  0.00     0.016 A 
ATOM     28  C   UNL A   1      36.973  30.298  27.752  1.00  0.00     0.016 A 
ATOM     29  C   UNL A   1      37.609  28.872  30.114  1.00  0.00     0.010 A 
ATOM     30  C   UNL A   1      38.121  29.548  27.817  1.00  0.00     0.010 A 
ATOM     31  C   UNL A   1      38.483  28.953  29.039  1.00  0.00    -0.014 A 
BRANCH  31  32
ATOM     32  C   UNL A   1      39.867  28.551  29.129  1.00  0.00     0.031 A 
ATOM     33  C   UNL A   1      40.237  27.172  28.806  1.00  0.00     0.074 A 
ATOM     34  C   UNL A   1      40.800  29.496  29.374  1.00  0.00     0.049 A 
ATOM     35  N   UNL A   1      41.359  26.638  29.134  1.00  0.00    -0.248 NA
ATOM     36  C   UNL A   1      39.322  26.265  28.127  1.00  0.00     0.031 C 
ATOM     37  C   UNL A   1      42.220  29.420  29.062  1.00  0.00     0.029 A 
ATOM     38  N   UNL A   1      40.676  30.656  30.149  1.00  0.00    -0.354 N 
ATOM     39  C   UNL A   1      41.445  25.447  28.453  1.00  0.00     0.074 A 
ATOM     40  C   UNL A   1      40.115  25.207  27.936  1.00  0.00     0.031 C 
ATOM     41  C   UNL A   1      42.877  30.305  29.826  1.00  0.00     0.029 A 
ATOM     42  C   UNL A   1      41.917  30.835  30.780  1.00  0.00     0.049 A 
ATOM     43  H   UNL A   1      39.880  31.229  30.233  1.00  0.00     0.167 HD
ATOM     44  C   UNL A   1      42.674  24.894  28.253  1.00  0.00     0.034 A 
ATOM     45  C   UNL A   1      42.104  30.871  32.130  1.00  0.00     0.034 A 
ATOM     46  C   UNL A   1      43.717  25.672  28.925  1.00  0.00     0.049 A 
ATOM     47  C   UNL A   1      43.135  29.874  32.612  1.00  0.00     0.074 A 
ATOM     48  C   UNL A   1      44.591  26.649  28.479  1.00  0.00     0.029 A 
ATOM     49  N   UNL A   1      43.753  25.722  30.314  1.00  0.00    -0.354 N 
ATOM     50  N   UNL A   1      43.508  28.825  31.933  1.00  0.00    -0.248 NA
ATOM     51  C   UNL A   1      43.806  29.962  33.901  1.00  0.00     0.031 C 
ATOM     52  C   UNL A   1      45.159  27.291  29.608  1.00  0.00     0.029 A 
ATOM     53  C   UNL A   1      44.637  26.698  30.745  1.00  0.00     0.049 A 
ATOM     54  H   UNL A   1      43.223  25.143  30.908  1.00  0.00     0.167 HD
ATOM     55  C   UNL A   1      44.411  28.085  32.660  1.00  0.00     0.074 A 
ATOM     56  C   UNL A   1      44.579  28.861  33.875  1.00  0.00     0.031 C 
ATOM     57  C   UNL A   1      44.898  26.899  32.173  1.00  0.00     0.034 A 
BRANCH  44  58
ATOM     58  C   UNL A   1      42.939  23.852  27.187  1.00  0.00     0.023 A 
ATOM     59  C   UNL A   1      42.568  22.496  27.307  1.00  0.00     0.031 A 
ATOM     60  C   UNL A   1      43.511  24.213  25.948  1.00  0.00     0.131 A 
ATOM     61  C   UNL A   1      42.624  21.616  26.211  1.00  0.00     0.055 A 
ATOM     62  C   UNL A   1      43.632  23.319  24.878  1.00  0.00     0.041 A 
ATOM     63  F   UNL A   1      43.935  25.459  25.701  1.00  0.00    -0.206 F 
ATOM     64  C   UNL A   1      43.157  22.022  24.993  1.00  0.00     0.022 A 
BRANCH  61  65
ATOM     65  S   UNL A   1      41.890  19.956  26.306  1.00  0.00     0.124 S 
ATOM     66  O   UNL A   1      42.530  19.266  25.187  1.00  0.00    -0.237 OA
ATOM     67  O   UNL A   1      42.301  19.504  27.632  1.00  0.00    -0.237 OA
ATOM     68  O   UNL A   1      40.459  20.196  26.136  1.00  0.00    -0.744 OA
ENDBRANCH  61  65
ENDBRANCH  44  58
BRANCH  45  69
ATOM     69  C   UNL A   1      40.925  31.314  32.917  1.00  0.00     0.023 A 
ATOM     70  C   UNL A   1      40.843  32.623  33.421  1.00  0.00     0.031 A 
ATOM     71  C   UNL A   1      40.083  30.329  33.470  1.00  0.00     0.131 A 
ATOM     72  C   UNL A   1      40.004  32.887  34.517  1.00  0.00     0.055 A 
ATOM     73  C   UNL A   1      39.254  30.598  34.560  1.00  0.00     0.041 A 
ATOM     74  F   UNL A   1      40.130  29.065  33.014  1.00  0.00    -0.206 F 
ATOM     75  C   UNL A   1      39.234  31.877  35.106  1.00  0.00     0.022 A 
BRANCH  72  76
ATOM     76  S   UNL A   1      39.997  34.522  35.311  1.00  0.00     0.124 S 
ATOM     77  O   UNL A   1      41.362  34.973  35.064  1.00  0.00    -0.237 OA
ATOM     78  O   UNL A   1      38.959  35.240  34.573  1.00  0.00    -0.237 OA
ATOM     79  O   UNL A   1      39.663  34.222  36.697  1.00  0.00    -0.744 OA
ENDBRANCH  72  76
ENDBRANCH  45  69
BRANCH  57  80
ATOM     80  C   UNL A   1      45.698  25.813  32.889  1.00  0.00     0.023 A 
ATOM     81  C   UNL A   1      44.973  24.800  33.580  1.00  0.00     0.031 A 
ATOM     82  C   UNL A   1      47.091  25.737  33.034  1.00  0.00     0.131 A 
ATOM     83  C   UNL A   1      45.599  23.843  34.391  1.00  0.00     0.055 A 
ATOM     84  C   UNL A   1      47.724  24.741  33.798  1.00  0.00     0.041 A 
ATOM     85  F   UNL A   1      47.921  26.624  32.480  1.00  0.00    -0.206 F 
ATOM     86  C   UNL A   1      46.980  23.802  34.496  1.00  0.00     0.022 A 
BRANCH  83  87
ATOM     87  S   UNL A   1      44.620  22.715  35.425  1.00  0.00     0.124 S 
ATOM     88  O   UNL A   1      43.351  23.431  35.525  1.00  0.00    -0.237 OA
ATOM     89  O   UNL A   1      44.591  21.502  34.610  1.00  0.00    -0.237 OA
ATOM     90  O   UNL A   1      45.393  22.614  36.657  1.00  0.00    -0.744 OA
ENDBRANCH  83  87
ENDBRANCH  57  80
ENDBRANCH  31  32
ENDBRANCH  24  26
ENDBRANCH  23  24
ENDBRANCH  22  23
ENDBRANCH   1  22
TORSDOF 20
ENDMDL
