MODEL 1
REMARK VINA RESULT:     -11.1      0.000      0.000
REMARK SMILES Cc1nc(C)c(C(=O)N[C@@H](Cc2ccccc2)C(=O)OCCOCCOC(=O)c2ccc(-c3c4nc(c(-c5cc(S(=O)(=O)[O-])ccc5F)c5ccc([nH]5)c(-c5cc(S(=O)(=O)[O-])ccc5F)c5nc(c(-c6cc(S(=O)(=O)[O-])ccc6F)c6ccc3[nH]6)C=C5)C=C4)cc2)s1
REMARK SMILES IDX 24 1 23 2 22 3 21 4 20 5 18 6 19 7 10 8 9 9 7 10 8 11 6 13
REMARK SMILES IDX 1 14 2 15 3 16 92 17 4 18 5 19 11 20 12 21 13 22 17 23 14 24
REMARK SMILES IDX 16 25 15 26 25 27 26 28 27 29 28 30 29 31 30 32 91 33 31 34
REMARK SMILES IDX 90 35 32 36 33 37 34 38 84 39 35 40 89 41 83 42 85 43 36 44
REMARK SMILES IDX 88 45 82 46 81 47 37 49 69 50 49 51 68 52 50 53 53 54 67 55
REMARK SMILES IDX 86 56 51 57 52 58 66 60 87 61 54 62 38 63 39 64 47 65 40 66
REMARK SMILES IDX 46 67 48 68 45 69 41 70 42 71 43 72 44 73 70 74 71 75 79 76
REMARK SMILES IDX 72 77 78 78 80 79 77 80 73 81 74 82 75 83 76 84 55 85 56 86
REMARK SMILES IDX 64 87 57 88 63 89 65 90 62 91 58 92 59 93 60 94 61 95
REMARK H PARENT 9 12 85 48 53 59
REMARK Flexibility Score: inf
ROOT
ATOM      1  C   UNL A   1      32.954  29.700  25.128  1.00  0.00     0.202 C 
ENDROOT
BRANCH   1   2
ATOM      2  O   UNL A   1      32.679  28.301  25.058  1.00  0.00    -0.374 OA
BRANCH   2   3
ATOM      3  C   UNL A   1      33.159  27.480  26.121  1.00  0.00     0.202 C 
BRANCH   3   4
ATOM      4  C   UNL A   1      32.196  26.413  26.652  1.00  0.00     0.261 C 
BRANCH   4   5
ATOM      5  O   UNL A   1      30.822  26.763  26.420  1.00  0.00    -0.462 OA
BRANCH   5   6
ATOM      6  C   UNL A   1      30.021  25.771  25.937  1.00  0.00     0.329 C 
ATOM      7  O   UNL A   1      29.484  24.906  26.620  1.00  0.00    -0.250 OA
BRANCH   6   8
ATOM      8  C   UNL A   1      29.954  25.775  24.401  1.00  0.00     0.197 C 
BRANCH   8   9
ATOM      9  N   UNL A   1      30.134  24.448  23.790  1.00  0.00    -0.338 N 
ATOM     10  C   UNL A   1      31.218  23.629  23.578  1.00  0.00     0.263 C 
ATOM     11  O   UNL A   1      30.954  22.571  23.001  1.00  0.00    -0.268 OA
ATOM     12  H   UNL A   1      29.291  24.062  23.458  1.00  0.00     0.164 HD
BRANCH  10  13
ATOM     13  C   UNL A   1      32.582  23.956  23.972  1.00  0.00     0.115 A 
ATOM     14  C   UNL A   1      36.041  23.964  25.770  1.00  0.00     0.079 C 
ATOM     15  C   UNL A   1      34.824  24.111  24.927  1.00  0.00     0.091 A 
ATOM     16  N   UNL A   1      34.668  25.048  24.023  1.00  0.00    -0.246 NA
ATOM     17  S   UNL A   1      33.519  23.020  25.066  1.00  0.00    -0.113 S 
ATOM     18  C   UNL A   1      33.412  24.942  23.433  1.00  0.00     0.061 A 
ATOM     19  C   UNL A   1      33.134  25.896  22.321  1.00  0.00     0.068 C 
ENDBRANCH  10  13
ENDBRANCH   8   9
BRANCH   8  20
ATOM     20  C   UNL A   1      28.640  26.444  23.957  1.00  0.00     0.072 C 
BRANCH  20  21
ATOM     21  C   UNL A   1      28.811  27.777  23.267  1.00  0.00    -0.045 A 
ATOM     22  C   UNL A   1      27.719  28.640  23.110  1.00  0.00     0.004 A 
ATOM     23  C   UNL A   1      30.071  28.180  22.800  1.00  0.00     0.004 A 
ATOM     24  C   UNL A   1      27.887  29.885  22.502  1.00  0.00     0.000 A 
ATOM     25  C   UNL A   1      30.237  29.427  22.198  1.00  0.00     0.000 A 
ATOM     26  C   UNL A   1      29.145  30.279  22.049  1.00  0.00     0.000 A 
ENDBRANCH  20  21
ENDBRANCH   8  20
ENDBRANCH   6   8
ENDBRANCH   5   6
ENDBRANCH   4   5
ENDBRANCH   3   4
ENDBRANCH   2   3
ENDBRANCH   1   2
BRANCH   1  27
ATOM     27  C   UNL A   1      32.117  30.550  26.097  1.00  0.00     0.261 C 
BRANCH  27  28
ATOM     28  O   UNL A   1      32.700  30.670  27.407  1.00  0.00    -0.460 OA
BRANCH  28  29
ATOM     29  C   UNL A   1      33.543  31.723  27.551  1.00  0.00     0.338 C 
ATOM     30  O   UNL A   1      33.238  32.909  27.565  1.00  0.00    -0.246 OA
BRANCH  29  31
ATOM     31  C   UNL A   1      34.908  31.267  27.868  1.00  0.00     0.060 A 
ATOM     32  C   UNL A   1      35.098  29.898  28.095  1.00  0.00     0.016 A 
ATOM     33  C   UNL A   1      35.954  32.170  28.069  1.00  0.00     0.016 A 
ATOM     34  C   UNL A   1      36.322  29.431  28.570  1.00  0.00     0.010 A 
ATOM     35  C   UNL A   1      37.180  31.700  28.557  1.00  0.00     0.010 A 
ATOM     36  C   UNL A   1      37.359  30.334  28.842  1.00  0.00    -0.014 A 
BRANCH  36  37
ATOM     37  C   UNL A   1      38.572  29.858  29.557  1.00  0.00     0.031 A 
ATOM     38  C   UNL A   1      38.879  30.406  30.926  1.00  0.00     0.074 A 
ATOM     39  C   UNL A   1      39.365  28.916  29.013  1.00  0.00     0.049 A 
ATOM     40  N   UNL A   1      39.889  30.150  31.717  1.00  0.00    -0.248 NA
ATOM     41  C   UNL A   1      37.916  31.373  31.472  1.00  0.00     0.031 C 
ATOM     42  C   UNL A   1      39.142  28.273  27.719  1.00  0.00     0.029 A 
ATOM     43  N   UNL A   1      40.518  28.339  29.482  1.00  0.00    -0.354 N 
ATOM     44  C   UNL A   1      39.685  30.923  32.856  1.00  0.00     0.074 A 
ATOM     45  C   UNL A   1      38.473  31.684  32.633  1.00  0.00     0.031 C 
ATOM     46  C   UNL A   1      40.133  27.393  27.494  1.00  0.00     0.029 A 
ATOM     47  C   UNL A   1      41.079  27.438  28.609  1.00  0.00     0.049 A 
ATOM     48  H   UNL A   1      40.906  28.549  30.362  1.00  0.00     0.167 HD
ATOM     49  C   UNL A   1      40.433  30.986  33.986  1.00  0.00     0.034 A 
ATOM     50  C   UNL A   1      42.236  26.748  28.687  1.00  0.00     0.034 A 
ATOM     51  C   UNL A   1      41.647  30.232  34.190  1.00  0.00     0.049 A 
ATOM     52  C   UNL A   1      43.102  26.905  29.915  1.00  0.00     0.074 A 
ATOM     53  C   UNL A   1      42.477  30.215  35.298  1.00  0.00     0.029 A 
ATOM     54  N   UNL A   1      42.215  29.372  33.259  1.00  0.00    -0.354 N 
ATOM     55  N   UNL A   1      42.895  27.636  30.986  1.00  0.00    -0.248 NA
ATOM     56  C   UNL A   1      44.355  26.139  29.944  1.00  0.00     0.031 C 
ATOM     57  C   UNL A   1      43.578  29.401  35.010  1.00  0.00     0.029 A 
ATOM     58  C   UNL A   1      43.400  28.848  33.752  1.00  0.00     0.049 A 
ATOM     59  H   UNL A   1      41.832  29.164  32.375  1.00  0.00     0.167 HD
ATOM     60  C   UNL A   1      43.978  27.393  31.827  1.00  0.00     0.074 A 
ATOM     61  C   UNL A   1      44.828  26.439  31.145  1.00  0.00     0.031 C 
ATOM     62  C   UNL A   1      44.245  27.907  33.055  1.00  0.00     0.034 A 
BRANCH  49  63
ATOM     63  C   UNL A   1      39.983  31.943  35.063  1.00  0.00     0.023 A 
ATOM     64  C   UNL A   1      39.205  31.518  36.155  1.00  0.00     0.031 A 
ATOM     65  C   UNL A   1      40.317  33.307  34.983  1.00  0.00     0.131 A 
ATOM     66  C   UNL A   1      38.734  32.456  37.086  1.00  0.00     0.055 A 
ATOM     67  C   UNL A   1      39.906  34.224  35.953  1.00  0.00     0.041 A 
ATOM     68  F   UNL A   1      41.039  33.775  33.953  1.00  0.00    -0.206 F 
ATOM     69  C   UNL A   1      39.099  33.802  37.006  1.00  0.00     0.022 A 
BRANCH  66  70
ATOM     70  S   UNL A   1      37.531  31.916  38.331  1.00  0.00     0.124 S 
ATOM     71  O   UNL A   1      36.444  32.870  38.123  1.00  0.00    -0.237 OA
ATOM     72  O   UNL A   1      37.259  30.541  37.932  1.00  0.00    -0.237 OA
ATOM     73  O   UNL A   1      38.251  32.070  39.593  1.00  0.00    -0.744 OA
ENDBRANCH  66  70
ENDBRANCH  49  63
BRANCH  50  74
ATOM     74  C   UNL A   1      42.677  25.881  27.557  1.00  0.00     0.023 A 
ATOM     75  C   UNL A   1      42.182  24.576  27.403  1.00  0.00     0.031 A 
ATOM     76  C   UNL A   1      43.655  26.326  26.648  1.00  0.00     0.131 A 
ATOM     77  C   UNL A   1      42.699  23.746  26.395  1.00  0.00     0.055 A 
ATOM     78  C   UNL A   1      44.128  25.514  25.616  1.00  0.00     0.041 A 
ATOM     79  F   UNL A   1      44.164  27.564  26.751  1.00  0.00    -0.206 F 
ATOM     80  C   UNL A   1      43.659  24.210  25.493  1.00  0.00     0.022 A 
BRANCH  77  81
ATOM     81  S   UNL A   1      42.160  22.015  26.333  1.00  0.00     0.124 S 
ATOM     82  O   UNL A   1      40.729  22.158  26.093  1.00  0.00    -0.237 OA
ATOM     83  O   UNL A   1      42.949  21.493  25.222  1.00  0.00    -0.237 OA
ATOM     84  O   UNL A   1      42.524  21.498  27.650  1.00  0.00    -0.744 OA
ENDBRANCH  77  81
ENDBRANCH  50  74
BRANCH  62  85
ATOM     85  C   UNL A   1      45.489  27.410  33.752  1.00  0.00     0.023 A 
ATOM     86  C   UNL A   1      45.474  26.268  34.573  1.00  0.00     0.031 A 
ATOM     87  C   UNL A   1      46.707  28.098  33.600  1.00  0.00     0.131 A 
ATOM     88  C   UNL A   1      46.639  25.881  35.254  1.00  0.00     0.055 A 
ATOM     89  C   UNL A   1      47.876  27.674  34.233  1.00  0.00     0.041 A 
ATOM     90  F   UNL A   1      46.780  29.196  32.829  1.00  0.00    -0.206 F 
ATOM     91  C   UNL A   1      47.844  26.567  35.076  1.00  0.00     0.022 A 
BRANCH  88  92
ATOM     92  S   UNL A   1      46.539  24.517  36.445  1.00  0.00     0.124 S 
ATOM     93  O   UNL A   1      45.183  24.664  36.963  1.00  0.00    -0.237 OA
ATOM     94  O   UNL A   1      46.777  23.348  35.604  1.00  0.00    -0.237 OA
ATOM     95  O   UNL A   1      47.604  24.817  37.401  1.00  0.00    -0.744 OA
ENDBRANCH  88  92
ENDBRANCH  62  85
ENDBRANCH  36  37
ENDBRANCH  29  31
ENDBRANCH  28  29
ENDBRANCH  27  28
ENDBRANCH   1  27
TORSDOF 21
ENDMDL
MODEL 2
REMARK VINA RESULT:     -11.0      2.006      3.278
REMARK SMILES Cc1nc(C)c(C(=O)N[C@@H](Cc2ccccc2)C(=O)OCCOCCOC(=O)c2ccc(-c3c4nc(c(-c5cc(S(=O)(=O)[O-])ccc5F)c5ccc([nH]5)c(-c5cc(S(=O)(=O)[O-])ccc5F)c5nc(c(-c6cc(S(=O)(=O)[O-])ccc6F)c6ccc3[nH]6)C=C5)C=C4)cc2)s1
REMARK SMILES IDX 24 1 23 2 22 3 21 4 20 5 18 6 19 7 10 8 9 9 7 10 8 11 6 13
REMARK SMILES IDX 1 14 2 15 3 16 92 17 4 18 5 19 11 20 12 21 13 22 17 23 14 24
REMARK SMILES IDX 16 25 15 26 25 27 26 28 27 29 28 30 29 31 30 32 91 33 31 34
REMARK SMILES IDX 90 35 32 36 33 37 34 38 84 39 35 40 89 41 83 42 85 43 36 44
REMARK SMILES IDX 88 45 82 46 81 47 37 49 69 50 49 51 68 52 50 53 53 54 67 55
REMARK SMILES IDX 86 56 51 57 52 58 66 60 87 61 54 62 38 63 39 64 47 65 40 66
REMARK SMILES IDX 46 67 48 68 45 69 41 70 42 71 43 72 44 73 70 74 71 75 79 76
REMARK SMILES IDX 72 77 78 78 80 79 77 80 73 81 74 82 75 83 76 84 55 85 56 86
REMARK SMILES IDX 64 87 57 88 63 89 65 90 62 91 58 92 59 93 60 94 61 95
REMARK H PARENT 9 12 85 48 53 59
REMARK Flexibility Score: inf
ROOT
ATOM      1  C   UNL A   1      31.071  31.756  26.334  1.00  0.00     0.202 C 
ENDROOT
BRANCH   1   2
ATOM      2  O   UNL A   1      31.847  30.578  26.109  1.00  0.00    -0.374 OA
BRANCH   2   3
ATOM      3  C   UNL A   1      32.202  29.795  27.247  1.00  0.00     0.202 C 
BRANCH   3   4
ATOM      4  C   UNL A   1      31.644  28.369  27.300  1.00  0.00     0.261 C 
BRANCH   4   5
ATOM      5  O   UNL A   1      31.817  27.676  26.053  1.00  0.00    -0.462 OA
BRANCH   5   6
ATOM      6  C   UNL A   1      33.055  27.155  25.821  1.00  0.00     0.329 C 
ATOM      7  O   UNL A   1      34.040  27.805  25.485  1.00  0.00    -0.250 OA
BRANCH   6   8
ATOM      8  C   UNL A   1      33.065  25.620  25.908  1.00  0.00     0.197 C 
BRANCH   8   9
ATOM      9  N   UNL A   1      31.845  25.045  26.498  1.00  0.00    -0.338 N 
ATOM     10  C   UNL A   1      31.382  23.763  26.683  1.00  0.00     0.263 C 
ATOM     11  O   UNL A   1      30.272  23.693  27.216  1.00  0.00    -0.268 OA
ATOM     12  H   UNL A   1      31.222  25.730  26.833  1.00  0.00     0.164 HD
BRANCH  10  13
ATOM     13  C   UNL A   1      32.105  22.564  26.281  1.00  0.00     0.115 A 
ATOM     14  C   UNL A   1      33.203  19.329  24.404  1.00  0.00     0.079 C 
ATOM     15  C   UNL A   1      32.996  20.547  25.232  1.00  0.00     0.091 A 
ATOM     16  N   UNL A   1      33.724  20.854  26.278  1.00  0.00    -0.246 NA
ATOM     17  S   UNL A   1      31.776  21.677  24.846  1.00  0.00    -0.113 S 
ATOM     18  C   UNL A   1      33.259  22.031  26.859  1.00  0.00     0.061 A 
ATOM     19  C   UNL A   1      34.053  22.543  28.012  1.00  0.00     0.068 C 
ENDBRANCH  10  13
ENDBRANCH   8   9
BRANCH   8  20
ATOM     20  C   UNL A   1      33.364  25.040  24.514  1.00  0.00     0.072 C 
BRANCH  20  21
ATOM     21  C   UNL A   1      34.650  24.253  24.419  1.00  0.00    -0.045 A 
ATOM     22  C   UNL A   1      35.652  24.409  25.384  1.00  0.00     0.004 A 
ATOM     23  C   UNL A   1      34.846  23.335  23.376  1.00  0.00     0.004 A 
ATOM     24  C   UNL A   1      36.824  23.656  25.312  1.00  0.00     0.000 A 
ATOM     25  C   UNL A   1      36.017  22.579  23.309  1.00  0.00     0.000 A 
ATOM     26  C   UNL A   1      37.006  22.741  24.277  1.00  0.00     0.000 A 
ENDBRANCH  20  21
ENDBRANCH   8  20
ENDBRANCH   6   8
ENDBRANCH   5   6
ENDBRANCH   4   5
ENDBRANCH   3   4
ENDBRANCH   2   3
ENDBRANCH   1   2
BRANCH   1  27
ATOM     27  C   UNL A   1      31.820  33.070  26.601  1.00  0.00     0.261 C 
BRANCH  27  28
ATOM     28  O   UNL A   1      32.202  33.245  27.977  1.00  0.00    -0.460 OA
BRANCH  28  29
ATOM     29  C   UNL A   1      33.268  34.062  28.163  1.00  0.00     0.338 C 
ATOM     30  O   UNL A   1      33.249  35.284  28.248  1.00  0.00    -0.246 OA
BRANCH  29  31
ATOM     31  C   UNL A   1      34.491  33.284  28.429  1.00  0.00     0.060 A 
ATOM     32  C   UNL A   1      34.335  31.973  28.899  1.00  0.00     0.016 A 
ATOM     33  C   UNL A   1      35.759  33.862  28.348  1.00  0.00     0.016 A 
ATOM     34  C   UNL A   1      35.444  31.251  29.335  1.00  0.00     0.010 A 
ATOM     35  C   UNL A   1      36.871  33.137  28.797  1.00  0.00     0.010 A 
ATOM     36  C   UNL A   1      36.715  31.842  29.324  1.00  0.00    -0.014 A 
BRANCH  36  37
ATOM     37  C   UNL A   1      37.846  31.152  29.997  1.00  0.00     0.031 A 
ATOM     38  C   UNL A   1      38.192  31.523  31.415  1.00  0.00     0.074 A 
ATOM     39  C   UNL A   1      38.528  30.177  29.369  1.00  0.00     0.049 A 
ATOM     40  N   UNL A   1      39.148  31.068  32.185  1.00  0.00    -0.248 NA
ATOM     41  C   UNL A   1      37.344  32.545  32.047  1.00  0.00     0.031 C 
ATOM     42  C   UNL A   1      38.253  29.694  28.016  1.00  0.00     0.029 A 
ATOM     43  N   UNL A   1      39.592  29.418  29.787  1.00  0.00    -0.354 N 
ATOM     44  C   UNL A   1      39.018  31.746  33.393  1.00  0.00     0.074 A 
ATOM     45  C   UNL A   1      37.913  32.670  33.238  1.00  0.00     0.031 C 
ATOM     46  C   UNL A   1      39.133  28.724  27.713  1.00  0.00     0.029 A 
ATOM     47  C   UNL A   1      40.055  28.543  28.833  1.00  0.00     0.049 A 
ATOM     48  H   UNL A   1      39.986  29.492  30.686  1.00  0.00     0.167 HD
ATOM     49  C   UNL A   1      39.747  31.606  34.529  1.00  0.00     0.034 A 
ATOM     50  C   UNL A   1      41.117  27.711  28.851  1.00  0.00     0.034 A 
ATOM     51  C   UNL A   1      40.855  30.692  34.666  1.00  0.00     0.049 A 
ATOM     52  C   UNL A   1      41.972  27.640  30.094  1.00  0.00     0.074 A 
ATOM     53  C   UNL A   1      41.654  30.465  35.773  1.00  0.00     0.029 A 
ATOM     54  N   UNL A   1      41.331  29.862  33.659  1.00  0.00    -0.354 N 
ATOM     55  N   UNL A   1      41.835  28.284  31.231  1.00  0.00    -0.248 NA
ATOM     56  C   UNL A   1      43.121  26.725  30.057  1.00  0.00     0.031 C 
ATOM     57  C   UNL A   1      42.653  29.552  35.414  1.00  0.00     0.029 A 
ATOM     58  C   UNL A   1      42.433  29.150  34.107  1.00  0.00     0.049 A 
ATOM     59  H   UNL A   1      40.942  29.790  32.757  1.00  0.00     0.167 HD
ATOM     60  C   UNL A   1      42.865  27.828  32.052  1.00  0.00     0.074 A 
ATOM     61  C   UNL A   1      43.603  26.846  31.285  1.00  0.00     0.031 C 
ATOM     62  C   UNL A   1      43.169  28.183  33.327  1.00  0.00     0.034 A 
BRANCH  49  63
ATOM     63  C   UNL A   1      39.396  32.503  35.692  1.00  0.00     0.023 A 
ATOM     64  C   UNL A   1      38.645  32.039  36.786  1.00  0.00     0.031 A 
ATOM     65  C   UNL A   1      39.800  33.850  35.694  1.00  0.00     0.131 A 
ATOM     66  C   UNL A   1      38.267  32.929  37.803  1.00  0.00     0.055 A 
ATOM     67  C   UNL A   1      39.483  34.713  36.745  1.00  0.00     0.041 A 
ATOM     68  F   UNL A   1      40.501  34.355  34.667  1.00  0.00    -0.206 F 
ATOM     69  C   UNL A   1      38.700  34.257  37.802  1.00  0.00     0.022 A 
BRANCH  66  70
ATOM     70  S   UNL A   1      37.091  32.361  39.062  1.00  0.00     0.124 S 
ATOM     71  O   UNL A   1      35.811  32.700  38.444  1.00  0.00    -0.237 OA
ATOM     72  O   UNL A   1      37.396  30.939  39.160  1.00  0.00    -0.237 OA
ATOM     73  O   UNL A   1      37.437  33.156  40.238  1.00  0.00    -0.744 OA
ENDBRANCH  66  70
ENDBRANCH  49  63
BRANCH  50  74
ATOM     74  C   UNL A   1      41.470  26.909  27.645  1.00  0.00     0.023 A 
ATOM     75  C   UNL A   1      41.239  25.525  27.596  1.00  0.00     0.031 A 
ATOM     76  C   UNL A   1      42.106  27.510  26.543  1.00  0.00     0.131 A 
ATOM     77  C   UNL A   1      41.683  24.781  26.491  1.00  0.00     0.055 A 
ATOM     78  C   UNL A   1      42.500  26.773  25.425  1.00  0.00     0.041 A 
ATOM     79  F   UNL A   1      42.353  28.830  26.538  1.00  0.00    -0.206 F 
ATOM     80  C   UNL A   1      42.301  25.397  25.400  1.00  0.00     0.022 A 
BRANCH  77  81
ATOM     81  S   UNL A   1      41.521  22.974  26.539  1.00  0.00     0.124 S 
ATOM     82  O   UNL A   1      42.128  22.655  27.825  1.00  0.00    -0.237 OA
ATOM     83  O   UNL A   1      40.075  22.799  26.449  1.00  0.00    -0.237 OA
ATOM     84  O   UNL A   1      42.273  22.535  25.366  1.00  0.00    -0.744 OA
ENDBRANCH  77  81
ENDBRANCH  50  74
BRANCH  62  85
ATOM     85  C   UNL A   1      44.329  27.471  33.980  1.00  0.00     0.023 A 
ATOM     86  C   UNL A   1      44.167  26.240  34.640  1.00  0.00     0.031 A 
ATOM     87  C   UNL A   1      45.615  28.040  33.951  1.00  0.00     0.131 A 
ATOM     88  C   UNL A   1      45.260  25.645  35.290  1.00  0.00     0.055 A 
ATOM     89  C   UNL A   1      46.710  27.416  34.548  1.00  0.00     0.041 A 
ATOM     90  F   UNL A   1      45.828  29.215  33.335  1.00  0.00    -0.206 F 
ATOM     91  C   UNL A   1      46.534  26.218  35.234  1.00  0.00     0.022 A 
BRANCH  88  92
ATOM     92  S   UNL A   1      44.977  24.156  36.286  1.00  0.00     0.124 S 
ATOM     93  O   UNL A   1      43.975  23.449  35.496  1.00  0.00    -0.237 OA
ATOM     94  O   UNL A   1      46.304  23.548  36.323  1.00  0.00    -0.237 OA
ATOM     95  O   UNL A   1      44.502  24.682  37.565  1.00  0.00    -0.744 OA
ENDBRANCH  88  92
ENDBRANCH  62  85
ENDBRANCH  36  37
ENDBRANCH  29  31
ENDBRANCH  28  29
ENDBRANCH  27  28
ENDBRANCH   1  27
TORSDOF 21
ENDMDL
MODEL 3
REMARK VINA RESULT:     -11.0      2.008      3.238
REMARK SMILES Cc1nc(C)c(C(=O)N[C@@H](Cc2ccccc2)C(=O)OCCOCCOC(=O)c2ccc(-c3c4nc(c(-c5cc(S(=O)(=O)[O-])ccc5F)c5ccc([nH]5)c(-c5cc(S(=O)(=O)[O-])ccc5F)c5nc(c(-c6cc(S(=O)(=O)[O-])ccc6F)c6ccc3[nH]6)C=C5)C=C4)cc2)s1
REMARK SMILES IDX 24 1 23 2 22 3 21 4 20 5 18 6 19 7 10 8 9 9 7 10 8 11 6 13
REMARK SMILES IDX 1 14 2 15 3 16 92 17 4 18 5 19 11 20 12 21 13 22 17 23 14 24
REMARK SMILES IDX 16 25 15 26 25 27 26 28 27 29 28 30 29 31 30 32 91 33 31 34
REMARK SMILES IDX 90 35 32 36 33 37 34 38 84 39 35 40 89 41 83 42 85 43 36 44
REMARK SMILES IDX 88 45 82 46 81 47 37 49 69 50 49 51 68 52 50 53 53 54 67 55
REMARK SMILES IDX 86 56 51 57 52 58 66 60 87 61 54 62 38 63 39 64 47 65 40 66
REMARK SMILES IDX 46 67 48 68 45 69 41 70 42 71 43 72 44 73 70 74 71 75 79 76
REMARK SMILES IDX 72 77 78 78 80 79 77 80 73 81 74 82 75 83 76 84 55 85 56 86
REMARK SMILES IDX 64 87 57 88 63 89 65 90 62 91 58 92 59 93 60 94 61 95
REMARK H PARENT 9 12 85 48 53 59
REMARK Flexibility Score: inf
ROOT
ATOM      1  C   UNL A   1      31.416  31.112  26.368  1.00  0.00     0.202 C 
ENDROOT
BRANCH   1   2
ATOM      2  O   UNL A   1      32.657  30.471  26.071  1.00  0.00    -0.374 OA
BRANCH   2   3
ATOM      3  C   UNL A   1      32.631  29.372  25.162  1.00  0.00     0.202 C 
BRANCH   3   4
ATOM      4  C   UNL A   1      31.305  29.111  24.440  1.00  0.00     0.261 C 
BRANCH   4   5
ATOM      5  O   UNL A   1      31.389  27.988  23.548  1.00  0.00    -0.462 OA
BRANCH   5   6
ATOM      6  C   UNL A   1      30.720  26.864  23.933  1.00  0.00     0.329 C 
ATOM      7  O   UNL A   1      29.550  26.832  24.298  1.00  0.00    -0.250 OA
BRANCH   6   8
ATOM      8  C   UNL A   1      31.636  25.629  23.977  1.00  0.00     0.197 C 
BRANCH   8   9
ATOM      9  N   UNL A   1      32.286  25.319  22.692  1.00  0.00    -0.338 N 
ATOM     10  C   UNL A   1      32.969  24.231  22.202  1.00  0.00     0.263 C 
ATOM     11  O   UNL A   1      33.387  24.367  21.049  1.00  0.00    -0.268 OA
ATOM     12  H   UNL A   1      32.218  26.054  22.041  1.00  0.00     0.164 HD
BRANCH  10  13
ATOM     13  C   UNL A   1      33.213  23.008  22.955  1.00  0.00     0.115 A 
ATOM     14  C   UNL A   1      32.719  19.627  24.831  1.00  0.00     0.079 C 
ATOM     15  C   UNL A   1      33.142  20.871  24.134  1.00  0.00     0.091 A 
ATOM     16  N   UNL A   1      34.367  21.339  24.150  1.00  0.00    -0.246 NA
ATOM     17  S   UNL A   1      32.033  21.785  23.214  1.00  0.00    -0.113 S 
ATOM     18  C   UNL A   1      34.434  22.534  23.439  1.00  0.00     0.061 A 
ATOM     19  C   UNL A   1      35.793  23.133  23.304  1.00  0.00     0.068 C 
ENDBRANCH  10  13
ENDBRANCH   8   9
BRANCH   8  20
ATOM     20  C   UNL A   1      32.657  25.801  25.116  1.00  0.00     0.072 C 
BRANCH  20  21
ATOM     21  C   UNL A   1      32.858  24.576  25.976  1.00  0.00    -0.045 A 
ATOM     22  C   UNL A   1      34.141  24.203  26.393  1.00  0.00     0.004 A 
ATOM     23  C   UNL A   1      31.757  23.811  26.391  1.00  0.00     0.004 A 
ATOM     24  C   UNL A   1      34.319  23.090  27.215  1.00  0.00     0.000 A 
ATOM     25  C   UNL A   1      31.938  22.701  27.217  1.00  0.00     0.000 A 
ATOM     26  C   UNL A   1      33.219  22.341  27.629  1.00  0.00     0.000 A 
ENDBRANCH  20  21
ENDBRANCH   8  20
ENDBRANCH   6   8
ENDBRANCH   5   6
ENDBRANCH   4   5
ENDBRANCH   3   4
ENDBRANCH   2   3
ENDBRANCH   1   2
BRANCH   1  27
ATOM     27  C   UNL A   1      31.460  32.550  26.903  1.00  0.00     0.261 C 
BRANCH  27  28
ATOM     28  O   UNL A   1      32.723  33.206  26.688  1.00  0.00    -0.460 OA
BRANCH  28  29
ATOM     29  C   UNL A   1      33.299  33.695  27.814  1.00  0.00     0.338 C 
ATOM     30  O   UNL A   1      32.823  34.521  28.583  1.00  0.00    -0.246 OA
BRANCH  29  31
ATOM     31  C   UNL A   1      34.549  32.976  28.123  1.00  0.00     0.060 A 
ATOM     32  C   UNL A   1      34.444  31.642  28.538  1.00  0.00     0.016 A 
ATOM     33  C   UNL A   1      35.784  33.628  28.137  1.00  0.00     0.016 A 
ATOM     34  C   UNL A   1      35.566  30.967  29.013  1.00  0.00     0.010 A 
ATOM     35  C   UNL A   1      36.909  32.950  28.624  1.00  0.00     0.010 A 
ATOM     36  C   UNL A   1      36.799  31.629  29.096  1.00  0.00    -0.014 A 
BRANCH  36  37
ATOM     37  C   UNL A   1      37.929  30.979  29.810  1.00  0.00     0.031 A 
ATOM     38  C   UNL A   1      38.200  31.349  31.244  1.00  0.00     0.074 A 
ATOM     39  C   UNL A   1      38.676  30.039  29.202  1.00  0.00     0.049 A 
ATOM     40  N   UNL A   1      39.142  30.926  32.049  1.00  0.00    -0.248 NA
ATOM     41  C   UNL A   1      37.287  32.329  31.849  1.00  0.00     0.031 C 
ATOM     42  C   UNL A   1      38.477  29.559  27.835  1.00  0.00     0.029 A 
ATOM     43  N   UNL A   1      39.752  29.319  29.657  1.00  0.00    -0.354 N 
ATOM     44  C   UNL A   1      38.935  31.585  33.256  1.00  0.00     0.074 A 
ATOM     45  C   UNL A   1      37.800  32.464  33.063  1.00  0.00     0.031 C 
ATOM     46  C   UNL A   1      39.407  28.629  27.560  1.00  0.00     0.029 A 
ATOM     47  C   UNL A   1      40.290  28.474  28.716  1.00  0.00     0.049 A 
ATOM     48  H   UNL A   1      40.106  29.400  30.573  1.00  0.00     0.167 HD
ATOM     49  C   UNL A   1      39.621  31.463  34.420  1.00  0.00     0.034 A 
ATOM     50  C   UNL A   1      41.383  27.686  28.771  1.00  0.00     0.034 A 
ATOM     51  C   UNL A   1      40.760  30.594  34.596  1.00  0.00     0.049 A 
ATOM     52  C   UNL A   1      42.189  27.636  30.048  1.00  0.00     0.074 A 
ATOM     53  C   UNL A   1      41.521  30.388  35.733  1.00  0.00     0.029 A 
ATOM     54  N   UNL A   1      41.310  29.794  33.602  1.00  0.00    -0.354 N 
ATOM     55  N   UNL A   1      41.979  28.263  31.184  1.00  0.00    -0.248 NA
ATOM     56  C   UNL A   1      43.375  26.770  30.051  1.00  0.00     0.031 C 
ATOM     57  C   UNL A   1      42.571  29.520  35.408  1.00  0.00     0.029 A 
ATOM     58  C   UNL A   1      42.421  29.122  34.089  1.00  0.00     0.049 A 
ATOM     59  H   UNL A   1      40.962  29.716  32.684  1.00  0.00     0.167 HD
ATOM     60  C   UNL A   1      42.991  27.841  32.043  1.00  0.00     0.074 A 
ATOM     61  C   UNL A   1      43.801  26.898  31.299  1.00  0.00     0.031 C 
ATOM     62  C   UNL A   1      43.228  28.195  33.332  1.00  0.00     0.034 A 
BRANCH  49  63
ATOM     63  C   UNL A   1      39.187  32.333  35.575  1.00  0.00     0.023 A 
ATOM     64  C   UNL A   1      39.619  33.665  35.705  1.00  0.00     0.031 A 
ATOM     65  C   UNL A   1      38.346  31.813  36.575  1.00  0.00     0.131 A 
ATOM     66  C   UNL A   1      39.262  34.408  36.840  1.00  0.00     0.055 A 
ATOM     67  C   UNL A   1      37.935  32.582  37.666  1.00  0.00     0.041 A 
ATOM     68  F   UNL A   1      37.918  30.542  36.517  1.00  0.00    -0.206 F 
ATOM     69  C   UNL A   1      38.404  33.885  37.810  1.00  0.00     0.022 A 
BRANCH  66  70
ATOM     70  S   UNL A   1      40.040  36.027  37.099  1.00  0.00     0.124 S 
ATOM     71  O   UNL A   1      41.416  35.646  37.412  1.00  0.00    -0.237 OA
ATOM     72  O   UNL A   1      39.837  36.684  35.813  1.00  0.00    -0.237 OA
ATOM     73  O   UNL A   1      39.289  36.594  38.216  1.00  0.00    -0.744 OA
ENDBRANCH  66  70
ENDBRANCH  49  63
BRANCH  50  74
ATOM     74  C   UNL A   1      41.818  26.912  27.574  1.00  0.00     0.023 A 
ATOM     75  C   UNL A   1      41.592  25.529  27.477  1.00  0.00     0.031 A 
ATOM     76  C   UNL A   1      42.528  27.537  26.532  1.00  0.00     0.131 A 
ATOM     77  C   UNL A   1      42.111  24.810  26.389  1.00  0.00     0.055 A 
ATOM     78  C   UNL A   1      42.997  26.826  25.427  1.00  0.00     0.041 A 
ATOM     79  F   UNL A   1      42.773  28.856  26.574  1.00  0.00    -0.206 F 
ATOM     80  C   UNL A   1      42.801  25.450  25.357  1.00  0.00     0.022 A 
BRANCH  77  81
ATOM     81  S   UNL A   1      41.947  23.003  26.383  1.00  0.00     0.124 S 
ATOM     82  O   UNL A   1      42.713  22.631  27.567  1.00  0.00    -0.237 OA
ATOM     83  O   UNL A   1      40.501  22.831  26.475  1.00  0.00    -0.237 OA
ATOM     84  O   UNL A   1      42.539  22.612  25.107  1.00  0.00    -0.744 OA
ENDBRANCH  77  81
ENDBRANCH  50  74
BRANCH  62  85
ATOM     85  C   UNL A   1      44.388  27.523  34.027  1.00  0.00     0.023 A 
ATOM     86  C   UNL A   1      44.234  26.316  34.731  1.00  0.00     0.031 A 
ATOM     87  C   UNL A   1      45.667  28.109  33.992  1.00  0.00     0.131 A 
ATOM     88  C   UNL A   1      45.325  25.762  35.418  1.00  0.00     0.055 A 
ATOM     89  C   UNL A   1      46.762  27.522  34.627  1.00  0.00     0.041 A 
ATOM     90  F   UNL A   1      45.873  29.262  33.334  1.00  0.00    -0.206 F 
ATOM     91  C   UNL A   1      46.593  26.349  35.356  1.00  0.00     0.022 A 
BRANCH  88  92
ATOM     92  S   UNL A   1      45.049  24.308  36.465  1.00  0.00     0.124 S 
ATOM     93  O   UNL A   1      46.404  23.794  36.635  1.00  0.00    -0.237 OA
ATOM     94  O   UNL A   1      44.435  24.891  37.654  1.00  0.00    -0.237 OA
ATOM     95  O   UNL A   1      44.163  23.467  35.661  1.00  0.00    -0.744 OA
ENDBRANCH  88  92
ENDBRANCH  62  85
ENDBRANCH  36  37
ENDBRANCH  29  31
ENDBRANCH  28  29
ENDBRANCH  27  28
ENDBRANCH   1  27
TORSDOF 21
ENDMDL
