MODEL 1
REMARK VINA RESULT:     -10.8      0.000      0.000
REMARK SMILES Cc1cc(C(=O)NC[C@@H]2CC[C@H](C(=O)OCCOCCOC(=O)c3ccc(-c4c5nc(c(-c6cc(S(=O)(=O)[O-])ccc6F)c6ccc([nH]6)c(-c6cc(S(=O)(=O)[O-])ccc6F)c6nc(c(-c7cc(S(=O)(=O)[O-])ccc7F)c7ccc4[nH]7)C=C6)C=C5)cc3)O2)on1
REMARK SMILES IDX 18 1 17 2 16 3 15 4 13 5 14 6 12 7 9 8 10 9 87 10 11 11 8 12
REMARK SMILES IDX 7 13 5 14 6 15 4 17 1 18 2 19 3 20 89 21 88 22 19 23 20 24
REMARK SMILES IDX 21 25 22 26 23 27 24 28 25 29 86 30 26 31 85 32 27 33 28 34
REMARK SMILES IDX 29 35 79 36 30 37 84 38 78 39 80 40 31 41 83 42 77 43 76 44
REMARK SMILES IDX 32 46 64 47 44 48 63 49 45 50 48 51 62 52 81 53 46 54 47 55
REMARK SMILES IDX 61 57 82 58 49 59 33 60 34 61 42 62 35 63 41 64 43 65 40 66
REMARK SMILES IDX 36 67 37 68 38 69 39 70 65 71 66 72 74 73 67 74 73 75 75 76
REMARK SMILES IDX 72 77 68 78 69 79 70 80 71 81 50 82 51 83 59 84 52 85 58 86
REMARK SMILES IDX 60 87 57 88 53 89 54 90 55 91 56 92
REMARK H PARENT 7 16 80 45 48 56
REMARK Flexibility Score: inf
ROOT
ATOM      1  O   UNL A   1      36.551  20.243  25.249  1.00  0.00    -0.374 OA
ENDROOT
BRANCH   1   2
ATOM      2  C   UNL A   1      36.102  21.497  25.760  1.00  0.00     0.202 C 
BRANCH   2   3
ATOM      3  C   UNL A   1      36.381  22.725  24.889  1.00  0.00     0.261 C 
BRANCH   3   4
ATOM      4  O   UNL A   1      35.759  23.903  25.432  1.00  0.00    -0.461 OA
BRANCH   4   5
ATOM      5  C   UNL A   1      34.641  24.338  24.787  1.00  0.00     0.335 C 
ATOM      6  O   UNL A   1      34.526  24.427  23.570  1.00  0.00    -0.249 OA
BRANCH   5   7
ATOM      7  C   UNL A   1      33.521  24.737  25.763  1.00  0.00     0.228 C 
ATOM      8  C   UNL A   1      32.192  22.903  26.316  1.00  0.00     0.138 C 
ATOM      9  C   UNL A   1      31.476  23.658  25.204  1.00  0.00     0.037 C 
ATOM     10  O   UNL A   1      33.310  23.712  26.737  1.00  0.00    -0.361 OA
ATOM     11  C   UNL A   1      32.146  25.010  25.184  1.00  0.00     0.047 C 
BRANCH   8  12
ATOM     12  C   UNL A   1      32.711  21.533  25.852  1.00  0.00     0.148 C 
BRANCH  12  13
ATOM     13  N   UNL A   1      32.347  21.280  24.471  1.00  0.00    -0.347 N 
ATOM     14  C   UNL A   1      32.408  20.143  23.705  1.00  0.00     0.289 C 
ATOM     15  O   UNL A   1      32.046  20.271  22.533  1.00  0.00    -0.266 OA
ATOM     16  H   UNL A   1      31.989  22.066  23.999  1.00  0.00     0.164 HD
BRANCH  14  17
ATOM     17  C   UNL A   1      32.873  18.885  24.247  1.00  0.00     0.224 A 
ATOM     18  C   UNL A   1      34.664  15.851  25.273  1.00  0.00     0.070 C 
ATOM     19  C   UNL A   1      33.768  16.994  24.989  1.00  0.00     0.081 A 
ATOM     20  C   UNL A   1      33.976  18.072  24.100  1.00  0.00     0.083 A 
ATOM     21  N   UNL A   1      32.590  17.102  25.607  1.00  0.00    -0.084 NA
ATOM     22  O   UNL A   1      32.033  18.279  25.146  1.00  0.00    -0.351 OA
ENDBRANCH  14  17
ENDBRANCH  12  13
ENDBRANCH   8  12
ENDBRANCH   5   7
ENDBRANCH   4   5
ENDBRANCH   3   4
ENDBRANCH   2   3
ENDBRANCH   1   2
BRANCH   1  23
ATOM     23  C   UNL A   1      37.856  20.185  24.676  1.00  0.00     0.202 C 
BRANCH  23  24
ATOM     24  C   UNL A   1      38.881  19.260  25.347  1.00  0.00     0.261 C 
BRANCH  24  25
ATOM     25  O   UNL A   1      39.419  19.802  26.568  1.00  0.00    -0.460 OA
BRANCH  25  26
ATOM     26  C   UNL A   1      40.708  20.216  26.477  1.00  0.00     0.338 C 
ATOM     27  O   UNL A   1      41.634  19.616  25.945  1.00  0.00    -0.246 OA
BRANCH  26  28
ATOM     28  C   UNL A   1      40.841  21.606  26.953  1.00  0.00     0.060 A 
ATOM     29  C   UNL A   1      40.162  22.605  26.240  1.00  0.00     0.016 A 
ATOM     30  C   UNL A   1      41.688  21.941  28.010  1.00  0.00     0.016 A 
ATOM     31  C   UNL A   1      40.363  23.949  26.552  1.00  0.00     0.010 A 
ATOM     32  C   UNL A   1      41.896  23.292  28.315  1.00  0.00     0.010 A 
ATOM     33  C   UNL A   1      41.263  24.303  27.566  1.00  0.00    -0.014 A 
BRANCH  33  34
ATOM     34  C   UNL A   1      41.678  25.719  27.731  1.00  0.00     0.031 A 
ATOM     35  C   UNL A   1      43.011  26.149  27.181  1.00  0.00     0.074 A 
ATOM     36  C   UNL A   1      40.886  26.610  28.355  1.00  0.00     0.049 A 
ATOM     37  N   UNL A   1      43.638  27.288  27.313  1.00  0.00    -0.248 NA
ATOM     38  C   UNL A   1      43.733  25.150  26.378  1.00  0.00     0.031 C 
ATOM     39  C   UNL A   1      39.544  26.333  28.866  1.00  0.00     0.029 A 
ATOM     40  N   UNL A   1      41.104  27.926  28.676  1.00  0.00    -0.354 N 
ATOM     41  C   UNL A   1      44.836  27.143  26.621  1.00  0.00     0.074 A 
ATOM     42  C   UNL A   1      44.858  25.793  26.098  1.00  0.00     0.031 C 
ATOM     43  C   UNL A   1      39.067  27.442  29.458  1.00  0.00     0.029 A 
ATOM     44  C   UNL A   1      40.086  28.491  29.410  1.00  0.00     0.049 A 
ATOM     45  H   UNL A   1      41.911  28.420  28.406  1.00  0.00     0.167 HD
ATOM     46  C   UNL A   1      45.826  28.052  26.439  1.00  0.00     0.034 A 
ATOM     47  C   UNL A   1      40.004  29.697  30.007  1.00  0.00     0.034 A 
ATOM     48  C   UNL A   1      45.791  29.391  26.973  1.00  0.00     0.049 A 
ATOM     49  C   UNL A   1      41.161  30.662  29.879  1.00  0.00     0.074 A 
ATOM     50  C   UNL A   1      46.736  30.395  26.845  1.00  0.00     0.029 A 
ATOM     51  N   UNL A   1      44.761  29.913  27.745  1.00  0.00    -0.354 N 
ATOM     52  N   UNL A   1      42.298  30.507  29.240  1.00  0.00    -0.248 NA
ATOM     53  C   UNL A   1      41.023  31.962  30.548  1.00  0.00     0.031 C 
ATOM     54  C   UNL A   1      46.312  31.495  27.598  1.00  0.00     0.029 A 
ATOM     55  C   UNL A   1      45.063  31.210  28.128  1.00  0.00     0.049 A 
ATOM     56  H   UNL A   1      43.937  29.431  27.985  1.00  0.00     0.167 HD
ATOM     57  C   UNL A   1      42.990  31.706  29.399  1.00  0.00     0.074 A 
ATOM     58  C   UNL A   1      42.146  32.571  30.194  1.00  0.00     0.031 C 
ATOM     59  C   UNL A   1      44.209  32.063  28.920  1.00  0.00     0.034 A 
BRANCH  46  60
ATOM     60  C   UNL A   1      47.052  27.600  25.683  1.00  0.00     0.023 A 
ATOM     61  C   UNL A   1      47.256  27.933  24.333  1.00  0.00     0.031 A 
ATOM     62  C   UNL A   1      48.017  26.798  26.318  1.00  0.00     0.131 A 
ATOM     63  C   UNL A   1      48.357  27.406  23.642  1.00  0.00     0.055 A 
ATOM     64  C   UNL A   1      49.154  26.344  25.646  1.00  0.00     0.041 A 
ATOM     65  F   UNL A   1      47.864  26.428  27.599  1.00  0.00    -0.206 F 
ATOM     66  C   UNL A   1      49.322  26.634  24.296  1.00  0.00     0.022 A 
BRANCH  63  67
ATOM     67  S   UNL A   1      48.435  27.619  21.842  1.00  0.00     0.124 S 
ATOM     68  O   UNL A   1      48.675  26.249  21.395  1.00  0.00    -0.237 OA
ATOM     69  O   UNL A   1      47.120  28.170  21.534  1.00  0.00    -0.237 OA
ATOM     70  O   UNL A   1      49.557  28.534  21.653  1.00  0.00    -0.744 OA
ENDBRANCH  63  67
ENDBRANCH  46  60
BRANCH  47  71
ATOM     71  C   UNL A   1      38.812  30.053  30.829  1.00  0.00     0.023 A 
ATOM     72  C   UNL A   1      37.843  30.950  30.354  1.00  0.00     0.031 A 
ATOM     73  C   UNL A   1      38.653  29.539  32.129  1.00  0.00     0.131 A 
ATOM     74  C   UNL A   1      36.784  31.344  31.189  1.00  0.00     0.055 A 
ATOM     75  C   UNL A   1      37.569  29.890  32.935  1.00  0.00     0.041 A 
ATOM     76  F   UNL A   1      39.551  28.677  32.633  1.00  0.00    -0.206 F 
ATOM     77  C   UNL A   1      36.634  30.810  32.470  1.00  0.00     0.022 A 
BRANCH  74  78
ATOM     78  S   UNL A   1      35.652  32.634  30.603  1.00  0.00     0.124 S 
ATOM     79  O   UNL A   1      35.029  33.066  31.850  1.00  0.00    -0.237 OA
ATOM     80  O   UNL A   1      36.571  33.581  29.982  1.00  0.00    -0.237 OA
ATOM     81  O   UNL A   1      34.774  31.922  29.679  1.00  0.00    -0.744 OA
ENDBRANCH  74  78
ENDBRANCH  47  71
BRANCH  59  82
ATOM     82  C   UNL A   1      44.674  33.475  29.183  1.00  0.00     0.023 A 
ATOM     83  C   UNL A   1      44.342  34.541  28.330  1.00  0.00     0.031 A 
ATOM     84  C   UNL A   1      45.444  33.754  30.327  1.00  0.00     0.131 A 
ATOM     85  C   UNL A   1      44.810  35.833  28.617  1.00  0.00     0.055 A 
ATOM     86  C   UNL A   1      45.862  35.049  30.634  1.00  0.00     0.041 A 
ATOM     87  F   UNL A   1      45.788  32.772  31.174  1.00  0.00    -0.206 F 
ATOM     88  C   UNL A   1      45.552  36.097  29.772  1.00  0.00     0.022 A 
BRANCH  85  89
ATOM     89  S   UNL A   1      44.482  37.166  27.430  1.00  0.00     0.124 S 
ATOM     90  O   UNL A   1      44.294  38.315  28.309  1.00  0.00    -0.237 OA
ATOM     91  O   UNL A   1      45.699  37.173  26.624  1.00  0.00    -0.237 OA
ATOM     92  O   UNL A   1      43.281  36.716  26.730  1.00  0.00    -0.744 OA
ENDBRANCH  85  89
ENDBRANCH  59  82
ENDBRANCH  33  34
ENDBRANCH  26  28
ENDBRANCH  25  26
ENDBRANCH  24  25
ENDBRANCH  23  24
ENDBRANCH   1  23
TORSDOF 20
ENDMDL
MODEL 2
REMARK VINA RESULT:     -10.7      1.469      2.305
REMARK SMILES Cc1cc(C(=O)NC[C@@H]2CC[C@H](C(=O)OCCOCCOC(=O)c3ccc(-c4c5nc(c(-c6cc(S(=O)(=O)[O-])ccc6F)c6ccc([nH]6)c(-c6cc(S(=O)(=O)[O-])ccc6F)c6nc(c(-c7cc(S(=O)(=O)[O-])ccc7F)c7ccc4[nH]7)C=C6)C=C5)cc3)O2)on1
REMARK SMILES IDX 18 1 17 2 16 3 15 4 13 5 14 6 12 7 9 8 10 9 87 10 11 11 8 12
REMARK SMILES IDX 7 13 5 14 6 15 4 17 1 18 2 19 3 20 89 21 88 22 19 23 20 24
REMARK SMILES IDX 21 25 22 26 23 27 24 28 25 29 86 30 26 31 85 32 27 33 28 34
REMARK SMILES IDX 29 35 79 36 30 37 84 38 78 39 80 40 31 41 83 42 77 43 76 44
REMARK SMILES IDX 32 46 64 47 44 48 63 49 45 50 48 51 62 52 81 53 46 54 47 55
REMARK SMILES IDX 61 57 82 58 49 59 33 60 34 61 42 62 35 63 41 64 43 65 40 66
REMARK SMILES IDX 36 67 37 68 38 69 39 70 65 71 66 72 74 73 67 74 73 75 75 76
REMARK SMILES IDX 72 77 68 78 69 79 70 80 71 81 50 82 51 83 59 84 52 85 58 86
REMARK SMILES IDX 60 87 57 88 53 89 54 90 55 91 56 92
REMARK H PARENT 7 16 80 45 48 56
REMARK Flexibility Score: inf
ROOT
ATOM      1  O   UNL A   1      35.337  21.087  26.271  1.00  0.00    -0.374 OA
ENDROOT
BRANCH   1   2
ATOM      2  C   UNL A   1      34.692  22.288  26.690  1.00  0.00     0.202 C 
BRANCH   2   3
ATOM      3  C   UNL A   1      34.768  23.473  25.723  1.00  0.00     0.261 C 
BRANCH   3   4
ATOM      4  O   UNL A   1      33.858  24.519  26.107  1.00  0.00    -0.461 OA
BRANCH   4   5
ATOM      5  C   UNL A   1      33.777  25.580  25.257  1.00  0.00     0.335 C 
ATOM      6  O   UNL A   1      33.998  25.529  24.052  1.00  0.00    -0.249 OA
BRANCH   5   7
ATOM      7  C   UNL A   1      33.395  26.882  25.981  1.00  0.00     0.228 C 
ATOM      8  C   UNL A   1      31.089  27.222  25.942  1.00  0.00     0.138 C 
ATOM      9  C   UNL A   1      31.684  28.043  24.806  1.00  0.00     0.037 C 
ATOM     10  O   UNL A   1      32.187  26.711  26.726  1.00  0.00    -0.361 OA
ATOM     11  C   UNL A   1      33.155  28.116  25.133  1.00  0.00     0.047 C 
BRANCH   8  12
ATOM     12  C   UNL A   1      30.245  26.044  25.433  1.00  0.00     0.148 C 
BRANCH  12  13
ATOM     13  N   UNL A   1      30.021  25.071  26.486  1.00  0.00    -0.347 N 
ATOM     14  C   UNL A   1      30.292  23.728  26.560  1.00  0.00     0.289 C 
ATOM     15  O   UNL A   1      29.939  23.171  27.603  1.00  0.00    -0.266 OA
ATOM     16  H   UNL A   1      29.599  25.443  27.294  1.00  0.00     0.164 HD
BRANCH  14  17
ATOM     17  C   UNL A   1      30.944  23.023  25.479  1.00  0.00     0.224 A 
ATOM     18  C   UNL A   1      32.526  21.859  22.379  1.00  0.00     0.070 C 
ATOM     19  C   UNL A   1      31.937  22.118  23.711  1.00  0.00     0.081 A 
ATOM     20  C   UNL A   1      31.229  23.259  24.150  1.00  0.00     0.083 A 
ATOM     21  N   UNL A   1      32.037  21.211  24.685  1.00  0.00    -0.084 NA
ATOM     22  O   UNL A   1      31.420  21.774  25.785  1.00  0.00    -0.351 OA
ENDBRANCH  14  17
ENDBRANCH  12  13
ENDBRANCH   8  12
ENDBRANCH   5   7
ENDBRANCH   4   5
ENDBRANCH   3   4
ENDBRANCH   2   3
ENDBRANCH   1   2
BRANCH   1  23
ATOM     23  C   UNL A   1      36.068  21.114  25.046  1.00  0.00     0.202 C 
BRANCH  23  24
ATOM     24  C   UNL A   1      37.395  20.343  24.998  1.00  0.00     0.261 C 
BRANCH  24  25
ATOM     25  O   UNL A   1      38.550  21.203  25.006  1.00  0.00    -0.460 OA
BRANCH  25  26
ATOM     26  C   UNL A   1      39.358  21.048  26.086  1.00  0.00     0.338 C 
ATOM     27  O   UNL A   1      39.859  20.002  26.480  1.00  0.00    -0.246 OA
BRANCH  26  28
ATOM     28  C   UNL A   1      39.724  22.359  26.651  1.00  0.00     0.060 A 
ATOM     29  C   UNL A   1      38.973  23.473  26.250  1.00  0.00     0.016 A 
ATOM     30  C   UNL A   1      40.838  22.516  27.478  1.00  0.00     0.016 A 
ATOM     31  C   UNL A   1      39.361  24.756  26.636  1.00  0.00     0.010 A 
ATOM     32  C   UNL A   1      41.231  23.806  27.855  1.00  0.00     0.010 A 
ATOM     33  C   UNL A   1      40.515  24.934  27.408  1.00  0.00    -0.014 A 
BRANCH  33  34
ATOM     34  C   UNL A   1      41.077  26.294  27.605  1.00  0.00     0.031 A 
ATOM     35  C   UNL A   1      42.444  26.597  27.053  1.00  0.00     0.074 A 
ATOM     36  C   UNL A   1      40.387  27.246  28.258  1.00  0.00     0.049 A 
ATOM     37  N   UNL A   1      43.188  27.661  27.207  1.00  0.00    -0.248 NA
ATOM     38  C   UNL A   1      43.053  25.549  26.218  1.00  0.00     0.031 C 
ATOM     39  C   UNL A   1      39.027  27.098  28.775  1.00  0.00     0.029 A 
ATOM     40  N   UNL A   1      40.744  28.524  28.610  1.00  0.00    -0.354 N 
ATOM     41  C   UNL A   1      44.359  27.409  26.501  1.00  0.00     0.074 A 
ATOM     42  C   UNL A   1      44.236  26.078  25.943  1.00  0.00     0.031 C 
ATOM     43  C   UNL A   1      38.673  28.235  29.399  1.00  0.00     0.029 A 
ATOM     44  C   UNL A   1      39.796  29.173  29.368  1.00  0.00     0.049 A 
ATOM     45  H   UNL A   1      41.597  28.938  28.345  1.00  0.00     0.167 HD
ATOM     46  C   UNL A   1      45.437  28.214  26.332  1.00  0.00     0.034 A 
ATOM     47  C   UNL A   1      39.845  30.366  29.995  1.00  0.00     0.034 A 
ATOM     48  C   UNL A   1      45.547  29.535  26.899  1.00  0.00     0.049 A 
ATOM     49  C   UNL A   1      41.095  31.207  29.880  1.00  0.00     0.074 A 
ATOM     50  C   UNL A   1      46.590  30.438  26.787  1.00  0.00     0.029 A 
ATOM     51  N   UNL A   1      44.583  30.141  27.693  1.00  0.00    -0.354 N 
ATOM     52  N   UNL A   1      42.205  30.951  29.226  1.00  0.00    -0.248 NA
ATOM     53  C   UNL A   1      41.099  32.497  30.583  1.00  0.00     0.031 C 
ATOM     54  C   UNL A   1      46.289  31.556  27.572  1.00  0.00     0.029 A 
ATOM     55  C   UNL A   1      45.021  31.389  28.106  1.00  0.00     0.049 A 
ATOM     56  H   UNL A   1      43.714  29.743  27.929  1.00  0.00     0.167 HD
ATOM     57  C   UNL A   1      43.020  32.066  29.408  1.00  0.00     0.074 A 
ATOM     58  C   UNL A   1      42.276  32.994  30.233  1.00  0.00     0.031 C 
ATOM     59  C   UNL A   1      44.266  32.307  28.927  1.00  0.00     0.034 A 
BRANCH  46  60
ATOM     60  C   UNL A   1      46.604  27.657  25.553  1.00  0.00     0.023 A 
ATOM     61  C   UNL A   1      46.891  28.077  24.243  1.00  0.00     0.031 A 
ATOM     62  C   UNL A   1      47.424  26.666  26.122  1.00  0.00     0.131 A 
ATOM     63  C   UNL A   1      47.922  27.458  23.520  1.00  0.00     0.055 A 
ATOM     64  C   UNL A   1      48.500  26.111  25.426  1.00  0.00     0.041 A 
ATOM     65  F   UNL A   1      47.184  26.207  27.360  1.00  0.00    -0.206 F 
ATOM     66  C   UNL A   1      48.745  26.496  24.111  1.00  0.00     0.022 A 
BRANCH  63  67
ATOM     67  S   UNL A   1      48.078  27.820  21.749  1.00  0.00     0.124 S 
ATOM     68  O   UNL A   1      46.773  28.405  21.453  1.00  0.00    -0.237 OA
ATOM     69  O   UNL A   1      49.212  28.737  21.715  1.00  0.00    -0.237 OA
ATOM     70  O   UNL A   1      48.316  26.509  21.151  1.00  0.00    -0.744 OA
ENDBRANCH  63  67
ENDBRANCH  46  60
BRANCH  47  71
ATOM     71  C   UNL A   1      38.702  30.822  30.837  1.00  0.00     0.023 A 
ATOM     72  C   UNL A   1      37.584  31.450  30.267  1.00  0.00     0.031 A 
ATOM     73  C   UNL A   1      38.737  30.685  32.237  1.00  0.00     0.131 A 
ATOM     74  C   UNL A   1      36.570  31.960  31.093  1.00  0.00     0.055 A 
ATOM     75  C   UNL A   1      37.700  31.144  33.051  1.00  0.00     0.041 A 
ATOM     76  F   UNL A   1      39.783  30.091  32.835  1.00  0.00    -0.206 F 
ATOM     77  C   UNL A   1      36.614  31.799  32.480  1.00  0.00     0.022 A 
BRANCH  74  78
ATOM     78  S   UNL A   1      35.230  32.916  30.332  1.00  0.00     0.124 S 
ATOM     79  O   UNL A   1      35.966  34.012  29.711  1.00  0.00    -0.237 OA
ATOM     80  O   UNL A   1      34.643  31.939  29.421  1.00  0.00    -0.237 OA
ATOM     81  O   UNL A   1      34.391  33.290  31.467  1.00  0.00    -0.744 OA
ENDBRANCH  74  78
ENDBRANCH  47  71
BRANCH  59  82
ATOM     82  C   UNL A   1      44.879  33.655  29.220  1.00  0.00     0.023 A 
ATOM     83  C   UNL A   1      44.648  34.773  28.402  1.00  0.00     0.031 A 
ATOM     84  C   UNL A   1      45.688  33.821  30.360  1.00  0.00     0.131 A 
ATOM     85  C   UNL A   1      45.251  36.002  28.716  1.00  0.00     0.055 A 
ATOM     86  C   UNL A   1      46.240  35.057  30.695  1.00  0.00     0.041 A 
ATOM     87  F   UNL A   1      45.938  32.785  31.176  1.00  0.00    -0.206 F 
ATOM     88  C   UNL A   1      46.031  36.155  29.867  1.00  0.00     0.022 A 
BRANCH  85  89
ATOM     89  S   UNL A   1      45.049  37.394  27.570  1.00  0.00     0.124 S 
ATOM     90  O   UNL A   1      43.917  36.956  26.759  1.00  0.00    -0.237 OA
ATOM     91  O   UNL A   1      44.790  38.509  28.475  1.00  0.00    -0.237 OA
ATOM     92  O   UNL A   1      46.330  37.452  26.869  1.00  0.00    -0.744 OA
ENDBRANCH  85  89
ENDBRANCH  59  82
ENDBRANCH  33  34
ENDBRANCH  26  28
ENDBRANCH  25  26
ENDBRANCH  24  25
ENDBRANCH  23  24
ENDBRANCH   1  23
TORSDOF 20
ENDMDL
MODEL 3
REMARK VINA RESULT:     -10.3      1.881      3.680
REMARK SMILES Cc1cc(C(=O)NC[C@@H]2CC[C@H](C(=O)OCCOCCOC(=O)c3ccc(-c4c5nc(c(-c6cc(S(=O)(=O)[O-])ccc6F)c6ccc([nH]6)c(-c6cc(S(=O)(=O)[O-])ccc6F)c6nc(c(-c7cc(S(=O)(=O)[O-])ccc7F)c7ccc4[nH]7)C=C6)C=C5)cc3)O2)on1
REMARK SMILES IDX 18 1 17 2 16 3 15 4 13 5 14 6 12 7 9 8 10 9 87 10 11 11 8 12
REMARK SMILES IDX 7 13 5 14 6 15 4 17 1 18 2 19 3 20 89 21 88 22 19 23 20 24
REMARK SMILES IDX 21 25 22 26 23 27 24 28 25 29 86 30 26 31 85 32 27 33 28 34
REMARK SMILES IDX 29 35 79 36 30 37 84 38 78 39 80 40 31 41 83 42 77 43 76 44
REMARK SMILES IDX 32 46 64 47 44 48 63 49 45 50 48 51 62 52 81 53 46 54 47 55
REMARK SMILES IDX 61 57 82 58 49 59 33 60 34 61 42 62 35 63 41 64 43 65 40 66
REMARK SMILES IDX 36 67 37 68 38 69 39 70 65 71 66 72 74 73 67 74 73 75 75 76
REMARK SMILES IDX 72 77 68 78 69 79 70 80 71 81 50 82 51 83 59 84 52 85 58 86
REMARK SMILES IDX 60 87 57 88 53 89 54 90 55 91 56 92
REMARK H PARENT 7 16 80 45 48 56
REMARK Flexibility Score: inf
ROOT
ATOM      1  O   UNL A   1      36.495  20.698  25.610  1.00  0.00    -0.374 OA
ENDROOT
BRANCH   1   2
ATOM      2  C   UNL A   1      35.256  20.401  24.968  1.00  0.00     0.202 C 
BRANCH   2   3
ATOM      3  C   UNL A   1      33.988  20.836  25.707  1.00  0.00     0.261 C 
BRANCH   3   4
ATOM      4  O   UNL A   1      33.928  22.267  25.845  1.00  0.00    -0.461 OA
BRANCH   4   5
ATOM      5  C   UNL A   1      32.769  22.857  25.440  1.00  0.00     0.335 C 
ATOM      6  O   UNL A   1      31.973  23.417  26.185  1.00  0.00    -0.249 OA
BRANCH   5   7
ATOM      7  C   UNL A   1      32.545  22.727  23.925  1.00  0.00     0.228 C 
ATOM      8  C   UNL A   1      32.533  24.818  22.893  1.00  0.00     0.138 C 
ATOM      9  C   UNL A   1      31.080  24.424  23.129  1.00  0.00     0.037 C 
ATOM     10  O   UNL A   1      33.348  23.671  23.212  1.00  0.00    -0.361 OA
ATOM     11  C   UNL A   1      31.139  22.941  23.399  1.00  0.00     0.047 C 
BRANCH   8  12
ATOM     12  C   UNL A   1      32.967  26.002  23.769  1.00  0.00     0.148 C 
BRANCH  12  13
ATOM     13  N   UNL A   1      32.201  26.045  25.001  1.00  0.00    -0.347 N 
ATOM     14  C   UNL A   1      31.152  26.837  25.396  1.00  0.00     0.289 C 
ATOM     15  O   UNL A   1      30.740  26.641  26.542  1.00  0.00    -0.266 OA
ATOM     16  H   UNL A   1      32.486  25.386  25.675  1.00  0.00     0.164 HD
BRANCH  14  17
ATOM     17  C   UNL A   1      30.581  27.835  24.519  1.00  0.00     0.224 A 
ATOM     18  C   UNL A   1      28.754  29.811  22.024  1.00  0.00     0.070 C 
ATOM     19  C   UNL A   1      29.584  29.216  23.094  1.00  0.00     0.081 A 
ATOM     20  C   UNL A   1      29.753  27.850  23.416  1.00  0.00     0.083 A 
ATOM     21  N   UNL A   1      30.303  29.993  23.907  1.00  0.00    -0.084 NA
ATOM     22  O   UNL A   1      30.922  29.134  24.794  1.00  0.00    -0.351 OA
ENDBRANCH  14  17
ENDBRANCH  12  13
ENDBRANCH   8  12
ENDBRANCH   5   7
ENDBRANCH   4   5
ENDBRANCH   3   4
ENDBRANCH   2   3
ENDBRANCH   1   2
BRANCH   1  23
ATOM     23  C   UNL A   1      37.693  20.539  24.852  1.00  0.00     0.202 C 
BRANCH  23  24
ATOM     24  C   UNL A   1      38.825  19.716  25.485  1.00  0.00     0.261 C 
BRANCH  24  25
ATOM     25  O   UNL A   1      40.051  20.457  25.629  1.00  0.00    -0.460 OA
BRANCH  25  26
ATOM     26  C   UNL A   1      40.542  20.487  26.894  1.00  0.00     0.338 C 
ATOM     27  O   UNL A   1      40.948  19.532  27.544  1.00  0.00    -0.246 OA
BRANCH  26  28
ATOM     28  C   UNL A   1      40.706  21.878  27.354  1.00  0.00     0.060 A 
ATOM     29  C   UNL A   1      39.975  22.873  26.688  1.00  0.00     0.016 A 
ATOM     30  C   UNL A   1      41.626  22.220  28.346  1.00  0.00     0.016 A 
ATOM     31  C   UNL A   1      40.195  24.219  26.979  1.00  0.00     0.010 A 
ATOM     32  C   UNL A   1      41.853  23.572  28.629  1.00  0.00     0.010 A 
ATOM     33  C   UNL A   1      41.165  24.579  27.923  1.00  0.00    -0.014 A 
BRANCH  33  34
ATOM     34  C   UNL A   1      41.588  25.997  28.053  1.00  0.00     0.031 A 
ATOM     35  C   UNL A   1      42.935  26.400  27.518  1.00  0.00     0.074 A 
ATOM     36  C   UNL A   1      40.790  26.912  28.631  1.00  0.00     0.049 A 
ATOM     37  N   UNL A   1      43.569  27.538  27.627  1.00  0.00    -0.248 NA
ATOM     38  C   UNL A   1      43.667  25.370  26.762  1.00  0.00     0.031 C 
ATOM     39  C   UNL A   1      39.435  26.662  29.122  1.00  0.00     0.029 A 
ATOM     40  N   UNL A   1      41.011  28.236  28.915  1.00  0.00    -0.354 N 
ATOM     41  C   UNL A   1      44.780  27.361  26.967  1.00  0.00     0.074 A 
ATOM     42  C   UNL A   1      44.802  25.995  26.486  1.00  0.00     0.031 C 
ATOM     43  C   UNL A   1      38.955  27.792  29.668  1.00  0.00     0.029 A 
ATOM     44  C   UNL A   1      39.983  28.832  29.609  1.00  0.00     0.049 A 
ATOM     45  H   UNL A   1      41.828  28.716  28.647  1.00  0.00     0.167 HD
ATOM     46  C   UNL A   1      45.780  28.257  26.777  1.00  0.00     0.034 A 
ATOM     47  C   UNL A   1      39.898  30.057  30.166  1.00  0.00     0.034 A 
ATOM     48  C   UNL A   1      45.745  29.613  27.267  1.00  0.00     0.049 A 
ATOM     49  C   UNL A   1      41.065  31.009  30.032  1.00  0.00     0.074 A 
ATOM     50  C   UNL A   1      46.701  30.605  27.128  1.00  0.00     0.029 A 
ATOM     51  N   UNL A   1      44.704  30.166  28.000  1.00  0.00    -0.354 N 
ATOM     52  N   UNL A   1      42.214  30.825  29.423  1.00  0.00    -0.248 NA
ATOM     53  C   UNL A   1      40.923  32.331  30.657  1.00  0.00     0.031 C 
ATOM     54  C   UNL A   1      46.269  31.731  27.837  1.00  0.00     0.029 A 
ATOM     55  C   UNL A   1      45.008  31.472  28.349  1.00  0.00     0.049 A 
ATOM     56  H   UNL A   1      43.871  29.699  28.238  1.00  0.00     0.167 HD
ATOM     57  C   UNL A   1      42.912  32.023  29.558  1.00  0.00     0.074 A 
ATOM     58  C   UNL A   1      42.058  32.920  30.308  1.00  0.00     0.031 C 
ATOM     59  C   UNL A   1      44.144  32.357  29.095  1.00  0.00     0.034 A 
BRANCH  46  60
ATOM     60  C   UNL A   1      47.018  27.773  26.062  1.00  0.00     0.023 A 
ATOM     61  C   UNL A   1      47.231  28.020  24.695  1.00  0.00     0.031 A 
ATOM     62  C   UNL A   1      47.987  27.025  26.754  1.00  0.00     0.131 A 
ATOM     63  C   UNL A   1      48.345  27.464  24.049  1.00  0.00     0.055 A 
ATOM     64  C   UNL A   1      49.135  26.542  26.124  1.00  0.00     0.041 A 
ATOM     65  F   UNL A   1      47.826  26.735  28.055  1.00  0.00    -0.206 F 
ATOM     66  C   UNL A   1      49.312  26.747  24.758  1.00  0.00     0.022 A 
BRANCH  63  67
ATOM     67  S   UNL A   1      48.436  27.561  22.239  1.00  0.00     0.124 S 
ATOM     68  O   UNL A   1      49.580  28.450  22.050  1.00  0.00    -0.237 OA
ATOM     69  O   UNL A   1      48.641  26.168  21.860  1.00  0.00    -0.237 OA
ATOM     70  O   UNL A   1      47.145  28.129  21.861  1.00  0.00    -0.744 OA
ENDBRANCH  63  67
ENDBRANCH  46  60
BRANCH  47  71
ATOM     71  C   UNL A   1      38.691  30.447  30.950  1.00  0.00     0.023 A 
ATOM     72  C   UNL A   1      37.611  31.105  30.343  1.00  0.00     0.031 A 
ATOM     73  C   UNL A   1      38.626  30.215  32.337  1.00  0.00     0.131 A 
ATOM     74  C   UNL A   1      36.533  31.550  31.126  1.00  0.00     0.055 A 
ATOM     75  C   UNL A   1      37.528  30.609  33.102  1.00  0.00     0.041 A 
ATOM     76  F   UNL A   1      39.633  29.588  32.968  1.00  0.00    -0.206 F 
ATOM     77  C   UNL A   1      36.478  31.295  32.497  1.00  0.00     0.022 A 
BRANCH  74  78
ATOM     78  S   UNL A   1      35.241  32.547  30.335  1.00  0.00     0.124 S 
ATOM     79  O   UNL A   1      34.270  32.681  31.416  1.00  0.00    -0.237 OA
ATOM     80  O   UNL A   1      35.972  33.757  29.974  1.00  0.00    -0.237 OA
ATOM     81  O   UNL A   1      34.814  31.719  29.210  1.00  0.00    -0.744 OA
ENDBRANCH  74  78
ENDBRANCH  47  71
BRANCH  59  82
ATOM     82  C   UNL A   1      44.615  33.773  29.322  1.00  0.00     0.023 A 
ATOM     83  C   UNL A   1      44.371  34.799  28.395  1.00  0.00     0.031 A 
ATOM     84  C   UNL A   1      45.299  34.098  30.509  1.00  0.00     0.131 A 
ATOM     85  C   UNL A   1      44.840  36.097  28.653  1.00  0.00     0.055 A 
ATOM     86  C   UNL A   1      45.716  35.400  30.782  1.00  0.00     0.041 A 
ATOM     87  F   UNL A   1      45.557  33.155  31.428  1.00  0.00    -0.206 F 
ATOM     88  C   UNL A   1      45.495  36.407  29.848  1.00  0.00     0.022 A 
BRANCH  85  89
ATOM     89  S   UNL A   1      44.631  37.372  27.378  1.00  0.00     0.124 S 
ATOM     90  O   UNL A   1      45.718  37.059  26.456  1.00  0.00    -0.237 OA
ATOM     91  O   UNL A   1      43.283  37.106  26.888  1.00  0.00    -0.237 OA
ATOM     92  O   UNL A   1      44.784  38.624  28.116  1.00  0.00    -0.744 OA
ENDBRANCH  85  89
ENDBRANCH  59  82
ENDBRANCH  33  34
ENDBRANCH  26  28
ENDBRANCH  25  26
ENDBRANCH  24  25
ENDBRANCH  23  24
ENDBRANCH   1  23
TORSDOF 20
ENDMDL
