MODEL 1
REMARK VINA RESULT:     -10.4      0.000      0.000
REMARK SMILES C[C@H](C(=O)OCCOCCOC(=O)c1ccc(-c2c3nc(c(-c4cc(S(=O)(=O)[O-])ccc4F)c4ccc([nH]4)c(-c4cc(S(=O)(=O)[O-])ccc4F)c4nc(c(-c5cc(S(=O)(=O)[O-])ccc5F)c5ccc2[nH]5)C=C4)C=C3)cc1)c1ccc(-c2ccccc2)c(F)c1
REMARK SMILES IDX 9 1 8 2 7 3 6 4 5 5 3 6 4 7 2 8 1 9 77 10 78 11 89 12 79 13
REMARK SMILES IDX 87 14 80 15 88 16 81 17 82 18 86 19 83 20 85 21 84 22 10 23
REMARK SMILES IDX 11 24 12 25 13 26 14 27 15 28 76 29 16 30 75 31 17 32 18 33
REMARK SMILES IDX 19 34 69 35 20 36 74 37 68 38 70 39 21 40 73 41 67 42 66 43
REMARK SMILES IDX 22 45 54 46 34 47 53 48 35 49 38 50 52 51 71 52 36 53 37 54
REMARK SMILES IDX 51 56 72 57 39 58 23 59 24 60 32 61 25 62 31 63 33 64 30 65
REMARK SMILES IDX 26 66 27 67 28 68 29 69 55 70 56 71 64 72 57 73 63 74 65 75
REMARK SMILES IDX 62 76 58 77 59 78 60 79 61 80 40 81 41 82 49 83 42 84 48 85
REMARK SMILES IDX 50 86 47 87 43 88 44 89 45 90 46 91
REMARK H PARENT 70 44 38 55
REMARK Flexibility Score: inf
ROOT
ATOM      1  C   UNL A   1      34.065  34.908  28.495  1.00  0.00     0.202 C 
ENDROOT
BRANCH   1   2
ATOM      2  O   UNL A   1      34.138  35.321  29.856  1.00  0.00    -0.374 OA
BRANCH   2   3
ATOM      3  C   UNL A   1      32.967  35.951  30.391  1.00  0.00     0.202 C 
BRANCH   3   4
ATOM      4  C   UNL A   1      32.848  35.989  31.923  1.00  0.00     0.261 C 
BRANCH   4   5
ATOM      5  O   UNL A   1      33.384  34.785  32.517  1.00  0.00    -0.463 OA
BRANCH   5   6
ATOM      6  C   UNL A   1      34.663  34.855  32.982  1.00  0.00     0.313 C 
ATOM      7  O   UNL A   1      35.151  35.837  33.532  1.00  0.00    -0.252 OA
BRANCH   6   8
ATOM      8  C   UNL A   1      35.451  33.565  32.758  1.00  0.00     0.126 C 
ATOM      9  C   UNL A   1      34.675  32.457  32.035  1.00  0.00     0.025 C 
BRANCH   8  10
ATOM     10  C   UNL A   1      36.810  33.725  32.109  1.00  0.00    -0.031 A 
ATOM     11  C   UNL A   1      37.948  34.189  32.778  1.00  0.00     0.005 A 
ATOM     12  C   UNL A   1      36.900  33.463  30.732  1.00  0.00     0.044 A 
ATOM     13  C   UNL A   1      39.149  34.374  32.080  1.00  0.00     0.012 A 
ATOM     14  C   UNL A   1      38.086  33.670  30.046  1.00  0.00     0.131 A 
ATOM     15  C   UNL A   1      39.235  34.119  30.703  1.00  0.00     0.017 A 
ATOM     16  F   UNL A   1      38.105  33.423  28.727  1.00  0.00    -0.206 F 
BRANCH  15  17
ATOM     17  C   UNL A   1      40.491  34.290  29.972  1.00  0.00    -0.015 A 
ATOM     18  C   UNL A   1      40.618  35.304  29.011  1.00  0.00     0.009 A 
ATOM     19  C   UNL A   1      41.604  33.480  30.245  1.00  0.00     0.009 A 
ATOM     20  C   UNL A   1      41.828  35.512  28.350  1.00  0.00     0.001 A 
ATOM     21  C   UNL A   1      42.814  33.684  29.581  1.00  0.00     0.001 A 
ATOM     22  C   UNL A   1      42.925  34.702  28.636  1.00  0.00     0.000 A 
ENDBRANCH  15  17
ENDBRANCH   8  10
ENDBRANCH   6   8
ENDBRANCH   5   6
ENDBRANCH   4   5
ENDBRANCH   3   4
ENDBRANCH   2   3
ENDBRANCH   1   2
BRANCH   1  23
ATOM     23  C   UNL A   1      33.666  33.459  28.199  1.00  0.00     0.261 C 
BRANCH  23  24
ATOM     24  O   UNL A   1      34.784  32.647  27.818  1.00  0.00    -0.460 OA
BRANCH  24  25
ATOM     25  C   UNL A   1      34.466  31.337  27.695  1.00  0.00     0.338 C 
ATOM     26  O   UNL A   1      33.409  30.877  27.278  1.00  0.00    -0.246 OA
BRANCH  25  27
ATOM     27  C   UNL A   1      35.641  30.493  27.965  1.00  0.00     0.060 A 
ATOM     28  C   UNL A   1      35.606  29.732  29.139  1.00  0.00     0.016 A 
ATOM     29  C   UNL A   1      36.773  30.487  27.144  1.00  0.00     0.016 A 
ATOM     30  C   UNL A   1      36.734  29.031  29.546  1.00  0.00     0.010 A 
ATOM     31  C   UNL A   1      37.908  29.781  27.554  1.00  0.00     0.010 A 
ATOM     32  C   UNL A   1      37.906  29.096  28.783  1.00  0.00    -0.014 A 
BRANCH  32  33
ATOM     33  C   UNL A   1      39.167  28.604  29.387  1.00  0.00     0.031 A 
ATOM     34  C   UNL A   1      39.629  29.219  30.681  1.00  0.00     0.074 A 
ATOM     35  C   UNL A   1      39.832  27.574  28.837  1.00  0.00     0.049 A 
ATOM     36  N   UNL A   1      40.681  28.939  31.406  1.00  0.00    -0.248 NA
ATOM     37  C   UNL A   1      38.788  30.294  31.231  1.00  0.00     0.031 C 
ATOM     38  C   UNL A   1      39.437  26.875  27.615  1.00  0.00     0.029 A 
ATOM     39  N   UNL A   1      40.974  26.932  29.239  1.00  0.00    -0.354 N 
ATOM     40  C   UNL A   1      40.628  29.801  32.497  1.00  0.00     0.074 A 
ATOM     41  C   UNL A   1      39.468  30.644  32.312  1.00  0.00     0.031 C 
ATOM     42  C   UNL A   1      40.326  25.899  27.365  1.00  0.00     0.029 A 
ATOM     43  C   UNL A   1      41.371  25.929  28.386  1.00  0.00     0.049 A 
ATOM     44  H   UNL A   1      41.464  27.166  30.060  1.00  0.00     0.167 HD
ATOM     45  C   UNL A   1      41.464  29.870  33.563  1.00  0.00     0.034 A 
ATOM     46  C   UNL A   1      42.464  25.141  28.418  1.00  0.00     0.034 A 
ATOM     47  C   UNL A   1      42.623  29.026  33.717  1.00  0.00     0.049 A 
ATOM     48  C   UNL A   1      43.430  25.294  29.568  1.00  0.00     0.074 A 
ATOM     49  C   UNL A   1      43.546  29.004  34.747  1.00  0.00     0.029 A 
ATOM     50  N   UNL A   1      43.026  28.056  32.805  1.00  0.00    -0.354 N 
ATOM     51  N   UNL A   1      43.370  26.113  30.595  1.00  0.00    -0.248 NA
ATOM     52  C   UNL A   1      44.600  24.410  29.571  1.00  0.00     0.031 C 
ATOM     53  C   UNL A   1      44.543  28.077  34.423  1.00  0.00     0.029 A 
ATOM     54  C   UNL A   1      44.200  27.456  33.232  1.00  0.00     0.049 A 
ATOM     55  H   UNL A   1      42.546  27.828  31.976  1.00  0.00     0.167 HD
ATOM     56  C   UNL A   1      44.484  25.821  31.378  1.00  0.00     0.074 A 
ATOM     57  C   UNL A   1      45.184  24.740  30.714  1.00  0.00     0.031 C 
ATOM     58  C   UNL A   1      44.890  26.389  32.544  1.00  0.00     0.034 A 
BRANCH  45  59
ATOM     59  C   UNL A   1      41.178  30.929  34.601  1.00  0.00     0.023 A 
ATOM     60  C   UNL A   1      40.070  30.844  35.464  1.00  0.00     0.031 A 
ATOM     61  C   UNL A   1      42.001  32.065  34.701  1.00  0.00     0.131 A 
ATOM     62  C   UNL A   1      39.775  31.907  36.334  1.00  0.00     0.055 A 
ATOM     63  C   UNL A   1      41.748  33.081  35.625  1.00  0.00     0.041 A 
ATOM     64  F   UNL A   1      43.058  32.216  33.887  1.00  0.00    -0.206 F 
ATOM     65  C   UNL A   1      40.620  33.013  36.437  1.00  0.00     0.022 A 
BRANCH  62  66
ATOM     66  S   UNL A   1      38.189  31.893  37.215  1.00  0.00     0.124 S 
ATOM     67  O   UNL A   1      37.832  30.478  37.157  1.00  0.00    -0.237 OA
ATOM     68  O   UNL A   1      38.554  32.407  38.529  1.00  0.00    -0.237 OA
ATOM     69  O   UNL A   1      37.343  32.774  36.413  1.00  0.00    -0.744 OA
ENDBRANCH  62  66
ENDBRANCH  45  59
BRANCH  46  70
ATOM     70  C   UNL A   1      42.727  24.174  27.315  1.00  0.00     0.023 A 
ATOM     71  C   UNL A   1      42.128  22.906  27.291  1.00  0.00     0.031 A 
ATOM     72  C   UNL A   1      43.624  24.498  26.278  1.00  0.00     0.131 A 
ATOM     73  C   UNL A   1      42.462  21.993  26.278  1.00  0.00     0.055 A 
ATOM     74  C   UNL A   1      43.911  23.606  25.243  1.00  0.00     0.041 A 
ATOM     75  F   UNL A   1      44.226  25.698  26.251  1.00  0.00    -0.206 F 
ATOM     76  C   UNL A   1      43.338  22.340  25.246  1.00  0.00     0.022 A 
BRANCH  73  77
ATOM     77  S   UNL A   1      41.795  20.308  26.369  1.00  0.00     0.124 S 
ATOM     78  O   UNL A   1      42.203  19.900  27.708  1.00  0.00    -0.237 OA
ATOM     79  O   UNL A   1      40.368  20.538  26.174  1.00  0.00    -0.237 OA
ATOM     80  O   UNL A   1      42.469  19.616  25.272  1.00  0.00    -0.744 OA
ENDBRANCH  73  77
ENDBRANCH  46  70
BRANCH  58  81
ATOM     81  C   UNL A   1      46.130  25.817  33.188  1.00  0.00     0.023 A 
ATOM     82  C   UNL A   1      46.074  24.701  34.040  1.00  0.00     0.031 A 
ATOM     83  C   UNL A   1      47.385  26.405  32.950  1.00  0.00     0.131 A 
ATOM     84  C   UNL A   1      47.241  24.245  34.671  1.00  0.00     0.055 A 
ATOM     85  C   UNL A   1      48.552  25.907  33.528  1.00  0.00     0.041 A 
ATOM     86  F   UNL A   1      47.497  27.474  32.145  1.00  0.00    -0.206 F 
ATOM     87  C   UNL A   1      48.482  24.828  34.406  1.00  0.00     0.022 A 
BRANCH  84  88
ATOM     88  S   UNL A   1      47.100  22.936  35.918  1.00  0.00     0.124 S 
ATOM     89  O   UNL A   1      47.315  21.733  35.120  1.00  0.00    -0.237 OA
ATOM     90  O   UNL A   1      48.166  23.279  36.853  1.00  0.00    -0.237 OA
ATOM     91  O   UNL A   1      45.744  23.102  36.438  1.00  0.00    -0.744 OA
ENDBRANCH  84  88
ENDBRANCH  58  81
ENDBRANCH  32  33
ENDBRANCH  25  27
ENDBRANCH  24  25
ENDBRANCH  23  24
ENDBRANCH   1  23
TORSDOF 19
ENDMDL
MODEL 2
REMARK VINA RESULT:     -10.3      4.571      7.810
REMARK SMILES C[C@H](C(=O)OCCOCCOC(=O)c1ccc(-c2c3nc(c(-c4cc(S(=O)(=O)[O-])ccc4F)c4ccc([nH]4)c(-c4cc(S(=O)(=O)[O-])ccc4F)c4nc(c(-c5cc(S(=O)(=O)[O-])ccc5F)c5ccc2[nH]5)C=C4)C=C3)cc1)c1ccc(-c2ccccc2)c(F)c1
REMARK SMILES IDX 9 1 8 2 7 3 6 4 5 5 3 6 4 7 2 8 1 9 77 10 78 11 89 12 79 13
REMARK SMILES IDX 87 14 80 15 88 16 81 17 82 18 86 19 83 20 85 21 84 22 10 23
REMARK SMILES IDX 11 24 12 25 13 26 14 27 15 28 76 29 16 30 75 31 17 32 18 33
REMARK SMILES IDX 19 34 69 35 20 36 74 37 68 38 70 39 21 40 73 41 67 42 66 43
REMARK SMILES IDX 22 45 54 46 34 47 53 48 35 49 38 50 52 51 71 52 36 53 37 54
REMARK SMILES IDX 51 56 72 57 39 58 23 59 24 60 32 61 25 62 31 63 33 64 30 65
REMARK SMILES IDX 26 66 27 67 28 68 29 69 55 70 56 71 64 72 57 73 63 74 65 75
REMARK SMILES IDX 62 76 58 77 59 78 60 79 61 80 40 81 41 82 49 83 42 84 48 85
REMARK SMILES IDX 50 86 47 87 43 88 44 89 45 90 46 91
REMARK H PARENT 70 44 38 55
REMARK Flexibility Score: inf
ROOT
ATOM      1  C   UNL A   1      31.661  30.008  25.550  1.00  0.00     0.202 C 
ENDROOT
BRANCH   1   2
ATOM      2  O   UNL A   1      32.869  29.609  24.912  1.00  0.00    -0.374 OA
BRANCH   2   3
ATOM      3  C   UNL A   1      33.223  28.225  25.033  1.00  0.00     0.202 C 
BRANCH   3   4
ATOM      4  C   UNL A   1      32.583  27.453  26.197  1.00  0.00     0.261 C 
BRANCH   4   5
ATOM      5  O   UNL A   1      33.092  26.102  26.270  1.00  0.00    -0.463 OA
BRANCH   5   6
ATOM      6  C   UNL A   1      32.200  25.103  26.021  1.00  0.00     0.313 C 
ATOM      7  O   UNL A   1      31.242  24.831  26.736  1.00  0.00    -0.252 OA
BRANCH   6   8
ATOM      8  C   UNL A   1      32.505  24.339  24.732  1.00  0.00     0.126 C 
ATOM      9  C   UNL A   1      33.647  24.925  23.894  1.00  0.00     0.025 C 
BRANCH   8  10
ATOM     10  C   UNL A   1      32.715  22.847  24.883  1.00  0.00    -0.031 A 
ATOM     11  C   UNL A   1      33.358  22.252  25.974  1.00  0.00     0.005 A 
ATOM     12  C   UNL A   1      32.304  22.028  23.818  1.00  0.00     0.044 A 
ATOM     13  C   UNL A   1      33.572  20.868  25.997  1.00  0.00     0.012 A 
ATOM     14  C   UNL A   1      32.540  20.663  23.839  1.00  0.00     0.131 A 
ATOM     15  C   UNL A   1      33.168  20.053  24.928  1.00  0.00     0.017 A 
ATOM     16  F   UNL A   1      32.144  19.937  22.783  1.00  0.00    -0.206 F 
BRANCH  15  17
ATOM     17  C   UNL A   1      33.370  18.604  24.955  1.00  0.00    -0.015 A 
ATOM     18  C   UNL A   1      34.460  18.029  24.283  1.00  0.00     0.009 A 
ATOM     19  C   UNL A   1      32.513  17.766  25.683  1.00  0.00     0.009 A 
ATOM     20  C   UNL A   1      34.693  16.656  24.349  1.00  0.00     0.001 A 
ATOM     21  C   UNL A   1      32.743  16.391  25.747  1.00  0.00     0.001 A 
ATOM     22  C   UNL A   1      33.835  15.838  25.082  1.00  0.00     0.000 A 
ENDBRANCH  15  17
ENDBRANCH   8  10
ENDBRANCH   6   8
ENDBRANCH   5   6
ENDBRANCH   4   5
ENDBRANCH   3   4
ENDBRANCH   2   3
ENDBRANCH   1   2
BRANCH   1  23
ATOM     23  C   UNL A   1      31.681  31.276  26.410  1.00  0.00     0.261 C 
BRANCH  23  24
ATOM     24  O   UNL A   1      32.569  31.169  27.529  1.00  0.00    -0.460 OA
BRANCH  24  25
ATOM     25  C   UNL A   1      33.431  32.209  27.620  1.00  0.00     0.338 C 
ATOM     26  O   UNL A   1      33.142  33.401  27.607  1.00  0.00    -0.246 OA
BRANCH  25  27
ATOM     27  C   UNL A   1      34.789  31.730  27.922  1.00  0.00     0.060 A 
ATOM     28  C   UNL A   1      34.931  30.356  28.147  1.00  0.00     0.016 A 
ATOM     29  C   UNL A   1      35.882  32.592  28.053  1.00  0.00     0.016 A 
ATOM     30  C   UNL A   1      36.145  29.848  28.590  1.00  0.00     0.010 A 
ATOM     31  C   UNL A   1      37.105  32.079  28.498  1.00  0.00     0.010 A 
ATOM     32  C   UNL A   1      37.221  30.714  28.819  1.00  0.00    -0.014 A 
BRANCH  32  33
ATOM     33  C   UNL A   1      38.389  30.202  29.575  1.00  0.00     0.031 A 
ATOM     34  C   UNL A   1      38.586  30.669  30.991  1.00  0.00     0.074 A 
ATOM     35  C   UNL A   1      39.199  29.276  29.035  1.00  0.00     0.049 A 
ATOM     36  N   UNL A   1      39.513  30.343  31.853  1.00  0.00    -0.248 NA
ATOM     37  C   UNL A   1      37.599  31.634  31.505  1.00  0.00     0.031 C 
ATOM     38  C   UNL A   1      39.061  28.718  27.690  1.00  0.00     0.029 A 
ATOM     39  N   UNL A   1      40.293  28.635  29.555  1.00  0.00    -0.354 N 
ATOM     40  C   UNL A   1      39.223  31.061  33.010  1.00  0.00     0.074 A 
ATOM     41  C   UNL A   1      38.062  31.874  32.722  1.00  0.00     0.031 C 
ATOM     42  C   UNL A   1      40.037  27.818  27.490  1.00  0.00     0.029 A 
ATOM     43  C   UNL A   1      40.889  27.762  28.676  1.00  0.00     0.049 A 
ATOM     44  H   UNL A   1      40.621  28.785  30.471  1.00  0.00     0.167 HD
ATOM     45  C   UNL A   1      39.860  31.030  34.207  1.00  0.00     0.034 A 
ATOM     46  C   UNL A   1      42.007  27.021  28.809  1.00  0.00     0.034 A 
ATOM     47  C   UNL A   1      41.025  30.221  34.465  1.00  0.00     0.049 A 
ATOM     48  C   UNL A   1      42.752  27.068  30.121  1.00  0.00     0.074 A 
ATOM     49  C   UNL A   1      41.759  30.108  35.632  1.00  0.00     0.029 A 
ATOM     50  N   UNL A   1      41.636  29.388  33.532  1.00  0.00    -0.354 N 
ATOM     51  N   UNL A   1      42.469  27.751  31.209  1.00  0.00    -0.248 NA
ATOM     52  C   UNL A   1      43.957  26.238  30.229  1.00  0.00     0.031 C 
ATOM     53  C   UNL A   1      42.851  29.269  35.384  1.00  0.00     0.029 A 
ATOM     54  C   UNL A   1      42.754  28.788  34.088  1.00  0.00     0.049 A 
ATOM     55  H   UNL A   1      41.319  29.246  32.611  1.00  0.00     0.167 HD
ATOM     56  C   UNL A   1      43.449  27.408  32.137  1.00  0.00     0.074 A 
ATOM     57  C   UNL A   1      44.316  26.447  31.486  1.00  0.00     0.031 C 
ATOM     58  C   UNL A   1      43.615  27.843  33.414  1.00  0.00     0.034 A 
BRANCH  45  59
ATOM     59  C   UNL A   1      39.337  31.940  35.294  1.00  0.00     0.023 A 
ATOM     60  C   UNL A   1      39.799  33.260  35.445  1.00  0.00     0.031 A 
ATOM     61  C   UNL A   1      38.393  31.466  36.223  1.00  0.00     0.131 A 
ATOM     62  C   UNL A   1      39.374  34.032  36.539  1.00  0.00     0.055 A 
ATOM     63  C   UNL A   1      37.912  32.266  37.261  1.00  0.00     0.041 A 
ATOM     64  F   UNL A   1      37.934  30.206  36.147  1.00  0.00    -0.206 F 
ATOM     65  C   UNL A   1      38.414  33.552  37.433  1.00  0.00     0.022 A 
BRANCH  62  66
ATOM     66  S   UNL A   1      40.204  35.611  36.863  1.00  0.00     0.124 S 
ATOM     67  O   UNL A   1      39.624  36.467  35.832  1.00  0.00    -0.237 OA
ATOM     68  O   UNL A   1      39.805  35.902  38.235  1.00  0.00    -0.237 OA
ATOM     69  O   UNL A   1      41.620  35.299  36.678  1.00  0.00    -0.744 OA
ENDBRANCH  62  66
ENDBRANCH  45  59
BRANCH  46  70
ATOM     70  C   UNL A   1      42.513  26.210  27.665  1.00  0.00     0.023 A 
ATOM     71  C   UNL A   1      42.079  24.893  27.450  1.00  0.00     0.031 A 
ATOM     72  C   UNL A   1      43.478  26.737  26.785  1.00  0.00     0.131 A 
ATOM     73  C   UNL A   1      42.637  24.133  26.409  1.00  0.00     0.055 A 
ATOM     74  C   UNL A   1      43.991  25.995  25.720  1.00  0.00     0.041 A 
ATOM     75  F   UNL A   1      43.930  27.991  26.945  1.00  0.00    -0.206 F 
ATOM     76  C   UNL A   1      43.579  24.681  25.534  1.00  0.00     0.022 A 
BRANCH  73  77
ATOM     77  S   UNL A   1      42.174  22.385  26.261  1.00  0.00     0.124 S 
ATOM     78  O   UNL A   1      42.885  21.991  25.051  1.00  0.00    -0.237 OA
ATOM     79  O   UNL A   1      42.680  21.833  27.513  1.00  0.00    -0.237 OA
ATOM     80  O   UNL A   1      40.718  22.429  26.144  1.00  0.00    -0.744 OA
ENDBRANCH  73  77
ENDBRANCH  46  70
BRANCH  58  81
ATOM     81  C   UNL A   1      44.760  27.246  34.196  1.00  0.00     0.023 A 
ATOM     82  C   UNL A   1      44.588  26.115  35.013  1.00  0.00     0.031 A 
ATOM     83  C   UNL A   1      46.040  27.824  34.128  1.00  0.00     0.131 A 
ATOM     84  C   UNL A   1      45.664  25.634  35.774  1.00  0.00     0.055 A 
ATOM     85  C   UNL A   1      47.122  27.302  34.837  1.00  0.00     0.041 A 
ATOM     86  F   UNL A   1      46.261  28.906  33.364  1.00  0.00    -0.206 F 
ATOM     87  C   UNL A   1      46.934  26.208  35.678  1.00  0.00     0.022 A 
BRANCH  84  88
ATOM     88  S   UNL A   1      45.358  24.304  36.969  1.00  0.00     0.124 S 
ATOM     89  O   UNL A   1      46.646  24.203  37.646  1.00  0.00    -0.237 OA
ATOM     90  O   UNL A   1      44.261  24.844  37.764  1.00  0.00    -0.237 OA
ATOM     91  O   UNL A   1      45.008  23.161  36.128  1.00  0.00    -0.744 OA
ENDBRANCH  84  88
ENDBRANCH  58  81
ENDBRANCH  32  33
ENDBRANCH  25  27
ENDBRANCH  24  25
ENDBRANCH  23  24
ENDBRANCH   1  23
TORSDOF 19
ENDMDL
MODEL 3
REMARK VINA RESULT:     -10.2      4.520     10.887
REMARK SMILES C[C@H](C(=O)OCCOCCOC(=O)c1ccc(-c2c3nc(c(-c4cc(S(=O)(=O)[O-])ccc4F)c4ccc([nH]4)c(-c4cc(S(=O)(=O)[O-])ccc4F)c4nc(c(-c5cc(S(=O)(=O)[O-])ccc5F)c5ccc2[nH]5)C=C4)C=C3)cc1)c1ccc(-c2ccccc2)c(F)c1
REMARK SMILES IDX 9 1 8 2 7 3 6 4 5 5 3 6 4 7 2 8 1 9 77 10 78 11 89 12 79 13
REMARK SMILES IDX 87 14 80 15 88 16 81 17 82 18 86 19 83 20 85 21 84 22 10 23
REMARK SMILES IDX 11 24 12 25 13 26 14 27 15 28 76 29 16 30 75 31 17 32 18 33
REMARK SMILES IDX 19 34 69 35 20 36 74 37 68 38 70 39 21 40 73 41 67 42 66 43
REMARK SMILES IDX 22 45 54 46 34 47 53 48 35 49 38 50 52 51 71 52 36 53 37 54
REMARK SMILES IDX 51 56 72 57 39 58 23 59 24 60 32 61 25 62 31 63 33 64 30 65
REMARK SMILES IDX 26 66 27 67 28 68 29 69 55 70 56 71 64 72 57 73 63 74 65 75
REMARK SMILES IDX 62 76 58 77 59 78 60 79 61 80 40 81 41 82 49 83 42 84 48 85
REMARK SMILES IDX 50 86 47 87 43 88 44 89 45 90 46 91
REMARK H PARENT 70 44 38 55
REMARK Flexibility Score: inf
ROOT
ATOM      1  C   UNL A   1      31.901  29.637  25.021  1.00  0.00     0.202 C 
ENDROOT
BRANCH   1   2
ATOM      2  O   UNL A   1      33.211  29.448  24.498  1.00  0.00    -0.374 OA
BRANCH   2   3
ATOM      3  C   UNL A   1      33.568  28.103  24.151  1.00  0.00     0.202 C 
BRANCH   3   4
ATOM      4  C   UNL A   1      32.554  27.324  23.298  1.00  0.00     0.261 C 
BRANCH   4   5
ATOM      5  O   UNL A   1      32.477  25.942  23.714  1.00  0.00    -0.463 OA
BRANCH   5   6
ATOM      6  C   UNL A   1      33.433  25.105  23.223  1.00  0.00     0.313 C 
ATOM      7  O   UNL A   1      33.690  24.965  22.032  1.00  0.00    -0.252 OA
BRANCH   6   8
ATOM      8  C   UNL A   1      34.181  24.346  24.318  1.00  0.00     0.126 C 
ATOM      9  C   UNL A   1      34.005  24.918  25.730  1.00  0.00     0.025 C 
BRANCH   8  10
ATOM     10  C   UNL A   1      33.954  22.849  24.357  1.00  0.00    -0.031 A 
ATOM     11  C   UNL A   1      32.704  22.241  24.192  1.00  0.00     0.005 A 
ATOM     12  C   UNL A   1      35.061  22.038  24.655  1.00  0.00     0.044 A 
ATOM     13  C   UNL A   1      32.575  20.852  24.315  1.00  0.00     0.012 A 
ATOM     14  C   UNL A   1      34.920  20.666  24.796  1.00  0.00     0.131 A 
ATOM     15  C   UNL A   1      33.681  20.044  24.621  1.00  0.00     0.017 A 
ATOM     16  F   UNL A   1      36.010  19.947  25.103  1.00  0.00    -0.206 F 
BRANCH  15  17
ATOM     17  C   UNL A   1      33.557  18.590  24.729  1.00  0.00    -0.015 A 
ATOM     18  C   UNL A   1      32.696  18.023  25.680  1.00  0.00     0.009 A 
ATOM     19  C   UNL A   1      34.256  17.736  23.862  1.00  0.00     0.009 A 
ATOM     20  C   UNL A   1      32.528  16.640  25.754  1.00  0.00     0.001 A 
ATOM     21  C   UNL A   1      34.092  16.352  23.938  1.00  0.00     0.001 A 
ATOM     22  C   UNL A   1      33.225  15.806  24.882  1.00  0.00     0.000 A 
ENDBRANCH  15  17
ENDBRANCH   8  10
ENDBRANCH   6   8
ENDBRANCH   5   6
ENDBRANCH   4   5
ENDBRANCH   3   4
ENDBRANCH   2   3
ENDBRANCH   1   2
BRANCH   1  23
ATOM     23  C   UNL A   1      31.730  30.573  26.223  1.00  0.00     0.261 C 
BRANCH  23  24
ATOM     24  O   UNL A   1      32.740  30.377  27.220  1.00  0.00    -0.460 OA
BRANCH  24  25
ATOM     25  C   UNL A   1      33.486  31.486  27.440  1.00  0.00     0.338 C 
ATOM     26  O   UNL A   1      33.083  32.644  27.468  1.00  0.00    -0.246 OA
BRANCH  25  27
ATOM     27  C   UNL A   1      34.856  31.118  27.828  1.00  0.00     0.060 A 
ATOM     28  C   UNL A   1      35.101  29.757  28.039  1.00  0.00     0.016 A 
ATOM     29  C   UNL A   1      35.860  32.067  28.048  1.00  0.00     0.016 A 
ATOM     30  C   UNL A   1      36.322  29.343  28.557  1.00  0.00     0.010 A 
ATOM     31  C   UNL A   1      37.089  31.650  28.568  1.00  0.00     0.010 A 
ATOM     32  C   UNL A   1      37.302  30.293  28.873  1.00  0.00    -0.014 A 
BRANCH  32  33
ATOM     33  C   UNL A   1      38.455  29.866  29.700  1.00  0.00     0.031 A 
ATOM     34  C   UNL A   1      39.402  28.842  29.134  1.00  0.00     0.074 A 
ATOM     35  C   UNL A   1      38.696  30.445  30.888  1.00  0.00     0.049 A 
ATOM     36  N   UNL A   1      40.488  28.334  29.657  1.00  0.00    -0.248 NA
ATOM     37  C   UNL A   1      39.080  28.323  27.795  1.00  0.00     0.031 C 
ATOM     38  C   UNL A   1      37.870  31.485  31.499  1.00  0.00     0.029 A 
ATOM     39  N   UNL A   1      39.710  30.248  31.789  1.00  0.00    -0.354 N 
ATOM     40  C   UNL A   1      40.979  27.438  28.711  1.00  0.00     0.074 A 
ATOM     41  C   UNL A   1      40.046  27.438  27.607  1.00  0.00     0.031 C 
ATOM     42  C   UNL A   1      38.410  31.833  32.679  1.00  0.00     0.029 A 
ATOM     43  C   UNL A   1      39.598  31.017  32.922  1.00  0.00     0.049 A 
ATOM     44  H   UNL A   1      40.450  29.615  31.638  1.00  0.00     0.167 HD
ATOM     45  C   UNL A   1      42.113  26.696  28.758  1.00  0.00     0.034 A 
ATOM     46  C   UNL A   1      40.356  31.042  34.036  1.00  0.00     0.034 A 
ATOM     47  C   UNL A   1      43.021  26.704  29.879  1.00  0.00     0.049 A 
ATOM     48  C   UNL A   1      41.567  30.143  34.105  1.00  0.00     0.074 A 
ATOM     49  C   UNL A   1      44.196  25.994  30.045  1.00  0.00     0.029 A 
ATOM     50  N   UNL A   1      42.846  27.456  31.037  1.00  0.00    -0.354 N 
ATOM     51  N   UNL A   1      42.022  29.298  33.205  1.00  0.00    -0.248 NA
ATOM     52  C   UNL A   1      42.372  30.208  35.329  1.00  0.00     0.031 C 
ATOM     53  C   UNL A   1      44.691  26.260  31.327  1.00  0.00     0.029 A 
ATOM     54  C   UNL A   1      43.872  27.201  31.931  1.00  0.00     0.049 A 
ATOM     55  H   UNL A   1      42.101  28.080  31.196  1.00  0.00     0.167 HD
ATOM     56  C   UNL A   1      43.183  28.754  33.749  1.00  0.00     0.074 A 
ATOM     57  C   UNL A   1      43.364  29.379  35.044  1.00  0.00     0.031 C 
ATOM     58  C   UNL A   1      44.026  27.826  33.226  1.00  0.00     0.034 A 
BRANCH  45  59
ATOM     59  C   UNL A   1      42.391  25.781  27.589  1.00  0.00     0.023 A 
ATOM     60  C   UNL A   1      41.845  24.488  27.510  1.00  0.00     0.031 A 
ATOM     61  C   UNL A   1      43.253  26.193  26.556  1.00  0.00     0.131 A 
ATOM     62  C   UNL A   1      42.223  23.628  26.466  1.00  0.00     0.055 A 
ATOM     63  C   UNL A   1      43.561  25.362  25.476  1.00  0.00     0.041 A 
ATOM     64  F   UNL A   1      43.827  27.406  26.588  1.00  0.00    -0.206 F 
ATOM     65  C   UNL A   1      43.057  24.066  25.435  1.00  0.00     0.022 A 
BRANCH  62  66
ATOM     66  S   UNL A   1      41.732  21.884  26.555  1.00  0.00     0.124 S 
ATOM     67  O   UNL A   1      40.275  21.985  26.499  1.00  0.00    -0.237 OA
ATOM     68  O   UNL A   1      42.379  21.314  25.379  1.00  0.00    -0.237 OA
ATOM     69  O   UNL A   1      42.268  21.441  27.840  1.00  0.00    -0.744 OA
ENDBRANCH  62  66
ENDBRANCH  45  59
BRANCH  46  70
ATOM     70  C   UNL A   1      39.975  31.909  35.188  1.00  0.00     0.023 A 
ATOM     71  C   UNL A   1      39.086  31.464  36.178  1.00  0.00     0.031 A 
ATOM     72  C   UNL A   1      40.471  33.222  35.290  1.00  0.00     0.131 A 
ATOM     73  C   UNL A   1      38.688  32.336  37.204  1.00  0.00     0.055 A 
ATOM     74  C   UNL A   1      40.114  34.068  36.341  1.00  0.00     0.041 A 
ATOM     75  F   UNL A   1      41.324  33.700  34.370  1.00  0.00    -0.206 F 
ATOM     76  C   UNL A   1      39.208  33.630  37.300  1.00  0.00     0.022 A 
BRANCH  73  77
ATOM     77  S   UNL A   1      37.415  31.784  38.373  1.00  0.00     0.124 S 
ATOM     78  O   UNL A   1      37.186  30.412  37.935  1.00  0.00    -0.237 OA
ATOM     79  O   UNL A   1      38.093  31.946  39.654  1.00  0.00    -0.237 OA
ATOM     80  O   UNL A   1      36.309  32.709  38.132  1.00  0.00    -0.744 OA
ENDBRANCH  73  77
ENDBRANCH  46  70
BRANCH  58  81
ATOM     81  C   UNL A   1      45.241  27.466  34.046  1.00  0.00     0.023 A 
ATOM     82  C   UNL A   1      46.457  28.157  33.909  1.00  0.00     0.031 A 
ATOM     83  C   UNL A   1      45.181  26.411  34.972  1.00  0.00     0.131 A 
ATOM     84  C   UNL A   1      47.580  27.746  34.642  1.00  0.00     0.055 A 
ATOM     85  C   UNL A   1      46.283  26.047  35.746  1.00  0.00     0.041 A 
ATOM     86  F   UNL A   1      44.045  25.715  35.144  1.00  0.00    -0.206 F 
ATOM     87  C   UNL A   1      47.497  26.708  35.573  1.00  0.00     0.022 A 
BRANCH  84  88
ATOM     88  S   UNL A   1      49.180  28.524  34.292  1.00  0.00     0.124 S 
ATOM     89  O   UNL A   1      49.617  28.930  35.624  1.00  0.00    -0.237 OA
ATOM     90  O   UNL A   1      49.932  27.434  33.680  1.00  0.00    -0.237 OA
ATOM     91  O   UNL A   1      48.838  29.622  33.390  1.00  0.00    -0.744 OA
ENDBRANCH  84  88
ENDBRANCH  58  81
ENDBRANCH  32  33
ENDBRANCH  25  27
ENDBRANCH  24  25
ENDBRANCH  23  24
ENDBRANCH   1  23
TORSDOF 19
ENDMDL
