MODEL 1
REMARK VINA RESULT:     -10.4      0.000      0.000
REMARK SMILES NS(=O)(=O)c1ccc(-n2ccnc2-c2ccc(O)c(C(=O)OCCOCCOC(=O)c3ccc(-c4c5nc(c(-c6cc(S(=O)(=O)[O-])ccc6F)c6ccc([nH]6)c(-c6cc(S(=O)(=O)[O-])ccc6F)c6nc(c(-c7cc(S(=O)(=O)[O-])ccc7F)c7ccc4[nH]7)C=C6)C=C5)cc3)c2)cc1
REMARK SMILES IDX 24 1 23 2 22 3 20 4 21 5 19 6 14 7 15 8 94 9 16 10 17 11
REMARK SMILES IDX 13 12 9 13 10 14 11 15 12 16 8 17 5 18 6 19 96 20 7 21 95 22
REMARK SMILES IDX 2 23 3 24 4 25 1 26 18 29 25 31 26 32 27 33 28 34 29 35
REMARK SMILES IDX 30 36 31 37 32 38 93 39 33 40 92 41 34 42 35 43 36 44 86 45
REMARK SMILES IDX 37 46 91 47 85 48 87 49 38 50 90 51 84 52 83 53 39 55 71 56
REMARK SMILES IDX 51 57 70 58 52 59 55 60 69 61 88 62 53 63 54 64 68 66 89 67
REMARK SMILES IDX 56 68 40 69 41 70 49 71 42 72 48 73 50 74 47 75 43 76 44 77
REMARK SMILES IDX 45 78 46 79 72 80 73 81 81 82 74 83 80 84 82 85 79 86 75 87
REMARK SMILES IDX 76 88 77 89 78 90 57 91 58 92 66 93 59 94 65 95 67 96 64 97
REMARK SMILES IDX 60 98 61 99 62 100 63 101
REMARK H PARENT 1 27 1 28 18 30 87 54 55 65
REMARK Flexibility Score: inf
ROOT
ATOM      1  C   UNL A   1      34.422  33.058  28.442  1.00  0.00     0.202 C 
ENDROOT
BRANCH   1   2
ATOM      2  C   UNL A   1      34.923  33.515  29.813  1.00  0.00     0.261 C 
BRANCH   2   3
ATOM      3  O   UNL A   1      34.384  32.727  30.886  1.00  0.00    -0.460 OA
BRANCH   3   4
ATOM      4  C   UNL A   1      34.506  33.284  32.112  1.00  0.00     0.342 C 
ATOM      5  O   UNL A   1      33.649  33.894  32.735  1.00  0.00    -0.246 OA
BRANCH   4   6
ATOM      6  C   UNL A   1      35.777  32.884  32.752  1.00  0.00     0.102 A 
ATOM      7  C   UNL A   1      37.497  31.219  33.172  1.00  0.00     0.019 A 
ATOM      8  C   UNL A   1      38.258  32.191  33.831  1.00  0.00     0.016 A 
ATOM      9  C   UNL A   1      36.216  31.561  32.706  1.00  0.00     0.031 A 
ATOM     10  C   UNL A   1      37.785  33.501  33.953  1.00  0.00     0.048 A 
ATOM     11  C   UNL A   1      36.563  33.851  33.386  1.00  0.00     0.130 A 
BRANCH   7  12
ATOM     12  C   UNL A   1      38.049  29.878  32.927  1.00  0.00     0.144 A 
ATOM     13  N   UNL A   1      39.192  29.618  32.170  1.00  0.00    -0.300 N 
ATOM     14  C   UNL A   1      39.212  28.266  31.931  1.00  0.00     0.113 A 
ATOM     15  C   UNL A   1      38.196  27.748  32.696  1.00  0.00     0.132 A 
ATOM     16  N   UNL A   1      37.505  28.745  33.331  1.00  0.00    -0.236 NA
BRANCH  13  17
ATOM     17  C   UNL A   1      40.127  30.566  31.683  1.00  0.00     0.047 A 
ATOM     18  C   UNL A   1      41.769  32.683  30.962  1.00  0.00     0.082 A 
ATOM     19  C   UNL A   1      42.114  31.894  32.061  1.00  0.00     0.024 A 
ATOM     20  C   UNL A   1      40.620  32.407  30.207  1.00  0.00     0.024 A 
ATOM     21  C   UNL A   1      41.288  30.833  32.425  1.00  0.00     0.028 A 
ATOM     22  C   UNL A   1      39.807  31.325  30.552  1.00  0.00     0.028 A 
BRANCH  18  23
ATOM     23  S   UNL A   1      42.771  34.073  30.532  1.00  0.00     0.238 S 
ATOM     24  O   UNL A   1      42.350  35.228  31.306  1.00  0.00    -0.207 OA
ATOM     25  O   UNL A   1      42.939  34.114  29.106  1.00  0.00    -0.207 OA
BRANCH  23  26
ATOM     26  N   UNL A   1      44.259  33.636  31.178  1.00  0.00    -0.225 NA
ATOM     27  H   UNL A   1      44.699  32.939  30.576  1.00  0.00     0.137 HD
ATOM     28  H   UNL A   1      44.123  33.245  32.109  1.00  0.00     0.137 HD
ENDBRANCH  23  26
ENDBRANCH  18  23
ENDBRANCH  13  17
ENDBRANCH   7  12
BRANCH  11  29
ATOM     29  O   UNL A   1      36.182  35.161  33.507  1.00  0.00    -0.507 OA
ATOM     30  H   UNL A   1      35.291  35.405  33.350  1.00  0.00     0.293 HD
ENDBRANCH  11  29
ENDBRANCH   4   6
ENDBRANCH   3   4
ENDBRANCH   2   3
ENDBRANCH   1   2
BRANCH   1  31
ATOM     31  O   UNL A   1      33.777  31.788  28.344  1.00  0.00    -0.374 OA
BRANCH  31  32
ATOM     32  C   UNL A   1      34.056  30.918  27.250  1.00  0.00     0.202 C 
BRANCH  32  33
ATOM     33  C   UNL A   1      34.994  29.739  27.449  1.00  0.00     0.261 C 
BRANCH  33  34
ATOM     34  O   UNL A   1      36.339  30.156  27.596  1.00  0.00    -0.460 OA
BRANCH  34  35
ATOM     35  C   UNL A   1      36.992  29.520  28.596  1.00  0.00     0.338 C 
ATOM     36  O   UNL A   1      36.804  29.644  29.794  1.00  0.00    -0.246 OA
BRANCH  35  37
ATOM     37  C   UNL A   1      38.095  28.764  28.005  1.00  0.00     0.060 A 
ATOM     38  C   UNL A   1      38.490  27.636  28.723  1.00  0.00     0.016 A 
ATOM     39  C   UNL A   1      38.913  29.373  27.042  1.00  0.00     0.016 A 
ATOM     40  C   UNL A   1      39.817  27.294  28.685  1.00  0.00     0.010 A 
ATOM     41  C   UNL A   1      40.243  29.042  27.022  1.00  0.00     0.010 A 
ATOM     42  C   UNL A   1      40.690  28.075  27.918  1.00  0.00    -0.014 A 
BRANCH  42  43
ATOM     43  C   UNL A   1      42.093  27.734  27.939  1.00  0.00     0.031 A 
ATOM     44  C   UNL A   1      42.312  26.409  27.324  1.00  0.00     0.074 A 
ATOM     45  C   UNL A   1      43.046  28.576  28.376  1.00  0.00     0.049 A 
ATOM     46  N   UNL A   1      42.579  25.304  27.932  1.00  0.00    -0.248 NA
ATOM     47  C   UNL A   1      41.900  26.234  25.920  1.00  0.00     0.031 C 
ATOM     48  C   UNL A   1      42.915  29.977  28.780  1.00  0.00     0.029 A 
ATOM     49  N   UNL A   1      44.384  28.365  28.469  1.00  0.00    -0.354 N 
ATOM     50  C   UNL A   1      42.658  24.352  26.926  1.00  0.00     0.074 A 
ATOM     51  C   UNL A   1      41.958  24.909  25.805  1.00  0.00     0.031 C 
ATOM     52  C   UNL A   1      44.145  30.543  28.837  1.00  0.00     0.029 A 
ATOM     53  C   UNL A   1      45.152  29.521  28.597  1.00  0.00     0.049 A 
ATOM     54  H   UNL A   1      44.782  27.465  28.446  1.00  0.00     0.167 HD
ATOM     55  C   UNL A   1      43.585  23.360  26.997  1.00  0.00     0.034 A 
ATOM     56  C   UNL A   1      46.503  29.617  28.435  1.00  0.00     0.034 A 
ATOM     57  C   UNL A   1      44.033  23.185  28.367  1.00  0.00     0.049 A 
ATOM     58  C   UNL A   1      47.045  28.243  28.616  1.00  0.00     0.074 A 
ATOM     59  C   UNL A   1      43.389  22.907  29.558  1.00  0.00     0.029 A 
ATOM     60  N   UNL A   1      45.257  23.711  28.725  1.00  0.00    -0.354 N 
ATOM     61  N   UNL A   1      46.993  27.604  29.755  1.00  0.00    -0.248 NA
ATOM     62  C   UNL A   1      47.146  27.389  27.438  1.00  0.00     0.031 C 
ATOM     63  C   UNL A   1      44.033  23.731  30.529  1.00  0.00     0.029 A 
ATOM     64  C   UNL A   1      45.099  24.388  29.910  1.00  0.00     0.049 A 
ATOM     65  H   UNL A   1      46.097  23.617  28.221  1.00  0.00     0.167 HD
ATOM     66  C   UNL A   1      46.612  26.310  29.429  1.00  0.00     0.074 A 
ATOM     67  C   UNL A   1      46.800  26.216  27.980  1.00  0.00     0.031 C 
ATOM     68  C   UNL A   1      45.896  25.539  30.302  1.00  0.00     0.034 A 
BRANCH  55  69
ATOM     69  C   UNL A   1      44.400  22.901  25.801  1.00  0.00     0.023 A 
ATOM     70  C   UNL A   1      44.417  21.518  25.563  1.00  0.00     0.031 A 
ATOM     71  C   UNL A   1      45.373  23.651  25.095  1.00  0.00     0.131 A 
ATOM     72  C   UNL A   1      45.449  20.927  24.816  1.00  0.00     0.055 A 
ATOM     73  C   UNL A   1      46.361  23.063  24.304  1.00  0.00     0.041 A 
ATOM     74  F   UNL A   1      45.482  24.981  25.168  1.00  0.00    -0.206 F 
ATOM     75  C   UNL A   1      46.432  21.689  24.195  1.00  0.00     0.022 A 
BRANCH  72  76
ATOM     76  S   UNL A   1      45.585  19.125  24.848  1.00  0.00     0.124 S 
ATOM     77  O   UNL A   1      44.341  18.757  25.515  1.00  0.00    -0.237 OA
ATOM     78  O   UNL A   1      45.672  18.811  23.425  1.00  0.00    -0.237 OA
ATOM     79  O   UNL A   1      46.804  18.894  25.617  1.00  0.00    -0.744 OA
ENDBRANCH  72  76
ENDBRANCH  55  69
BRANCH  56  80
ATOM     80  C   UNL A   1      47.256  30.720  27.758  1.00  0.00     0.023 A 
ATOM     81  C   UNL A   1      46.630  31.797  27.084  1.00  0.00     0.031 A 
ATOM     82  C   UNL A   1      48.646  30.851  27.984  1.00  0.00     0.131 A 
ATOM     83  C   UNL A   1      47.390  32.923  26.668  1.00  0.00     0.055 A 
ATOM     84  C   UNL A   1      49.387  31.962  27.574  1.00  0.00     0.041 A 
ATOM     85  F   UNL A   1      49.325  29.936  28.693  1.00  0.00    -0.206 F 
ATOM     86  C   UNL A   1      48.760  33.007  26.922  1.00  0.00     0.022 A 
BRANCH  83  87
ATOM     87  S   UNL A   1      46.594  34.350  25.849  1.00  0.00     0.124 S 
ATOM     88  O   UNL A   1      45.464  33.729  25.167  1.00  0.00    -0.237 OA
ATOM     89  O   UNL A   1      46.277  35.224  26.971  1.00  0.00    -0.237 OA
ATOM     90  O   UNL A   1      47.639  34.859  24.957  1.00  0.00    -0.744 OA
ENDBRANCH  83  87
ENDBRANCH  56  80
BRANCH  68  91
ATOM     91  C   UNL A   1      45.768  26.004  31.742  1.00  0.00     0.023 A 
ATOM     92  C   UNL A   1      44.654  26.685  32.290  1.00  0.00     0.031 A 
ATOM     93  C   UNL A   1      46.794  25.624  32.625  1.00  0.00     0.131 A 
ATOM     94  C   UNL A   1      44.609  26.966  33.673  1.00  0.00     0.055 A 
ATOM     95  C   UNL A   1      46.735  25.881  33.993  1.00  0.00     0.041 A 
ATOM     96  F   UNL A   1      47.867  24.955  32.173  1.00  0.00    -0.206 F 
ATOM     97  C   UNL A   1      45.644  26.559  34.522  1.00  0.00     0.022 A 
BRANCH  94  98
ATOM     98  S   UNL A   1      43.213  27.888  34.400  1.00  0.00     0.124 S 
ATOM     99  O   UNL A   1      43.676  29.270  34.392  1.00  0.00    -0.237 OA
ATOM    100  O   UNL A   1      42.117  27.574  33.486  1.00  0.00    -0.237 OA
ATOM    101  O   UNL A   1      43.075  27.300  35.734  1.00  0.00    -0.744 OA
ENDBRANCH  94  98
ENDBRANCH  68  91
ENDBRANCH  42  43
ENDBRANCH  35  37
ENDBRANCH  34  35
ENDBRANCH  33  34
ENDBRANCH  32  33
ENDBRANCH  31  32
ENDBRANCH   1  31
TORSDOF 22
ENDMDL
MODEL 2
REMARK VINA RESULT:     -10.2      4.386      9.325
REMARK SMILES NS(=O)(=O)c1ccc(-n2ccnc2-c2ccc(O)c(C(=O)OCCOCCOC(=O)c3ccc(-c4c5nc(c(-c6cc(S(=O)(=O)[O-])ccc6F)c6ccc([nH]6)c(-c6cc(S(=O)(=O)[O-])ccc6F)c6nc(c(-c7cc(S(=O)(=O)[O-])ccc7F)c7ccc4[nH]7)C=C6)C=C5)cc3)c2)cc1
REMARK SMILES IDX 24 1 23 2 22 3 20 4 21 5 19 6 14 7 15 8 94 9 16 10 17 11
REMARK SMILES IDX 13 12 9 13 10 14 11 15 12 16 8 17 5 18 6 19 96 20 7 21 95 22
REMARK SMILES IDX 2 23 3 24 4 25 1 26 18 29 25 31 26 32 27 33 28 34 29 35
REMARK SMILES IDX 30 36 31 37 32 38 93 39 33 40 92 41 34 42 35 43 36 44 86 45
REMARK SMILES IDX 37 46 91 47 85 48 87 49 38 50 90 51 84 52 83 53 39 55 71 56
REMARK SMILES IDX 51 57 70 58 52 59 55 60 69 61 88 62 53 63 54 64 68 66 89 67
REMARK SMILES IDX 56 68 40 69 41 70 49 71 42 72 48 73 50 74 47 75 43 76 44 77
REMARK SMILES IDX 45 78 46 79 72 80 73 81 81 82 74 83 80 84 82 85 79 86 75 87
REMARK SMILES IDX 76 88 77 89 78 90 57 91 58 92 66 93 59 94 65 95 67 96 64 97
REMARK SMILES IDX 60 98 61 99 62 100 63 101
REMARK H PARENT 1 27 1 28 18 30 87 54 55 65
REMARK Flexibility Score: inf
ROOT
ATOM      1  C   UNL A   1      31.825  32.708  26.823  1.00  0.00     0.202 C 
ENDROOT
BRANCH   1   2
ATOM      2  C   UNL A   1      32.186  31.224  26.895  1.00  0.00     0.261 C 
BRANCH   2   3
ATOM      3  O   UNL A   1      31.702  30.484  25.763  1.00  0.00    -0.460 OA
BRANCH   3   4
ATOM      4  C   UNL A   1      32.449  29.406  25.432  1.00  0.00     0.342 C 
ATOM      5  O   UNL A   1      33.636  29.231  25.664  1.00  0.00    -0.246 OA
BRANCH   4   6
ATOM      6  C   UNL A   1      31.600  28.311  24.920  1.00  0.00     0.102 A 
ATOM      7  C   UNL A   1      30.589  26.118  25.195  1.00  0.00     0.019 A 
ATOM      8  C   UNL A   1      29.863  26.318  24.015  1.00  0.00     0.016 A 
ATOM      9  C   UNL A   1      31.519  27.092  25.595  1.00  0.00     0.031 A 
ATOM     10  C   UNL A   1      30.003  27.505  23.289  1.00  0.00     0.048 A 
ATOM     11  C   UNL A   1      30.844  28.510  23.760  1.00  0.00     0.130 A 
BRANCH   7  12
ATOM     12  C   UNL A   1      30.345  24.930  26.027  1.00  0.00     0.144 A 
ATOM     13  N   UNL A   1      31.186  23.817  26.086  1.00  0.00    -0.300 N 
ATOM     14  C   UNL A   1      30.485  22.823  26.723  1.00  0.00     0.113 A 
ATOM     15  C   UNL A   1      29.336  23.422  27.177  1.00  0.00     0.132 A 
ATOM     16  N   UNL A   1      29.273  24.729  26.771  1.00  0.00    -0.236 NA
BRANCH  13  17
ATOM     17  C   UNL A   1      32.490  23.704  25.543  1.00  0.00     0.047 A 
ATOM     18  C   UNL A   1      35.070  23.146  24.688  1.00  0.00     0.082 A 
ATOM     19  C   UNL A   1      33.987  22.652  23.958  1.00  0.00     0.024 A 
ATOM     20  C   UNL A   1      34.872  23.934  25.830  1.00  0.00     0.024 A 
ATOM     21  C   UNL A   1      32.691  22.929  24.389  1.00  0.00     0.028 A 
ATOM     22  C   UNL A   1      33.574  24.239  26.246  1.00  0.00     0.028 A 
BRANCH  18  23
ATOM     23  S   UNL A   1      36.717  22.742  24.191  1.00  0.00     0.238 S 
ATOM     24  O   UNL A   1      36.918  21.309  24.309  1.00  0.00    -0.207 OA
ATOM     25  O   UNL A   1      37.629  23.702  24.748  1.00  0.00    -0.207 OA
BRANCH  23  26
ATOM     26  N   UNL A   1      36.659  23.039  22.539  1.00  0.00    -0.225 NA
ATOM     27  H   UNL A   1      36.105  23.877  22.364  1.00  0.00     0.137 HD
ATOM     28  H   UNL A   1      36.232  22.243  22.066  1.00  0.00     0.137 HD
ENDBRANCH  23  26
ENDBRANCH  18  23
ENDBRANCH  13  17
ENDBRANCH   7  12
BRANCH  11  29
ATOM     29  O   UNL A   1      30.899  29.661  23.022  1.00  0.00    -0.507 OA
ATOM     30  H   UNL A   1      30.540  30.456  23.366  1.00  0.00     0.293 HD
ENDBRANCH  11  29
ENDBRANCH   4   6
ENDBRANCH   3   4
ENDBRANCH   2   3
ENDBRANCH   1   2
BRANCH   1  31
ATOM     31  O   UNL A   1      32.359  33.585  27.814  1.00  0.00    -0.374 OA
BRANCH  31  32
ATOM     32  C   UNL A   1      33.768  33.703  27.992  1.00  0.00     0.202 C 
BRANCH  32  33
ATOM     33  C   UNL A   1      34.446  32.959  29.130  1.00  0.00     0.261 C 
BRANCH  33  34
ATOM     34  O   UNL A   1      35.833  32.793  28.896  1.00  0.00    -0.460 OA
BRANCH  34  35
ATOM     35  C   UNL A   1      36.148  31.586  28.372  1.00  0.00     0.338 C 
ATOM     36  O   UNL A   1      35.655  31.058  27.390  1.00  0.00    -0.246 OA
BRANCH  35  37
ATOM     37  C   UNL A   1      37.082  30.928  29.284  1.00  0.00     0.060 A 
ATOM     38  C   UNL A   1      38.298  31.588  29.463  1.00  0.00     0.016 A 
ATOM     39  C   UNL A   1      36.904  29.573  29.599  1.00  0.00     0.016 A 
ATOM     40  C   UNL A   1      39.411  30.817  29.679  1.00  0.00     0.010 A 
ATOM     41  C   UNL A   1      38.021  28.803  29.795  1.00  0.00     0.010 A 
ATOM     42  C   UNL A   1      39.264  29.426  29.732  1.00  0.00    -0.014 A 
BRANCH  42  43
ATOM     43  C   UNL A   1      40.456  28.629  29.901  1.00  0.00     0.031 A 
ATOM     44  C   UNL A   1      40.818  28.539  31.330  1.00  0.00     0.074 A 
ATOM     45  C   UNL A   1      41.065  27.994  28.884  1.00  0.00     0.049 A 
ATOM     46  N   UNL A   1      41.783  29.150  31.929  1.00  0.00    -0.248 NA
ATOM     47  C   UNL A   1      39.829  27.941  32.246  1.00  0.00     0.031 C 
ATOM     48  C   UNL A   1      40.626  27.860  27.494  1.00  0.00     0.029 A 
ATOM     49  N   UNL A   1      42.196  27.243  28.911  1.00  0.00    -0.354 N 
ATOM     50  C   UNL A   1      41.682  28.763  33.258  1.00  0.00     0.074 A 
ATOM     51  C   UNL A   1      40.339  28.289  33.426  1.00  0.00     0.031 C 
ATOM     52  C   UNL A   1      41.348  26.886  26.889  1.00  0.00     0.029 A 
ATOM     53  C   UNL A   1      42.377  26.416  27.804  1.00  0.00     0.049 A 
ATOM     54  H   UNL A   1      42.838  27.278  29.656  1.00  0.00     0.167 HD
ATOM     55  C   UNL A   1      42.806  28.541  33.991  1.00  0.00     0.034 A 
ATOM     56  C   UNL A   1      43.258  25.380  27.703  1.00  0.00     0.034 A 
ATOM     57  C   UNL A   1      43.942  29.214  33.388  1.00  0.00     0.049 A 
ATOM     58  C   UNL A   1      44.306  25.620  28.732  1.00  0.00     0.074 A 
ATOM     59  C   UNL A   1      44.210  30.527  33.049  1.00  0.00     0.029 A 
ATOM     60  N   UNL A   1      44.837  28.457  32.659  1.00  0.00    -0.354 N 
ATOM     61  N   UNL A   1      45.130  26.632  28.682  1.00  0.00    -0.248 NA
ATOM     62  C   UNL A   1      44.091  25.070  30.065  1.00  0.00     0.031 C 
ATOM     63  C   UNL A   1      44.881  30.457  31.792  1.00  0.00     0.029 A 
ATOM     64  C   UNL A   1      45.083  29.111  31.476  1.00  0.00     0.049 A 
ATOM     65  H   UNL A   1      45.230  27.599  32.937  1.00  0.00     0.167 HD
ATOM     66  C   UNL A   1      45.187  27.120  29.980  1.00  0.00     0.074 A 
ATOM     67  C   UNL A   1      44.590  26.067  30.804  1.00  0.00     0.031 C 
ATOM     68  C   UNL A   1      45.429  28.442  30.232  1.00  0.00     0.034 A 
BRANCH  55  69
ATOM     69  C   UNL A   1      42.955  27.368  34.943  1.00  0.00     0.023 A 
ATOM     70  C   UNL A   1      43.751  26.305  34.488  1.00  0.00     0.031 A 
ATOM     71  C   UNL A   1      42.158  27.087  36.080  1.00  0.00     0.131 A 
ATOM     72  C   UNL A   1      43.612  25.017  35.028  1.00  0.00     0.055 A 
ATOM     73  C   UNL A   1      42.069  25.816  36.652  1.00  0.00     0.041 A 
ATOM     74  F   UNL A   1      41.367  27.986  36.673  1.00  0.00    -0.206 F 
ATOM     75  C   UNL A   1      42.764  24.760  36.099  1.00  0.00     0.022 A 
BRANCH  72  76
ATOM     76  S   UNL A   1      44.416  23.650  34.161  1.00  0.00     0.124 S 
ATOM     77  O   UNL A   1      45.018  22.922  35.272  1.00  0.00    -0.237 OA
ATOM     78  O   UNL A   1      43.280  23.007  33.507  1.00  0.00    -0.237 OA
ATOM     79  O   UNL A   1      45.353  24.324  33.268  1.00  0.00    -0.744 OA
ENDBRANCH  72  76
ENDBRANCH  55  69
BRANCH  56  80
ATOM     80  C   UNL A   1      43.018  24.048  27.063  1.00  0.00     0.023 A 
ATOM     81  C   UNL A   1      43.856  23.496  26.064  1.00  0.00     0.031 A 
ATOM     82  C   UNL A   1      42.056  23.174  27.622  1.00  0.00     0.131 A 
ATOM     83  C   UNL A   1      43.705  22.139  25.669  1.00  0.00     0.055 A 
ATOM     84  C   UNL A   1      41.914  21.841  27.231  1.00  0.00     0.041 A 
ATOM     85  F   UNL A   1      41.271  23.562  28.639  1.00  0.00    -0.206 F 
ATOM     86  C   UNL A   1      42.745  21.315  26.258  1.00  0.00     0.022 A 
BRANCH  83  87
ATOM     87  S   UNL A   1      44.813  21.388  24.425  1.00  0.00     0.124 S 
ATOM     88  O   UNL A   1      44.582  22.226  23.254  1.00  0.00    -0.237 OA
ATOM     89  O   UNL A   1      46.122  21.499  25.057  1.00  0.00    -0.237 OA
ATOM     90  O   UNL A   1      44.311  20.017  24.302  1.00  0.00    -0.744 OA
ENDBRANCH  83  87
ENDBRANCH  56  80
BRANCH  68  91
ATOM     91  C   UNL A   1      45.918  29.319  29.094  1.00  0.00     0.023 A 
ATOM     92  C   UNL A   1      47.272  29.500  28.718  1.00  0.00     0.031 A 
ATOM     93  C   UNL A   1      44.935  29.906  28.278  1.00  0.00     0.131 A 
ATOM     94  C   UNL A   1      47.590  30.256  27.569  1.00  0.00     0.055 A 
ATOM     95  C   UNL A   1      45.253  30.630  27.130  1.00  0.00     0.041 A 
ATOM     96  F   UNL A   1      43.632  29.752  28.564  1.00  0.00    -0.206 F 
ATOM     97  C   UNL A   1      46.582  30.813  26.774  1.00  0.00     0.022 A 
BRANCH  94  98
ATOM     98  S   UNL A   1      49.325  30.552  27.090  1.00  0.00     0.124 S 
ATOM     99  O   UNL A   1      50.059  30.366  28.336  1.00  0.00    -0.237 OA
ATOM    100  O   UNL A   1      49.545  29.541  26.060  1.00  0.00    -0.237 OA
ATOM    101  O   UNL A   1      49.310  31.929  26.593  1.00  0.00    -0.744 OA
ENDBRANCH  94  98
ENDBRANCH  68  91
ENDBRANCH  42  43
ENDBRANCH  35  37
ENDBRANCH  34  35
ENDBRANCH  33  34
ENDBRANCH  32  33
ENDBRANCH  31  32
ENDBRANCH   1  31
TORSDOF 22
ENDMDL
MODEL 3
REMARK VINA RESULT:     -10.1      2.939      8.078
REMARK SMILES NS(=O)(=O)c1ccc(-n2ccnc2-c2ccc(O)c(C(=O)OCCOCCOC(=O)c3ccc(-c4c5nc(c(-c6cc(S(=O)(=O)[O-])ccc6F)c6ccc([nH]6)c(-c6cc(S(=O)(=O)[O-])ccc6F)c6nc(c(-c7cc(S(=O)(=O)[O-])ccc7F)c7ccc4[nH]7)C=C6)C=C5)cc3)c2)cc1
REMARK SMILES IDX 24 1 23 2 22 3 20 4 21 5 19 6 14 7 15 8 94 9 16 10 17 11
REMARK SMILES IDX 13 12 9 13 10 14 11 15 12 16 8 17 5 18 6 19 96 20 7 21 95 22
REMARK SMILES IDX 2 23 3 24 4 25 1 26 18 29 25 31 26 32 27 33 28 34 29 35
REMARK SMILES IDX 30 36 31 37 32 38 93 39 33 40 92 41 34 42 35 43 36 44 86 45
REMARK SMILES IDX 37 46 91 47 85 48 87 49 38 50 90 51 84 52 83 53 39 55 71 56
REMARK SMILES IDX 51 57 70 58 52 59 55 60 69 61 88 62 53 63 54 64 68 66 89 67
REMARK SMILES IDX 56 68 40 69 41 70 49 71 42 72 48 73 50 74 47 75 43 76 44 77
REMARK SMILES IDX 45 78 46 79 72 80 73 81 81 82 74 83 80 84 82 85 79 86 75 87
REMARK SMILES IDX 76 88 77 89 78 90 57 91 58 92 66 93 59 94 65 95 67 96 64 97
REMARK SMILES IDX 60 98 61 99 62 100 63 101
REMARK H PARENT 1 27 1 28 18 30 87 54 55 65
REMARK Flexibility Score: inf
ROOT
ATOM      1  C   UNL A   1      33.147  35.994  29.434  1.00  0.00     0.202 C 
ENDROOT
BRANCH   1   2
ATOM      2  C   UNL A   1      34.198  35.431  30.391  1.00  0.00     0.261 C 
BRANCH   2   3
ATOM      3  O   UNL A   1      33.705  35.298  31.733  1.00  0.00    -0.460 OA
BRANCH   3   4
ATOM      4  C   UNL A   1      34.638  35.466  32.697  1.00  0.00     0.342 C 
ATOM      5  O   UNL A   1      34.643  36.310  33.582  1.00  0.00    -0.246 OA
BRANCH   4   6
ATOM      6  C   UNL A   1      35.597  34.341  32.708  1.00  0.00     0.102 A 
ATOM      7  C   UNL A   1      37.867  33.504  32.927  1.00  0.00     0.019 A 
ATOM      8  C   UNL A   1      37.375  32.195  32.890  1.00  0.00     0.016 A 
ATOM      9  C   UNL A   1      36.971  34.572  32.753  1.00  0.00     0.031 A 
ATOM     10  C   UNL A   1      36.004  31.956  32.761  1.00  0.00     0.048 A 
ATOM     11  C   UNL A   1      35.117  33.027  32.704  1.00  0.00     0.130 A 
BRANCH   7  12
ATOM     12  C   UNL A   1      39.291  33.757  33.195  1.00  0.00     0.144 A 
ATOM     13  N   UNL A   1      39.876  33.733  34.462  1.00  0.00    -0.300 N 
ATOM     14  C   UNL A   1      41.121  34.299  34.336  1.00  0.00     0.113 A 
ATOM     15  C   UNL A   1      41.306  34.472  32.986  1.00  0.00     0.132 A 
ATOM     16  N   UNL A   1      40.186  34.106  32.288  1.00  0.00    -0.236 NA
BRANCH  13  17
ATOM     17  C   UNL A   1      39.286  33.273  35.665  1.00  0.00     0.047 A 
ATOM     18  C   UNL A   1      37.796  32.336  37.810  1.00  0.00     0.082 A 
ATOM     19  C   UNL A   1      38.457  31.422  36.987  1.00  0.00     0.024 A 
ATOM     20  C   UNL A   1      37.893  33.716  37.581  1.00  0.00     0.024 A 
ATOM     21  C   UNL A   1      39.202  31.892  35.907  1.00  0.00     0.028 A 
ATOM     22  C   UNL A   1      38.664  34.190  36.518  1.00  0.00     0.028 A 
BRANCH  18  23
ATOM     23  S   UNL A   1      36.790  31.749  39.139  1.00  0.00     0.238 S 
ATOM     24  O   UNL A   1      37.305  32.263  40.396  1.00  0.00    -0.207 OA
ATOM     25  O   UNL A   1      36.496  30.359  38.933  1.00  0.00    -0.207 OA
BRANCH  23  26
ATOM     26  N   UNL A   1      35.358  32.586  38.881  1.00  0.00    -0.225 NA
ATOM     27  H   UNL A   1      35.128  32.567  37.887  1.00  0.00     0.137 HD
ATOM     28  H   UNL A   1      35.469  33.553  39.186  1.00  0.00     0.137 HD
ENDBRANCH  23  26
ENDBRANCH  18  23
ENDBRANCH  13  17
ENDBRANCH   7  12
BRANCH  11  29
ATOM     29  O   UNL A   1      33.785  32.720  32.621  1.00  0.00    -0.507 OA
ATOM     30  H   UNL A   1      33.157  33.397  32.463  1.00  0.00     0.293 HD
ENDBRANCH  11  29
ENDBRANCH   4   6
ENDBRANCH   3   4
ENDBRANCH   2   3
ENDBRANCH   1   2
BRANCH   1  31
ATOM     31  O   UNL A   1      32.473  35.089  28.559  1.00  0.00    -0.374 OA
BRANCH  31  32
ATOM     32  C   UNL A   1      33.192  34.051  27.899  1.00  0.00     0.202 C 
BRANCH  32  33
ATOM     33  C   UNL A   1      33.659  32.841  28.691  1.00  0.00     0.261 C 
BRANCH  33  34
ATOM     34  O   UNL A   1      34.726  32.171  28.046  1.00  0.00    -0.460 OA
BRANCH  34  35
ATOM     35  C   UNL A   1      35.907  32.824  28.142  1.00  0.00     0.338 C 
ATOM     36  O   UNL A   1      36.283  33.768  27.469  1.00  0.00    -0.246 OA
BRANCH  35  37
ATOM     37  C   UNL A   1      36.747  32.098  29.093  1.00  0.00     0.060 A 
ATOM     38  C   UNL A   1      37.972  32.700  29.379  1.00  0.00     0.016 A 
ATOM     39  C   UNL A   1      36.492  30.742  29.347  1.00  0.00     0.016 A 
ATOM     40  C   UNL A   1      39.036  31.876  29.645  1.00  0.00     0.010 A 
ATOM     41  C   UNL A   1      37.561  29.919  29.593  1.00  0.00     0.010 A 
ATOM     42  C   UNL A   1      38.829  30.491  29.639  1.00  0.00    -0.014 A 
BRANCH  42  43
ATOM     43  C   UNL A   1      39.974  29.639  29.862  1.00  0.00     0.031 A 
ATOM     44  C   UNL A   1      40.269  29.539  31.306  1.00  0.00     0.074 A 
ATOM     45  C   UNL A   1      40.595  28.970  28.875  1.00  0.00     0.049 A 
ATOM     46  N   UNL A   1      41.234  30.107  31.944  1.00  0.00    -0.248 NA
ATOM     47  C   UNL A   1      39.213  28.994  32.180  1.00  0.00     0.031 C 
ATOM     48  C   UNL A   1      40.210  28.849  27.468  1.00  0.00     0.029 A 
ATOM     49  N   UNL A   1      41.686  28.166  28.954  1.00  0.00    -0.354 N 
ATOM     50  C   UNL A   1      41.058  29.732  33.268  1.00  0.00     0.074 A 
ATOM     51  C   UNL A   1      39.688  29.324  33.380  1.00  0.00     0.031 C 
ATOM     52  C   UNL A   1      40.910  27.839  26.898  1.00  0.00     0.029 A 
ATOM     53  C   UNL A   1      41.875  27.325  27.859  1.00  0.00     0.049 A 
ATOM     54  H   UNL A   1      42.297  28.174  29.726  1.00  0.00     0.167 HD
ATOM     55  C   UNL A   1      42.137  29.462  34.051  1.00  0.00     0.034 A 
ATOM     56  C   UNL A   1      42.710  26.248  27.799  1.00  0.00     0.034 A 
ATOM     57  C   UNL A   1      43.329  30.076  33.495  1.00  0.00     0.049 A 
ATOM     58  C   UNL A   1      43.722  26.443  28.872  1.00  0.00     0.074 A 
ATOM     59  C   UNL A   1      43.674  31.373  33.164  1.00  0.00     0.029 A 
ATOM     60  N   UNL A   1      44.217  29.273  32.808  1.00  0.00    -0.354 N 
ATOM     61  N   UNL A   1      44.595  27.415  28.855  1.00  0.00    -0.248 NA
ATOM     62  C   UNL A   1      43.423  25.911  30.196  1.00  0.00     0.031 C 
ATOM     63  C   UNL A   1      44.395  31.264  31.938  1.00  0.00     0.029 A 
ATOM     64  C   UNL A   1      44.546  29.909  31.635  1.00  0.00     0.049 A 
ATOM     65  H   UNL A   1      44.556  28.399  33.106  1.00  0.00     0.167 HD
ATOM     66  C   UNL A   1      44.619  27.906  30.152  1.00  0.00     0.074 A 
ATOM     67  C   UNL A   1      43.937  26.887  30.953  1.00  0.00     0.031 C 
ATOM     68  C   UNL A   1      44.912  29.216  30.410  1.00  0.00     0.034 A 
BRANCH  55  69
ATOM     69  C   UNL A   1      42.188  28.288  35.012  1.00  0.00     0.023 A 
ATOM     70  C   UNL A   1      42.995  28.459  36.149  1.00  0.00     0.031 A 
ATOM     71  C   UNL A   1      41.777  26.957  34.755  1.00  0.00     0.131 A 
ATOM     72  C   UNL A   1      43.490  27.353  36.856  1.00  0.00     0.055 A 
ATOM     73  C   UNL A   1      42.226  25.864  35.499  1.00  0.00     0.041 A 
ATOM     74  F   UNL A   1      40.979  26.609  33.741  1.00  0.00    -0.206 F 
ATOM     75  C   UNL A   1      43.123  26.052  36.530  1.00  0.00     0.022 A 
BRANCH  72  76
ATOM     76  S   UNL A   1      44.785  27.648  38.081  1.00  0.00     0.124 S 
ATOM     77  O   UNL A   1      44.789  29.105  38.146  1.00  0.00    -0.237 OA
ATOM     78  O   UNL A   1      44.253  26.950  39.247  1.00  0.00    -0.237 OA
ATOM     79  O   UNL A   1      45.966  27.043  37.474  1.00  0.00    -0.744 OA
ENDBRANCH  72  76
ENDBRANCH  55  69
BRANCH  56  80
ATOM     80  C   UNL A   1      42.433  24.926  27.154  1.00  0.00     0.023 A 
ATOM     81  C   UNL A   1      43.360  24.250  26.322  1.00  0.00     0.031 A 
ATOM     82  C   UNL A   1      41.302  24.180  27.559  1.00  0.00     0.131 A 
ATOM     83  C   UNL A   1      43.128  22.903  25.935  1.00  0.00     0.055 A 
ATOM     84  C   UNL A   1      41.081  22.855  27.175  1.00  0.00     0.041 A 
ATOM     85  F   UNL A   1      40.406  24.687  28.419  1.00  0.00    -0.206 F 
ATOM     86  C   UNL A   1      41.999  22.208  26.368  1.00  0.00     0.022 A 
BRANCH  83  87
ATOM     87  S   UNL A   1      44.339  21.993  24.912  1.00  0.00     0.124 S 
ATOM     88  O   UNL A   1      44.194  22.635  23.611  1.00  0.00    -0.237 OA
ATOM     89  O   UNL A   1      45.592  22.227  25.618  1.00  0.00    -0.237 OA
ATOM     90  O   UNL A   1      43.860  20.609  24.965  1.00  0.00    -0.744 OA
ENDBRANCH  83  87
ENDBRANCH  56  80
BRANCH  68  91
ATOM     91  C   UNL A   1      45.492  30.063  29.291  1.00  0.00     0.023 A 
ATOM     92  C   UNL A   1      44.752  30.916  28.437  1.00  0.00     0.031 A 
ATOM     93  C   UNL A   1      46.893  30.085  29.174  1.00  0.00     0.131 A 
ATOM     94  C   UNL A   1      45.424  31.737  27.505  1.00  0.00     0.055 A 
ATOM     95  C   UNL A   1      47.554  30.915  28.270  1.00  0.00     0.041 A 
ATOM     96  F   UNL A   1      47.655  29.318  29.971  1.00  0.00    -0.206 F 
ATOM     97  C   UNL A   1      46.821  31.741  27.428  1.00  0.00     0.022 A 
BRANCH  94  98
ATOM     98  S   UNL A   1      44.496  32.805  26.354  1.00  0.00     0.124 S 
ATOM     99  O   UNL A   1      43.782  33.718  27.238  1.00  0.00    -0.237 OA
ATOM    100  O   UNL A   1      45.559  33.396  25.546  1.00  0.00    -0.237 OA
ATOM    101  O   UNL A   1      43.639  31.863  25.631  1.00  0.00    -0.744 OA
ENDBRANCH  94  98
ENDBRANCH  68  91
ENDBRANCH  42  43
ENDBRANCH  35  37
ENDBRANCH  34  35
ENDBRANCH  33  34
ENDBRANCH  32  33
ENDBRANCH  31  32
ENDBRANCH   1  31
TORSDOF 22
ENDMDL
