MODEL 1
REMARK VINA RESULT:      -8.0      0.000      0.000
REMARK SMILES Cc1ccc(S(=O)(=O)n2cc(C(=O)C(=O)N[C@@H](Cc3cnc[nH]3)C(=O)OCCOCCOC(=O)c3ccc(-c4c5nc(c(-c6cc(S(=O)(=O)[O-])ccc6F)c6ccc([nH]6)c(-c6cc(S(=O)(=O)[O-])ccc6F)c6nc(c(-c7cc(S(=O)(=O)[O-])ccc7F)c7ccc4[nH]7)C=C6)C=C5)cc3)c3ccccc32)cc1
REMARK SMILES IDX 28 1 27 2 26 3 24 4 25 5 17 6 16 7 14 8 15 9 12 11 13 12
REMARK SMILES IDX 11 13 9 14 10 15 103 16 98 17 102 18 99 19 101 20 100 21
REMARK SMILES IDX 6 22 7 23 8 24 5 25 1 26 2 27 3 28 105 29 4 30 104 31 18 32
REMARK SMILES IDX 19 33 20 34 23 35 21 36 22 37 29 39 30 40 31 41 32 42 33 43
REMARK SMILES IDX 34 44 35 45 36 46 97 47 37 48 96 49 38 50 39 51 40 52 90 53
REMARK SMILES IDX 41 54 95 55 89 56 91 57 42 58 94 59 88 60 87 61 43 63 75 64
REMARK SMILES IDX 55 65 74 66 56 67 59 68 73 69 92 70 57 71 58 72 72 74 93 75
REMARK SMILES IDX 60 76 44 77 45 78 53 79 46 80 52 81 54 82 51 83 47 84 48 85
REMARK SMILES IDX 49 86 50 87 76 88 77 89 85 90 78 91 84 92 86 93 83 94 79 95
REMARK SMILES IDX 80 96 81 97 82 98 61 99 62 100 70 101 63 102 69 103 71 104
REMARK SMILES IDX 68 105 64 106 65 107 66 108 67 109
REMARK H PARENT 16 10 23 38 91 62 59 73
REMARK Flexibility Score: inf
ROOT
ATOM      1  C   UNL A   1      46.352  26.567  27.243  1.00  0.00     0.202 C 
ENDROOT
BRANCH   1   2
ATOM      2  C   UNL A   1      45.958  26.671  25.814  1.00  0.00     0.261 C 
BRANCH   2   3
ATOM      3  O   UNL A   1      44.770  25.952  25.522  1.00  0.00    -0.462 OA
BRANCH   3   4
ATOM      4  C   UNL A   1      44.923  24.650  25.165  1.00  0.00     0.329 C 
ATOM      5  O   UNL A   1      45.840  24.198  24.495  1.00  0.00    -0.250 OA
BRANCH   4   6
ATOM      6  C   UNL A   1      43.682  23.881  25.599  1.00  0.00     0.198 C 
BRANCH   6   7
ATOM      7  N   UNL A   1      42.501  24.636  25.141  1.00  0.00    -0.335 N 
ATOM      8  C   UNL A   1      41.550  25.233  25.932  1.00  0.00     0.293 C 
ATOM      9  O   UNL A   1      40.741  26.041  25.492  1.00  0.00    -0.265 OA
ATOM     10  H   UNL A   1      42.382  24.720  24.167  1.00  0.00     0.164 HD
BRANCH   8  11
ATOM     11  C   UNL A   1      41.484  24.867  27.420  1.00  0.00     0.252 C 
ATOM     12  O   UNL A   1      40.992  23.790  27.744  1.00  0.00    -0.283 OA
BRANCH  11  13
ATOM     13  C   UNL A   1      42.007  25.792  28.423  1.00  0.00     0.054 A 
ATOM     14  N   UNL A   1      43.318  26.725  29.960  1.00  0.00    -0.240 N 
ATOM     15  C   UNL A   1      43.234  25.706  29.054  1.00  0.00     0.117 A 
ATOM     16  C   UNL A   1      42.186  27.512  29.934  1.00  0.00     0.065 A 
ATOM     17  C   UNL A   1      41.342  26.939  28.973  1.00  0.00     0.012 A 
ATOM     18  C   UNL A   1      41.797  28.641  30.679  1.00  0.00     0.028 A 
ATOM     19  C   UNL A   1      40.083  27.531  28.738  1.00  0.00     0.011 A 
ATOM     20  C   UNL A   1      40.535  29.190  30.438  1.00  0.00     0.002 A 
ATOM     21  C   UNL A   1      39.689  28.650  29.477  1.00  0.00     0.001 A 
BRANCH  14  22
ATOM     22  S   UNL A   1      44.594  26.870  31.072  1.00  0.00     0.268 S 
ATOM     23  O   UNL A   1      44.844  28.302  31.186  1.00  0.00    -0.201 OA
ATOM     24  O   UNL A   1      45.622  25.950  30.646  1.00  0.00    -0.201 OA
BRANCH  22  25
ATOM     25  C   UNL A   1      44.006  26.313  32.650  1.00  0.00     0.088 A 
ATOM     26  C   UNL A   1      42.098  25.040  36.284  1.00  0.00     0.044 C 
ATOM     27  C   UNL A   1      42.799  25.493  35.038  1.00  0.00    -0.051 A 
ATOM     28  C   UNL A   1      42.548  26.771  34.524  1.00  0.00     0.005 A 
ATOM     29  C   UNL A   1      43.700  24.653  34.373  1.00  0.00     0.005 A 
ATOM     30  C   UNL A   1      43.144  27.179  33.332  1.00  0.00     0.022 A 
ATOM     31  C   UNL A   1      44.316  25.064  33.187  1.00  0.00     0.022 A 
ENDBRANCH  22  25
ENDBRANCH  14  22
ENDBRANCH  11  13
ENDBRANCH   8  11
ENDBRANCH   6   7
BRANCH   6  32
ATOM     32  C   UNL A   1      43.755  22.450  25.055  1.00  0.00     0.092 C 
BRANCH  32  33
ATOM     33  C   UNL A   1      43.111  21.407  25.905  1.00  0.00     0.037 A 
ATOM     34  C   UNL A   1      42.738  20.108  25.635  1.00  0.00     0.134 A 
ATOM     35  N   UNL A   1      42.810  21.574  27.232  1.00  0.00    -0.348 N 
ATOM     36  N   UNL A   1      42.095  19.544  26.702  1.00  0.00    -0.245 NA
ATOM     37  C   UNL A   1      42.174  20.442  27.656  1.00  0.00     0.196 A 
ATOM     38  H   UNL A   1      43.016  22.366  27.780  1.00  0.00     0.167 HD
ENDBRANCH  32  33
ENDBRANCH   6  32
ENDBRANCH   4   6
ENDBRANCH   3   4
ENDBRANCH   2   3
ENDBRANCH   1   2
BRANCH   1  39
ATOM     39  O   UNL A   1      46.618  27.886  27.698  1.00  0.00    -0.374 OA
BRANCH  39  40
ATOM     40  C   UNL A   1      47.608  28.532  26.914  1.00  0.00     0.202 C 
BRANCH  40  41
ATOM     41  C   UNL A   1      47.593  30.074  27.008  1.00  0.00     0.261 C 
BRANCH  41  42
ATOM     42  O   UNL A   1      46.268  30.531  27.363  1.00  0.00    -0.460 OA
BRANCH  42  43
ATOM     43  C   UNL A   1      45.935  31.799  26.982  1.00  0.00     0.338 C 
ATOM     44  O   UNL A   1      46.557  32.488  26.193  1.00  0.00    -0.246 OA
BRANCH  43  45
ATOM     45  C   UNL A   1      44.781  32.276  27.798  1.00  0.00     0.060 A 
ATOM     46  C   UNL A   1      44.854  33.486  28.513  1.00  0.00     0.016 A 
ATOM     47  C   UNL A   1      43.767  31.368  28.082  1.00  0.00     0.016 A 
ATOM     48  C   UNL A   1      44.035  33.690  29.637  1.00  0.00     0.010 A 
ATOM     49  C   UNL A   1      43.051  31.525  29.244  1.00  0.00     0.010 A 
ATOM     50  C   UNL A   1      43.211  32.655  30.060  1.00  0.00    -0.014 A 
BRANCH  50  51
ATOM     51  C   UNL A   1      42.500  32.584  31.341  1.00  0.00     0.031 A 
ATOM     52  C   UNL A   1      41.232  33.329  31.434  1.00  0.00     0.074 A 
ATOM     53  C   UNL A   1      42.858  31.728  32.332  1.00  0.00     0.049 A 
ATOM     54  N   UNL A   1      40.747  33.792  32.528  1.00  0.00    -0.248 NA
ATOM     55  C   UNL A   1      40.417  33.674  30.271  1.00  0.00     0.031 C 
ATOM     56  C   UNL A   1      42.119  31.291  33.515  1.00  0.00     0.029 A 
ATOM     57  N   UNL A   1      44.077  31.070  32.500  1.00  0.00    -0.354 N 
ATOM     58  C   UNL A   1      39.431  34.106  32.274  1.00  0.00     0.074 A 
ATOM     59  C   UNL A   1      39.334  34.194  30.844  1.00  0.00     0.031 C 
ATOM     60  C   UNL A   1      42.982  30.764  34.411  1.00  0.00     0.029 A 
ATOM     61  C   UNL A   1      44.322  30.925  33.862  1.00  0.00     0.049 A 
ATOM     62  H   UNL A   1      44.666  30.760  31.776  1.00  0.00     0.167 HD
ATOM     63  C   UNL A   1      38.529  34.036  33.291  1.00  0.00     0.034 A 
ATOM     64  C   UNL A   1      45.437  31.479  34.402  1.00  0.00     0.034 A 
ATOM     65  C   UNL A   1      39.190  33.567  34.525  1.00  0.00     0.049 A 
ATOM     66  C   UNL A   1      44.927  32.514  35.363  1.00  0.00     0.074 A 
ATOM     67  C   UNL A   1      39.138  32.381  35.242  1.00  0.00     0.029 A 
ATOM     68  N   UNL A   1      40.314  34.246  34.999  1.00  0.00    -0.354 N 
ATOM     69  N   UNL A   1      43.771  33.113  35.209  1.00  0.00    -0.248 NA
ATOM     70  C   UNL A   1      45.532  32.751  36.663  1.00  0.00     0.031 C 
ATOM     71  C   UNL A   1      40.260  32.351  36.127  1.00  0.00     0.029 A 
ATOM     72  C   UNL A   1      40.994  33.516  35.954  1.00  0.00     0.049 A 
ATOM     73  H   UNL A   1      40.589  35.139  34.689  1.00  0.00     0.167 HD
ATOM     74  C   UNL A   1      43.382  33.628  36.412  1.00  0.00     0.074 A 
ATOM     75  C   UNL A   1      44.542  33.422  37.274  1.00  0.00     0.031 C 
ATOM     76  C   UNL A   1      42.125  34.107  36.664  1.00  0.00     0.034 A 
BRANCH  63  77
ATOM     77  C   UNL A   1      37.020  34.090  33.107  1.00  0.00     0.023 A 
ATOM     78  C   UNL A   1      36.492  33.958  31.808  1.00  0.00     0.031 A 
ATOM     79  C   UNL A   1      36.049  34.247  34.122  1.00  0.00     0.131 A 
ATOM     80  C   UNL A   1      35.108  34.052  31.558  1.00  0.00     0.055 A 
ATOM     81  C   UNL A   1      34.679  34.405  33.869  1.00  0.00     0.041 A 
ATOM     82  F   UNL A   1      36.348  34.170  35.423  1.00  0.00    -0.206 F 
ATOM     83  C   UNL A   1      34.199  34.306  32.577  1.00  0.00     0.022 A 
BRANCH  80  84
ATOM     84  S   UNL A   1      34.505  33.778  29.872  1.00  0.00     0.124 S 
ATOM     85  O   UNL A   1      35.616  34.272  29.066  1.00  0.00    -0.237 OA
ATOM     86  O   UNL A   1      34.282  32.335  29.854  1.00  0.00    -0.237 OA
ATOM     87  O   UNL A   1      33.288  34.587  29.812  1.00  0.00    -0.744 OA
ENDBRANCH  80  84
ENDBRANCH  63  77
BRANCH  64  88
ATOM     88  C   UNL A   1      46.581  31.502  33.418  1.00  0.00     0.023 A 
ATOM     89  C   UNL A   1      47.359  30.315  33.313  1.00  0.00     0.031 A 
ATOM     90  C   UNL A   1      46.621  32.369  32.321  1.00  0.00     0.131 A 
ATOM     91  C   UNL A   1      47.956  29.928  32.098  1.00  0.00     0.055 A 
ATOM     92  C   UNL A   1      47.283  32.014  31.130  1.00  0.00     0.041 A 
ATOM     93  F   UNL A   1      45.907  33.504  32.323  1.00  0.00    -0.206 F 
ATOM     94  C   UNL A   1      47.897  30.768  30.990  1.00  0.00     0.022 A 
BRANCH  91  95
ATOM     95  S   UNL A   1      48.532  28.203  31.893  1.00  0.00     0.124 S 
ATOM     96  O   UNL A   1      49.929  28.301  32.297  1.00  0.00    -0.237 OA
ATOM     97  O   UNL A   1      47.651  27.465  32.794  1.00  0.00    -0.237 OA
ATOM     98  O   UNL A   1      48.292  27.935  30.477  1.00  0.00    -0.744 OA
ENDBRANCH  91  95
ENDBRANCH  64  88
BRANCH  76  99
ATOM     99  C   UNL A   1      41.859  35.213  37.654  1.00  0.00     0.023 A 
ATOM    100  C   UNL A   1      41.042  35.028  38.769  1.00  0.00     0.031 A 
ATOM    101  C   UNL A   1      42.547  36.450  37.604  1.00  0.00     0.131 A 
ATOM    102  C   UNL A   1      40.865  36.028  39.727  1.00  0.00     0.055 A 
ATOM    103  C   UNL A   1      42.446  37.413  38.609  1.00  0.00     0.041 A 
ATOM    104  F   UNL A   1      43.385  36.770  36.608  1.00  0.00    -0.206 F 
ATOM    105  C   UNL A   1      41.585  37.214  39.675  1.00  0.00     0.022 A 
BRANCH 102 106
ATOM    106  S   UNL A   1      39.629  35.718  41.004  1.00  0.00     0.124 S 
ATOM    107  O   UNL A   1      40.413  35.002  42.008  1.00  0.00    -0.237 OA
ATOM    108  O   UNL A   1      39.218  37.068  41.374  1.00  0.00    -0.237 OA
ATOM    109  O   UNL A   1      38.618  34.921  40.314  1.00  0.00    -0.744 OA
ENDBRANCH 102 106
ENDBRANCH  76  99
ENDBRANCH  50  51
ENDBRANCH  43  45
ENDBRANCH  42  43
ENDBRANCH  41  42
ENDBRANCH  40  41
ENDBRANCH  39  40
ENDBRANCH   1  39
TORSDOF 24
ENDMDL
MODEL 2
REMARK VINA RESULT:      -8.0      3.992     13.051
REMARK SMILES Cc1ccc(S(=O)(=O)n2cc(C(=O)C(=O)N[C@@H](Cc3cnc[nH]3)C(=O)OCCOCCOC(=O)c3ccc(-c4c5nc(c(-c6cc(S(=O)(=O)[O-])ccc6F)c6ccc([nH]6)c(-c6cc(S(=O)(=O)[O-])ccc6F)c6nc(c(-c7cc(S(=O)(=O)[O-])ccc7F)c7ccc4[nH]7)C=C6)C=C5)cc3)c3ccccc32)cc1
REMARK SMILES IDX 28 1 27 2 26 3 24 4 25 5 17 6 16 7 14 8 15 9 12 11 13 12
REMARK SMILES IDX 11 13 9 14 10 15 103 16 98 17 102 18 99 19 101 20 100 21
REMARK SMILES IDX 6 22 7 23 8 24 5 25 1 26 2 27 3 28 105 29 4 30 104 31 18 32
REMARK SMILES IDX 19 33 20 34 23 35 21 36 22 37 29 39 30 40 31 41 32 42 33 43
REMARK SMILES IDX 34 44 35 45 36 46 97 47 37 48 96 49 38 50 39 51 40 52 90 53
REMARK SMILES IDX 41 54 95 55 89 56 91 57 42 58 94 59 88 60 87 61 43 63 75 64
REMARK SMILES IDX 55 65 74 66 56 67 59 68 73 69 92 70 57 71 58 72 72 74 93 75
REMARK SMILES IDX 60 76 44 77 45 78 53 79 46 80 52 81 54 82 51 83 47 84 48 85
REMARK SMILES IDX 49 86 50 87 76 88 77 89 85 90 78 91 84 92 86 93 83 94 79 95
REMARK SMILES IDX 80 96 81 97 82 98 61 99 62 100 70 101 63 102 69 103 71 104
REMARK SMILES IDX 68 105 64 106 65 107 66 108 67 109
REMARK H PARENT 16 10 23 38 91 62 59 73
REMARK Flexibility Score: inf
ROOT
ATOM      1  C   UNL A   1      40.870  32.456  36.729  1.00  0.00     0.202 C 
ENDROOT
BRANCH   1   2
ATOM      2  C   UNL A   1      39.721  33.329  37.085  1.00  0.00     0.261 C 
BRANCH   2   3
ATOM      3  O   UNL A   1      38.615  33.155  36.214  1.00  0.00    -0.462 OA
BRANCH   3   4
ATOM      4  C   UNL A   1      38.422  34.126  35.281  1.00  0.00     0.329 C 
ATOM      5  O   UNL A   1      39.030  35.184  35.218  1.00  0.00    -0.250 OA
BRANCH   4   6
ATOM      6  C   UNL A   1      37.216  33.745  34.432  1.00  0.00     0.198 C 
BRANCH   6   7
ATOM      7  N   UNL A   1      36.521  34.989  34.052  1.00  0.00    -0.335 N 
ATOM      8  C   UNL A   1      35.242  35.099  33.564  1.00  0.00     0.293 C 
ATOM      9  O   UNL A   1      34.652  36.170  33.501  1.00  0.00    -0.265 OA
ATOM     10  H   UNL A   1      37.027  35.827  34.159  1.00  0.00     0.164 HD
BRANCH   8  11
ATOM     11  C   UNL A   1      34.527  33.838  33.061  1.00  0.00     0.252 C 
ATOM     12  O   UNL A   1      33.952  33.120  33.874  1.00  0.00    -0.283 OA
BRANCH  11  13
ATOM     13  C   UNL A   1      34.533  33.516  31.636  1.00  0.00     0.054 A 
ATOM     14  N   UNL A   1      34.957  32.508  29.697  1.00  0.00    -0.240 N 
ATOM     15  C   UNL A   1      35.126  32.413  31.049  1.00  0.00     0.117 A 
ATOM     16  C   UNL A   1      34.239  33.638  29.361  1.00  0.00     0.065 A 
ATOM     17  C   UNL A   1      33.964  34.291  30.571  1.00  0.00     0.012 A 
ATOM     18  C   UNL A   1      33.838  34.174  28.124  1.00  0.00     0.028 A 
ATOM     19  C   UNL A   1      33.245  35.505  30.535  1.00  0.00     0.011 A 
ATOM     20  C   UNL A   1      33.147  35.388  28.122  1.00  0.00     0.002 A 
ATOM     21  C   UNL A   1      32.847  36.045  29.310  1.00  0.00     0.001 A 
BRANCH  14  22
ATOM     22  S   UNL A   1      35.694  31.445  28.596  1.00  0.00     0.268 S 
ATOM     23  O   UNL A   1      36.403  32.299  27.652  1.00  0.00    -0.201 OA
ATOM     24  O   UNL A   1      34.671  30.520  28.166  1.00  0.00    -0.201 OA
BRANCH  22  25
ATOM     25  C   UNL A   1      36.916  30.510  29.478  1.00  0.00     0.088 A 
ATOM     26  C   UNL A   1      39.998  28.693  31.860  1.00  0.00     0.044 C 
ATOM     27  C   UNL A   1      38.926  29.296  31.000  1.00  0.00    -0.051 A 
ATOM     28  C   UNL A   1      39.232  30.373  30.160  1.00  0.00     0.005 A 
ATOM     29  C   UNL A   1      37.617  28.801  31.029  1.00  0.00     0.005 A 
ATOM     30  C   UNL A   1      38.231  30.982  29.405  1.00  0.00     0.022 A 
ATOM     31  C   UNL A   1      36.612  29.396  30.260  1.00  0.00     0.022 A 
ENDBRANCH  22  25
ENDBRANCH  14  22
ENDBRANCH  11  13
ENDBRANCH   8  11
ENDBRANCH   6   7
BRANCH   6  32
ATOM     32  C   UNL A   1      37.682  32.903  33.238  1.00  0.00     0.092 C 
BRANCH  32  33
ATOM     33  C   UNL A   1      38.517  33.622  32.233  1.00  0.00     0.037 A 
ATOM     34  C   UNL A   1      38.181  34.308  31.086  1.00  0.00     0.134 A 
ATOM     35  N   UNL A   1      39.876  33.775  32.330  1.00  0.00    -0.348 N 
ATOM     36  N   UNL A   1      39.295  34.737  30.420  1.00  0.00    -0.245 NA
ATOM     37  C   UNL A   1      40.300  34.421  31.204  1.00  0.00     0.196 A 
ATOM     38  H   UNL A   1      40.444  33.472  33.077  1.00  0.00     0.167 HD
ENDBRANCH  32  33
ENDBRANCH   6  32
ENDBRANCH   4   6
ENDBRANCH   3   4
ENDBRANCH   2   3
ENDBRANCH   1   2
BRANCH   1  39
ATOM     39  O   UNL A   1      40.331  31.211  36.307  1.00  0.00    -0.374 OA
BRANCH  39  40
ATOM     40  C   UNL A   1      41.255  30.147  36.465  1.00  0.00     0.202 C 
BRANCH  40  41
ATOM     41  C   UNL A   1      42.559  30.306  35.652  1.00  0.00     0.261 C 
BRANCH  41  42
ATOM     42  O   UNL A   1      42.724  29.177  34.764  1.00  0.00    -0.460 OA
BRANCH  42  43
ATOM     43  C   UNL A   1      43.695  28.276  35.091  1.00  0.00     0.338 C 
ATOM     44  O   UNL A   1      44.337  28.271  36.127  1.00  0.00    -0.246 OA
BRANCH  43  45
ATOM     45  C   UNL A   1      43.967  27.391  33.922  1.00  0.00     0.060 A 
ATOM     46  C   UNL A   1      45.226  26.786  33.751  1.00  0.00     0.016 A 
ATOM     47  C   UNL A   1      43.068  27.422  32.862  1.00  0.00     0.016 A 
ATOM     48  C   UNL A   1      45.652  26.396  32.470  1.00  0.00     0.010 A 
ATOM     49  C   UNL A   1      43.533  27.143  31.599  1.00  0.00     0.010 A 
ATOM     50  C   UNL A   1      44.838  26.679  31.380  1.00  0.00    -0.014 A 
BRANCH  50  51
ATOM     51  C   UNL A   1      45.224  26.593  29.967  1.00  0.00     0.031 A 
ATOM     52  C   UNL A   1      45.340  25.240  29.396  1.00  0.00     0.074 A 
ATOM     53  C   UNL A   1      45.278  27.680  29.156  1.00  0.00     0.049 A 
ATOM     54  N   UNL A   1      46.104  24.939  28.410  1.00  0.00    -0.248 NA
ATOM     55  C   UNL A   1      44.638  24.078  29.936  1.00  0.00     0.031 C 
ATOM     56  C   UNL A   1      45.328  27.768  27.697  1.00  0.00     0.029 A 
ATOM     57  N   UNL A   1      45.352  29.025  29.523  1.00  0.00    -0.354 N 
ATOM     58  C   UNL A   1      45.691  23.707  27.955  1.00  0.00     0.074 A 
ATOM     59  C   UNL A   1      44.927  23.145  29.033  1.00  0.00     0.031 C 
ATOM     60  C   UNL A   1      45.766  28.994  27.338  1.00  0.00     0.029 A 
ATOM     61  C   UNL A   1      46.093  29.709  28.564  1.00  0.00     0.049 A 
ATOM     62  H   UNL A   1      44.946  29.423  30.326  1.00  0.00     0.167 HD
ATOM     63  C   UNL A   1      45.858  23.400  26.639  1.00  0.00     0.034 A 
ATOM     64  C   UNL A   1      47.229  30.353  28.935  1.00  0.00     0.034 A 
ATOM     65  C   UNL A   1      46.448  24.547  25.922  1.00  0.00     0.049 A 
ATOM     66  C   UNL A   1      48.331  29.643  28.203  1.00  0.00     0.074 A 
ATOM     67  C   UNL A   1      45.950  25.450  24.995  1.00  0.00     0.029 A 
ATOM     68  N   UNL A   1      47.643  25.101  26.384  1.00  0.00    -0.354 N 
ATOM     69  N   UNL A   1      48.246  28.386  27.843  1.00  0.00    -0.248 NA
ATOM     70  C   UNL A   1      49.459  30.339  27.607  1.00  0.00     0.031 C 
ATOM     71  C   UNL A   1      46.848  26.561  24.934  1.00  0.00     0.029 A 
ATOM     72  C   UNL A   1      47.893  26.336  25.818  1.00  0.00     0.049 A 
ATOM     73  H   UNL A   1      48.237  24.664  27.037  1.00  0.00     0.167 HD
ATOM     74  C   UNL A   1      49.145  28.155  26.842  1.00  0.00     0.074 A 
ATOM     75  C   UNL A   1      49.914  29.393  26.769  1.00  0.00     0.031 C 
ATOM     76  C   UNL A   1      49.157  27.021  26.076  1.00  0.00     0.034 A 
BRANCH  63  77
ATOM     77  C   UNL A   1      45.218  22.207  25.947  1.00  0.00     0.023 A 
ATOM     78  C   UNL A   1      43.929  21.803  26.347  1.00  0.00     0.031 A 
ATOM     79  C   UNL A   1      45.775  21.436  24.901  1.00  0.00     0.131 A 
ATOM     80  C   UNL A   1      43.299  20.674  25.787  1.00  0.00     0.055 A 
ATOM     81  C   UNL A   1      45.179  20.276  24.388  1.00  0.00     0.041 A 
ATOM     82  F   UNL A   1      46.885  21.801  24.251  1.00  0.00    -0.206 F 
ATOM     83  C   UNL A   1      43.929  19.888  24.830  1.00  0.00     0.022 A 
BRANCH  80  84
ATOM     84  S   UNL A   1      41.605  20.279  26.292  1.00  0.00     0.124 S 
ATOM     85  O   UNL A   1      41.343  19.052  25.547  1.00  0.00    -0.237 OA
ATOM     86  O   UNL A   1      41.737  20.142  27.739  1.00  0.00    -0.237 OA
ATOM     87  O   UNL A   1      40.840  21.446  25.853  1.00  0.00    -0.744 OA
ENDBRANCH  80  84
ENDBRANCH  63  77
BRANCH  64  88
ATOM     88  C   UNL A   1      47.138  30.875  30.349  1.00  0.00     0.023 A 
ATOM     89  C   UNL A   1      46.266  31.978  30.568  1.00  0.00     0.031 A 
ATOM     90  C   UNL A   1      47.445  30.094  31.467  1.00  0.00     0.131 A 
ATOM     91  C   UNL A   1      45.578  32.145  31.786  1.00  0.00     0.055 A 
ATOM     92  C   UNL A   1      46.813  30.309  32.707  1.00  0.00     0.041 A 
ATOM     93  F   UNL A   1      48.246  29.025  31.353  1.00  0.00    -0.206 F 
ATOM     94  C   UNL A   1      45.831  31.291  32.855  1.00  0.00     0.022 A 
BRANCH  91  95
ATOM     95  S   UNL A   1      44.143  33.279  31.856  1.00  0.00     0.124 S 
ATOM     96  O   UNL A   1      43.391  32.888  30.671  1.00  0.00    -0.237 OA
ATOM     97  O   UNL A   1      43.538  32.944  33.143  1.00  0.00    -0.237 OA
ATOM     98  O   UNL A   1      44.760  34.602  31.816  1.00  0.00    -0.744 OA
ENDBRANCH  91  95
ENDBRANCH  64  88
BRANCH  76  99
ATOM     99  C   UNL A   1      50.421  26.456  25.480  1.00  0.00     0.023 A 
ATOM    100  C   UNL A   1      50.985  26.973  24.313  1.00  0.00     0.031 A 
ATOM    101  C   UNL A   1      51.199  25.480  26.149  1.00  0.00     0.131 A 
ATOM    102  C   UNL A   1      52.199  26.501  23.810  1.00  0.00     0.055 A 
ATOM    103  C   UNL A   1      52.458  25.076  25.700  1.00  0.00     0.041 A 
ATOM    104  F   UNL A   1      50.806  24.903  27.293  1.00  0.00    -0.206 F 
ATOM    105  C   UNL A   1      52.961  25.576  24.510  1.00  0.00     0.022 A 
BRANCH 102 106
ATOM    106  S   UNL A   1      52.703  27.124  22.194  1.00  0.00     0.124 S 
ATOM    107  O   UNL A   1      53.884  26.310  21.917  1.00  0.00    -0.237 OA
ATOM    108  O   UNL A   1      51.534  26.835  21.370  1.00  0.00    -0.237 OA
ATOM    109  O   UNL A   1      52.963  28.540  22.439  1.00  0.00    -0.744 OA
ENDBRANCH 102 106
ENDBRANCH  76  99
ENDBRANCH  50  51
ENDBRANCH  43  45
ENDBRANCH  42  43
ENDBRANCH  41  42
ENDBRANCH  40  41
ENDBRANCH  39  40
ENDBRANCH   1  39
TORSDOF 24
ENDMDL
MODEL 3
REMARK VINA RESULT:      -7.7      7.609     14.236
REMARK SMILES Cc1ccc(S(=O)(=O)n2cc(C(=O)C(=O)N[C@@H](Cc3cnc[nH]3)C(=O)OCCOCCOC(=O)c3ccc(-c4c5nc(c(-c6cc(S(=O)(=O)[O-])ccc6F)c6ccc([nH]6)c(-c6cc(S(=O)(=O)[O-])ccc6F)c6nc(c(-c7cc(S(=O)(=O)[O-])ccc7F)c7ccc4[nH]7)C=C6)C=C5)cc3)c3ccccc32)cc1
REMARK SMILES IDX 28 1 27 2 26 3 24 4 25 5 17 6 16 7 14 8 15 9 12 11 13 12
REMARK SMILES IDX 11 13 9 14 10 15 103 16 98 17 102 18 99 19 101 20 100 21
REMARK SMILES IDX 6 22 7 23 8 24 5 25 1 26 2 27 3 28 105 29 4 30 104 31 18 32
REMARK SMILES IDX 19 33 20 34 23 35 21 36 22 37 29 39 30 40 31 41 32 42 33 43
REMARK SMILES IDX 34 44 35 45 36 46 97 47 37 48 96 49 38 50 39 51 40 52 90 53
REMARK SMILES IDX 41 54 95 55 89 56 91 57 42 58 94 59 88 60 87 61 43 63 75 64
REMARK SMILES IDX 55 65 74 66 56 67 59 68 73 69 92 70 57 71 58 72 72 74 93 75
REMARK SMILES IDX 60 76 44 77 45 78 53 79 46 80 52 81 54 82 51 83 47 84 48 85
REMARK SMILES IDX 49 86 50 87 76 88 77 89 85 90 78 91 84 92 86 93 83 94 79 95
REMARK SMILES IDX 80 96 81 97 82 98 61 99 62 100 70 101 63 102 69 103 71 104
REMARK SMILES IDX 68 105 64 106 65 107 66 108 67 109
REMARK H PARENT 16 10 23 38 91 62 59 73
REMARK Flexibility Score: inf
ROOT
ATOM      1  C   UNL A   1      43.967  40.675  32.148  1.00  0.00     0.202 C 
ENDROOT
BRANCH   1   2
ATOM      2  C   UNL A   1      44.941  41.585  31.490  1.00  0.00     0.261 C 
BRANCH   2   3
ATOM      3  O   UNL A   1      45.023  41.373  30.089  1.00  0.00    -0.462 OA
BRANCH   3   4
ATOM      4  C   UNL A   1      44.718  42.434  29.297  1.00  0.00     0.329 C 
ATOM      5  O   UNL A   1      44.314  43.520  29.685  1.00  0.00    -0.250 OA
BRANCH   4   6
ATOM      6  C   UNL A   1      44.810  41.992  27.842  1.00  0.00     0.198 C 
BRANCH   6   7
ATOM      7  N   UNL A   1      46.234  41.996  27.459  1.00  0.00    -0.335 N 
ATOM      8  C   UNL A   1      46.873  42.932  26.684  1.00  0.00     0.293 C 
ATOM      9  O   UNL A   1      48.094  43.002  26.610  1.00  0.00    -0.265 OA
ATOM     10  H   UNL A   1      46.782  41.249  27.793  1.00  0.00     0.164 HD
BRANCH   8  11
ATOM     11  C   UNL A   1      46.032  43.920  25.865  1.00  0.00     0.252 C 
ATOM     12  O   UNL A   1      45.245  44.657  26.452  1.00  0.00    -0.283 OA
BRANCH  11  13
ATOM     13  C   UNL A   1      46.181  43.975  24.413  1.00  0.00     0.054 A 
ATOM     14  N   UNL A   1      45.903  43.574  22.241  1.00  0.00    -0.240 N 
ATOM     15  C   UNL A   1      45.406  43.304  23.484  1.00  0.00     0.117 A 
ATOM     16  C   UNL A   1      46.979  44.435  22.308  1.00  0.00     0.065 A 
ATOM     17  C   UNL A   1      47.175  44.698  23.671  1.00  0.00     0.012 A 
ATOM     18  C   UNL A   1      47.824  44.977  21.322  1.00  0.00     0.028 A 
ATOM     19  C   UNL A   1      48.235  45.549  24.050  1.00  0.00     0.011 A 
ATOM     20  C   UNL A   1      48.878  45.798  21.732  1.00  0.00     0.002 A 
ATOM     21  C   UNL A   1      49.080  46.088  23.076  1.00  0.00     0.001 A 
BRANCH  14  22
ATOM     22  S   UNL A   1      45.346  42.800  20.835  1.00  0.00     0.268 S 
ATOM     23  O   UNL A   1      44.286  41.905  21.283  1.00  0.00    -0.201 OA
ATOM     24  O   UNL A   1      46.514  42.309  20.142  1.00  0.00    -0.201 OA
BRANCH  22  25
ATOM     25  C   UNL A   1      44.594  44.028  19.800  1.00  0.00     0.088 A 
ATOM     26  C   UNL A   1      42.355  46.969  17.608  1.00  0.00     0.044 C 
ATOM     27  C   UNL A   1      43.160  45.935  18.338  1.00  0.00    -0.051 A 
ATOM     28  C   UNL A   1      42.643  44.646  18.511  1.00  0.00     0.005 A 
ATOM     29  C   UNL A   1      44.423  46.242  18.858  1.00  0.00     0.005 A 
ATOM     30  C   UNL A   1      43.354  43.696  19.243  1.00  0.00     0.022 A 
ATOM     31  C   UNL A   1      45.149  45.288  19.577  1.00  0.00     0.022 A 
ENDBRANCH  22  25
ENDBRANCH  14  22
ENDBRANCH  11  13
ENDBRANCH   8  11
ENDBRANCH   6   7
BRANCH   6  32
ATOM     32  C   UNL A   1      44.126  40.629  27.681  1.00  0.00     0.092 C 
BRANCH  32  33
ATOM     33  C   UNL A   1      42.892  40.626  26.843  1.00  0.00     0.037 A 
ATOM     34  C   UNL A   1      41.836  39.742  26.772  1.00  0.00     0.134 A 
ATOM     35  N   UNL A   1      42.554  41.624  25.966  1.00  0.00    -0.348 N 
ATOM     36  N   UNL A   1      40.958  40.096  25.786  1.00  0.00    -0.245 NA
ATOM     37  C   UNL A   1      41.404  41.245  25.334  1.00  0.00     0.196 A 
ATOM     38  H   UNL A   1      43.051  42.462  25.818  1.00  0.00     0.167 HD
ENDBRANCH  32  33
ENDBRANCH   6  32
ENDBRANCH   4   6
ENDBRANCH   3   4
ENDBRANCH   2   3
ENDBRANCH   1   2
BRANCH   1  39
ATOM     39  O   UNL A   1      44.311  40.625  33.525  1.00  0.00    -0.374 OA
BRANCH  39  40
ATOM     40  C   UNL A   1      44.185  39.317  34.060  1.00  0.00     0.202 C 
BRANCH  40  41
ATOM     41  C   UNL A   1      45.491  38.493  34.051  1.00  0.00     0.261 C 
BRANCH  41  42
ATOM     42  O   UNL A   1      45.408  37.430  35.027  1.00  0.00    -0.460 OA
BRANCH  42  43
ATOM     43  C   UNL A   1      45.685  36.169  34.585  1.00  0.00     0.338 C 
ATOM     44  O   UNL A   1      46.688  35.834  33.982  1.00  0.00    -0.246 OA
BRANCH  43  45
ATOM     45  C   UNL A   1      44.499  35.292  34.811  1.00  0.00     0.060 A 
ATOM     46  C   UNL A   1      44.654  33.913  35.043  1.00  0.00     0.016 A 
ATOM     47  C   UNL A   1      43.245  35.799  34.488  1.00  0.00     0.016 A 
ATOM     48  C   UNL A   1      43.602  33.028  34.755  1.00  0.00     0.010 A 
ATOM     49  C   UNL A   1      42.261  34.921  34.104  1.00  0.00     0.010 A 
ATOM     50  C   UNL A   1      42.442  33.533  34.182  1.00  0.00    -0.014 A 
BRANCH  50  51
ATOM     51  C   UNL A   1      41.363  32.744  33.576  1.00  0.00     0.031 A 
ATOM     52  C   UNL A   1      41.537  32.365  32.163  1.00  0.00     0.074 A 
ATOM     53  C   UNL A   1      40.350  32.208  34.303  1.00  0.00     0.049 A 
ATOM     54  N   UNL A   1      40.567  32.140  31.353  1.00  0.00    -0.248 NA
ATOM     55  C   UNL A   1      42.843  32.263  31.515  1.00  0.00     0.031 C 
ATOM     56  C   UNL A   1      39.387  31.164  33.954  1.00  0.00     0.029 A 
ATOM     57  N   UNL A   1      39.930  32.564  35.585  1.00  0.00    -0.354 N 
ATOM     58  C   UNL A   1      41.106  31.494  30.263  1.00  0.00     0.074 A 
ATOM     59  C   UNL A   1      42.515  31.764  30.325  1.00  0.00     0.031 C 
ATOM     60  C   UNL A   1      38.337  31.225  34.802  1.00  0.00     0.029 A 
ATOM     61  C   UNL A   1      38.555  32.371  35.674  1.00  0.00     0.049 A 
ATOM     62  H   UNL A   1      40.510  32.896  36.307  1.00  0.00     0.167 HD
ATOM     63  C   UNL A   1      40.329  30.625  29.562  1.00  0.00     0.034 A 
ATOM     64  C   UNL A   1      37.751  33.425  35.965  1.00  0.00     0.034 A 
ATOM     65  C   UNL A   1      38.995  30.521  30.185  1.00  0.00     0.049 A 
ATOM     66  C   UNL A   1      36.895  33.606  34.745  1.00  0.00     0.074 A 
ATOM     67  C   UNL A   1      38.355  29.523  30.905  1.00  0.00     0.029 A 
ATOM     68  N   UNL A   1      38.248  31.680  30.400  1.00  0.00    -0.354 N 
ATOM     69  N   UNL A   1      37.288  33.250  33.546  1.00  0.00    -0.248 NA
ATOM     70  C   UNL A   1      35.482  33.940  34.813  1.00  0.00     0.031 C 
ATOM     71  C   UNL A   1      37.236  30.110  31.574  1.00  0.00     0.029 A 
ATOM     72  C   UNL A   1      37.191  31.461  31.261  1.00  0.00     0.049 A 
ATOM     73  H   UNL A   1      38.451  32.551  29.988  1.00  0.00     0.167 HD
ATOM     74  C   UNL A   1      36.189  33.107  32.749  1.00  0.00     0.074 A 
ATOM     75  C   UNL A   1      35.091  33.602  33.573  1.00  0.00     0.031 C 
ATOM     76  C   UNL A   1      36.216  32.519  31.514  1.00  0.00     0.034 A 
BRANCH  63  77
ATOM     77  C   UNL A   1      40.855  29.652  28.518  1.00  0.00     0.023 A 
ATOM     78  C   UNL A   1      42.236  29.382  28.478  1.00  0.00     0.031 A 
ATOM     79  C   UNL A   1      40.092  28.948  27.557  1.00  0.00     0.131 A 
ATOM     80  C   UNL A   1      42.799  28.534  27.504  1.00  0.00     0.055 A 
ATOM     81  C   UNL A   1      40.655  28.154  26.548  1.00  0.00     0.041 A 
ATOM     82  F   UNL A   1      38.756  28.911  27.586  1.00  0.00    -0.206 F 
ATOM     83  C   UNL A   1      42.020  27.940  26.518  1.00  0.00     0.022 A 
BRANCH  80  84
ATOM     84  S   UNL A   1      44.571  28.168  27.582  1.00  0.00     0.124 S 
ATOM     85  O   UNL A   1      44.582  26.839  28.185  1.00  0.00    -0.237 OA
ATOM     86  O   UNL A   1      44.966  28.247  26.179  1.00  0.00    -0.237 OA
ATOM     87  O   UNL A   1      45.100  29.236  28.429  1.00  0.00    -0.744 OA
ENDBRANCH  80  84
ENDBRANCH  63  77
BRANCH  64  88
ATOM     88  C   UNL A   1      38.443  34.424  36.862  1.00  0.00     0.023 A 
ATOM     89  C   UNL A   1      38.556  34.077  38.237  1.00  0.00     0.031 A 
ATOM     90  C   UNL A   1      39.355  35.369  36.382  1.00  0.00     0.131 A 
ATOM     91  C   UNL A   1      39.654  34.491  39.015  1.00  0.00     0.055 A 
ATOM     92  C   UNL A   1      40.411  35.841  37.185  1.00  0.00     0.041 A 
ATOM     93  F   UNL A   1      39.335  35.744  35.095  1.00  0.00    -0.206 F 
ATOM     94  C   UNL A   1      40.603  35.357  38.481  1.00  0.00     0.022 A 
BRANCH  91  95
ATOM     95  S   UNL A   1      39.992  33.652  40.606  1.00  0.00     0.124 S 
ATOM     96  O   UNL A   1      40.680  32.444  40.170  1.00  0.00    -0.237 OA
ATOM     97  O   UNL A   1      40.805  34.636  41.316  1.00  0.00    -0.237 OA
ATOM     98  O   UNL A   1      38.659  33.462  41.173  1.00  0.00    -0.744 OA
ENDBRANCH  91  95
ENDBRANCH  64  88
BRANCH  76  99
ATOM     99  C   UNL A   1      35.273  32.912  30.405  1.00  0.00     0.023 A 
ATOM    100  C   UNL A   1      34.834  34.226  30.238  1.00  0.00     0.031 A 
ATOM    101  C   UNL A   1      34.906  32.014  29.374  1.00  0.00     0.131 A 
ATOM    102  C   UNL A   1      34.028  34.601  29.161  1.00  0.00     0.055 A 
ATOM    103  C   UNL A   1      34.181  32.408  28.248  1.00  0.00     0.041 A 
ATOM    104  F   UNL A   1      35.268  30.723  29.378  1.00  0.00    -0.206 F 
ATOM    105  C   UNL A   1      33.720  33.709  28.142  1.00  0.00     0.022 A 
BRANCH 102 106
ATOM    106  S   UNL A   1      33.378  36.284  29.184  1.00  0.00     0.124 S 
ATOM    107  O   UNL A   1      32.049  36.097  28.606  1.00  0.00    -0.237 OA
ATOM    108  O   UNL A   1      33.403  36.608  30.607  1.00  0.00    -0.237 OA
ATOM    109  O   UNL A   1      34.322  37.027  28.354  1.00  0.00    -0.744 OA
ENDBRANCH 102 106
ENDBRANCH  76  99
ENDBRANCH  50  51
ENDBRANCH  43  45
ENDBRANCH  42  43
ENDBRANCH  41  42
ENDBRANCH  40  41
ENDBRANCH  39  40
ENDBRANCH   1  39
TORSDOF 24
ENDMDL
