MODEL 1
REMARK VINA RESULT:     -11.8      0.000      0.000
REMARK SMILES O=C(Cc1cccc(-c2ccn(C(F)F)c(=O)c2)c1)OCCOCCOC(=O)c1ccc(-c2c3nc(c(-c4cc(S(=O)(=O)[O-])ccc4F)c4ccc([nH]4)c(-c4cc(S(=O)(=O)[O-])ccc4F)c4nc(c(-c5cc(S(=O)(=O)[O-])ccc5F)c5ccc2[nH]5)C=C4)C=C3)cc1
REMARK SMILES IDX 23 1 22 2 21 3 20 4 2 5 1 6 3 7 4 8 5 9 19 10 6 11 8 12 7 13
REMARK SMILES IDX 9 14 10 15 18 16 11 17 16 18 12 19 17 20 13 21 14 22 15 23
REMARK SMILES IDX 24 24 25 25 26 26 27 27 28 28 29 29 30 30 91 31 31 32 90 33
REMARK SMILES IDX 32 34 33 35 34 36 84 37 35 38 89 39 83 40 85 41 36 42 88 43
REMARK SMILES IDX 82 44 81 45 37 47 69 48 49 49 68 50 50 51 53 52 67 53 86 54
REMARK SMILES IDX 51 55 52 56 66 58 87 59 54 60 38 61 39 62 47 63 40 64 46 65
REMARK SMILES IDX 48 66 45 67 41 68 42 69 43 70 44 71 70 72 71 73 79 74 72 75
REMARK SMILES IDX 78 76 80 77 77 78 73 79 74 80 75 81 76 82 55 83 56 84 64 85
REMARK SMILES IDX 57 86 63 87 65 88 62 89 58 90 59 91 60 92 61 93
REMARK H PARENT 85 46 53 57
REMARK Flexibility Score: inf
ROOT
ATOM      1  O   UNL A   1      31.717  29.185  24.544  1.00  0.00    -0.374 OA
ENDROOT
BRANCH   1   2
ATOM      2  C   UNL A   1      32.156  28.807  23.244  1.00  0.00     0.202 C 
BRANCH   2   3
ATOM      3  C   UNL A   1      31.406  27.667  22.565  1.00  0.00     0.261 C 
BRANCH   3   4
ATOM      4  O   UNL A   1      31.981  26.364  22.774  1.00  0.00    -0.463 OA
BRANCH   4   5
ATOM      5  C   UNL A   1      32.862  25.732  21.963  1.00  0.00     0.310 C 
ATOM      6  O   UNL A   1      33.604  26.408  21.247  1.00  0.00    -0.252 OA
BRANCH   5   7
ATOM      7  C   UNL A   1      32.920  24.214  21.900  1.00  0.00     0.158 C 
BRANCH   7   8
ATOM      8  C   UNL A   1      33.393  23.558  23.166  1.00  0.00    -0.036 A 
ATOM      9  C   UNL A   1      34.422  24.106  23.942  1.00  0.00     0.004 A 
ATOM     10  C   UNL A   1      32.895  22.294  23.486  1.00  0.00     0.013 A 
ATOM     11  C   UNL A   1      35.000  23.348  24.964  1.00  0.00     0.001 A 
ATOM     12  C   UNL A   1      33.508  21.513  24.467  1.00  0.00    -0.018 A 
ATOM     13  C   UNL A   1      34.562  22.041  25.212  1.00  0.00     0.009 A 
BRANCH  12  14
ATOM     14  C   UNL A   1      33.037  20.127  24.556  1.00  0.00    -0.011 A 
ATOM     15  C   UNL A   1      32.910  19.446  25.831  1.00  0.00     0.027 A 
ATOM     16  C   UNL A   1      32.974  19.423  23.416  1.00  0.00     0.080 A 
ATOM     17  C   UNL A   1      32.821  18.113  25.876  1.00  0.00     0.095 A 
ATOM     18  C   UNL A   1      32.838  17.942  23.452  1.00  0.00     0.255 A 
ATOM     19  N   UNL A   1      32.801  17.366  24.713  1.00  0.00    -0.258 N 
ATOM     20  O   UNL A   1      32.818  17.336  22.386  1.00  0.00    -0.269 OA
BRANCH  19  21
ATOM     21  C   UNL A   1      32.792  15.929  24.774  1.00  0.00     0.451 C 
ATOM     22  F   UNL A   1      34.035  15.436  24.991  1.00  0.00    -0.185 F 
ATOM     23  F   UNL A   1      31.991  15.497  25.782  1.00  0.00    -0.185 F 
ENDBRANCH  19  21
ENDBRANCH  12  14
ENDBRANCH   7   8
ENDBRANCH   5   7
ENDBRANCH   4   5
ENDBRANCH   3   4
ENDBRANCH   2   3
ENDBRANCH   1   2
BRANCH   1  24
ATOM     24  C   UNL A   1      32.661  29.908  25.345  1.00  0.00     0.202 C 
BRANCH  24  25
ATOM     25  C   UNL A   1      32.128  30.591  26.607  1.00  0.00     0.261 C 
BRANCH  25  26
ATOM     26  O   UNL A   1      33.074  30.529  27.686  1.00  0.00    -0.460 OA
BRANCH  26  27
ATOM     27  C   UNL A   1      33.882  31.610  27.779  1.00  0.00     0.338 C 
ATOM     28  O   UNL A   1      33.530  32.778  27.886  1.00  0.00    -0.246 OA
BRANCH  27  29
ATOM     29  C   UNL A   1      35.280  31.173  27.972  1.00  0.00     0.060 A 
ATOM     30  C   UNL A   1      35.539  29.799  27.877  1.00  0.00     0.016 A 
ATOM     31  C   UNL A   1      36.306  32.073  28.274  1.00  0.00     0.016 A 
ATOM     32  C   UNL A   1      36.799  29.307  28.192  1.00  0.00     0.010 A 
ATOM     33  C   UNL A   1      37.573  31.578  28.590  1.00  0.00     0.010 A 
ATOM     34  C   UNL A   1      37.801  30.190  28.614  1.00  0.00    -0.014 A 
BRANCH  34  35
ATOM     35  C   UNL A   1      38.987  29.639  29.309  1.00  0.00     0.031 A 
ATOM     36  C   UNL A   1      39.296  30.147  30.693  1.00  0.00     0.074 A 
ATOM     37  C   UNL A   1      39.723  28.666  28.749  1.00  0.00     0.049 A 
ATOM     38  N   UNL A   1      40.268  29.820  31.502  1.00  0.00    -0.248 NA
ATOM     39  C   UNL A   1      38.385  31.171  31.231  1.00  0.00     0.031 C 
ATOM     40  C   UNL A   1      39.473  28.067  27.439  1.00  0.00     0.029 A 
ATOM     41  N   UNL A   1      40.829  28.006  29.218  1.00  0.00    -0.354 N 
ATOM     42  C   UNL A   1      40.094  30.606  32.638  1.00  0.00     0.074 A 
ATOM     43  C   UNL A   1      38.951  31.457  32.391  1.00  0.00     0.031 C 
ATOM     44  C   UNL A   1      40.397  27.117  27.213  1.00  0.00     0.029 A 
ATOM     45  C   UNL A   1      41.324  27.070  28.341  1.00  0.00     0.049 A 
ATOM     46  H   UNL A   1      41.229  28.183  30.098  1.00  0.00     0.167 HD
ATOM     47  C   UNL A   1      40.818  30.610  33.784  1.00  0.00     0.034 A 
ATOM     48  C   UNL A   1      42.413  26.282  28.438  1.00  0.00     0.034 A 
ATOM     49  C   UNL A   1      41.956  29.751  34.002  1.00  0.00     0.049 A 
ATOM     50  C   UNL A   1      43.251  26.359  29.692  1.00  0.00     0.074 A 
ATOM     51  C   UNL A   1      42.756  29.648  35.126  1.00  0.00     0.029 A 
ATOM     52  N   UNL A   1      42.467  28.856  33.068  1.00  0.00    -0.354 N 
ATOM     53  N   UNL A   1      43.073  27.097  30.765  1.00  0.00    -0.248 NA
ATOM     54  C   UNL A   1      44.430  25.487  29.751  1.00  0.00     0.031 C 
ATOM     55  C   UNL A   1      43.798  28.757  34.841  1.00  0.00     0.029 A 
ATOM     56  C   UNL A   1      43.594  28.228  33.575  1.00  0.00     0.049 A 
ATOM     57  H   UNL A   1      42.084  28.693  32.176  1.00  0.00     0.167 HD
ATOM     58  C   UNL A   1      44.096  26.744  31.643  1.00  0.00     0.074 A 
ATOM     59  C   UNL A   1      44.874  25.720  30.976  1.00  0.00     0.031 C 
ATOM     60  C   UNL A   1      44.365  27.215  32.889  1.00  0.00     0.034 A 
BRANCH  47  61
ATOM     61  C   UNL A   1      40.436  31.614  34.846  1.00  0.00     0.023 A 
ATOM     62  C   UNL A   1      39.541  31.302  35.885  1.00  0.00     0.031 A 
ATOM     63  C   UNL A   1      40.941  32.926  34.791  1.00  0.00     0.131 A 
ATOM     64  C   UNL A   1      39.115  32.305  36.771  1.00  0.00     0.055 A 
ATOM     65  C   UNL A   1      40.584  33.896  35.730  1.00  0.00     0.041 A 
ATOM     66  F   UNL A   1      41.777  33.296  33.807  1.00  0.00    -0.206 F 
ATOM     67  C   UNL A   1      39.652  33.594  36.717  1.00  0.00     0.022 A 
BRANCH  64  68
ATOM     68  S   UNL A   1      37.728  31.948  37.886  1.00  0.00     0.124 S 
ATOM     69  O   UNL A   1      36.736  32.925  37.444  1.00  0.00    -0.237 OA
ATOM     70  O   UNL A   1      37.431  30.553  37.583  1.00  0.00    -0.237 OA
ATOM     71  O   UNL A   1      38.285  32.194  39.215  1.00  0.00    -0.744 OA
ENDBRANCH  64  68
ENDBRANCH  47  61
BRANCH  48  72
ATOM     72  C   UNL A   1      42.785  25.365  27.324  1.00  0.00     0.023 A 
ATOM     73  C   UNL A   1      42.270  24.061  27.258  1.00  0.00     0.031 A 
ATOM     74  C   UNL A   1      43.705  25.759  26.336  1.00  0.00     0.131 A 
ATOM     75  C   UNL A   1      42.712  23.183  26.256  1.00  0.00     0.055 A 
ATOM     76  C   UNL A   1      44.099  24.901  25.308  1.00  0.00     0.041 A 
ATOM     77  F   UNL A   1      44.230  26.995  26.350  1.00  0.00    -0.206 F 
ATOM     78  C   UNL A   1      43.612  23.598  25.272  1.00  0.00     0.022 A 
BRANCH  75  79
ATOM     79  S   UNL A   1      42.160  21.456  26.310  1.00  0.00     0.124 S 
ATOM     80  O   UNL A   1      42.405  21.113  27.706  1.00  0.00    -0.237 OA
ATOM     81  O   UNL A   1      40.760  21.575  25.913  1.00  0.00    -0.237 OA
ATOM     82  O   UNL A   1      43.027  20.792  25.340  1.00  0.00    -0.744 OA
ENDBRANCH  75  79
ENDBRANCH  48  72
BRANCH  60  83
ATOM     83  C   UNL A   1      45.519  26.580  33.627  1.00  0.00     0.023 A 
ATOM     84  C   UNL A   1      45.342  25.473  34.476  1.00  0.00     0.031 A 
ATOM     85  C   UNL A   1      46.816  27.111  33.500  1.00  0.00     0.131 A 
ATOM     86  C   UNL A   1      46.425  24.982  35.220  1.00  0.00     0.055 A 
ATOM     87  C   UNL A   1      47.904  26.568  34.184  1.00  0.00     0.041 A 
ATOM     88  F   UNL A   1      47.047  28.170  32.707  1.00  0.00    -0.206 F 
ATOM     89  C   UNL A   1      47.709  25.509  35.065  1.00  0.00     0.022 A 
BRANCH  86  90
ATOM     90  S   UNL A   1      46.106  23.731  36.494  1.00  0.00     0.124 S 
ATOM     91  O   UNL A   1      45.487  22.661  35.718  1.00  0.00    -0.237 OA
ATOM     92  O   UNL A   1      47.445  23.455  37.003  1.00  0.00    -0.237 OA
ATOM     93  O   UNL A   1      45.215  24.413  37.431  1.00  0.00    -0.744 OA
ENDBRANCH  86  90
ENDBRANCH  60  83
ENDBRANCH  34  35
ENDBRANCH  27  29
ENDBRANCH  26  27
ENDBRANCH  25  26
ENDBRANCH  24  25
ENDBRANCH   1  24
TORSDOF 20
ENDMDL
MODEL 2
REMARK VINA RESULT:     -11.5      4.740      9.807
REMARK SMILES O=C(Cc1cccc(-c2ccn(C(F)F)c(=O)c2)c1)OCCOCCOC(=O)c1ccc(-c2c3nc(c(-c4cc(S(=O)(=O)[O-])ccc4F)c4ccc([nH]4)c(-c4cc(S(=O)(=O)[O-])ccc4F)c4nc(c(-c5cc(S(=O)(=O)[O-])ccc5F)c5ccc2[nH]5)C=C4)C=C3)cc1
REMARK SMILES IDX 23 1 22 2 21 3 20 4 2 5 1 6 3 7 4 8 5 9 19 10 6 11 8 12 7 13
REMARK SMILES IDX 9 14 10 15 18 16 11 17 16 18 12 19 17 20 13 21 14 22 15 23
REMARK SMILES IDX 24 24 25 25 26 26 27 27 28 28 29 29 30 30 91 31 31 32 90 33
REMARK SMILES IDX 32 34 33 35 34 36 84 37 35 38 89 39 83 40 85 41 36 42 88 43
REMARK SMILES IDX 82 44 81 45 37 47 69 48 49 49 68 50 50 51 53 52 67 53 86 54
REMARK SMILES IDX 51 55 52 56 66 58 87 59 54 60 38 61 39 62 47 63 40 64 46 65
REMARK SMILES IDX 48 66 45 67 41 68 42 69 43 70 44 71 70 72 71 73 79 74 72 75
REMARK SMILES IDX 78 76 80 77 77 78 73 79 74 80 75 81 76 82 55 83 56 84 64 85
REMARK SMILES IDX 57 86 63 87 65 88 62 89 58 90 59 91 60 92 61 93
REMARK H PARENT 85 46 53 57
REMARK Flexibility Score: inf
ROOT
ATOM      1  O   UNL A   1      36.613  22.329  23.973  1.00  0.00    -0.374 OA
ENDROOT
BRANCH   1   2
ATOM      2  C   UNL A   1      35.559  23.155  24.455  1.00  0.00     0.202 C 
BRANCH   2   3
ATOM      3  C   UNL A   1      35.675  23.660  25.888  1.00  0.00     0.261 C 
BRANCH   3   4
ATOM      4  O   UNL A   1      34.433  23.688  26.615  1.00  0.00    -0.463 OA
BRANCH   4   5
ATOM      5  C   UNL A   1      33.285  24.295  26.228  1.00  0.00     0.310 C 
ATOM      6  O   UNL A   1      33.239  25.527  26.210  1.00  0.00    -0.252 OA
BRANCH   5   7
ATOM      7  C   UNL A   1      32.056  23.482  25.853  1.00  0.00     0.158 C 
BRANCH   7   8
ATOM      8  C   UNL A   1      32.211  22.663  24.603  1.00  0.00    -0.036 A 
ATOM      9  C   UNL A   1      31.900  23.178  23.339  1.00  0.00     0.004 A 
ATOM     10  C   UNL A   1      32.527  21.310  24.732  1.00  0.00     0.013 A 
ATOM     11  C   UNL A   1      31.817  22.318  22.240  1.00  0.00     0.001 A 
ATOM     12  C   UNL A   1      32.389  20.439  23.649  1.00  0.00    -0.018 A 
ATOM     13  C   UNL A   1      32.036  20.943  22.397  1.00  0.00     0.009 A 
BRANCH  12  14
ATOM     14  C   UNL A   1      32.533  19.013  23.961  1.00  0.00    -0.011 A 
ATOM     15  C   UNL A   1      32.301  18.499  25.298  1.00  0.00     0.027 A 
ATOM     16  C   UNL A   1      33.132  18.240  23.044  1.00  0.00     0.080 A 
ATOM     17  C   UNL A   1      32.763  17.293  25.643  1.00  0.00     0.095 A 
ATOM     18  C   UNL A   1      33.617  16.881  23.406  1.00  0.00     0.255 A 
ATOM     19  N   UNL A   1      33.424  16.499  24.725  1.00  0.00    -0.258 N 
ATOM     20  O   UNL A   1      34.189  16.221  22.544  1.00  0.00    -0.269 OA
BRANCH  19  21
ATOM     21  C   UNL A   1      33.992  15.240  25.129  1.00  0.00     0.451 C 
ATOM     22  F   UNL A   1      35.259  15.394  25.584  1.00  0.00    -0.185 F 
ATOM     23  F   UNL A   1      33.258  14.681  26.125  1.00  0.00    -0.185 F 
ENDBRANCH  19  21
ENDBRANCH  12  14
ENDBRANCH   7   8
ENDBRANCH   5   7
ENDBRANCH   4   5
ENDBRANCH   3   4
ENDBRANCH   2   3
ENDBRANCH   1   2
BRANCH   1  24
ATOM     24  C   UNL A   1      36.858  21.124  24.711  1.00  0.00     0.202 C 
BRANCH  24  25
ATOM     25  C   UNL A   1      38.319  20.771  25.005  1.00  0.00     0.261 C 
BRANCH  25  26
ATOM     26  O   UNL A   1      38.719  21.207  26.313  1.00  0.00    -0.460 OA
BRANCH  26  27
ATOM     27  C   UNL A   1      40.048  21.422  26.446  1.00  0.00     0.338 C 
ATOM     28  O   UNL A   1      40.947  20.797  25.898  1.00  0.00    -0.246 OA
BRANCH  27  29
ATOM     29  C   UNL A   1      40.280  22.685  27.175  1.00  0.00     0.060 A 
ATOM     30  C   UNL A   1      39.465  23.775  26.841  1.00  0.00     0.016 A 
ATOM     31  C   UNL A   1      41.289  22.817  28.134  1.00  0.00     0.016 A 
ATOM     32  C   UNL A   1      39.726  25.028  27.381  1.00  0.00     0.010 A 
ATOM     33  C   UNL A   1      41.550  24.076  28.677  1.00  0.00     0.010 A 
ATOM     34  C   UNL A   1      40.812  25.195  28.249  1.00  0.00    -0.014 A 
BRANCH  34  35
ATOM     35  C   UNL A   1      41.314  26.564  28.504  1.00  0.00     0.031 A 
ATOM     36  C   UNL A   1      42.698  26.913  28.020  1.00  0.00     0.074 A 
ATOM     37  C   UNL A   1      40.533  27.488  29.087  1.00  0.00     0.049 A 
ATOM     38  N   UNL A   1      43.355  28.038  28.117  1.00  0.00    -0.248 NA
ATOM     39  C   UNL A   1      43.440  25.839  27.341  1.00  0.00     0.031 C 
ATOM     40  C   UNL A   1      39.160  27.267  29.539  1.00  0.00     0.029 A 
ATOM     41  N   UNL A   1      40.782  28.800  29.391  1.00  0.00    -0.354 N 
ATOM     42  C   UNL A   1      44.593  27.803  27.525  1.00  0.00     0.074 A 
ATOM     43  C   UNL A   1      44.608  26.417  27.114  1.00  0.00     0.031 C 
ATOM     44  C   UNL A   1      38.683  28.412  30.056  1.00  0.00     0.029 A 
ATOM     45  C   UNL A   1      39.729  29.432  30.009  1.00  0.00     0.049 A 
ATOM     46  H   UNL A   1      41.633  29.249  29.186  1.00  0.00     0.167 HD
ATOM     47  C   UNL A   1      45.618  28.669  27.335  1.00  0.00     0.034 A 
ATOM     48  C   UNL A   1      39.634  30.686  30.493  1.00  0.00     0.034 A 
ATOM     49  C   UNL A   1      45.576  30.048  27.758  1.00  0.00     0.049 A 
ATOM     50  C   UNL A   1      40.818  31.611  30.341  1.00  0.00     0.074 A 
ATOM     51  C   UNL A   1      46.541  31.027  27.603  1.00  0.00     0.029 A 
ATOM     52  N   UNL A   1      44.515  30.640  28.435  1.00  0.00    -0.354 N 
ATOM     53  N   UNL A   1      41.979  31.385  29.768  1.00  0.00    -0.248 NA
ATOM     54  C   UNL A   1      40.670  32.964  30.888  1.00  0.00     0.031 C 
ATOM     55  C   UNL A   1      46.100  32.182  28.261  1.00  0.00     0.029 A 
ATOM     56  C   UNL A   1      44.819  31.957  28.741  1.00  0.00     0.049 A 
ATOM     57  H   UNL A   1      43.671  30.187  28.664  1.00  0.00     0.167 HD
ATOM     58  C   UNL A   1      42.684  32.584  29.852  1.00  0.00     0.074 A 
ATOM     59  C   UNL A   1      41.809  33.529  30.516  1.00  0.00     0.031 C 
ATOM     60  C   UNL A   1      43.936  32.882  29.414  1.00  0.00     0.034 A 
BRANCH  47  61
ATOM     61  C   UNL A   1      46.880  28.127  26.704  1.00  0.00     0.023 A 
ATOM     62  C   UNL A   1      47.124  28.215  25.322  1.00  0.00     0.031 A 
ATOM     63  C   UNL A   1      47.837  27.467  27.496  1.00  0.00     0.131 A 
ATOM     64  C   UNL A   1      48.247  27.583  24.765  1.00  0.00     0.055 A 
ATOM     65  C   UNL A   1      48.998  26.919  26.948  1.00  0.00     0.041 A 
ATOM     66  F   UNL A   1      47.649  27.325  28.818  1.00  0.00    -0.206 F 
ATOM     67  C   UNL A   1      49.201  26.959  25.573  1.00  0.00     0.022 A 
BRANCH  64  68
ATOM     68  S   UNL A   1      48.358  27.441  22.959  1.00  0.00     0.124 S 
ATOM     69  O   UNL A   1      47.174  28.182  22.532  1.00  0.00    -0.237 OA
ATOM     70  O   UNL A   1      49.643  28.068  22.673  1.00  0.00    -0.237 OA
ATOM     71  O   UNL A   1      48.300  26.000  22.724  1.00  0.00    -0.744 OA
ENDBRANCH  64  68
ENDBRANCH  47  61
BRANCH  48  72
ATOM     72  C   UNL A   1      38.390  31.142  31.175  1.00  0.00     0.023 A 
ATOM     73  C   UNL A   1      37.411  31.871  30.483  1.00  0.00     0.031 A 
ATOM     74  C   UNL A   1      38.184  30.901  32.545  1.00  0.00     0.131 A 
ATOM     75  C   UNL A   1      36.296  32.375  31.170  1.00  0.00     0.055 A 
ATOM     76  C   UNL A   1      37.045  31.354  33.212  1.00  0.00     0.041 A 
ATOM     77  F   UNL A   1      39.087  30.208  33.257  1.00  0.00    -0.206 F 
ATOM     78  C   UNL A   1      36.098  32.110  32.527  1.00  0.00     0.022 A 
BRANCH  75  79
ATOM     79  S   UNL A   1      35.148  33.463  30.282  1.00  0.00     0.124 S 
ATOM     80  O   UNL A   1      34.156  32.511  29.796  1.00  0.00    -0.237 OA
ATOM     81  O   UNL A   1      34.708  34.365  31.341  1.00  0.00    -0.237 OA
ATOM     82  O   UNL A   1      35.987  34.074  29.254  1.00  0.00    -0.744 OA
ENDBRANCH  75  79
ENDBRANCH  48  72
BRANCH  60  83
ATOM     83  C   UNL A   1      44.403  34.308  29.593  1.00  0.00     0.023 A 
ATOM     84  C   UNL A   1      44.193  35.289  28.609  1.00  0.00     0.031 A 
ATOM     85  C   UNL A   1      45.096  34.681  30.759  1.00  0.00     0.131 A 
ATOM     86  C   UNL A   1      44.735  36.572  28.775  1.00  0.00     0.055 A 
ATOM     87  C   UNL A   1      45.565  35.981  30.952  1.00  0.00     0.041 A 
ATOM     88  F   UNL A   1      45.330  33.787  31.733  1.00  0.00    -0.206 F 
ATOM     89  C   UNL A   1      45.402  36.931  29.949  1.00  0.00     0.022 A 
BRANCH  86  90
ATOM     90  S   UNL A   1      44.670  37.728  27.379  1.00  0.00     0.124 S 
ATOM     91  O   UNL A   1      43.350  37.456  26.821  1.00  0.00    -0.237 OA
ATOM     92  O   UNL A   1      44.831  39.021  28.036  1.00  0.00    -0.237 OA
ATOM     93  O   UNL A   1      45.795  37.317  26.540  1.00  0.00    -0.744 OA
ENDBRANCH  86  90
ENDBRANCH  60  83
ENDBRANCH  34  35
ENDBRANCH  27  29
ENDBRANCH  26  27
ENDBRANCH  25  26
ENDBRANCH  24  25
ENDBRANCH   1  24
TORSDOF 20
ENDMDL
MODEL 3
REMARK VINA RESULT:     -11.5      1.672      2.053
REMARK SMILES O=C(Cc1cccc(-c2ccn(C(F)F)c(=O)c2)c1)OCCOCCOC(=O)c1ccc(-c2c3nc(c(-c4cc(S(=O)(=O)[O-])ccc4F)c4ccc([nH]4)c(-c4cc(S(=O)(=O)[O-])ccc4F)c4nc(c(-c5cc(S(=O)(=O)[O-])ccc5F)c5ccc2[nH]5)C=C4)C=C3)cc1
REMARK SMILES IDX 23 1 22 2 21 3 20 4 2 5 1 6 3 7 4 8 5 9 19 10 6 11 8 12 7 13
REMARK SMILES IDX 9 14 10 15 18 16 11 17 16 18 12 19 17 20 13 21 14 22 15 23
REMARK SMILES IDX 24 24 25 25 26 26 27 27 28 28 29 29 30 30 91 31 31 32 90 33
REMARK SMILES IDX 32 34 33 35 34 36 84 37 35 38 89 39 83 40 85 41 36 42 88 43
REMARK SMILES IDX 82 44 81 45 37 47 69 48 49 49 68 50 50 51 53 52 67 53 86 54
REMARK SMILES IDX 51 55 52 56 66 58 87 59 54 60 38 61 39 62 47 63 40 64 46 65
REMARK SMILES IDX 48 66 45 67 41 68 42 69 43 70 44 71 70 72 71 73 79 74 72 75
REMARK SMILES IDX 78 76 80 77 77 78 73 79 74 80 75 81 76 82 55 83 56 84 64 85
REMARK SMILES IDX 57 86 63 87 65 88 62 89 58 90 59 91 60 92 61 93
REMARK H PARENT 85 46 53 57
REMARK Flexibility Score: inf
ROOT
ATOM      1  O   UNL A   1      32.573  28.363  25.028  1.00  0.00    -0.374 OA
ENDROOT
BRANCH   1   2
ATOM      2  C   UNL A   1      33.369  27.721  24.038  1.00  0.00     0.202 C 
BRANCH   2   3
ATOM      3  C   UNL A   1      32.743  27.536  22.661  1.00  0.00     0.261 C 
BRANCH   3   4
ATOM      4  O   UNL A   1      31.939  26.350  22.524  1.00  0.00    -0.463 OA
BRANCH   4   5
ATOM      5  C   UNL A   1      30.785  26.078  23.179  1.00  0.00     0.310 C 
ATOM      6  O   UNL A   1      30.037  27.011  23.480  1.00  0.00    -0.252 OA
BRANCH   5   7
ATOM      7  C   UNL A   1      30.423  24.655  23.574  1.00  0.00     0.158 C 
BRANCH   7   8
ATOM      8  C   UNL A   1      31.414  23.995  24.491  1.00  0.00    -0.036 A 
ATOM      9  C   UNL A   1      32.111  24.717  25.467  1.00  0.00     0.004 A 
ATOM     10  C   UNL A   1      31.752  22.662  24.253  1.00  0.00     0.013 A 
ATOM     11  C   UNL A   1      33.195  24.127  26.124  1.00  0.00     0.001 A 
ATOM     12  C   UNL A   1      32.869  22.090  24.865  1.00  0.00    -0.018 A 
ATOM     13  C   UNL A   1      33.593  22.822  25.807  1.00  0.00     0.009 A 
BRANCH  12  14
ATOM     14  C   UNL A   1      33.252  20.764  24.369  1.00  0.00    -0.011 A 
ATOM     15  C   UNL A   1      32.279  19.858  23.787  1.00  0.00     0.027 A 
ATOM     16  C   UNL A   1      34.469  20.311  24.701  1.00  0.00     0.080 A 
ATOM     17  C   UNL A   1      32.561  18.556  23.666  1.00  0.00     0.095 A 
ATOM     18  C   UNL A   1      34.808  18.872  24.535  1.00  0.00     0.255 A 
ATOM     19  N   UNL A   1      33.795  18.062  24.045  1.00  0.00    -0.258 N 
ATOM     20  O   UNL A   1      35.923  18.495  24.883  1.00  0.00    -0.269 OA
BRANCH  19  21
ATOM     21  C   UNL A   1      34.058  16.648  23.990  1.00  0.00     0.451 C 
ATOM     22  F   UNL A   1      32.950  15.927  24.287  1.00  0.00    -0.185 F 
ATOM     23  F   UNL A   1      34.470  16.286  22.748  1.00  0.00    -0.185 F 
ENDBRANCH  19  21
ENDBRANCH  12  14
ENDBRANCH   7   8
ENDBRANCH   5   7
ENDBRANCH   4   5
ENDBRANCH   3   4
ENDBRANCH   2   3
ENDBRANCH   1   2
BRANCH   1  24
ATOM     24  C   UNL A   1      32.823  29.761  25.230  1.00  0.00     0.202 C 
BRANCH  24  25
ATOM     25  C   UNL A   1      32.040  30.455  26.348  1.00  0.00     0.261 C 
BRANCH  25  26
ATOM     26  O   UNL A   1      32.812  30.559  27.554  1.00  0.00    -0.460 OA
BRANCH  26  27
ATOM     27  C   UNL A   1      33.615  31.647  27.609  1.00  0.00     0.338 C 
ATOM     28  O   UNL A   1      33.257  32.818  27.617  1.00  0.00    -0.246 OA
BRANCH  27  29
ATOM     29  C   UNL A   1      35.002  31.231  27.895  1.00  0.00     0.060 A 
ATOM     30  C   UNL A   1      35.250  29.854  27.988  1.00  0.00     0.016 A 
ATOM     31  C   UNL A   1      36.029  32.155  28.106  1.00  0.00     0.016 A 
ATOM     32  C   UNL A   1      36.497  29.400  28.400  1.00  0.00     0.010 A 
ATOM     33  C   UNL A   1      37.281  31.699  28.519  1.00  0.00     0.010 A 
ATOM     34  C   UNL A   1      37.495  30.324  28.731  1.00  0.00    -0.014 A 
BRANCH  34  35
ATOM     35  C   UNL A   1      38.657  29.862  29.525  1.00  0.00     0.031 A 
ATOM     36  C   UNL A   1      38.806  30.382  30.931  1.00  0.00     0.074 A 
ATOM     37  C   UNL A   1      39.512  28.953  29.029  1.00  0.00     0.049 A 
ATOM     38  N   UNL A   1      39.728  30.124  31.820  1.00  0.00    -0.248 NA
ATOM     39  C   UNL A   1      37.776  31.327  31.389  1.00  0.00     0.031 C 
ATOM     40  C   UNL A   1      39.423  28.346  27.701  1.00  0.00     0.029 A 
ATOM     41  N   UNL A   1      40.622  28.377  29.590  1.00  0.00    -0.354 N 
ATOM     42  C   UNL A   1      39.397  30.886  32.938  1.00  0.00     0.074 A 
ATOM     43  C   UNL A   1      38.216  31.647  32.594  1.00  0.00     0.031 C 
ATOM     44  C   UNL A   1      40.433  27.472  27.555  1.00  0.00     0.029 A 
ATOM     45  C   UNL A   1      41.261  27.489  28.758  1.00  0.00     0.049 A 
ATOM     46  H   UNL A   1      40.930  28.578  30.502  1.00  0.00     0.167 HD
ATOM     47  C   UNL A   1      40.017  30.937  34.141  1.00  0.00     0.034 A 
ATOM     48  C   UNL A   1      42.396  26.787  28.948  1.00  0.00     0.034 A 
ATOM     49  C   UNL A   1      41.196  30.167  34.456  1.00  0.00     0.049 A 
ATOM     50  C   UNL A   1      43.115  26.920  30.269  1.00  0.00     0.074 A 
ATOM     51  C   UNL A   1      41.903  30.118  35.644  1.00  0.00     0.029 A 
ATOM     52  N   UNL A   1      41.853  29.322  33.568  1.00  0.00    -0.354 N 
ATOM     53  N   UNL A   1      42.789  27.633  31.324  1.00  0.00    -0.248 NA
ATOM     54  C   UNL A   1      44.349  26.141  30.428  1.00  0.00     0.031 C 
ATOM     55  C   UNL A   1      43.031  29.312  35.448  1.00  0.00     0.029 A 
ATOM     56  C   UNL A   1      42.978  28.780  34.169  1.00  0.00     0.049 A 
ATOM     57  H   UNL A   1      41.561  29.137  32.646  1.00  0.00     0.167 HD
ATOM     58  C   UNL A   1      43.757  27.354  32.286  1.00  0.00     0.074 A 
ATOM     59  C   UNL A   1      44.667  26.398  31.687  1.00  0.00     0.031 C 
ATOM     60  C   UNL A   1      43.881  27.835  33.551  1.00  0.00     0.034 A 
BRANCH  47  61
ATOM     61  C   UNL A   1      39.468  31.900  35.168  1.00  0.00     0.023 A 
ATOM     62  C   UNL A   1      39.918  33.229  35.264  1.00  0.00     0.031 A 
ATOM     63  C   UNL A   1      38.508  31.467  36.100  1.00  0.00     0.131 A 
ATOM     64  C   UNL A   1      39.474  34.047  36.315  1.00  0.00     0.055 A 
ATOM     65  C   UNL A   1      38.002  32.313  37.088  1.00  0.00     0.041 A 
ATOM     66  F   UNL A   1      38.059  30.201  36.079  1.00  0.00    -0.206 F 
ATOM     67  C   UNL A   1      38.497  33.606  37.212  1.00  0.00     0.022 A 
BRANCH  64  68
ATOM     68  S   UNL A   1      40.310  35.633  36.596  1.00  0.00     0.124 S 
ATOM     69  O   UNL A   1      40.110  35.822  38.030  1.00  0.00    -0.237 OA
ATOM     70  O   UNL A   1      41.676  35.348  36.173  1.00  0.00    -0.237 OA
ATOM     71  O   UNL A   1      39.574  36.565  35.744  1.00  0.00    -0.744 OA
ENDBRANCH  64  68
ENDBRANCH  47  61
BRANCH  48  72
ATOM     72  C   UNL A   1      42.933  25.910  27.869  1.00  0.00     0.023 A 
ATOM     73  C   UNL A   1      42.462  24.599  27.702  1.00  0.00     0.031 A 
ATOM     74  C   UNL A   1      43.963  26.352  27.020  1.00  0.00     0.131 A 
ATOM     75  C   UNL A   1      43.053  23.759  26.745  1.00  0.00     0.055 A 
ATOM     76  C   UNL A   1      44.508  25.532  26.031  1.00  0.00     0.041 A 
ATOM     77  F   UNL A   1      44.451  27.598  27.134  1.00  0.00    -0.206 F 
ATOM     78  C   UNL A   1      44.063  24.221  25.898  1.00  0.00     0.022 A 
BRANCH  75  79
ATOM     79  S   UNL A   1      42.542  22.020  26.683  1.00  0.00     0.124 S 
ATOM     80  O   UNL A   1      41.261  22.113  25.993  1.00  0.00    -0.237 OA
ATOM     81  O   UNL A   1      43.635  21.412  25.930  1.00  0.00    -0.237 OA
ATOM     82  O   UNL A   1      42.469  21.637  28.091  1.00  0.00    -0.744 OA
ENDBRANCH  75  79
ENDBRANCH  48  72
BRANCH  60  83
ATOM     83  C   UNL A   1      45.014  27.285  34.385  1.00  0.00     0.023 A 
ATOM     84  C   UNL A   1      44.881  26.104  35.136  1.00  0.00     0.031 A 
ATOM     85  C   UNL A   1      46.240  27.972  34.451  1.00  0.00     0.131 A 
ATOM     86  C   UNL A   1      45.925  25.688  35.976  1.00  0.00     0.055 A 
ATOM     87  C   UNL A   1      47.303  27.511  35.228  1.00  0.00     0.041 A 
ATOM     88  F   UNL A   1      46.426  29.108  33.758  1.00  0.00    -0.206 F 
ATOM     89  C   UNL A   1      47.142  26.373  36.012  1.00  0.00     0.022 A 
BRANCH  86  90
ATOM     90  S   UNL A   1      45.622  24.315  37.121  1.00  0.00     0.124 S 
ATOM     91  O   UNL A   1      46.929  24.151  37.749  1.00  0.00    -0.237 OA
ATOM     92  O   UNL A   1      44.567  24.849  37.977  1.00  0.00    -0.237 OA
ATOM     93  O   UNL A   1      45.213  23.220  36.244  1.00  0.00    -0.744 OA
ENDBRANCH  86  90
ENDBRANCH  60  83
ENDBRANCH  34  35
ENDBRANCH  27  29
ENDBRANCH  26  27
ENDBRANCH  25  26
ENDBRANCH  24  25
ENDBRANCH   1  24
TORSDOF 20
ENDMDL
