MODEL 1
REMARK VINA RESULT:     -11.5      0.000      0.000
REMARK SMILES CC(=O)NS(=O)(=O)c1ccc(-c2ccn(C(F)F)c(=O)c2)cc1C(=O)OCCOCCOC(=O)c1ccc(-c2c3nc(c(-c4cc(S(=O)(=O)[O-])ccc4F)c4ccc([nH]4)c(-c4cc(S(=O)(=O)[O-])ccc4F)c4nc(c(-c5cc(S(=O)(=O)[O-])ccc5F)c5ccc2[nH]5)C=C4)C=C3)cc1
REMARK SMILES IDX 30 1 29 2 28 3 27 4 26 5 24 6 25 7 23 8 8 9 9 10 10 11 22 12
REMARK SMILES IDX 11 13 5 14 6 15 7 16 4 17 1 18 2 19 3 20 12 22 13 23 21 24
REMARK SMILES IDX 14 25 19 26 15 27 20 28 16 29 17 30 18 31 31 32 32 33 33 34
REMARK SMILES IDX 34 35 35 36 36 37 97 38 37 39 96 40 38 41 39 42 40 43 90 44
REMARK SMILES IDX 41 45 95 46 89 47 91 48 42 49 94 50 88 51 87 52 43 54 75 55
REMARK SMILES IDX 55 56 74 57 56 58 59 59 73 60 92 61 57 62 58 63 72 65 93 66
REMARK SMILES IDX 60 67 44 68 45 69 53 70 46 71 52 72 54 73 51 74 47 75 48 76
REMARK SMILES IDX 49 77 50 78 76 79 77 80 85 81 78 82 84 83 86 84 83 85 79 86
REMARK SMILES IDX 80 87 81 88 82 89 61 90 62 91 70 92 63 93 69 94 71 95 68 96
REMARK SMILES IDX 64 97 65 98 66 99 67 100
REMARK H PARENT 4 21 91 53 59 64
REMARK Flexibility Score: inf
ROOT
ATOM      1  C   UNL A   1      36.051  20.758  25.223  1.00  0.00     0.202 C 
ENDROOT
BRANCH   1   2
ATOM      2  O   UNL A   1      35.673  21.569  26.340  1.00  0.00    -0.374 OA
BRANCH   2   3
ATOM      3  C   UNL A   1      34.361  21.355  26.864  1.00  0.00     0.202 C 
BRANCH   3   4
ATOM      4  C   UNL A   1      33.333  22.404  26.441  1.00  0.00     0.261 C 
BRANCH   4   5
ATOM      5  O   UNL A   1      33.807  23.733  26.719  1.00  0.00    -0.460 OA
BRANCH   5   6
ATOM      6  C   UNL A   1      34.021  24.503  25.635  1.00  0.00     0.339 C 
ATOM      7  O   UNL A   1      34.806  24.279  24.724  1.00  0.00    -0.246 OA
BRANCH   6   8
ATOM      8  C   UNL A   1      33.048  25.613  25.530  1.00  0.00     0.081 A 
ATOM      9  C   UNL A   1      31.788  25.576  24.930  1.00  0.00     0.102 A 
ATOM     10  C   UNL A   1      30.905  26.662  25.086  1.00  0.00     0.024 A 
ATOM     11  C   UNL A   1      31.313  27.829  25.731  1.00  0.00     0.010 A 
ATOM     12  C   UNL A   1      33.452  26.804  26.166  1.00  0.00     0.025 A 
ATOM     13  C   UNL A   1      32.605  27.917  26.242  1.00  0.00    -0.017 A 
BRANCH   9  14
ATOM     14  S   UNL A   1      31.234  24.244  23.905  1.00  0.00     0.264 S 
ATOM     15  O   UNL A   1      30.285  24.796  22.956  1.00  0.00    -0.201 OA
ATOM     16  O   UNL A   1      30.874  23.142  24.756  1.00  0.00    -0.201 OA
BRANCH  14  17
ATOM     17  N   UNL A   1      32.595  23.824  23.025  1.00  0.00    -0.249 N 
ATOM     18  C   UNL A   1      33.330  25.907  21.886  1.00  0.00     0.115 C 
ATOM     19  C   UNL A   1      32.974  24.449  21.824  1.00  0.00     0.230 C 
ATOM     20  O   UNL A   1      33.154  23.794  20.808  1.00  0.00    -0.274 OA
ATOM     21  H   UNL A   1      33.163  23.098  23.370  1.00  0.00     0.183 HD
ENDBRANCH  14  17
ENDBRANCH   9  14
BRANCH  13  22
ATOM     22  C   UNL A   1      33.094  29.172  26.825  1.00  0.00    -0.011 A 
ATOM     23  C   UNL A   1      32.283  30.373  26.859  1.00  0.00     0.027 A 
ATOM     24  C   UNL A   1      34.343  29.202  27.320  1.00  0.00     0.080 A 
ATOM     25  C   UNL A   1      32.784  31.512  27.348  1.00  0.00     0.095 A 
ATOM     26  C   UNL A   1      34.907  30.460  27.881  1.00  0.00     0.255 A 
ATOM     27  N   UNL A   1      34.073  31.568  27.843  1.00  0.00    -0.258 N 
ATOM     28  O   UNL A   1      36.049  30.443  28.330  1.00  0.00    -0.269 OA
BRANCH  27  29
ATOM     29  C   UNL A   1      34.616  32.809  28.330  1.00  0.00     0.451 C 
ATOM     30  F   UNL A   1      34.039  33.872  27.719  1.00  0.00    -0.185 F 
ATOM     31  F   UNL A   1      34.421  32.935  29.665  1.00  0.00    -0.185 F 
ENDBRANCH  27  29
ENDBRANCH  13  22
ENDBRANCH   6   8
ENDBRANCH   5   6
ENDBRANCH   4   5
ENDBRANCH   3   4
ENDBRANCH   2   3
ENDBRANCH   1   2
BRANCH   1  32
ATOM     32  C   UNL A   1      37.554  20.735  24.921  1.00  0.00     0.261 C 
BRANCH  32  33
ATOM     33  O   UNL A   1      38.204  21.893  25.482  1.00  0.00    -0.460 OA
BRANCH  33  34
ATOM     34  C   UNL A   1      39.315  21.629  26.218  1.00  0.00     0.338 C 
ATOM     35  O   UNL A   1      39.912  20.569  26.278  1.00  0.00    -0.246 OA
BRANCH  34  36
ATOM     36  C   UNL A   1      39.842  22.885  26.792  1.00  0.00     0.060 A 
ATOM     37  C   UNL A   1      39.349  24.091  26.283  1.00  0.00     0.016 A 
ATOM     38  C   UNL A   1      40.848  22.889  27.759  1.00  0.00     0.016 A 
ATOM     39  C   UNL A   1      39.891  25.303  26.712  1.00  0.00     0.010 A 
ATOM     40  C   UNL A   1      41.379  24.106  28.202  1.00  0.00     0.010 A 
ATOM     41  C   UNL A   1      40.933  25.320  27.651  1.00  0.00    -0.014 A 
BRANCH  41  42
ATOM     42  C   UNL A   1      41.650  26.592  27.923  1.00  0.00     0.031 A 
ATOM     43  C   UNL A   1      43.055  26.765  27.407  1.00  0.00     0.074 A 
ATOM     44  C   UNL A   1      41.045  27.600  28.576  1.00  0.00     0.049 A 
ATOM     45  N   UNL A   1      43.852  27.799  27.494  1.00  0.00    -0.248 NA
ATOM     46  C   UNL A   1      43.636  25.615  26.699  1.00  0.00     0.031 C 
ATOM     47  C   UNL A   1      39.682  27.566  29.106  1.00  0.00     0.029 A 
ATOM     48  N   UNL A   1      41.500  28.854  28.903  1.00  0.00    -0.354 N 
ATOM     49  C   UNL A   1      45.026  27.428  26.847  1.00  0.00     0.074 A 
ATOM     50  C   UNL A   1      44.852  26.058  26.415  1.00  0.00     0.031 C 
ATOM     51  C   UNL A   1      39.411  28.746  29.690  1.00  0.00     0.029 A 
ATOM     52  C   UNL A   1      40.588  29.609  29.602  1.00  0.00     0.049 A 
ATOM     53  H   UNL A   1      42.396  29.182  28.659  1.00  0.00     0.167 HD
ATOM     54  C   UNL A   1      46.141  28.166  26.618  1.00  0.00     0.034 A 
ATOM     55  C   UNL A   1      40.695  30.849  30.122  1.00  0.00     0.034 A 
ATOM     56  C   UNL A   1      46.313  29.528  27.063  1.00  0.00     0.049 A 
ATOM     57  C   UNL A   1      41.975  31.625  29.924  1.00  0.00     0.074 A 
ATOM     58  C   UNL A   1      47.391  30.372  26.864  1.00  0.00     0.029 A 
ATOM     59  N   UNL A   1      45.387  30.240  27.815  1.00  0.00    -0.354 N 
ATOM     60  N   UNL A   1      43.066  31.272  29.284  1.00  0.00    -0.248 NA
ATOM     61  C   UNL A   1      42.031  32.970  30.512  1.00  0.00     0.031 C 
ATOM     62  C   UNL A   1      47.148  31.568  27.550  1.00  0.00     0.029 A 
ATOM     63  C   UNL A   1      45.886  31.500  28.118  1.00  0.00     0.049 A 
ATOM     64  H   UNL A   1      44.505  29.902  28.093  1.00  0.00     0.167 HD
ATOM     65  C   UNL A   1      43.927  32.363  29.371  1.00  0.00     0.074 A 
ATOM     66  C   UNL A   1      43.224  33.389  30.113  1.00  0.00     0.031 C 
ATOM     67  C   UNL A   1      45.183  32.508  28.875  1.00  0.00     0.034 A 
BRANCH  54  68
ATOM     68  C   UNL A   1      47.277  27.491  25.888  1.00  0.00     0.023 A 
ATOM     69  C   UNL A   1      48.270  26.770  26.573  1.00  0.00     0.031 A 
ATOM     70  C   UNL A   1      47.387  27.600  24.491  1.00  0.00     0.131 A 
ATOM     71  C   UNL A   1      49.365  26.246  25.870  1.00  0.00     0.055 A 
ATOM     72  C   UNL A   1      48.440  27.011  23.788  1.00  0.00     0.041 A 
ATOM     73  F   UNL A   1      46.479  28.293  23.786  1.00  0.00    -0.206 F 
ATOM     74  C   UNL A   1      49.446  26.342  24.480  1.00  0.00     0.022 A 
BRANCH  71  75
ATOM     75  S   UNL A   1      50.755  25.558  26.813  1.00  0.00     0.124 S 
ATOM     76  O   UNL A   1      50.134  24.404  27.457  1.00  0.00    -0.237 OA
ATOM     77  O   UNL A   1      51.728  25.260  25.768  1.00  0.00    -0.237 OA
ATOM     78  O   UNL A   1      51.125  26.643  27.719  1.00  0.00    -0.744 OA
ENDBRANCH  71  75
ENDBRANCH  54  68
BRANCH  55  79
ATOM     79  C   UNL A   1      39.575  31.432  30.913  1.00  0.00     0.023 A 
ATOM     80  C   UNL A   1      39.534  31.322  32.313  1.00  0.00     0.031 A 
ATOM     81  C   UNL A   1      38.497  32.066  30.269  1.00  0.00     0.131 A 
ATOM     82  C   UNL A   1      38.419  31.801  33.018  1.00  0.00     0.055 A 
ATOM     83  C   UNL A   1      37.414  32.583  30.979  1.00  0.00     0.041 A 
ATOM     84  F   UNL A   1      38.488  32.195  28.932  1.00  0.00    -0.206 F 
ATOM     85  C   UNL A   1      37.365  32.442  32.363  1.00  0.00     0.022 A 
BRANCH  82  86
ATOM     86  S   UNL A   1      38.331  31.510  34.807  1.00  0.00     0.124 S 
ATOM     87  O   UNL A   1      38.281  30.054  34.870  1.00  0.00    -0.237 OA
ATOM     88  O   UNL A   1      39.565  32.131  35.276  1.00  0.00    -0.237 OA
ATOM     89  O   UNL A   1      37.103  32.195  35.204  1.00  0.00    -0.744 OA
ENDBRANCH  82  86
ENDBRANCH  55  79
BRANCH  67  90
ATOM     90  C   UNL A   1      45.857  33.840  29.093  1.00  0.00     0.023 A 
ATOM     91  C   UNL A   1      45.684  34.912  28.200  1.00  0.00     0.031 A 
ATOM     92  C   UNL A   1      46.694  34.034  30.206  1.00  0.00     0.131 A 
ATOM     93  C   UNL A   1      46.380  36.114  28.408  1.00  0.00     0.055 A 
ATOM     94  C   UNL A   1      47.341  35.249  30.437  1.00  0.00     0.041 A 
ATOM     95  F   UNL A   1      46.896  33.044  31.091  1.00  0.00    -0.206 F 
ATOM     96  C   UNL A   1      47.195  36.294  29.529  1.00  0.00     0.022 A 
BRANCH  93  97
ATOM     97  S   UNL A   1      46.270  37.416  27.150  1.00  0.00     0.124 S 
ATOM     98  O   UNL A   1      44.827  37.589  27.015  1.00  0.00    -0.237 OA
ATOM     99  O   UNL A   1      46.987  38.520  27.778  1.00  0.00    -0.237 OA
ATOM    100  O   UNL A   1      46.934  36.828  25.988  1.00  0.00    -0.744 OA
ENDBRANCH  93  97
ENDBRANCH  67  90
ENDBRANCH  41  42
ENDBRANCH  34  36
ENDBRANCH  33  34
ENDBRANCH  32  33
ENDBRANCH   1  32
TORSDOF 21
ENDMDL
MODEL 2
REMARK VINA RESULT:     -11.4      1.852      2.134
REMARK SMILES CC(=O)NS(=O)(=O)c1ccc(-c2ccn(C(F)F)c(=O)c2)cc1C(=O)OCCOCCOC(=O)c1ccc(-c2c3nc(c(-c4cc(S(=O)(=O)[O-])ccc4F)c4ccc([nH]4)c(-c4cc(S(=O)(=O)[O-])ccc4F)c4nc(c(-c5cc(S(=O)(=O)[O-])ccc5F)c5ccc2[nH]5)C=C4)C=C3)cc1
REMARK SMILES IDX 30 1 29 2 28 3 27 4 26 5 24 6 25 7 23 8 8 9 9 10 10 11 22 12
REMARK SMILES IDX 11 13 5 14 6 15 7 16 4 17 1 18 2 19 3 20 12 22 13 23 21 24
REMARK SMILES IDX 14 25 19 26 15 27 20 28 16 29 17 30 18 31 31 32 32 33 33 34
REMARK SMILES IDX 34 35 35 36 36 37 97 38 37 39 96 40 38 41 39 42 40 43 90 44
REMARK SMILES IDX 41 45 95 46 89 47 91 48 42 49 94 50 88 51 87 52 43 54 75 55
REMARK SMILES IDX 55 56 74 57 56 58 59 59 73 60 92 61 57 62 58 63 72 65 93 66
REMARK SMILES IDX 60 67 44 68 45 69 53 70 46 71 52 72 54 73 51 74 47 75 48 76
REMARK SMILES IDX 49 77 50 78 76 79 77 80 85 81 78 82 84 83 86 84 83 85 79 86
REMARK SMILES IDX 80 87 81 88 82 89 61 90 62 91 70 92 63 93 69 94 71 95 68 96
REMARK SMILES IDX 64 97 65 98 66 99 67 100
REMARK H PARENT 4 21 91 53 59 64
REMARK Flexibility Score: inf
ROOT
ATOM      1  C   UNL A   1      36.265  20.595  25.068  1.00  0.00     0.202 C 
ENDROOT
BRANCH   1   2
ATOM      2  O   UNL A   1      35.600  21.443  26.010  1.00  0.00    -0.374 OA
BRANCH   2   3
ATOM      3  C   UNL A   1      34.174  21.476  25.938  1.00  0.00     0.202 C 
BRANCH   3   4
ATOM      4  C   UNL A   1      33.545  22.758  26.483  1.00  0.00     0.261 C 
BRANCH   4   5
ATOM      5  O   UNL A   1      34.420  23.884  26.295  1.00  0.00    -0.460 OA
BRANCH   5   6
ATOM      6  C   UNL A   1      34.320  24.493  25.099  1.00  0.00     0.339 C 
ATOM      7  O   UNL A   1      34.811  24.117  24.044  1.00  0.00    -0.246 OA
BRANCH   6   8
ATOM      8  C   UNL A   1      33.363  25.622  25.119  1.00  0.00     0.081 A 
ATOM      9  C   UNL A   1      32.097  25.665  24.533  1.00  0.00     0.102 A 
ATOM     10  C   UNL A   1      31.232  26.742  24.809  1.00  0.00     0.024 A 
ATOM     11  C   UNL A   1      31.664  27.830  25.565  1.00  0.00     0.010 A 
ATOM     12  C   UNL A   1      33.792  26.736  25.869  1.00  0.00     0.025 A 
ATOM     13  C   UNL A   1      32.963  27.847  26.068  1.00  0.00    -0.017 A 
BRANCH   9  14
ATOM     14  S   UNL A   1      31.512  24.453  23.384  1.00  0.00     0.264 S 
ATOM     15  O   UNL A   1      30.306  24.982  22.774  1.00  0.00    -0.201 OA
ATOM     16  O   UNL A   1      31.510  23.174  24.042  1.00  0.00    -0.201 OA
BRANCH  14  17
ATOM     17  N   UNL A   1      32.682  24.441  22.186  1.00  0.00    -0.249 N 
ATOM     18  C   UNL A   1      33.334  26.817  21.858  1.00  0.00     0.115 C 
ATOM     19  C   UNL A   1      32.891  25.500  21.285  1.00  0.00     0.230 C 
ATOM     20  O   UNL A   1      32.862  25.310  20.078  1.00  0.00    -0.274 OA
ATOM     21  H   UNL A   1      33.258  23.646  22.109  1.00  0.00     0.183 HD
ENDBRANCH  14  17
ENDBRANCH   9  14
BRANCH  13  22
ATOM     22  C   UNL A   1      33.477  29.029  26.770  1.00  0.00    -0.011 A 
ATOM     23  C   UNL A   1      32.704  30.249  26.893  1.00  0.00     0.027 A 
ATOM     24  C   UNL A   1      34.714  28.974  27.292  1.00  0.00     0.080 A 
ATOM     25  C   UNL A   1      33.228  31.323  27.492  1.00  0.00     0.095 A 
ATOM     26  C   UNL A   1      35.303  30.158  27.975  1.00  0.00     0.255 A 
ATOM     27  N   UNL A   1      34.506  31.292  28.018  1.00  0.00    -0.258 N 
ATOM     28  O   UNL A   1      36.433  30.063  28.444  1.00  0.00    -0.269 OA
BRANCH  27  29
ATOM     29  C   UNL A   1      35.075  32.466  28.625  1.00  0.00     0.451 C 
ATOM     30  F   UNL A   1      34.998  33.536  27.795  1.00  0.00    -0.185 F 
ATOM     31  F   UNL A   1      34.433  32.780  29.776  1.00  0.00    -0.185 F 
ENDBRANCH  27  29
ENDBRANCH  13  22
ENDBRANCH   6   8
ENDBRANCH   5   6
ENDBRANCH   4   5
ENDBRANCH   3   4
ENDBRANCH   2   3
ENDBRANCH   1   2
BRANCH   1  32
ATOM     32  C   UNL A   1      37.778  20.816  24.955  1.00  0.00     0.261 C 
BRANCH  32  33
ATOM     33  O   UNL A   1      38.207  21.868  25.843  1.00  0.00    -0.460 OA
BRANCH  33  34
ATOM     34  C   UNL A   1      39.428  21.681  26.407  1.00  0.00     0.338 C 
ATOM     35  O   UNL A   1      40.113  20.675  26.343  1.00  0.00    -0.246 OA
BRANCH  34  36
ATOM     36  C   UNL A   1      39.926  22.962  26.952  1.00  0.00     0.060 A 
ATOM     37  C   UNL A   1      39.424  24.144  26.397  1.00  0.00     0.016 A 
ATOM     38  C   UNL A   1      40.913  23.011  27.936  1.00  0.00     0.016 A 
ATOM     39  C   UNL A   1      39.940  25.377  26.799  1.00  0.00     0.010 A 
ATOM     40  C   UNL A   1      41.418  24.249  28.352  1.00  0.00     0.010 A 
ATOM     41  C   UNL A   1      40.964  25.438  27.756  1.00  0.00    -0.014 A 
BRANCH  41  42
ATOM     42  C   UNL A   1      41.656  26.729  28.002  1.00  0.00     0.031 A 
ATOM     43  C   UNL A   1      43.027  26.947  27.416  1.00  0.00     0.074 A 
ATOM     44  C   UNL A   1      41.056  27.715  28.693  1.00  0.00     0.049 A 
ATOM     45  N   UNL A   1      43.797  28.004  27.471  1.00  0.00    -0.248 NA
ATOM     46  C   UNL A   1      43.605  25.820  26.669  1.00  0.00     0.031 C 
ATOM     47  C   UNL A   1      39.724  27.637  29.291  1.00  0.00     0.029 A 
ATOM     48  N   UNL A   1      41.491  28.979  29.006  1.00  0.00    -0.354 N 
ATOM     49  C   UNL A   1      44.947  27.673  26.762  1.00  0.00     0.074 A 
ATOM     50  C   UNL A   1      44.791  26.301  26.328  1.00  0.00     0.031 C 
ATOM     51  C   UNL A   1      39.449  28.804  29.898  1.00  0.00     0.029 A 
ATOM     52  C   UNL A   1      40.594  29.702  29.757  1.00  0.00     0.049 A 
ATOM     53  H   UNL A   1      42.363  29.335  28.720  1.00  0.00     0.167 HD
ATOM     54  C   UNL A   1      46.027  28.445  26.482  1.00  0.00     0.034 A 
ATOM     55  C   UNL A   1      40.691  30.941  30.282  1.00  0.00     0.034 A 
ATOM     56  C   UNL A   1      46.182  29.808  26.930  1.00  0.00     0.049 A 
ATOM     57  C   UNL A   1      41.936  31.756  30.025  1.00  0.00     0.074 A 
ATOM     58  C   UNL A   1      47.223  30.685  26.683  1.00  0.00     0.029 A 
ATOM     59  N   UNL A   1      45.275  30.487  27.733  1.00  0.00    -0.354 N 
ATOM     60  N   UNL A   1      43.003  31.439  29.328  1.00  0.00    -0.248 NA
ATOM     61  C   UNL A   1      41.983  33.098  30.621  1.00  0.00     0.031 C 
ATOM     62  C   UNL A   1      46.980  31.868  27.390  1.00  0.00     0.029 A 
ATOM     63  C   UNL A   1      45.751  31.759  28.022  1.00  0.00     0.049 A 
ATOM     64  H   UNL A   1      44.419  30.121  28.053  1.00  0.00     0.167 HD
ATOM     65  C   UNL A   1      43.835  32.555  29.380  1.00  0.00     0.074 A 
ATOM     66  C   UNL A   1      43.141  33.555  30.166  1.00  0.00     0.031 C 
ATOM     67  C   UNL A   1      45.059  32.740  28.822  1.00  0.00     0.034 A 
BRANCH  54  68
ATOM     68  C   UNL A   1      47.143  27.808  25.690  1.00  0.00     0.023 A 
ATOM     69  C   UNL A   1      47.334  28.090  24.326  1.00  0.00     0.031 A 
ATOM     70  C   UNL A   1      48.004  26.879  26.298  1.00  0.00     0.131 A 
ATOM     71  C   UNL A   1      48.315  27.399  23.599  1.00  0.00     0.055 A 
ATOM     72  C   UNL A   1      49.028  26.250  25.587  1.00  0.00     0.041 A 
ATOM     73  F   UNL A   1      47.856  26.555  27.592  1.00  0.00    -0.206 F 
ATOM     74  C   UNL A   1      49.178  26.497  24.225  1.00  0.00     0.022 A 
BRANCH  71  75
ATOM     75  S   UNL A   1      48.357  27.590  21.795  1.00  0.00     0.124 S 
ATOM     76  O   UNL A   1      49.438  28.556  21.624  1.00  0.00    -0.237 OA
ATOM     77  O   UNL A   1      48.636  26.232  21.341  1.00  0.00    -0.237 OA
ATOM     78  O   UNL A   1      47.024  28.094  21.472  1.00  0.00    -0.744 OA
ENDBRANCH  71  75
ENDBRANCH  54  68
BRANCH  55  79
ATOM     79  C   UNL A   1      39.596  31.485  31.134  1.00  0.00     0.023 A 
ATOM     80  C   UNL A   1      39.603  31.318  32.528  1.00  0.00     0.031 A 
ATOM     81  C   UNL A   1      38.495  32.140  30.553  1.00  0.00     0.131 A 
ATOM     82  C   UNL A   1      38.512  31.762  33.290  1.00  0.00     0.055 A 
ATOM     83  C   UNL A   1      37.435  32.621  31.321  1.00  0.00     0.041 A 
ATOM     84  F   UNL A   1      38.440  32.323  29.224  1.00  0.00    -0.206 F 
ATOM     85  C   UNL A   1      37.433  32.423  32.698  1.00  0.00     0.022 A 
BRANCH  82  86
ATOM     86  S   UNL A   1      38.486  31.397  35.067  1.00  0.00     0.124 S 
ATOM     87  O   UNL A   1      37.230  32.012  35.479  1.00  0.00    -0.237 OA
ATOM     88  O   UNL A   1      38.520  29.938  35.078  1.00  0.00    -0.237 OA
ATOM     89  O   UNL A   1      39.694  32.049  35.567  1.00  0.00    -0.744 OA
ENDBRANCH  82  86
ENDBRANCH  55  79
BRANCH  67  90
ATOM     90  C   UNL A   1      45.704  34.090  29.016  1.00  0.00     0.023 A 
ATOM     91  C   UNL A   1      46.566  34.351  30.096  1.00  0.00     0.031 A 
ATOM     92  C   UNL A   1      45.443  35.135  28.110  1.00  0.00     0.131 A 
ATOM     93  C   UNL A   1      47.095  35.640  30.271  1.00  0.00     0.055 A 
ATOM     94  C   UNL A   1      46.015  36.398  28.261  1.00  0.00     0.041 A 
ATOM     95  F   UNL A   1      44.627  34.941  27.061  1.00  0.00    -0.206 F 
ATOM     96  C   UNL A   1      46.837  36.660  29.353  1.00  0.00     0.022 A 
BRANCH  93  97
ATOM     97  S   UNL A   1      48.064  35.989  31.765  1.00  0.00     0.124 S 
ATOM     98  O   UNL A   1      48.340  34.649  32.271  1.00  0.00    -0.237 OA
ATOM     99  O   UNL A   1      49.210  36.717  31.231  1.00  0.00    -0.237 OA
ATOM    100  O   UNL A   1      47.155  36.786  32.587  1.00  0.00    -0.744 OA
ENDBRANCH  93  97
ENDBRANCH  67  90
ENDBRANCH  41  42
ENDBRANCH  34  36
ENDBRANCH  33  34
ENDBRANCH  32  33
ENDBRANCH   1  32
TORSDOF 21
ENDMDL
MODEL 3
REMARK VINA RESULT:     -11.4      3.310      5.224
REMARK SMILES CC(=O)NS(=O)(=O)c1ccc(-c2ccn(C(F)F)c(=O)c2)cc1C(=O)OCCOCCOC(=O)c1ccc(-c2c3nc(c(-c4cc(S(=O)(=O)[O-])ccc4F)c4ccc([nH]4)c(-c4cc(S(=O)(=O)[O-])ccc4F)c4nc(c(-c5cc(S(=O)(=O)[O-])ccc5F)c5ccc2[nH]5)C=C4)C=C3)cc1
REMARK SMILES IDX 30 1 29 2 28 3 27 4 26 5 24 6 25 7 23 8 8 9 9 10 10 11 22 12
REMARK SMILES IDX 11 13 5 14 6 15 7 16 4 17 1 18 2 19 3 20 12 22 13 23 21 24
REMARK SMILES IDX 14 25 19 26 15 27 20 28 16 29 17 30 18 31 31 32 32 33 33 34
REMARK SMILES IDX 34 35 35 36 36 37 97 38 37 39 96 40 38 41 39 42 40 43 90 44
REMARK SMILES IDX 41 45 95 46 89 47 91 48 42 49 94 50 88 51 87 52 43 54 75 55
REMARK SMILES IDX 55 56 74 57 56 58 59 59 73 60 92 61 57 62 58 63 72 65 93 66
REMARK SMILES IDX 60 67 44 68 45 69 53 70 46 71 52 72 54 73 51 74 47 75 48 76
REMARK SMILES IDX 49 77 50 78 76 79 77 80 85 81 78 82 84 83 86 84 83 85 79 86
REMARK SMILES IDX 80 87 81 88 82 89 61 90 62 91 70 92 63 93 69 94 71 95 68 96
REMARK SMILES IDX 64 97 65 98 66 99 67 100
REMARK H PARENT 4 21 91 53 59 64
REMARK Flexibility Score: inf
ROOT
ATOM      1  C   UNL A   1      35.914  21.721  25.151  1.00  0.00     0.202 C 
ENDROOT
BRANCH   1   2
ATOM      2  O   UNL A   1      35.453  22.318  26.367  1.00  0.00    -0.374 OA
BRANCH   2   3
ATOM      3  C   UNL A   1      35.527  23.742  26.444  1.00  0.00     0.202 C 
BRANCH   3   4
ATOM      4  C   UNL A   1      34.503  24.475  25.578  1.00  0.00     0.261 C 
BRANCH   4   5
ATOM      5  O   UNL A   1      33.502  25.113  26.390  1.00  0.00    -0.460 OA
BRANCH   5   6
ATOM      6  C   UNL A   1      32.292  24.522  26.376  1.00  0.00     0.339 C 
ATOM      7  O   UNL A   1      31.388  24.691  27.183  1.00  0.00    -0.246 OA
BRANCH   6   8
ATOM      8  C   UNL A   1      32.057  23.745  25.139  1.00  0.00     0.081 A 
ATOM      9  C   UNL A   1      31.639  24.236  23.902  1.00  0.00     0.102 A 
ATOM     10  C   UNL A   1      31.650  23.393  22.773  1.00  0.00     0.024 A 
ATOM     11  C   UNL A   1      31.959  22.039  22.894  1.00  0.00     0.010 A 
ATOM     12  C   UNL A   1      32.353  22.370  25.250  1.00  0.00     0.025 A 
ATOM     13  C   UNL A   1      32.277  21.515  24.144  1.00  0.00    -0.017 A 
BRANCH   9  14
ATOM     14  S   UNL A   1      31.018  25.875  23.661  1.00  0.00     0.264 S 
ATOM     15  O   UNL A   1      29.803  25.996  24.446  1.00  0.00    -0.201 OA
ATOM     16  O   UNL A   1      31.021  26.154  22.251  1.00  0.00    -0.201 OA
BRANCH  14  17
ATOM     17  N   UNL A   1      32.160  26.847  24.406  1.00  0.00    -0.249 N 
ATOM     18  C   UNL A   1      31.156  29.119  24.496  1.00  0.00     0.115 C 
ATOM     19  C   UNL A   1      32.309  28.221  24.146  1.00  0.00     0.230 C 
ATOM     20  O   UNL A   1      33.386  28.678  23.794  1.00  0.00    -0.274 OA
ATOM     21  H   UNL A   1      32.763  26.433  25.065  1.00  0.00     0.183 HD
ENDBRANCH  14  17
ENDBRANCH   9  14
BRANCH  13  22
ATOM     22  C   UNL A   1      32.495  20.073  24.316  1.00  0.00    -0.011 A 
ATOM     23  C   UNL A   1      32.673  19.472  25.623  1.00  0.00     0.027 A 
ATOM     24  C   UNL A   1      32.550  19.300  23.219  1.00  0.00     0.080 A 
ATOM     25  C   UNL A   1      32.924  18.163  25.736  1.00  0.00     0.095 A 
ATOM     26  C   UNL A   1      32.813  17.839  23.332  1.00  0.00     0.255 A 
ATOM     27  N   UNL A   1      33.005  17.356  24.618  1.00  0.00    -0.258 N 
ATOM     28  O   UNL A   1      32.849  17.168  22.305  1.00  0.00    -0.269 OA
BRANCH  27  29
ATOM     29  C   UNL A   1      33.315  15.957  24.748  1.00  0.00     0.451 C 
ATOM     30  F   UNL A   1      34.200  15.740  25.753  1.00  0.00    -0.185 F 
ATOM     31  F   UNL A   1      32.200  15.232  25.007  1.00  0.00    -0.185 F 
ENDBRANCH  27  29
ENDBRANCH  13  22
ENDBRANCH   6   8
ENDBRANCH   5   6
ENDBRANCH   4   5
ENDBRANCH   3   4
ENDBRANCH   2   3
ENDBRANCH   1   2
BRANCH   1  32
ATOM     32  C   UNL A   1      36.991  20.646  25.325  1.00  0.00     0.261 C 
BRANCH  32  33
ATOM     33  O   UNL A   1      38.295  21.176  25.012  1.00  0.00    -0.460 OA
BRANCH  33  34
ATOM     34  C   UNL A   1      39.257  20.921  25.936  1.00  0.00     0.338 C 
ATOM     35  O   UNL A   1      39.820  19.857  26.125  1.00  0.00    -0.246 OA
BRANCH  34  36
ATOM     36  C   UNL A   1      39.694  22.186  26.563  1.00  0.00     0.060 A 
ATOM     37  C   UNL A   1      39.089  23.370  26.128  1.00  0.00     0.016 A 
ATOM     38  C   UNL A   1      40.719  22.226  27.508  1.00  0.00     0.016 A 
ATOM     39  C   UNL A   1      39.540  24.601  26.608  1.00  0.00     0.010 A 
ATOM     40  C   UNL A   1      41.159  23.460  28.002  1.00  0.00     0.010 A 
ATOM     41  C   UNL A   1      40.600  24.658  27.525  1.00  0.00    -0.014 A 
BRANCH  41  42
ATOM     42  C   UNL A   1      41.216  25.971  27.847  1.00  0.00     0.031 A 
ATOM     43  C   UNL A   1      42.615  26.260  27.367  1.00  0.00     0.074 A 
ATOM     44  C   UNL A   1      40.526  26.914  28.513  1.00  0.00     0.049 A 
ATOM     45  N   UNL A   1      43.332  27.346  27.501  1.00  0.00    -0.248 NA
ATOM     46  C   UNL A   1      43.294  25.176  26.642  1.00  0.00     0.031 C 
ATOM     47  C   UNL A   1      39.158  26.765  29.010  1.00  0.00     0.029 A 
ATOM     48  N   UNL A   1      40.881  28.187  28.883  1.00  0.00    -0.354 N 
ATOM     49  C   UNL A   1      44.544  27.081  26.871  1.00  0.00     0.074 A 
ATOM     50  C   UNL A   1      44.480  25.714  26.399  1.00  0.00     0.031 C 
ATOM     51  C   UNL A   1      38.790  27.905  29.620  1.00  0.00     0.029 A 
ATOM     52  C   UNL A   1      39.901  28.853  29.581  1.00  0.00     0.049 A 
ATOM     53  H   UNL A   1      41.755  28.586  28.669  1.00  0.00     0.167 HD
ATOM     54  C   UNL A   1      45.606  27.904  26.687  1.00  0.00     0.034 A 
ATOM     55  C   UNL A   1      39.906  30.082  30.137  1.00  0.00     0.034 A 
ATOM     56  C   UNL A   1      45.668  29.261  27.173  1.00  0.00     0.049 A 
ATOM     57  C   UNL A   1      41.130  30.955  29.989  1.00  0.00     0.074 A 
ATOM     58  C   UNL A   1      46.686  30.187  27.021  1.00  0.00     0.029 A 
ATOM     59  N   UNL A   1      44.677  29.883  27.922  1.00  0.00    -0.354 N 
ATOM     60  N   UNL A   1      42.257  30.700  29.365  1.00  0.00    -0.248 NA
ATOM     61  C   UNL A   1      41.075  32.283  30.614  1.00  0.00     0.031 C 
ATOM     62  C   UNL A   1      46.341  31.342  27.733  1.00  0.00     0.029 A 
ATOM     63  C   UNL A   1      45.076  31.166  28.270  1.00  0.00     0.049 A 
ATOM     64  H   UNL A   1      43.817  29.473  28.170  1.00  0.00     0.167 HD
ATOM     65  C   UNL A   1      43.033  31.848  29.501  1.00  0.00     0.074 A 
ATOM     66  C   UNL A   1      42.242  32.799  30.254  1.00  0.00     0.031 C 
ATOM     67  C   UNL A   1      44.285  32.098  29.038  1.00  0.00     0.034 A 
BRANCH  54  68
ATOM     68  C   UNL A   1      46.803  27.334  25.965  1.00  0.00     0.023 A 
ATOM     69  C   UNL A   1      47.815  26.637  26.649  1.00  0.00     0.031 A 
ATOM     70  C   UNL A   1      46.952  27.521  24.580  1.00  0.00     0.131 A 
ATOM     71  C   UNL A   1      48.962  26.215  25.960  1.00  0.00     0.055 A 
ATOM     72  C   UNL A   1      48.060  27.032  23.887  1.00  0.00     0.041 A 
ATOM     73  F   UNL A   1      46.028  28.197  23.879  1.00  0.00    -0.206 F 
ATOM     74  C   UNL A   1      49.081  26.387  24.580  1.00  0.00     0.022 A 
BRANCH  71  75
ATOM     75  S   UNL A   1      50.358  25.561  26.917  1.00  0.00     0.124 S 
ATOM     76  O   UNL A   1      49.734  24.452  27.633  1.00  0.00    -0.237 OA
ATOM     77  O   UNL A   1      51.310  25.193  25.874  1.00  0.00    -0.237 OA
ATOM     78  O   UNL A   1      50.758  26.688  27.756  1.00  0.00    -0.744 OA
ENDBRANCH  71  75
ENDBRANCH  54  68
BRANCH  55  79
ATOM     79  C   UNL A   1      38.730  30.560  30.918  1.00  0.00     0.023 A 
ATOM     80  C   UNL A   1      37.656  31.215  30.295  1.00  0.00     0.031 A 
ATOM     81  C   UNL A   1      38.691  30.410  32.316  1.00  0.00     0.131 A 
ATOM     82  C   UNL A   1      36.609  31.733  31.072  1.00  0.00     0.055 A 
ATOM     83  C   UNL A   1      37.625  30.886  33.079  1.00  0.00     0.041 A 
ATOM     84  F   UNL A   1      39.695  29.792  32.960  1.00  0.00    -0.206 F 
ATOM     85  C   UNL A   1      36.580  31.563  32.459  1.00  0.00     0.022 A 
BRANCH  82  86
ATOM     86  S   UNL A   1      35.313  32.703  30.251  1.00  0.00     0.124 S 
ATOM     87  O   UNL A   1      34.955  31.837  29.134  1.00  0.00    -0.237 OA
ATOM     88  O   UNL A   1      34.316  32.832  31.308  1.00  0.00    -0.237 OA
ATOM     89  O   UNL A   1      35.995  33.943  29.887  1.00  0.00    -0.744 OA
ENDBRANCH  82  86
ENDBRANCH  55  79
BRANCH  67  90
ATOM     90  C   UNL A   1      44.855  33.469  29.307  1.00  0.00     0.023 A 
ATOM     91  C   UNL A   1      44.697  34.529  28.396  1.00  0.00     0.031 A 
ATOM     92  C   UNL A   1      45.577  33.715  30.489  1.00  0.00     0.131 A 
ATOM     93  C   UNL A   1      45.298  35.770  28.658  1.00  0.00     0.055 A 
ATOM     94  C   UNL A   1      46.125  34.967  30.769  1.00  0.00     0.041 A 
ATOM     95  F   UNL A   1      45.759  32.739  31.394  1.00  0.00    -0.206 F 
ATOM     96  C   UNL A   1      45.998  36.000  29.845  1.00  0.00     0.022 A 
BRANCH  93  97
ATOM     97  S   UNL A   1      45.221  37.063  27.387  1.00  0.00     0.124 S 
ATOM     98  O   UNL A   1      45.515  38.267  28.157  1.00  0.00    -0.237 OA
ATOM     99  O   UNL A   1      46.254  36.639  26.448  1.00  0.00    -0.237 OA
ATOM    100  O   UNL A   1      43.852  36.969  26.883  1.00  0.00    -0.744 OA
ENDBRANCH  93  97
ENDBRANCH  67  90
ENDBRANCH  41  42
ENDBRANCH  34  36
ENDBRANCH  33  34
ENDBRANCH  32  33
ENDBRANCH   1  32
TORSDOF 21
ENDMDL
