MODEL 1
REMARK VINA RESULT:     -10.9      0.000      0.000
REMARK SMILES O=C(N[C@@H](Cc1c[nH]c2ccccc12)C(=O)N[C@@H](CS)C(=O)N[C@@H](CO)C(=O)OCCOCCOC(=O)c1ccc(-c2c3nc(c(-c4cc(S(=O)(=O)[O-])ccc4F)c4ccc([nH]4)c(-c4cc(S(=O)(=O)[O-])ccc4F)c4nc(c(-c5cc(S(=O)(=O)[O-])ccc5F)c5ccc2[nH]5)C=C4)C=C3)cc1)c1ccc(F)cc1
REMARK SMILES IDX 30 1 29 2 27 3 28 4 24 5 23 6 21 7 22 8 18 10 17 11 15 12
REMARK SMILES IDX 16 13 4 15 3 16 1 17 2 18 101 20 102 21 107 22 103 23 106 24
REMARK SMILES IDX 104 25 105 26 5 27 6 28 7 29 14 30 8 31 9 32 13 33 10 35
REMARK SMILES IDX 12 36 11 37 19 38 20 39 25 41 26 42 31 44 32 45 33 46 34 47
REMARK SMILES IDX 35 48 36 49 37 50 38 51 39 52 100 53 40 54 99 55 41 56 42 57
REMARK SMILES IDX 43 58 93 59 44 60 98 61 92 62 94 63 45 64 97 65 91 66 90 67
REMARK SMILES IDX 46 69 78 70 58 71 77 72 59 73 62 74 76 75 95 76 60 77 61 78
REMARK SMILES IDX 75 80 96 81 63 82 47 83 48 84 56 85 49 86 55 87 57 88 54 89
REMARK SMILES IDX 50 90 51 91 52 92 53 93 79 94 80 95 88 96 81 97 87 98 89 99
REMARK SMILES IDX 86 100 82 101 83 102 84 103 85 104 64 105 65 106 73 107
REMARK SMILES IDX 66 108 72 109 74 110 71 111 67 112 68 113 69 114 70 115
REMARK H PARENT 23 9 17 14 3 19 8 34 20 40 26 43 94 68 62 79
REMARK Flexibility Score: inf
ROOT
ATOM      1  C   UNL A   1      31.953  28.263  25.730  1.00  0.00     0.261 C 
ENDROOT
BRANCH   1   2
ATOM      2  O   UNL A   1      30.857  27.404  25.358  1.00  0.00    -0.462 OA
BRANCH   2   3
ATOM      3  C   UNL A   1      30.492  27.474  24.045  1.00  0.00     0.331 C 
ATOM      4  O   UNL A   1      29.796  26.645  23.468  1.00  0.00    -0.250 OA
BRANCH   3   5
ATOM      5  C   UNL A   1      31.010  28.734  23.334  1.00  0.00     0.218 C 
BRANCH   5   6
ATOM      6  N   UNL A   1      32.220  28.599  22.514  1.00  0.00    -0.339 N 
ATOM      7  C   UNL A   1      33.161  27.620  22.604  1.00  0.00     0.244 C 
ATOM      8  O   UNL A   1      34.337  27.993  22.687  1.00  0.00    -0.273 OA
ATOM      9  H   UNL A   1      32.365  29.288  21.825  1.00  0.00     0.164 HD
BRANCH   7  10
ATOM     10  C   UNL A   1      32.825  26.099  22.643  1.00  0.00     0.181 C 
BRANCH  10  11
ATOM     11  N   UNL A   1      32.616  25.520  23.964  1.00  0.00    -0.342 N 
ATOM     12  C   UNL A   1      32.838  24.269  24.448  1.00  0.00     0.243 C 
ATOM     13  O   UNL A   1      32.326  24.060  25.560  1.00  0.00    -0.273 OA
ATOM     14  H   UNL A   1      32.246  26.149  24.626  1.00  0.00     0.164 HD
BRANCH  12  15
ATOM     15  C   UNL A   1      33.514  23.071  23.698  1.00  0.00     0.176 C 
BRANCH  15  16
ATOM     16  N   UNL A   1      32.640  22.480  22.693  1.00  0.00    -0.340 N 
ATOM     17  O   UNL A   1      31.704  20.930  21.377  1.00  0.00    -0.269 OA
ATOM     18  C   UNL A   1      32.233  21.195  22.456  1.00  0.00     0.251 C 
ATOM     19  H   UNL A   1      32.271  23.135  22.058  1.00  0.00     0.164 HD
BRANCH  18  20
ATOM     20  C   UNL A   1      32.406  20.109  23.444  1.00  0.00     0.040 A 
ATOM     21  C   UNL A   1      32.422  18.765  23.055  1.00  0.00     0.017 A 
ATOM     22  C   UNL A   1      32.698  20.456  24.772  1.00  0.00     0.017 A 
ATOM     23  C   UNL A   1      32.664  17.769  24.007  1.00  0.00     0.040 A 
ATOM     24  C   UNL A   1      32.940  19.459  25.720  1.00  0.00     0.040 A 
ATOM     25  C   UNL A   1      32.911  18.125  25.330  1.00  0.00     0.123 A 
ATOM     26  F   UNL A   1      33.139  17.168  26.239  1.00  0.00    -0.207 F 
ENDBRANCH  18  20
ENDBRANCH  15  16
BRANCH  15  27
ATOM     27  C   UNL A   1      34.998  23.108  23.300  1.00  0.00     0.072 C 
BRANCH  27  28
ATOM     28  C   UNL A   1      36.172  22.696  24.178  1.00  0.00    -0.020 A 
ATOM     29  C   UNL A   1      36.972  23.693  24.723  1.00  0.00     0.087 A 
ATOM     30  C   UNL A   1      36.764  21.440  24.626  1.00  0.00     0.003 A 
ATOM     31  N   UNL A   1      38.023  23.134  25.380  1.00  0.00    -0.361 N 
ATOM     32  C   UNL A   1      37.955  21.769  25.294  1.00  0.00     0.046 A 
ATOM     33  C   UNL A   1      36.495  20.054  24.518  1.00  0.00     0.010 A 
ATOM     34  H   UNL A   1      38.728  23.636  25.848  1.00  0.00     0.166 HD
ATOM     35  C   UNL A   1      38.872  20.823  25.774  1.00  0.00     0.026 A 
ATOM     36  C   UNL A   1      37.439  19.093  24.923  1.00  0.00     0.001 A 
ATOM     37  C   UNL A   1      38.619  19.477  25.537  1.00  0.00     0.002 A 
ENDBRANCH  27  28
ENDBRANCH  15  27
ENDBRANCH  12  15
ENDBRANCH  10  11
BRANCH  10  38
ATOM     38  C   UNL A   1      31.937  25.494  21.548  1.00  0.00     0.101 C 
BRANCH  38  39
ATOM     39  S   UNL A   1      32.538  25.522  19.829  1.00  0.00    -0.177 SA
ATOM     40  H   UNL A   1      33.677  26.262  19.760  1.00  0.00     0.102 HD
ENDBRANCH  38  39
ENDBRANCH  10  38
ENDBRANCH   7  10
ENDBRANCH   5   6
BRANCH   5  41
ATOM     41  C   UNL A   1      29.865  29.322  22.498  1.00  0.00     0.193 C 
BRANCH  41  42
ATOM     42  O   UNL A   1      30.289  30.483  21.789  1.00  0.00    -0.394 OA
ATOM     43  H   UNL A   1      31.233  30.406  21.580  1.00  0.00     0.210 HD
ENDBRANCH  41  42
ENDBRANCH   5  41
ENDBRANCH   3   5
ENDBRANCH   2   3
ENDBRANCH   1   2
BRANCH   1  44
ATOM     44  C   UNL A   1      31.771  28.908  27.110  1.00  0.00     0.202 C 
BRANCH  44  45
ATOM     45  O   UNL A   1      32.259  30.238  27.281  1.00  0.00    -0.374 OA
BRANCH  45  46
ATOM     46  C   UNL A   1      31.732  31.242  26.423  1.00  0.00     0.202 C 
BRANCH  46  47
ATOM     47  C   UNL A   1      31.726  32.690  26.929  1.00  0.00     0.261 C 
BRANCH  47  48
ATOM     48  O   UNL A   1      33.005  33.335  26.881  1.00  0.00    -0.460 OA
BRANCH  48  49
ATOM     49  C   UNL A   1      33.400  33.904  28.046  1.00  0.00     0.338 C 
ATOM     50  O   UNL A   1      32.830  34.790  28.674  1.00  0.00    -0.246 OA
BRANCH  49  51
ATOM     51  C   UNL A   1      34.586  33.200  28.548  1.00  0.00     0.060 A 
ATOM     52  C   UNL A   1      34.416  31.942  29.138  1.00  0.00     0.016 A 
ATOM     53  C   UNL A   1      35.846  33.797  28.481  1.00  0.00     0.016 A 
ATOM     54  C   UNL A   1      35.517  31.271  29.664  1.00  0.00     0.010 A 
ATOM     55  C   UNL A   1      36.946  33.128  29.021  1.00  0.00     0.010 A 
ATOM     56  C   UNL A   1      36.785  31.869  29.626  1.00  0.00    -0.014 A 
BRANCH  56  57
ATOM     57  C   UNL A   1      37.925  31.208  30.303  1.00  0.00     0.031 A 
ATOM     58  C   UNL A   1      38.201  31.518  31.745  1.00  0.00     0.074 A 
ATOM     59  C   UNL A   1      38.694  30.338  29.626  1.00  0.00     0.049 A 
ATOM     60  N   UNL A   1      39.148  31.065  32.524  1.00  0.00    -0.248 NA
ATOM     61  C   UNL A   1      37.290  32.472  32.391  1.00  0.00     0.031 C 
ATOM     62  C   UNL A   1      38.501  29.960  28.226  1.00  0.00     0.029 A 
ATOM     63  N   UNL A   1      39.796  29.624  30.019  1.00  0.00    -0.354 N 
ATOM     64  C   UNL A   1      38.950  31.680  33.756  1.00  0.00     0.074 A 
ATOM     65  C   UNL A   1      37.815  32.567  33.603  1.00  0.00     0.031 C 
ATOM     66  C   UNL A   1      39.465  29.094  27.872  1.00  0.00     0.029 A 
ATOM     67  C   UNL A   1      40.359  28.882  29.008  1.00  0.00     0.049 A 
ATOM     68  H   UNL A   1      40.151  29.642  30.938  1.00  0.00     0.167 HD
ATOM     69  C   UNL A   1      39.649  31.511  34.906  1.00  0.00     0.034 A 
ATOM     70  C   UNL A   1      41.482  28.138  28.996  1.00  0.00     0.034 A 
ATOM     71  C   UNL A   1      40.791  30.635  35.023  1.00  0.00     0.049 A 
ATOM     72  C   UNL A   1      42.283  28.013  30.266  1.00  0.00     0.074 A 
ATOM     73  C   UNL A   1      41.551  30.350  36.144  1.00  0.00     0.029 A 
ATOM     74  N   UNL A   1      41.357  29.922  33.971  1.00  0.00    -0.354 N 
ATOM     75  N   UNL A   1      42.059  28.559  31.440  1.00  0.00    -0.248 NA
ATOM     76  C   UNL A   1      43.479  27.165  30.214  1.00  0.00     0.031 C 
ATOM     77  C   UNL A   1      42.618  29.532  35.754  1.00  0.00     0.029 A 
ATOM     78  C   UNL A   1      42.481  29.237  34.406  1.00  0.00     0.049 A 
ATOM     79  H   UNL A   1      41.008  29.905  33.050  1.00  0.00     0.167 HD
ATOM     80  C   UNL A   1      43.081  28.109  32.271  1.00  0.00     0.074 A 
ATOM     81  C   UNL A   1      43.908  27.229  31.467  1.00  0.00     0.031 C 
ATOM     82  C   UNL A   1      43.315  28.391  33.579  1.00  0.00     0.034 A 
BRANCH  69  83
ATOM     83  C   UNL A   1      39.229  32.341  36.097  1.00  0.00     0.023 A 
ATOM     84  C   UNL A   1      39.796  33.600  36.364  1.00  0.00     0.031 A 
ATOM     85  C   UNL A   1      38.288  31.840  37.015  1.00  0.00     0.131 A 
ATOM     86  C   UNL A   1      39.486  34.272  37.557  1.00  0.00     0.055 A 
ATOM     87  C   UNL A   1      37.920  32.552  38.158  1.00  0.00     0.041 A 
ATOM     88  F   UNL A   1      37.727  30.634  36.829  1.00  0.00    -0.206 F 
ATOM     89  C   UNL A   1      38.534  33.767  38.445  1.00  0.00     0.022 A 
BRANCH  86  90
ATOM     90  S   UNL A   1      40.472  35.726  38.015  1.00  0.00     0.124 S 
ATOM     91  O   UNL A   1      40.219  35.813  39.452  1.00  0.00    -0.237 OA
ATOM     92  O   UNL A   1      41.819  35.328  37.625  1.00  0.00    -0.237 OA
ATOM     93  O   UNL A   1      39.883  36.802  37.221  1.00  0.00    -0.744 OA
ENDBRANCH  86  90
ENDBRANCH  69  83
BRANCH  70  94
ATOM     94  C   UNL A   1      41.936  27.498  27.729  1.00  0.00     0.023 A 
ATOM     95  C   UNL A   1      41.896  26.107  27.552  1.00  0.00     0.031 A 
ATOM     96  C   UNL A   1      42.425  28.286  26.669  1.00  0.00     0.131 A 
ATOM     97  C   UNL A   1      42.359  25.543  26.352  1.00  0.00     0.055 A 
ATOM     98  C   UNL A   1      42.843  27.723  25.462  1.00  0.00     0.041 A 
ATOM     99  F   UNL A   1      42.481  29.622  26.787  1.00  0.00    -0.206 F 
ATOM    100  C   UNL A   1      42.819  26.342  25.302  1.00  0.00     0.022 A 
BRANCH  97 101
ATOM    101  S   UNL A   1      42.397  23.736  26.196  1.00  0.00     0.124 S 
ATOM    102  O   UNL A   1      43.243  23.357  27.323  1.00  0.00    -0.237 OA
ATOM    103  O   UNL A   1      40.984  23.392  26.310  1.00  0.00    -0.237 OA
ATOM    104  O   UNL A   1      42.984  23.520  24.875  1.00  0.00    -0.744 OA
ENDBRANCH  97 101
ENDBRANCH  70  94
BRANCH  82 105
ATOM    105  C   UNL A   1      44.509  27.723  34.218  1.00  0.00     0.023 A 
ATOM    106  C   UNL A   1      44.406  26.464  34.836  1.00  0.00     0.031 A 
ATOM    107  C   UNL A   1      45.764  28.358  34.216  1.00  0.00     0.131 A 
ATOM    108  C   UNL A   1      45.523  25.907  35.476  1.00  0.00     0.055 A 
ATOM    109  C   UNL A   1      46.886  27.770  34.800  1.00  0.00     0.041 A 
ATOM    110  F   UNL A   1      45.919  29.563  33.642  1.00  0.00    -0.206 F 
ATOM    111  C   UNL A   1      46.767  26.543  35.446  1.00  0.00     0.022 A 
BRANCH 108 112
ATOM    112  S   UNL A   1      45.308  24.380  36.431  1.00  0.00     0.124 S 
ATOM    113  O   UNL A   1      46.631  24.205  37.022  1.00  0.00    -0.237 OA
ATOM    114  O   UNL A   1      44.238  24.737  37.357  1.00  0.00    -0.237 OA
ATOM    115  O   UNL A   1      44.946  23.389  35.418  1.00  0.00    -0.744 OA
ENDBRANCH 108 112
ENDBRANCH  82 105
ENDBRANCH  56  57
ENDBRANCH  49  51
ENDBRANCH  48  49
ENDBRANCH  47  48
ENDBRANCH  46  47
ENDBRANCH  45  46
ENDBRANCH  44  45
ENDBRANCH   1  44
TORSDOF 29
ENDMDL
MODEL 2
REMARK VINA RESULT:     -10.8      1.365      6.989
REMARK SMILES O=C(N[C@@H](Cc1c[nH]c2ccccc12)C(=O)N[C@@H](CS)C(=O)N[C@@H](CO)C(=O)OCCOCCOC(=O)c1ccc(-c2c3nc(c(-c4cc(S(=O)(=O)[O-])ccc4F)c4ccc([nH]4)c(-c4cc(S(=O)(=O)[O-])ccc4F)c4nc(c(-c5cc(S(=O)(=O)[O-])ccc5F)c5ccc2[nH]5)C=C4)C=C3)cc1)c1ccc(F)cc1
REMARK SMILES IDX 30 1 29 2 27 3 28 4 24 5 23 6 21 7 22 8 18 10 17 11 15 12
REMARK SMILES IDX 16 13 4 15 3 16 1 17 2 18 101 20 102 21 107 22 103 23 106 24
REMARK SMILES IDX 104 25 105 26 5 27 6 28 7 29 14 30 8 31 9 32 13 33 10 35
REMARK SMILES IDX 12 36 11 37 19 38 20 39 25 41 26 42 31 44 32 45 33 46 34 47
REMARK SMILES IDX 35 48 36 49 37 50 38 51 39 52 100 53 40 54 99 55 41 56 42 57
REMARK SMILES IDX 43 58 93 59 44 60 98 61 92 62 94 63 45 64 97 65 91 66 90 67
REMARK SMILES IDX 46 69 78 70 58 71 77 72 59 73 62 74 76 75 95 76 60 77 61 78
REMARK SMILES IDX 75 80 96 81 63 82 47 83 48 84 56 85 49 86 55 87 57 88 54 89
REMARK SMILES IDX 50 90 51 91 52 92 53 93 79 94 80 95 88 96 81 97 87 98 89 99
REMARK SMILES IDX 86 100 82 101 83 102 84 103 85 104 64 105 65 106 73 107
REMARK SMILES IDX 66 108 72 109 74 110 71 111 67 112 68 113 69 114 70 115
REMARK H PARENT 23 9 17 14 3 19 8 34 20 40 26 43 94 68 62 79
REMARK Flexibility Score: inf
ROOT
ATOM      1  C   UNL A   1      31.975  27.807  25.766  1.00  0.00     0.261 C 
ENDROOT
BRANCH   1   2
ATOM      2  O   UNL A   1      30.971  26.989  25.134  1.00  0.00    -0.462 OA
BRANCH   2   3
ATOM      3  C   UNL A   1      30.907  27.106  23.776  1.00  0.00     0.331 C 
ATOM      4  O   UNL A   1      30.395  26.281  23.026  1.00  0.00    -0.250 OA
BRANCH   3   5
ATOM      5  C   UNL A   1      31.513  28.416  23.247  1.00  0.00     0.218 C 
BRANCH   5   6
ATOM      6  N   UNL A   1      32.472  28.319  22.140  1.00  0.00    -0.339 N 
ATOM      7  C   UNL A   1      33.574  27.523  22.084  1.00  0.00     0.244 C 
ATOM      8  O   UNL A   1      34.638  28.076  21.779  1.00  0.00    -0.273 OA
ATOM      9  H   UNL A   1      32.299  28.890  21.356  1.00  0.00     0.164 HD
BRANCH   7  10
ATOM     10  C   UNL A   1      33.557  26.001  22.413  1.00  0.00     0.181 C 
BRANCH  10  11
ATOM     11  N   UNL A   1      33.365  25.647  23.815  1.00  0.00    -0.342 N 
ATOM     12  C   UNL A   1      33.409  24.451  24.459  1.00  0.00     0.243 C 
ATOM     13  O   UNL A   1      32.965  24.486  25.619  1.00  0.00    -0.273 OA
ATOM     14  H   UNL A   1      33.167  26.414  24.400  1.00  0.00     0.164 HD
BRANCH  12  15
ATOM     15  C   UNL A   1      33.801  23.062  23.850  1.00  0.00     0.176 C 
BRANCH  15  16
ATOM     16  N   UNL A   1      32.759  22.516  22.991  1.00  0.00    -0.340 N 
ATOM     17  O   UNL A   1      31.580  21.022  21.813  1.00  0.00    -0.269 OA
ATOM     18  C   UNL A   1      32.288  21.246  22.794  1.00  0.00     0.251 C 
ATOM     19  H   UNL A   1      32.303  23.196  22.444  1.00  0.00     0.164 HD
BRANCH  18  20
ATOM     20  C   UNL A   1      32.599  20.129  23.711  1.00  0.00     0.040 A 
ATOM     21  C   UNL A   1      32.784  20.341  25.081  1.00  0.00     0.017 A 
ATOM     22  C   UNL A   1      32.567  18.821  23.203  1.00  0.00     0.017 A 
ATOM     23  C   UNL A   1      33.003  19.250  25.929  1.00  0.00     0.040 A 
ATOM     24  C   UNL A   1      32.785  17.735  24.053  1.00  0.00     0.040 A 
ATOM     25  C   UNL A   1      33.010  17.960  25.406  1.00  0.00     0.123 A 
ATOM     26  F   UNL A   1      33.223  16.918  26.221  1.00  0.00    -0.207 F 
ENDBRANCH  18  20
ENDBRANCH  15  16
BRANCH  15  27
ATOM     27  C   UNL A   1      35.232  22.773  23.367  1.00  0.00     0.072 C 
BRANCH  27  28
ATOM     28  C   UNL A   1      36.433  22.473  24.252  1.00  0.00    -0.020 A 
ATOM     29  C   UNL A   1      37.173  23.540  24.746  1.00  0.00     0.087 A 
ATOM     30  C   UNL A   1      37.104  21.277  24.750  1.00  0.00     0.003 A 
ATOM     31  N   UNL A   1      38.261  23.077  25.418  1.00  0.00    -0.361 N 
ATOM     32  C   UNL A   1      38.276  21.708  25.392  1.00  0.00     0.046 A 
ATOM     33  C   UNL A   1      36.921  19.873  24.705  1.00  0.00     0.010 A 
ATOM     34  H   UNL A   1      38.936  23.641  25.858  1.00  0.00     0.166 HD
ATOM     35  C   UNL A   1      39.253  20.842  25.906  1.00  0.00     0.026 A 
ATOM     36  C   UNL A   1      37.924  18.991  25.144  1.00  0.00     0.001 A 
ATOM     37  C   UNL A   1      39.082  19.473  25.730  1.00  0.00     0.002 A 
ENDBRANCH  27  28
ENDBRANCH  15  27
ENDBRANCH  12  15
ENDBRANCH  10  11
BRANCH  10  38
ATOM     38  C   UNL A   1      32.907  25.021  21.427  1.00  0.00     0.101 C 
BRANCH  38  39
ATOM     39  S   UNL A   1      32.207  25.682  19.882  1.00  0.00    -0.177 SA
ATOM     40  H   UNL A   1      30.852  25.566  19.913  1.00  0.00     0.102 HD
ENDBRANCH  38  39
ENDBRANCH  10  38
ENDBRANCH   7  10
ENDBRANCH   5   6
BRANCH   5  41
ATOM     41  C   UNL A   1      30.364  29.363  22.873  1.00  0.00     0.193 C 
BRANCH  41  42
ATOM     42  O   UNL A   1      29.131  28.923  23.437  1.00  0.00    -0.394 OA
ATOM     43  H   UNL A   1      28.434  28.967  22.764  1.00  0.00     0.210 HD
ENDBRANCH  41  42
ENDBRANCH   5  41
ENDBRANCH   3   5
ENDBRANCH   2   3
ENDBRANCH   1   2
BRANCH   1  44
ATOM     44  C   UNL A   1      31.491  28.455  27.070  1.00  0.00     0.202 C 
BRANCH  44  45
ATOM     45  O   UNL A   1      31.972  29.764  27.368  1.00  0.00    -0.374 OA
BRANCH  45  46
ATOM     46  C   UNL A   1      31.787  30.770  26.380  1.00  0.00     0.202 C 
BRANCH  46  47
ATOM     47  C   UNL A   1      31.701  32.229  26.844  1.00  0.00     0.261 C 
BRANCH  47  48
ATOM     48  O   UNL A   1      32.940  32.945  26.765  1.00  0.00    -0.460 OA
BRANCH  48  49
ATOM     49  C   UNL A   1      33.271  33.635  27.884  1.00  0.00     0.338 C 
ATOM     50  O   UNL A   1      32.629  34.528  28.427  1.00  0.00    -0.246 OA
BRANCH  49  51
ATOM     51  C   UNL A   1      34.492  33.059  28.461  1.00  0.00     0.060 A 
ATOM     52  C   UNL A   1      34.429  31.773  29.010  1.00  0.00     0.016 A 
ATOM     53  C   UNL A   1      35.674  33.800  28.503  1.00  0.00     0.016 A 
ATOM     54  C   UNL A   1      35.560  31.220  29.605  1.00  0.00     0.010 A 
ATOM     55  C   UNL A   1      36.802  33.248  29.112  1.00  0.00     0.010 A 
ATOM     56  C   UNL A   1      36.747  31.961  29.677  1.00  0.00    -0.014 A 
BRANCH  56  57
ATOM     57  C   UNL A   1      37.904  31.418  30.425  1.00  0.00     0.031 A 
ATOM     58  C   UNL A   1      38.828  30.449  29.746  1.00  0.00     0.074 A 
ATOM     59  C   UNL A   1      38.120  31.799  31.696  1.00  0.00     0.049 A 
ATOM     60  N   UNL A   1      39.887  29.845  30.214  1.00  0.00    -0.248 NA
ATOM     61  C   UNL A   1      38.505  30.113  28.352  1.00  0.00     0.031 C 
ATOM     62  C   UNL A   1      37.289  32.744  32.441  1.00  0.00     0.029 A 
ATOM     63  N   UNL A   1      39.094  31.431  32.587  1.00  0.00    -0.354 N 
ATOM     64  C   UNL A   1      40.362  29.053  29.174  1.00  0.00     0.074 A 
ATOM     65  C   UNL A   1      39.447  29.227  28.065  1.00  0.00     0.031 C 
ATOM     66  C   UNL A   1      37.781  32.870  33.686  1.00  0.00     0.029 A 
ATOM     67  C   UNL A   1      38.940  31.991  33.833  1.00  0.00     0.049 A 
ATOM     68  H   UNL A   1      39.834  30.822  32.357  1.00  0.00     0.167 HD
ATOM     69  C   UNL A   1      41.463  28.262  29.150  1.00  0.00     0.034 A 
ATOM     70  C   UNL A   1      39.638  31.796  34.968  1.00  0.00     0.034 A 
ATOM     71  C   UNL A   1      42.346  28.090  30.281  1.00  0.00     0.049 A 
ATOM     72  C   UNL A   1      40.820  30.863  34.941  1.00  0.00     0.074 A 
ATOM     73  C   UNL A   1      43.512  27.350  30.362  1.00  0.00     0.029 A 
ATOM     74  N   UNL A   1      42.142  28.646  31.540  1.00  0.00    -0.354 N 
ATOM     75  N   UNL A   1      41.291  30.156  33.938  1.00  0.00    -0.248 NA
ATOM     76  C   UNL A   1      41.571  30.708  36.192  1.00  0.00     0.031 C 
ATOM     77  C   UNL A   1      43.968  27.394  31.685  1.00  0.00     0.029 A 
ATOM     78  C   UNL A   1      43.133  28.227  32.414  1.00  0.00     0.049 A 
ATOM     79  H   UNL A   1      41.401  29.250  31.775  1.00  0.00     0.167 HD
ATOM     80  C   UNL A   1      42.403  29.482  34.435  1.00  0.00     0.074 A 
ATOM     81  C   UNL A   1      42.543  29.886  35.821  1.00  0.00     0.031 C 
ATOM     82  C   UNL A   1      43.236  28.614  33.805  1.00  0.00     0.034 A 
BRANCH  69  83
ATOM     83  C   UNL A   1      41.724  27.480  27.883  1.00  0.00     0.023 A 
ATOM     84  C   UNL A   1      41.588  26.081  27.831  1.00  0.00     0.031 A 
ATOM     85  C   UNL A   1      42.172  28.138  26.724  1.00  0.00     0.131 A 
ATOM     86  C   UNL A   1      41.981  25.381  26.679  1.00  0.00     0.055 A 
ATOM     87  C   UNL A   1      42.481  27.443  25.553  1.00  0.00     0.041 A 
ATOM     88  F   UNL A   1      42.344  29.470  26.717  1.00  0.00    -0.206 F 
ATOM     89  C   UNL A   1      42.404  26.053  25.532  1.00  0.00     0.022 A 
BRANCH  86  90
ATOM     90  S   UNL A   1      42.095  23.571  26.763  1.00  0.00     0.124 S 
ATOM     91  O   UNL A   1      43.469  23.383  27.227  1.00  0.00    -0.237 OA
ATOM     92  O   UNL A   1      41.046  23.233  27.716  1.00  0.00    -0.237 OA
ATOM     93  O   UNL A   1      41.849  23.149  25.386  1.00  0.00    -0.744 OA
ENDBRANCH  86  90
ENDBRANCH  69  83
BRANCH  70  94
ATOM     94  C   UNL A   1      39.205  32.461  36.230  1.00  0.00     0.023 A 
ATOM     95  C   UNL A   1      38.409  31.797  37.176  1.00  0.00     0.031 A 
ATOM     96  C   UNL A   1      39.589  33.788  36.503  1.00  0.00     0.131 A 
ATOM     97  C   UNL A   1      38.001  32.470  38.339  1.00  0.00     0.055 A 
ATOM     98  C   UNL A   1      39.217  34.437  37.681  1.00  0.00     0.041 A 
ATOM     99  F   UNL A   1      40.353  34.466  35.632  1.00  0.00    -0.206 F 
ATOM    100  C   UNL A   1      38.410  33.779  38.605  1.00  0.00     0.022 A 
BRANCH  97 101
ATOM    101  S   UNL A   1      36.882  31.622  39.488  1.00  0.00     0.124 S 
ATOM    102  O   UNL A   1      36.338  30.562  38.647  1.00  0.00    -0.237 OA
ATOM    103  O   UNL A   1      37.795  31.199  40.544  1.00  0.00    -0.237 OA
ATOM    104  O   UNL A   1      35.932  32.665  39.870  1.00  0.00    -0.744 OA
ENDBRANCH  97 101
ENDBRANCH  70  94
BRANCH  82 105
ATOM    105  C   UNL A   1      44.381  28.057  34.617  1.00  0.00     0.023 A 
ATOM    106  C   UNL A   1      44.310  26.786  35.215  1.00  0.00     0.031 A 
ATOM    107  C   UNL A   1      45.554  28.810  34.803  1.00  0.00     0.131 A 
ATOM    108  C   UNL A   1      45.368  26.331  36.016  1.00  0.00     0.055 A 
ATOM    109  C   UNL A   1      46.628  28.327  35.550  1.00  0.00     0.041 A 
ATOM    110  F   UNL A   1      45.674  30.032  34.257  1.00  0.00    -0.206 F 
ATOM    111  C   UNL A   1      46.534  27.085  36.172  1.00  0.00     0.022 A 
BRANCH 108 112
ATOM    112  S   UNL A   1      45.163  24.777  36.930  1.00  0.00     0.124 S 
ATOM    113  O   UNL A   1      45.241  25.230  38.316  1.00  0.00    -0.237 OA
ATOM    114  O   UNL A   1      43.852  24.320  36.481  1.00  0.00    -0.237 OA
ATOM    115  O   UNL A   1      46.291  23.963  36.481  1.00  0.00    -0.744 OA
ENDBRANCH 108 112
ENDBRANCH  82 105
ENDBRANCH  56  57
ENDBRANCH  49  51
ENDBRANCH  48  49
ENDBRANCH  47  48
ENDBRANCH  46  47
ENDBRANCH  45  46
ENDBRANCH  44  45
ENDBRANCH   1  44
TORSDOF 29
ENDMDL
MODEL 3
REMARK VINA RESULT:     -10.2      1.339      7.062
REMARK SMILES O=C(N[C@@H](Cc1c[nH]c2ccccc12)C(=O)N[C@@H](CS)C(=O)N[C@@H](CO)C(=O)OCCOCCOC(=O)c1ccc(-c2c3nc(c(-c4cc(S(=O)(=O)[O-])ccc4F)c4ccc([nH]4)c(-c4cc(S(=O)(=O)[O-])ccc4F)c4nc(c(-c5cc(S(=O)(=O)[O-])ccc5F)c5ccc2[nH]5)C=C4)C=C3)cc1)c1ccc(F)cc1
REMARK SMILES IDX 30 1 29 2 27 3 28 4 24 5 23 6 21 7 22 8 18 10 17 11 15 12
REMARK SMILES IDX 16 13 4 15 3 16 1 17 2 18 101 20 102 21 107 22 103 23 106 24
REMARK SMILES IDX 104 25 105 26 5 27 6 28 7 29 14 30 8 31 9 32 13 33 10 35
REMARK SMILES IDX 12 36 11 37 19 38 20 39 25 41 26 42 31 44 32 45 33 46 34 47
REMARK SMILES IDX 35 48 36 49 37 50 38 51 39 52 100 53 40 54 99 55 41 56 42 57
REMARK SMILES IDX 43 58 93 59 44 60 98 61 92 62 94 63 45 64 97 65 91 66 90 67
REMARK SMILES IDX 46 69 78 70 58 71 77 72 59 73 62 74 76 75 95 76 60 77 61 78
REMARK SMILES IDX 75 80 96 81 63 82 47 83 48 84 56 85 49 86 55 87 57 88 54 89
REMARK SMILES IDX 50 90 51 91 52 92 53 93 79 94 80 95 88 96 81 97 87 98 89 99
REMARK SMILES IDX 86 100 82 101 83 102 84 103 85 104 64 105 65 106 73 107
REMARK SMILES IDX 66 108 72 109 74 110 71 111 67 112 68 113 69 114 70 115
REMARK H PARENT 23 9 17 14 3 19 8 34 20 40 26 43 94 68 62 79
REMARK Flexibility Score: inf
ROOT
ATOM      1  C   UNL A   1      31.617  27.312  25.854  1.00  0.00     0.261 C 
ENDROOT
BRANCH   1   2
ATOM      2  O   UNL A   1      30.543  26.795  25.044  1.00  0.00    -0.462 OA
BRANCH   2   3
ATOM      3  C   UNL A   1      30.382  27.417  23.840  1.00  0.00     0.331 C 
ATOM      4  O   UNL A   1      29.516  27.135  23.018  1.00  0.00    -0.250 OA
BRANCH   3   5
ATOM      5  C   UNL A   1      31.380  28.562  23.607  1.00  0.00     0.218 C 
BRANCH   5   6
ATOM      6  N   UNL A   1      32.298  28.437  22.468  1.00  0.00    -0.339 N 
ATOM      7  C   UNL A   1      33.332  27.559  22.348  1.00  0.00     0.244 C 
ATOM      8  O   UNL A   1      34.428  28.040  22.033  1.00  0.00    -0.273 OA
ATOM      9  H   UNL A   1      32.151  29.051  21.713  1.00  0.00     0.164 HD
BRANCH   7  10
ATOM     10  C   UNL A   1      33.203  26.031  22.617  1.00  0.00     0.181 C 
BRANCH  10  11
ATOM     11  N   UNL A   1      33.194  25.622  24.017  1.00  0.00    -0.342 N 
ATOM     12  C   UNL A   1      33.431  24.422  24.609  1.00  0.00     0.243 C 
ATOM     13  O   UNL A   1      33.107  24.378  25.808  1.00  0.00    -0.273 OA
ATOM     14  H   UNL A   1      32.977  26.347  24.646  1.00  0.00     0.164 HD
BRANCH  12  15
ATOM     15  C   UNL A   1      33.905  23.100  23.914  1.00  0.00     0.176 C 
BRANCH  15  16
ATOM     16  N   UNL A   1      32.928  22.592  22.961  1.00  0.00    -0.340 N 
ATOM     17  O   UNL A   1      31.835  21.147  21.646  1.00  0.00    -0.269 OA
ATOM     18  C   UNL A   1      32.468  21.333  22.684  1.00  0.00     0.251 C 
ATOM     19  H   UNL A   1      32.518  23.293  22.405  1.00  0.00     0.164 HD
BRANCH  18  20
ATOM     20  C   UNL A   1      32.705  20.183  23.582  1.00  0.00     0.040 A 
ATOM     21  C   UNL A   1      33.314  20.346  24.831  1.00  0.00     0.017 A 
ATOM     22  C   UNL A   1      32.176  18.934  23.220  1.00  0.00     0.017 A 
ATOM     23  C   UNL A   1      33.454  19.247  25.686  1.00  0.00     0.040 A 
ATOM     24  C   UNL A   1      32.317  17.839  24.076  1.00  0.00     0.040 A 
ATOM     25  C   UNL A   1      32.962  18.005  25.296  1.00  0.00     0.123 A 
ATOM     26  F   UNL A   1      33.100  16.954  26.116  1.00  0.00    -0.207 F 
ENDBRANCH  18  20
ENDBRANCH  15  16
BRANCH  15  27
ATOM     27  C   UNL A   1      35.368  22.900  23.485  1.00  0.00     0.072 C 
BRANCH  27  28
ATOM     28  C   UNL A   1      36.553  22.689  24.416  1.00  0.00    -0.020 A 
ATOM     29  C   UNL A   1      37.123  23.801  25.024  1.00  0.00     0.087 A 
ATOM     30  C   UNL A   1      37.349  21.553  24.870  1.00  0.00     0.003 A 
ATOM     31  N   UNL A   1      38.228  23.430  25.724  1.00  0.00    -0.361 N 
ATOM     32  C   UNL A   1      38.422  22.079  25.608  1.00  0.00     0.046 A 
ATOM     33  C   UNL A   1      37.352  20.145  24.721  1.00  0.00     0.010 A 
ATOM     34  H   UNL A   1      38.802  24.041  26.240  1.00  0.00     0.166 HD
ATOM     35  C   UNL A   1      39.477  21.308  26.117  1.00  0.00     0.026 A 
ATOM     36  C   UNL A   1      38.439  19.366  25.156  1.00  0.00     0.001 A 
ATOM     37  C   UNL A   1      39.494  19.945  25.840  1.00  0.00     0.002 A 
ENDBRANCH  27  28
ENDBRANCH  15  27
ENDBRANCH  12  15
ENDBRANCH  10  11
BRANCH  10  38
ATOM     38  C   UNL A   1      32.307  25.177  21.711  1.00  0.00     0.101 C 
BRANCH  38  39
ATOM     39  S   UNL A   1      32.477  25.352  19.907  1.00  0.00    -0.177 SA
ATOM     40  H   UNL A   1      31.961  26.550  19.518  1.00  0.00     0.102 HD
ENDBRANCH  38  39
ENDBRANCH  10  38
ENDBRANCH   7  10
ENDBRANCH   5   6
BRANCH   5  41
ATOM     41  C   UNL A   1      30.592  29.876  23.511  1.00  0.00     0.193 C 
BRANCH  41  42
ATOM     42  O   UNL A   1      30.274  30.188  22.158  1.00  0.00    -0.394 OA
ATOM     43  H   UNL A   1      30.408  31.136  22.004  1.00  0.00     0.210 HD
ENDBRANCH  41  42
ENDBRANCH   5  41
ENDBRANCH   3   5
ENDBRANCH   2   3
ENDBRANCH   1   2
BRANCH   1  44
ATOM     44  C   UNL A   1      31.128  27.980  27.146  1.00  0.00     0.202 C 
BRANCH  44  45
ATOM     45  O   UNL A   1      31.820  29.149  27.581  1.00  0.00    -0.374 OA
BRANCH  45  46
ATOM     46  C   UNL A   1      31.946  30.217  26.650  1.00  0.00     0.202 C 
BRANCH  46  47
ATOM     47  C   UNL A   1      32.273  31.613  27.196  1.00  0.00     0.261 C 
BRANCH  47  48
ATOM     48  O   UNL A   1      33.590  32.078  26.872  1.00  0.00    -0.460 OA
BRANCH  48  49
ATOM     49  C   UNL A   1      34.077  33.031  27.703  1.00  0.00     0.338 C 
ATOM     50  O   UNL A   1      33.585  34.126  27.952  1.00  0.00    -0.246 OA
BRANCH  49  51
ATOM     51  C   UNL A   1      35.259  32.506  28.397  1.00  0.00     0.060 A 
ATOM     52  C   UNL A   1      35.150  31.285  29.071  1.00  0.00     0.016 A 
ATOM     53  C   UNL A   1      36.449  33.236  28.422  1.00  0.00     0.016 A 
ATOM     54  C   UNL A   1      36.242  30.784  29.777  1.00  0.00     0.010 A 
ATOM     55  C   UNL A   1      37.538  32.738  29.141  1.00  0.00     0.010 A 
ATOM     56  C   UNL A   1      37.435  31.517  29.832  1.00  0.00    -0.014 A 
BRANCH  56  57
ATOM     57  C   UNL A   1      38.546  31.043  30.689  1.00  0.00     0.031 A 
ATOM     58  C   UNL A   1      39.470  29.980  30.171  1.00  0.00     0.074 A 
ATOM     59  C   UNL A   1      38.719  31.568  31.914  1.00  0.00     0.049 A 
ATOM     60  N   UNL A   1      40.493  29.413  30.754  1.00  0.00    -0.248 NA
ATOM     61  C   UNL A   1      39.196  29.486  28.814  1.00  0.00     0.031 C 
ATOM     62  C   UNL A   1      37.885  32.614  32.504  1.00  0.00     0.029 A 
ATOM     63  N   UNL A   1      39.646  31.288  32.884  1.00  0.00    -0.354 N 
ATOM     64  C   UNL A   1      40.988  28.492  29.837  1.00  0.00     0.074 A 
ATOM     65  C   UNL A   1      40.125  28.552  28.676  1.00  0.00     0.031 C 
ATOM     66  C   UNL A   1      38.328  32.877  33.745  1.00  0.00     0.029 A 
ATOM     67  C   UNL A   1      39.456  31.997  34.046  1.00  0.00     0.049 A 
ATOM     68  H   UNL A   1      40.378  30.641  32.761  1.00  0.00     0.167 HD
ATOM     69  C   UNL A   1      42.068  27.680  29.956  1.00  0.00     0.034 A 
ATOM     70  C   UNL A   1      40.101  31.925  35.227  1.00  0.00     0.034 A 
ATOM     71  C   UNL A   1      42.899  27.626  31.136  1.00  0.00     0.049 A 
ATOM     72  C   UNL A   1      41.258  30.969  35.363  1.00  0.00     0.074 A 
ATOM     73  C   UNL A   1      44.040  26.876  31.356  1.00  0.00     0.029 A 
ATOM     74  N   UNL A   1      42.659  28.333  32.310  1.00  0.00    -0.354 N 
ATOM     75  N   UNL A   1      41.751  30.138  34.472  1.00  0.00    -0.248 NA
ATOM     76  C   UNL A   1      41.953  30.950  36.655  1.00  0.00     0.031 C 
ATOM     77  C   UNL A   1      44.443  27.068  32.683  1.00  0.00     0.029 A 
ATOM     78  C   UNL A   1      43.602  28.001  33.271  1.00  0.00     0.049 A 
ATOM     79  H   UNL A   1      41.926  28.977  32.439  1.00  0.00     0.167 HD
ATOM     80  C   UNL A   1      42.823  29.504  35.094  1.00  0.00     0.074 A 
ATOM     81  C   UNL A   1      42.917  30.068  36.427  1.00  0.00     0.031 C 
ATOM     82  C   UNL A   1      43.658  28.549  34.609  1.00  0.00     0.034 A 
BRANCH  69  83
ATOM     83  C   UNL A   1      42.360  26.747  28.803  1.00  0.00     0.023 A 
ATOM     84  C   UNL A   1      43.498  26.900  27.991  1.00  0.00     0.031 A 
ATOM     85  C   UNL A   1      41.455  25.722  28.474  1.00  0.00     0.131 A 
ATOM     86  C   UNL A   1      43.654  26.106  26.845  1.00  0.00     0.055 A 
ATOM     87  C   UNL A   1      41.660  24.878  27.381  1.00  0.00     0.041 A 
ATOM     88  F   UNL A   1      40.338  25.538  29.197  1.00  0.00    -0.206 F 
ATOM     89  C   UNL A   1      42.756  25.080  26.547  1.00  0.00     0.022 A 
BRANCH  86  90
ATOM     90  S   UNL A   1      44.954  26.546  25.656  1.00  0.00     0.124 S 
ATOM     91  O   UNL A   1      46.143  26.546  26.505  1.00  0.00    -0.237 OA
ATOM     92  O   UNL A   1      44.866  25.467  24.679  1.00  0.00    -0.237 OA
ATOM     93  O   UNL A   1      44.544  27.862  25.172  1.00  0.00    -0.744 OA
ENDBRANCH  86  90
ENDBRANCH  69  83
BRANCH  70  94
ATOM     94  C   UNL A   1      39.635  32.745  36.381  1.00  0.00     0.023 A 
ATOM     95  C   UNL A   1      40.172  34.014  36.645  1.00  0.00     0.031 A 
ATOM     96  C   UNL A   1      38.637  32.256  37.245  1.00  0.00     0.131 A 
ATOM     97  C   UNL A   1      39.723  34.742  37.760  1.00  0.00     0.055 A 
ATOM     98  C   UNL A   1      38.165  33.001  38.325  1.00  0.00     0.041 A 
ATOM     99  F   UNL A   1      38.090  31.048  37.033  1.00  0.00    -0.206 F 
ATOM    100  C   UNL A   1      38.715  34.251  38.593  1.00  0.00     0.022 A 
BRANCH  97 101
ATOM    101  S   UNL A   1      40.513  36.331  38.138  1.00  0.00     0.124 S 
ATOM    102  O   UNL A   1      39.573  36.912  39.090  1.00  0.00    -0.237 OA
ATOM    103  O   UNL A   1      41.799  35.908  38.682  1.00  0.00    -0.237 OA
ATOM    104  O   UNL A   1      40.578  36.996  36.839  1.00  0.00    -0.744 OA
ENDBRANCH  97 101
ENDBRANCH  70  94
BRANCH  82 105
ATOM    105  C   UNL A   1      44.753  28.069  35.531  1.00  0.00     0.023 A 
ATOM    106  C   UNL A   1      44.503  27.126  36.544  1.00  0.00     0.031 A 
ATOM    107  C   UNL A   1      46.062  28.566  35.400  1.00  0.00     0.131 A 
ATOM    108  C   UNL A   1      45.531  26.754  37.423  1.00  0.00     0.055 A 
ATOM    109  C   UNL A   1      47.095  28.146  36.237  1.00  0.00     0.041 A 
ATOM    110  F   UNL A   1      46.357  29.470  34.452  1.00  0.00    -0.206 F 
ATOM    111  C   UNL A   1      46.830  27.244  37.264  1.00  0.00     0.022 A 
BRANCH 108 112
ATOM    112  S   UNL A   1      45.128  25.691  38.836  1.00  0.00     0.124 S 
ATOM    113  O   UNL A   1      44.589  24.505  38.178  1.00  0.00    -0.237 OA
ATOM    114  O   UNL A   1      46.426  25.526  39.483  1.00  0.00    -0.237 OA
ATOM    115  O   UNL A   1      44.154  26.478  39.591  1.00  0.00    -0.744 OA
ENDBRANCH 108 112
ENDBRANCH  82 105
ENDBRANCH  56  57
ENDBRANCH  49  51
ENDBRANCH  48  49
ENDBRANCH  47  48
ENDBRANCH  46  47
ENDBRANCH  45  46
ENDBRANCH  44  45
ENDBRANCH   1  44
TORSDOF 29
ENDMDL
