MODEL 1
REMARK VINA RESULT:     -10.8      0.000      0.000
REMARK SMILES C[C@@H](C(=O)OCCOCCOC(=O)c1ccc(-c2c3nc(c(-c4cc(S(=O)(=O)[O-])ccc4F)c4ccc([nH]4)c(-c4cc(S(=O)(=O)[O-])ccc4F)c4nc(c(-c5cc(S(=O)(=O)[O-])ccc5F)c5ccc2[nH]5)C=C4)C=C3)cc1)c1ccc(Cc2ccco2)cc1F
REMARK SMILES IDX 8 1 7 2 6 3 5 4 3 5 4 6 2 7 1 8 77 9 78 10 88 11 79 12 87 13
REMARK SMILES IDX 89 14 80 15 81 16 82 17 83 18 86 19 84 20 85 21 9 22 10 23
REMARK SMILES IDX 11 24 12 25 13 26 14 27 15 28 76 29 16 30 75 31 17 32 18 33
REMARK SMILES IDX 19 34 69 35 20 36 74 37 68 38 70 39 21 40 73 41 67 42 66 43
REMARK SMILES IDX 22 45 54 46 34 47 53 48 35 49 38 50 52 51 71 52 36 53 37 54
REMARK SMILES IDX 51 56 72 57 39 58 23 59 24 60 32 61 25 62 31 63 33 64 30 65
REMARK SMILES IDX 26 66 27 67 28 68 29 69 55 70 56 71 64 72 57 73 63 74 65 75
REMARK SMILES IDX 62 76 58 77 59 78 60 79 61 80 40 81 41 82 49 83 42 84 48 85
REMARK SMILES IDX 50 86 47 87 43 88 44 89 45 90 46 91
REMARK H PARENT 70 44 38 55
REMARK Flexibility Score: inf
ROOT
ATOM      1  O   UNL A   1      31.478  29.665  25.679  1.00  0.00    -0.374 OA
ENDROOT
BRANCH   1   2
ATOM      2  C   UNL A   1      31.022  28.763  24.668  1.00  0.00     0.202 C 
BRANCH   2   3
ATOM      3  C   UNL A   1      32.086  28.237  23.699  1.00  0.00     0.261 C 
BRANCH   3   4
ATOM      4  O   UNL A   1      32.115  26.798  23.697  1.00  0.00    -0.463 OA
BRANCH   4   5
ATOM      5  C   UNL A   1      33.352  26.235  23.780  1.00  0.00     0.313 C 
ATOM      6  O   UNL A   1      34.153  26.473  24.676  1.00  0.00    -0.252 OA
BRANCH   5   7
ATOM      7  C   UNL A   1      33.626  25.226  22.650  1.00  0.00     0.129 C 
ATOM      8  C   UNL A   1      32.807  25.449  21.372  1.00  0.00     0.025 C 
BRANCH   7   9
ATOM      9  C   UNL A   1      33.532  23.808  23.207  1.00  0.00     0.002 A 
ATOM     10  C   UNL A   1      32.323  23.118  23.371  1.00  0.00     0.008 A 
ATOM     11  C   UNL A   1      34.697  23.199  23.690  1.00  0.00     0.127 A 
ATOM     12  C   UNL A   1      32.289  21.876  24.023  1.00  0.00     0.005 A 
ATOM     13  C   UNL A   1      34.668  21.974  24.353  1.00  0.00     0.043 A 
ATOM     14  F   UNL A   1      35.881  23.805  23.525  1.00  0.00    -0.207 F 
ATOM     15  C   UNL A   1      33.457  21.298  24.539  1.00  0.00    -0.038 A 
BRANCH  15  16
ATOM     16  C   UNL A   1      33.425  19.967  25.259  1.00  0.00     0.111 C 
BRANCH  16  17
ATOM     17  C   UNL A   1      33.643  18.777  24.386  1.00  0.00     0.108 A 
ATOM     18  C   UNL A   1      34.633  17.819  24.296  1.00  0.00     0.046 A 
ATOM     19  O   UNL A   1      32.642  18.485  23.502  1.00  0.00    -0.469 OA
ATOM     20  C   UNL A   1      34.220  16.901  23.300  1.00  0.00     0.042 A 
ATOM     21  C   UNL A   1      33.004  17.352  22.847  1.00  0.00     0.195 A 
ENDBRANCH  16  17
ENDBRANCH  15  16
ENDBRANCH   7   9
ENDBRANCH   5   7
ENDBRANCH   4   5
ENDBRANCH   3   4
ENDBRANCH   2   3
ENDBRANCH   1   2
BRANCH   1  22
ATOM     22  C   UNL A   1      30.961  30.992  25.648  1.00  0.00     0.202 C 
BRANCH  22  23
ATOM     23  C   UNL A   1      31.621  32.019  26.578  1.00  0.00     0.261 C 
BRANCH  23  24
ATOM     24  O   UNL A   1      32.867  31.553  27.123  1.00  0.00    -0.460 OA
BRANCH  24  25
ATOM     25  C   UNL A   1      33.652  32.530  27.640  1.00  0.00     0.338 C 
ATOM     26  O   UNL A   1      33.317  33.681  27.891  1.00  0.00    -0.246 OA
BRANCH  25  27
ATOM     27  C   UNL A   1      34.957  31.980  28.054  1.00  0.00     0.060 A 
ATOM     28  C   UNL A   1      35.005  30.616  28.371  1.00  0.00     0.016 A 
ATOM     29  C   UNL A   1      36.092  32.781  28.199  1.00  0.00     0.016 A 
ATOM     30  C   UNL A   1      36.172  30.058  28.884  1.00  0.00     0.010 A 
ATOM     31  C   UNL A   1      37.263  32.219  28.723  1.00  0.00     0.010 A 
ATOM     32  C   UNL A   1      37.297  30.864  29.102  1.00  0.00    -0.014 A 
BRANCH  32  33
ATOM     33  C   UNL A   1      38.440  30.317  29.876  1.00  0.00     0.031 A 
ATOM     34  C   UNL A   1      38.648  30.785  31.291  1.00  0.00     0.074 A 
ATOM     35  C   UNL A   1      39.250  29.383  29.345  1.00  0.00     0.049 A 
ATOM     36  N   UNL A   1      39.579  30.456  32.148  1.00  0.00    -0.248 NA
ATOM     37  C   UNL A   1      37.670  31.755  31.806  1.00  0.00     0.031 C 
ATOM     38  C   UNL A   1      39.116  28.815  28.005  1.00  0.00     0.029 A 
ATOM     39  N   UNL A   1      40.345  28.745  29.872  1.00  0.00    -0.354 N 
ATOM     40  C   UNL A   1      39.304  31.179  33.304  1.00  0.00     0.074 A 
ATOM     41  C   UNL A   1      38.139  31.993  33.022  1.00  0.00     0.031 C 
ATOM     42  C   UNL A   1      40.097  27.917  27.812  1.00  0.00     0.029 A 
ATOM     43  C   UNL A   1      40.948  27.871  29.000  1.00  0.00     0.049 A 
ATOM     44  H   UNL A   1      40.667  28.898  30.790  1.00  0.00     0.167 HD
ATOM     45  C   UNL A   1      39.954  31.158  34.495  1.00  0.00     0.034 A 
ATOM     46  C   UNL A   1      42.072  27.137  29.135  1.00  0.00     0.034 A 
ATOM     47  C   UNL A   1      41.120  30.350  34.757  1.00  0.00     0.049 A 
ATOM     48  C   UNL A   1      42.833  27.198  30.438  1.00  0.00     0.074 A 
ATOM     49  C   UNL A   1      41.849  30.243  35.928  1.00  0.00     0.029 A 
ATOM     50  N   UNL A   1      41.736  29.519  33.830  1.00  0.00    -0.354 N 
ATOM     51  N   UNL A   1      42.558  27.881  31.526  1.00  0.00    -0.248 NA
ATOM     52  C   UNL A   1      44.052  26.385  30.534  1.00  0.00     0.031 C 
ATOM     53  C   UNL A   1      42.946  29.407  35.688  1.00  0.00     0.029 A 
ATOM     54  C   UNL A   1      42.857  28.926  34.392  1.00  0.00     0.049 A 
ATOM     55  H   UNL A   1      41.423  29.372  32.908  1.00  0.00     0.167 HD
ATOM     56  C   UNL A   1      43.554  27.552  32.444  1.00  0.00     0.074 A 
ATOM     57  C   UNL A   1      44.426  26.603  31.786  1.00  0.00     0.031 C 
ATOM     58  C   UNL A   1      43.727  27.989  33.719  1.00  0.00     0.034 A 
BRANCH  45  59
ATOM     59  C   UNL A   1      39.446  32.081  35.577  1.00  0.00     0.023 A 
ATOM     60  C   UNL A   1      39.922  33.396  35.716  1.00  0.00     0.031 A 
ATOM     61  C   UNL A   1      38.492  31.626  36.505  1.00  0.00     0.131 A 
ATOM     62  C   UNL A   1      39.499  34.184  36.798  1.00  0.00     0.055 A 
ATOM     63  C   UNL A   1      38.015  32.441  37.533  1.00  0.00     0.041 A 
ATOM     64  F   UNL A   1      38.018  30.371  36.437  1.00  0.00    -0.206 F 
ATOM     65  C   UNL A   1      38.529  33.724  37.692  1.00  0.00     0.022 A 
BRANCH  62  66
ATOM     66  S   UNL A   1      40.335  35.765  37.102  1.00  0.00     0.124 S 
ATOM     67  O   UNL A   1      39.691  36.634  36.119  1.00  0.00    -0.237 OA
ATOM     68  O   UNL A   1      40.011  36.029  38.499  1.00  0.00    -0.237 OA
ATOM     69  O   UNL A   1      41.740  35.467  36.833  1.00  0.00    -0.744 OA
ENDBRANCH  62  66
ENDBRANCH  45  59
BRANCH  46  70
ATOM     70  C   UNL A   1      42.579  26.312  28.001  1.00  0.00     0.023 A 
ATOM     71  C   UNL A   1      42.242  24.955  27.877  1.00  0.00     0.031 A 
ATOM     72  C   UNL A   1      43.459  26.862  27.050  1.00  0.00     0.131 A 
ATOM     73  C   UNL A   1      42.817  24.181  26.856  1.00  0.00     0.055 A 
ATOM     74  C   UNL A   1      43.986  26.101  26.006  1.00  0.00     0.041 A 
ATOM     75  F   UNL A   1      43.817  28.154  27.122  1.00  0.00    -0.206 F 
ATOM     76  C   UNL A   1      43.676  24.749  25.912  1.00  0.00     0.022 A 
BRANCH  73  77
ATOM     77  S   UNL A   1      42.492  22.398  26.830  1.00  0.00     0.124 S 
ATOM     78  O   UNL A   1      42.481  22.077  28.253  1.00  0.00    -0.237 OA
ATOM     79  O   UNL A   1      41.204  22.335  26.147  1.00  0.00    -0.237 OA
ATOM     80  O   UNL A   1      43.621  21.857  26.076  1.00  0.00    -0.744 OA
ENDBRANCH  73  77
ENDBRANCH  46  70
BRANCH  58  81
ATOM     81  C   UNL A   1      44.882  27.403  34.495  1.00  0.00     0.023 A 
ATOM     82  C   UNL A   1      44.773  26.178  35.176  1.00  0.00     0.031 A 
ATOM     83  C   UNL A   1      46.110  28.087  34.557  1.00  0.00     0.131 A 
ATOM     84  C   UNL A   1      45.852  25.702  35.935  1.00  0.00     0.055 A 
ATOM     85  C   UNL A   1      47.199  27.579  35.266  1.00  0.00     0.041 A 
ATOM     86  F   UNL A   1      46.270  29.262  33.927  1.00  0.00    -0.206 F 
ATOM     87  C   UNL A   1      47.070  26.387  35.971  1.00  0.00     0.022 A 
BRANCH  84  88
ATOM     88  S   UNL A   1      45.617  24.218  36.952  1.00  0.00     0.124 S 
ATOM     89  O   UNL A   1      44.768  23.396  36.096  1.00  0.00    -0.237 OA
ATOM     90  O   UNL A   1      46.986  23.745  37.135  1.00  0.00    -0.237 OA
ATOM     91  O   UNL A   1      44.973  24.727  38.160  1.00  0.00    -0.744 OA
ENDBRANCH  84  88
ENDBRANCH  58  81
ENDBRANCH  32  33
ENDBRANCH  25  27
ENDBRANCH  24  25
ENDBRANCH  23  24
ENDBRANCH  22  23
ENDBRANCH   1  22
TORSDOF 20
ENDMDL
MODEL 2
REMARK VINA RESULT:     -10.7      2.868      8.941
REMARK SMILES C[C@@H](C(=O)OCCOCCOC(=O)c1ccc(-c2c3nc(c(-c4cc(S(=O)(=O)[O-])ccc4F)c4ccc([nH]4)c(-c4cc(S(=O)(=O)[O-])ccc4F)c4nc(c(-c5cc(S(=O)(=O)[O-])ccc5F)c5ccc2[nH]5)C=C4)C=C3)cc1)c1ccc(Cc2ccco2)cc1F
REMARK SMILES IDX 8 1 7 2 6 3 5 4 3 5 4 6 2 7 1 8 77 9 78 10 88 11 79 12 87 13
REMARK SMILES IDX 89 14 80 15 81 16 82 17 83 18 86 19 84 20 85 21 9 22 10 23
REMARK SMILES IDX 11 24 12 25 13 26 14 27 15 28 76 29 16 30 75 31 17 32 18 33
REMARK SMILES IDX 19 34 69 35 20 36 74 37 68 38 70 39 21 40 73 41 67 42 66 43
REMARK SMILES IDX 22 45 54 46 34 47 53 48 35 49 38 50 52 51 71 52 36 53 37 54
REMARK SMILES IDX 51 56 72 57 39 58 23 59 24 60 32 61 25 62 31 63 33 64 30 65
REMARK SMILES IDX 26 66 27 67 28 68 29 69 55 70 56 71 64 72 57 73 63 74 65 75
REMARK SMILES IDX 62 76 58 77 59 78 60 79 61 80 40 81 41 82 49 83 42 84 48 85
REMARK SMILES IDX 50 86 47 87 43 88 44 89 45 90 46 91
REMARK H PARENT 70 44 38 55
REMARK Flexibility Score: inf
ROOT
ATOM      1  O   UNL A   1      31.804  30.863  26.598  1.00  0.00    -0.374 OA
ENDROOT
BRANCH   1   2
ATOM      2  C   UNL A   1      33.174  30.717  26.982  1.00  0.00     0.202 C 
BRANCH   2   3
ATOM      3  C   UNL A   1      33.581  29.346  27.530  1.00  0.00     0.261 C 
BRANCH   3   4
ATOM      4  O   UNL A   1      33.539  28.345  26.496  1.00  0.00    -0.463 OA
BRANCH   4   5
ATOM      5  C   UNL A   1      32.545  27.421  26.613  1.00  0.00     0.313 C 
ATOM      6  O   UNL A   1      31.828  27.310  27.601  1.00  0.00    -0.252 OA
BRANCH   5   7
ATOM      7  C   UNL A   1      32.382  26.556  25.350  1.00  0.00     0.129 C 
ATOM      8  C   UNL A   1      33.686  26.252  24.602  1.00  0.00     0.025 C 
BRANCH   7   9
ATOM      9  C   UNL A   1      31.287  27.154  24.469  1.00  0.00     0.002 A 
ATOM     10  C   UNL A   1      31.465  28.300  23.682  1.00  0.00     0.008 A 
ATOM     11  C   UNL A   1      30.001  26.603  24.532  1.00  0.00     0.127 A 
ATOM     12  C   UNL A   1      30.381  28.882  23.008  1.00  0.00     0.005 A 
ATOM     13  C   UNL A   1      28.916  27.186  23.880  1.00  0.00     0.043 A 
ATOM     14  F   UNL A   1      29.790  25.488  25.245  1.00  0.00    -0.207 F 
ATOM     15  C   UNL A   1      29.090  28.346  23.115  1.00  0.00    -0.038 A 
BRANCH  15  16
ATOM     16  C   UNL A   1      27.913  28.979  22.406  1.00  0.00     0.111 C 
BRANCH  16  17
ATOM     17  C   UNL A   1      28.059  30.437  22.127  1.00  0.00     0.108 A 
ATOM     18  C   UNL A   1      28.257  31.181  20.980  1.00  0.00     0.046 A 
ATOM     19  O   UNL A   1      27.911  31.276  23.196  1.00  0.00    -0.469 OA
ATOM     20  C   UNL A   1      28.238  32.541  21.371  1.00  0.00     0.042 A 
ATOM     21  C   UNL A   1      28.027  32.545  22.729  1.00  0.00     0.195 A 
ENDBRANCH  16  17
ENDBRANCH  15  16
ENDBRANCH   7   9
ENDBRANCH   5   7
ENDBRANCH   4   5
ENDBRANCH   3   4
ENDBRANCH   2   3
ENDBRANCH   1   2
BRANCH   1  22
ATOM     22  C   UNL A   1      31.302  32.191  26.475  1.00  0.00     0.202 C 
BRANCH  22  23
ATOM     23  C   UNL A   1      32.276  33.336  26.784  1.00  0.00     0.261 C 
BRANCH  23  24
ATOM     24  O   UNL A   1      32.154  33.819  28.133  1.00  0.00    -0.460 OA
BRANCH  24  25
ATOM     25  C   UNL A   1      33.161  34.636  28.527  1.00  0.00     0.338 C 
ATOM     26  O   UNL A   1      33.097  35.847  28.697  1.00  0.00    -0.246 OA
BRANCH  25  27
ATOM     27  C   UNL A   1      34.343  33.845  28.922  1.00  0.00     0.060 A 
ATOM     28  C   UNL A   1      34.119  32.712  29.713  1.00  0.00     0.016 A 
ATOM     29  C   UNL A   1      35.644  34.232  28.591  1.00  0.00     0.016 A 
ATOM     30  C   UNL A   1      35.195  31.989  30.221  1.00  0.00     0.010 A 
ATOM     31  C   UNL A   1      36.725  33.509  29.110  1.00  0.00     0.010 A 
ATOM     32  C   UNL A   1      36.506  32.407  29.957  1.00  0.00    -0.014 A 
BRANCH  32  33
ATOM     33  C   UNL A   1      37.629  31.784  30.703  1.00  0.00     0.031 A 
ATOM     34  C   UNL A   1      38.462  30.736  30.016  1.00  0.00     0.074 A 
ATOM     35  C   UNL A   1      37.932  32.180  31.953  1.00  0.00     0.049 A 
ATOM     36  N   UNL A   1      39.478  30.050  30.471  1.00  0.00    -0.248 NA
ATOM     37  C   UNL A   1      38.096  30.420  28.627  1.00  0.00     0.031 C 
ATOM     38  C   UNL A   1      37.230  33.222  32.700  1.00  0.00     0.029 A 
ATOM     39  N   UNL A   1      38.913  31.753  32.812  1.00  0.00    -0.354 N 
ATOM     40  C   UNL A   1      39.875  29.220  29.428  1.00  0.00     0.074 A 
ATOM     41  C   UNL A   1      38.961  29.463  28.330  1.00  0.00     0.031 C 
ATOM     42  C   UNL A   1      37.800  33.348  33.911  1.00  0.00     0.029 A 
ATOM     43  C   UNL A   1      38.883  32.374  34.038  1.00  0.00     0.049 A 
ATOM     44  H   UNL A   1      39.578  31.067  32.572  1.00  0.00     0.167 HD
ATOM     45  C   UNL A   1      40.911  28.346  29.385  1.00  0.00     0.034 A 
ATOM     46  C   UNL A   1      39.627  32.163  35.144  1.00  0.00     0.034 A 
ATOM     47  C   UNL A   1      41.805  28.107  30.491  1.00  0.00     0.049 A 
ATOM     48  C   UNL A   1      40.717  31.118  35.103  1.00  0.00     0.074 A 
ATOM     49  C   UNL A   1      42.892  27.253  30.553  1.00  0.00     0.029 A 
ATOM     50  N   UNL A   1      41.708  28.714  31.737  1.00  0.00    -0.354 N 
ATOM     51  N   UNL A   1      41.086  30.345  34.107  1.00  0.00    -0.248 NA
ATOM     52  C   UNL A   1      41.495  30.925  36.333  1.00  0.00     0.031 C 
ATOM     53  C   UNL A   1      43.407  27.289  31.854  1.00  0.00     0.029 A 
ATOM     54  C   UNL A   1      42.693  28.226  32.583  1.00  0.00     0.049 A 
ATOM     55  H   UNL A   1      41.039  29.393  31.984  1.00  0.00     0.167 HD
ATOM     56  C   UNL A   1      42.160  29.596  34.585  1.00  0.00     0.074 A 
ATOM     57  C   UNL A   1      42.385  30.021  35.950  1.00  0.00     0.031 C 
ATOM     58  C   UNL A   1      42.898  28.649  33.949  1.00  0.00     0.034 A 
BRANCH  45  59
ATOM     59  C   UNL A   1      41.088  27.546  28.116  1.00  0.00     0.023 A 
ATOM     60  C   UNL A   1      40.741  26.185  28.041  1.00  0.00     0.031 A 
ATOM     61  C   UNL A   1      41.643  28.147  26.972  1.00  0.00     0.131 A 
ATOM     62  C   UNL A   1      41.019  25.455  26.875  1.00  0.00     0.055 A 
ATOM     63  C   UNL A   1      41.845  27.434  25.789  1.00  0.00     0.041 A 
ATOM     64  F   UNL A   1      42.017  29.436  26.992  1.00  0.00    -0.206 F 
ATOM     65  C   UNL A   1      41.545  26.077  25.740  1.00  0.00     0.022 A 
BRANCH  62  66
ATOM     66  S   UNL A   1      40.815  23.653  26.909  1.00  0.00     0.124 S 
ATOM     67  O   UNL A   1      41.353  23.319  28.226  1.00  0.00    -0.237 OA
ATOM     68  O   UNL A   1      39.374  23.495  26.749  1.00  0.00    -0.237 OA
ATOM     69  O   UNL A   1      41.622  23.195  25.780  1.00  0.00    -0.744 OA
ENDBRANCH  62  66
ENDBRANCH  45  59
BRANCH  46  70
ATOM     70  C   UNL A   1      39.349  32.919  36.399  1.00  0.00     0.023 A 
ATOM     71  C   UNL A   1      39.988  34.138  36.673  1.00  0.00     0.031 A 
ATOM     72  C   UNL A   1      38.476  32.398  37.372  1.00  0.00     0.131 A 
ATOM     73  C   UNL A   1      39.781  34.773  37.908  1.00  0.00     0.055 A 
ATOM     74  C   UNL A   1      38.234  33.060  38.576  1.00  0.00     0.041 A 
ATOM     75  F   UNL A   1      37.841  31.234  37.162  1.00  0.00    -0.206 F 
ATOM     76  C   UNL A   1      38.898  34.249  38.855  1.00  0.00     0.022 A 
BRANCH  73  77
ATOM     77  S   UNL A   1      40.752  36.255  38.296  1.00  0.00     0.124 S 
ATOM     78  O   UNL A   1      39.705  37.252  38.497  1.00  0.00    -0.237 OA
ATOM     79  O   UNL A   1      41.478  35.838  39.490  1.00  0.00    -0.237 OA
ATOM     80  O   UNL A   1      41.575  36.445  37.104  1.00  0.00    -0.744 OA
ENDBRANCH  73  77
ENDBRANCH  46  70
BRANCH  58  81
ATOM     81  C   UNL A   1      44.049  28.045  34.719  1.00  0.00     0.023 A 
ATOM     82  C   UNL A   1      43.898  26.875  35.483  1.00  0.00     0.031 A 
ATOM     83  C   UNL A   1      45.315  28.658  34.690  1.00  0.00     0.131 A 
ATOM     84  C   UNL A   1      44.979  26.385  36.230  1.00  0.00     0.055 A 
ATOM     85  C   UNL A   1      46.402  28.132  35.389  1.00  0.00     0.041 A 
ATOM     86  F   UNL A   1      45.516  29.779  33.979  1.00  0.00    -0.206 F 
ATOM     87  C   UNL A   1      46.234  26.996  36.176  1.00  0.00     0.022 A 
BRANCH  84  88
ATOM     88  S   UNL A   1      44.701  24.984  37.351  1.00  0.00     0.124 S 
ATOM     89  O   UNL A   1      43.327  25.211  37.784  1.00  0.00    -0.237 OA
ATOM     90  O   UNL A   1      44.912  23.836  36.474  1.00  0.00    -0.237 OA
ATOM     91  O   UNL A   1      45.716  25.166  38.386  1.00  0.00    -0.744 OA
ENDBRANCH  84  88
ENDBRANCH  58  81
ENDBRANCH  32  33
ENDBRANCH  25  27
ENDBRANCH  24  25
ENDBRANCH  23  24
ENDBRANCH  22  23
ENDBRANCH   1  22
TORSDOF 20
ENDMDL
MODEL 3
REMARK VINA RESULT:     -10.7      1.056      7.827
REMARK SMILES C[C@@H](C(=O)OCCOCCOC(=O)c1ccc(-c2c3nc(c(-c4cc(S(=O)(=O)[O-])ccc4F)c4ccc([nH]4)c(-c4cc(S(=O)(=O)[O-])ccc4F)c4nc(c(-c5cc(S(=O)(=O)[O-])ccc5F)c5ccc2[nH]5)C=C4)C=C3)cc1)c1ccc(Cc2ccco2)cc1F
REMARK SMILES IDX 8 1 7 2 6 3 5 4 3 5 4 6 2 7 1 8 77 9 78 10 88 11 79 12 87 13
REMARK SMILES IDX 89 14 80 15 81 16 82 17 83 18 86 19 84 20 85 21 9 22 10 23
REMARK SMILES IDX 11 24 12 25 13 26 14 27 15 28 76 29 16 30 75 31 17 32 18 33
REMARK SMILES IDX 19 34 69 35 20 36 74 37 68 38 70 39 21 40 73 41 67 42 66 43
REMARK SMILES IDX 22 45 54 46 34 47 53 48 35 49 38 50 52 51 71 52 36 53 37 54
REMARK SMILES IDX 51 56 72 57 39 58 23 59 24 60 32 61 25 62 31 63 33 64 30 65
REMARK SMILES IDX 26 66 27 67 28 68 29 69 55 70 56 71 64 72 57 73 63 74 65 75
REMARK SMILES IDX 62 76 58 77 59 78 60 79 61 80 40 81 41 82 49 83 42 84 48 85
REMARK SMILES IDX 50 86 47 87 43 88 44 89 45 90 46 91
REMARK H PARENT 70 44 38 55
REMARK Flexibility Score: inf
ROOT
ATOM      1  O   UNL A   1      32.912  29.778  25.391  1.00  0.00    -0.374 OA
ENDROOT
BRANCH   1   2
ATOM      2  C   UNL A   1      32.953  28.701  24.452  1.00  0.00     0.202 C 
BRANCH   2   3
ATOM      3  C   UNL A   1      33.487  27.365  24.977  1.00  0.00     0.261 C 
BRANCH   3   4
ATOM      4  O   UNL A   1      33.484  26.366  23.940  1.00  0.00    -0.463 OA
BRANCH   4   5
ATOM      5  C   UNL A   1      34.154  25.216  24.230  1.00  0.00     0.313 C 
ATOM      6  O   UNL A   1      34.729  25.009  25.293  1.00  0.00    -0.252 OA
BRANCH   5   7
ATOM      7  C   UNL A   1      34.075  24.177  23.098  1.00  0.00     0.129 C 
ATOM      8  C   UNL A   1      33.196  24.583  21.908  1.00  0.00     0.025 C 
BRANCH   7   9
ATOM      9  C   UNL A   1      33.725  22.814  23.690  1.00  0.00     0.002 A 
ATOM     10  C   UNL A   1      32.412  22.342  23.830  1.00  0.00     0.008 A 
ATOM     11  C   UNL A   1      34.755  22.033  24.230  1.00  0.00     0.127 A 
ATOM     12  C   UNL A   1      32.149  21.146  24.513  1.00  0.00     0.005 A 
ATOM     13  C   UNL A   1      34.499  20.852  24.924  1.00  0.00     0.043 A 
ATOM     14  F   UNL A   1      36.029  22.426  24.090  1.00  0.00    -0.207 F 
ATOM     15  C   UNL A   1      33.186  20.397  25.086  1.00  0.00    -0.038 A 
BRANCH  15  16
ATOM     16  C   UNL A   1      32.908  19.115  25.840  1.00  0.00     0.111 C 
BRANCH  16  17
ATOM     17  C   UNL A   1      33.219  17.865  25.087  1.00  0.00     0.108 A 
ATOM     18  C   UNL A   1      33.777  17.599  23.852  1.00  0.00     0.046 A 
ATOM     19  O   UNL A   1      32.977  16.689  25.741  1.00  0.00    -0.469 OA
ATOM     20  C   UNL A   1      33.872  16.191  23.743  1.00  0.00     0.042 A 
ATOM     21  C   UNL A   1      33.371  15.684  24.917  1.00  0.00     0.195 A 
ENDBRANCH  16  17
ENDBRANCH  15  16
ENDBRANCH   7   9
ENDBRANCH   5   7
ENDBRANCH   4   5
ENDBRANCH   3   4
ENDBRANCH   2   3
ENDBRANCH   1   2
BRANCH   1  22
ATOM     22  C   UNL A   1      31.627  30.268  25.764  1.00  0.00     0.202 C 
BRANCH  22  23
ATOM     23  C   UNL A   1      31.526  31.756  26.123  1.00  0.00     0.261 C 
BRANCH  23  24
ATOM     24  O   UNL A   1      31.966  32.034  27.463  1.00  0.00    -0.460 OA
BRANCH  24  25
ATOM     25  C   UNL A   1      32.867  33.043  27.558  1.00  0.00     0.338 C 
ATOM     26  O   UNL A   1      32.639  34.240  27.450  1.00  0.00    -0.246 OA
BRANCH  25  27
ATOM     27  C   UNL A   1      34.175  32.525  28.005  1.00  0.00     0.060 A 
ATOM     28  C   UNL A   1      34.232  31.182  28.396  1.00  0.00     0.016 A 
ATOM     29  C   UNL A   1      35.304  33.342  28.109  1.00  0.00     0.016 A 
ATOM     30  C   UNL A   1      35.402  30.661  28.942  1.00  0.00     0.010 A 
ATOM     31  C   UNL A   1      36.477  32.818  28.667  1.00  0.00     0.010 A 
ATOM     32  C   UNL A   1      36.520  31.486  29.119  1.00  0.00    -0.014 A 
BRANCH  32  33
ATOM     33  C   UNL A   1      37.665  30.991  29.925  1.00  0.00     0.031 A 
ATOM     34  C   UNL A   1      38.593  29.974  29.316  1.00  0.00     0.074 A 
ATOM     35  C   UNL A   1      37.904  31.475  31.157  1.00  0.00     0.049 A 
ATOM     36  N   UNL A   1      39.645  29.394  29.832  1.00  0.00    -0.248 NA
ATOM     37  C   UNL A   1      38.290  29.558  27.938  1.00  0.00     0.031 C 
ATOM     38  C   UNL A   1      37.105  32.498  31.830  1.00  0.00     0.029 A 
ATOM     39  N   UNL A   1      38.890  31.170  32.062  1.00  0.00    -0.354 N 
ATOM     40  C   UNL A   1      40.131  28.542  28.845  1.00  0.00     0.074 A 
ATOM     41  C   UNL A   1      39.233  28.655  27.715  1.00  0.00     0.031 C 
ATOM     42  C   UNL A   1      37.631  32.731  33.045  1.00  0.00     0.029 A 
ATOM     43  C   UNL A   1      38.779  31.851  33.250  1.00  0.00     0.049 A 
ATOM     44  H   UNL A   1      39.610  30.525  31.876  1.00  0.00     0.167 HD
ATOM     45  C   UNL A   1      41.230  27.748  28.875  1.00  0.00     0.034 A 
ATOM     46  C   UNL A   1      39.507  31.757  34.383  1.00  0.00     0.034 A 
ATOM     47  C   UNL A   1      42.110  27.637  30.013  1.00  0.00     0.049 A 
ATOM     48  C   UNL A   1      40.672  30.798  34.425  1.00  0.00     0.074 A 
ATOM     49  C   UNL A   1      43.256  26.874  30.147  1.00  0.00     0.029 A 
ATOM     50  N   UNL A   1      41.933  28.301  31.221  1.00  0.00    -0.354 N 
ATOM     51  N   UNL A   1      41.126  30.003  33.483  1.00  0.00    -0.248 NA
ATOM     52  C   UNL A   1      41.429  30.729  35.682  1.00  0.00     0.031 C 
ATOM     53  C   UNL A   1      43.730  27.018  31.456  1.00  0.00     0.029 A 
ATOM     54  C   UNL A   1      42.928  27.935  32.116  1.00  0.00     0.049 A 
ATOM     55  H   UNL A   1      41.208  28.938  31.414  1.00  0.00     0.167 HD
ATOM     56  C   UNL A   1      42.239  29.365  34.026  1.00  0.00     0.074 A 
ATOM     57  C   UNL A   1      42.394  29.877  35.371  1.00  0.00     0.031 C 
ATOM     58  C   UNL A   1      43.063  28.444  33.461  1.00  0.00     0.034 A 
BRANCH  45  59
ATOM     59  C   UNL A   1      41.502  26.897  27.657  1.00  0.00     0.023 A 
ATOM     60  C   UNL A   1      41.168  25.533  27.613  1.00  0.00     0.031 A 
ATOM     61  C   UNL A   1      42.136  27.455  26.531  1.00  0.00     0.131 A 
ATOM     62  C   UNL A   1      41.531  24.757  26.502  1.00  0.00     0.055 A 
ATOM     63  C   UNL A   1      42.425  26.695  25.396  1.00  0.00     0.041 A 
ATOM     64  F   UNL A   1      42.501  28.746  26.524  1.00  0.00    -0.206 F 
ATOM     65  C   UNL A   1      42.135  25.335  25.382  1.00  0.00     0.022 A 
BRANCH  62  66
ATOM     66  S   UNL A   1      41.333  22.956  26.596  1.00  0.00     0.124 S 
ATOM     67  O   UNL A   1      42.106  22.514  25.437  1.00  0.00    -0.237 OA
ATOM     68  O   UNL A   1      41.903  22.644  27.901  1.00  0.00    -0.237 OA
ATOM     69  O   UNL A   1      39.889  22.763  26.482  1.00  0.00    -0.744 OA
ENDBRANCH  62  66
ENDBRANCH  45  59
BRANCH  46  70
ATOM     70  C   UNL A   1      39.138  32.555  35.588  1.00  0.00     0.023 A 
ATOM     71  C   UNL A   1      39.617  33.861  35.772  1.00  0.00     0.031 A 
ATOM     72  C   UNL A   1      38.342  31.995  36.604  1.00  0.00     0.131 A 
ATOM     73  C   UNL A   1      39.335  34.548  36.964  1.00  0.00     0.055 A 
ATOM     74  C   UNL A   1      38.021  32.701  37.764  1.00  0.00     0.041 A 
ATOM     75  F   UNL A   1      37.859  30.748  36.480  1.00  0.00    -0.206 F 
ATOM     76  C   UNL A   1      38.529  33.981  37.955  1.00  0.00     0.022 A 
BRANCH  73  77
ATOM     77  S   UNL A   1      40.110  36.164  37.240  1.00  0.00     0.124 S 
ATOM     78  O   UNL A   1      39.267  36.721  38.294  1.00  0.00    -0.237 OA
ATOM     79  O   UNL A   1      41.463  35.788  37.633  1.00  0.00    -0.237 OA
ATOM     80  O   UNL A   1      40.000  36.820  35.940  1.00  0.00    -0.744 OA
ENDBRANCH  73  77
ENDBRANCH  46  70
BRANCH  58  81
ATOM     81  C   UNL A   1      44.234  27.971  34.289  1.00  0.00     0.023 A 
ATOM     82  C   UNL A   1      44.147  26.842  35.121  1.00  0.00     0.031 A 
ATOM     83  C   UNL A   1      45.455  28.670  34.248  1.00  0.00     0.131 A 
ATOM     84  C   UNL A   1      45.242  26.476  35.919  1.00  0.00     0.055 A 
ATOM     85  C   UNL A   1      46.559  28.266  35.000  1.00  0.00     0.041 A 
ATOM     86  F   UNL A   1      45.594  29.757  33.473  1.00  0.00    -0.206 F 
ATOM     87  C   UNL A   1      46.451  27.171  35.852  1.00  0.00     0.022 A 
BRANCH  84  88
ATOM     88  S   UNL A   1      45.035  25.129  37.118  1.00  0.00     0.124 S 
ATOM     89  O   UNL A   1      43.737  25.443  37.706  1.00  0.00    -0.237 OA
ATOM     90  O   UNL A   1      45.080  23.944  36.268  1.00  0.00    -0.237 OA
ATOM     91  O   UNL A   1      46.178  25.290  38.015  1.00  0.00    -0.744 OA
ENDBRANCH  84  88
ENDBRANCH  58  81
ENDBRANCH  32  33
ENDBRANCH  25  27
ENDBRANCH  24  25
ENDBRANCH  23  24
ENDBRANCH  22  23
ENDBRANCH   1  22
TORSDOF 20
ENDMDL
