MODEL 1
REMARK VINA RESULT:     -11.1      0.000      0.000
REMARK SMILES C[C@@H](Sc1nc2ccccc2c(=O)n1N)C(=O)OCCOCCOC(=O)c1ccc(-c2c3nc(c(-c4cc(S(=O)(=O)[O-])ccc4F)c4ccc([nH]4)c(-c4cc(S(=O)(=O)[O-])ccc4F)c4nc(c(-c5cc(S(=O)(=O)[O-])ccc5F)c5ccc2[nH]5)C=C4)C=C3)cc1
REMARK SMILES IDX 21 1 20 2 19 3 18 4 16 5 17 6 2 7 1 8 3 9 4 10 5 11 14 12
REMARK SMILES IDX 6 13 12 14 7 15 11 16 13 17 8 18 10 19 9 20 15 21 22 24
REMARK SMILES IDX 23 25 24 26 25 27 26 28 27 29 28 30 89 31 29 32 88 33 30 34
REMARK SMILES IDX 31 35 32 36 82 37 33 38 87 39 81 40 83 41 34 42 86 43 80 44
REMARK SMILES IDX 79 45 35 47 67 48 47 49 66 50 48 51 51 52 65 53 84 54 49 55
REMARK SMILES IDX 50 56 64 58 85 59 52 60 36 61 37 62 45 63 38 64 44 65 46 66
REMARK SMILES IDX 43 67 39 68 40 69 41 70 42 71 68 72 69 73 77 74 70 75 76 76
REMARK SMILES IDX 78 77 75 78 71 79 72 80 73 81 74 82 53 83 54 84 62 85 55 86
REMARK SMILES IDX 61 87 63 88 60 89 56 90 57 91 58 92 59 93
REMARK H PARENT 15 22 15 23 83 46 51 57
REMARK Flexibility Score: inf
ROOT
ATOM      1  O   UNL A   1      30.864  29.647  24.448  1.00  0.00    -0.374 OA
ENDROOT
BRANCH   1   2
ATOM      2  C   UNL A   1      30.871  28.392  23.769  1.00  0.00     0.202 C 
BRANCH   2   3
ATOM      3  C   UNL A   1      30.673  27.148  24.639  1.00  0.00     0.261 C 
BRANCH   3   4
ATOM      4  O   UNL A   1      31.898  26.415  24.802  1.00  0.00    -0.462 OA
BRANCH   4   5
ATOM      5  C   UNL A   1      31.777  25.063  24.885  1.00  0.00     0.319 C 
ATOM      6  O   UNL A   1      30.817  24.473  25.373  1.00  0.00    -0.251 OA
BRANCH   5   7
ATOM      7  C   UNL A   1      32.977  24.328  24.296  1.00  0.00     0.161 C 
ATOM      8  C   UNL A   1      33.723  25.070  23.191  1.00  0.00     0.032 C 
BRANCH   7   9
ATOM      9  S   UNL A   1      34.068  23.913  25.697  1.00  0.00    -0.071 SA
BRANCH   9  10
ATOM     10  C   UNL A   1      34.334  22.212  25.420  1.00  0.00     0.191 A 
ATOM     11  N   UNL A   1      33.304  21.514  25.070  1.00  0.00    -0.222 NA
ATOM     12  N   UNL A   1      35.627  21.702  25.498  1.00  0.00    -0.202 N 
ATOM     13  C   UNL A   1      33.500  20.174  24.716  1.00  0.00     0.079 A 
ATOM     14  C   UNL A   1      35.910  20.379  25.157  1.00  0.00     0.280 A 
ATOM     15  C   UNL A   1      32.399  19.431  24.288  1.00  0.00     0.029 A 
ATOM     16  C   UNL A   1      34.758  19.570  24.720  1.00  0.00     0.068 A 
ATOM     17  O   UNL A   1      37.042  19.896  25.183  1.00  0.00    -0.267 OA
ATOM     18  C   UNL A   1      32.555  18.111  23.857  1.00  0.00     0.002 A 
ATOM     19  C   UNL A   1      34.926  18.248  24.293  1.00  0.00     0.016 A 
ATOM     20  C   UNL A   1      33.819  17.521  23.855  1.00  0.00     0.001 A 
BRANCH  12  21
ATOM     21  N   UNL A   1      36.738  22.504  25.921  1.00  0.00    -0.334 N 
ATOM     22  H   UNL A   1      36.629  23.146  26.659  1.00  0.00     0.178 HD
ATOM     23  H   UNL A   1      37.610  22.412  25.474  1.00  0.00     0.178 HD
ENDBRANCH  12  21
ENDBRANCH   9  10
ENDBRANCH   7   9
ENDBRANCH   5   7
ENDBRANCH   4   5
ENDBRANCH   3   4
ENDBRANCH   2   3
ENDBRANCH   1   2
BRANCH   1  24
ATOM     24  C   UNL A   1      31.696  29.783  25.599  1.00  0.00     0.202 C 
BRANCH  24  25
ATOM     25  C   UNL A   1      31.767  31.170  26.250  1.00  0.00     0.261 C 
BRANCH  25  26
ATOM     26  O   UNL A   1      32.545  31.174  27.462  1.00  0.00    -0.460 OA
BRANCH  26  27
ATOM     27  C   UNL A   1      33.379  32.234  27.584  1.00  0.00     0.338 C 
ATOM     28  O   UNL A   1      33.057  33.418  27.599  1.00  0.00    -0.246 OA
BRANCH  27  29
ATOM     29  C   UNL A   1      34.752  31.795  27.893  1.00  0.00     0.060 A 
ATOM     30  C   UNL A   1      34.949  30.426  28.103  1.00  0.00     0.016 A 
ATOM     31  C   UNL A   1      35.805  32.697  28.073  1.00  0.00     0.016 A 
ATOM     32  C   UNL A   1      36.179  29.958  28.558  1.00  0.00     0.010 A 
ATOM     33  C   UNL A   1      37.041  32.224  28.535  1.00  0.00     0.010 A 
ATOM     34  C   UNL A   1      37.221  30.858  28.820  1.00  0.00    -0.014 A 
BRANCH  34  35
ATOM     35  C   UNL A   1      38.422  30.359  29.540  1.00  0.00     0.031 A 
ATOM     36  C   UNL A   1      38.680  30.830  30.947  1.00  0.00     0.074 A 
ATOM     37  C   UNL A   1      39.218  29.428  28.983  1.00  0.00     0.049 A 
ATOM     38  N   UNL A   1      39.619  30.473  31.785  1.00  0.00    -0.248 NA
ATOM     39  C   UNL A   1      37.749  31.836  31.482  1.00  0.00     0.031 C 
ATOM     40  C   UNL A   1      39.050  28.871  27.641  1.00  0.00     0.029 A 
ATOM     41  N   UNL A   1      40.318  28.778  29.482  1.00  0.00    -0.354 N 
ATOM     42  C   UNL A   1      39.383  31.193  32.952  1.00  0.00     0.074 A 
ATOM     43  C   UNL A   1      38.246  32.050  32.691  1.00  0.00     0.031 C 
ATOM     44  C   UNL A   1      40.015  27.962  27.423  1.00  0.00     0.029 A 
ATOM     45  C   UNL A   1      40.883  27.888  28.598  1.00  0.00     0.049 A 
ATOM     46  H   UNL A   1      40.672  28.933  30.387  1.00  0.00     0.167 HD
ATOM     47  C   UNL A   1      40.040  31.132  34.137  1.00  0.00     0.034 A 
ATOM     48  C   UNL A   1      41.978  27.112  28.717  1.00  0.00     0.034 A 
ATOM     49  C   UNL A   1      41.188  30.293  34.379  1.00  0.00     0.049 A 
ATOM     50  C   UNL A   1      42.739  27.115  30.023  1.00  0.00     0.074 A 
ATOM     51  C   UNL A   1      41.941  30.169  35.535  1.00  0.00     0.029 A 
ATOM     52  N   UNL A   1      41.758  29.437  33.446  1.00  0.00    -0.354 N 
ATOM     53  N   UNL A   1      42.498  27.797  31.120  1.00  0.00    -0.248 NA
ATOM     54  C   UNL A   1      43.906  26.228  30.111  1.00  0.00     0.031 C 
ATOM     55  C   UNL A   1      42.998  29.287  35.281  1.00  0.00     0.029 A 
ATOM     56  C   UNL A   1      42.864  28.800  33.991  1.00  0.00     0.049 A 
ATOM     57  H   UNL A   1      41.424  29.299  32.529  1.00  0.00     0.167 HD
ATOM     58  C   UNL A   1      43.470  27.399  32.035  1.00  0.00     0.074 A 
ATOM     59  C   UNL A   1      44.281  26.400  31.369  1.00  0.00     0.031 C 
ATOM     60  C   UNL A   1      43.675  27.819  33.310  1.00  0.00     0.034 A 
BRANCH  47  61
ATOM     61  C   UNL A   1      39.547  32.033  35.245  1.00  0.00     0.023 A 
ATOM     62  C   UNL A   1      40.015  33.354  35.383  1.00  0.00     0.031 A 
ATOM     63  C   UNL A   1      38.622  31.561  36.192  1.00  0.00     0.131 A 
ATOM     64  C   UNL A   1      39.606  34.130  36.478  1.00  0.00     0.055 A 
ATOM     65  C   UNL A   1      38.161  32.365  37.236  1.00  0.00     0.041 A 
ATOM     66  F   UNL A   1      38.158  30.302  36.125  1.00  0.00    -0.206 F 
ATOM     67  C   UNL A   1      38.664  33.653  37.391  1.00  0.00     0.022 A 
BRANCH  64  68
ATOM     68  S   UNL A   1      40.422  35.724  36.765  1.00  0.00     0.124 S 
ATOM     69  O   UNL A   1      39.681  36.601  35.862  1.00  0.00    -0.237 OA
ATOM     70  O   UNL A   1      40.201  35.941  38.190  1.00  0.00    -0.237 OA
ATOM     71  O   UNL A   1      41.809  35.474  36.380  1.00  0.00    -0.744 OA
ENDBRANCH  64  68
ENDBRANCH  47  61
BRANCH  48  72
ATOM     72  C   UNL A   1      42.454  26.292  27.565  1.00  0.00     0.023 A 
ATOM     73  C   UNL A   1      42.061  24.954  27.401  1.00  0.00     0.031 A 
ATOM     74  C   UNL A   1      43.375  26.825  26.643  1.00  0.00     0.131 A 
ATOM     75  C   UNL A   1      42.625  24.179  26.375  1.00  0.00     0.055 A 
ATOM     76  C   UNL A   1      43.890  26.067  25.592  1.00  0.00     0.041 A 
ATOM     77  F   UNL A   1      43.786  28.098  26.754  1.00  0.00    -0.206 F 
ATOM     78  C   UNL A   1      43.526  24.730  25.462  1.00  0.00     0.022 A 
BRANCH  75  79
ATOM     79  S   UNL A   1      42.239  22.408  26.309  1.00  0.00     0.124 S 
ATOM     80  O   UNL A   1      43.033  21.972  25.167  1.00  0.00    -0.237 OA
ATOM     81  O   UNL A   1      42.694  21.952  27.619  1.00  0.00    -0.237 OA
ATOM     82  O   UNL A   1      40.791  22.382  26.111  1.00  0.00    -0.744 OA
ENDBRANCH  75  79
ENDBRANCH  48  72
BRANCH  60  83
ATOM     83  C   UNL A   1      44.805  27.165  34.071  1.00  0.00     0.023 A 
ATOM     84  C   UNL A   1      44.609  25.995  34.826  1.00  0.00     0.031 A 
ATOM     85  C   UNL A   1      46.088  27.739  34.066  1.00  0.00     0.131 A 
ATOM     86  C   UNL A   1      45.657  25.477  35.601  1.00  0.00     0.055 A 
ATOM     87  C   UNL A   1      47.146  27.183  34.788  1.00  0.00     0.041 A 
ATOM     88  F   UNL A   1      46.335  28.856  33.363  1.00  0.00    -0.206 F 
ATOM     89  C   UNL A   1      46.929  26.055  35.574  1.00  0.00     0.022 A 
BRANCH  86  90
ATOM     90  S   UNL A   1      45.308  24.101  36.731  1.00  0.00     0.124 S 
ATOM     91  O   UNL A   1      46.650  23.640  37.070  1.00  0.00    -0.237 OA
ATOM     92  O   UNL A   1      44.569  24.760  37.803  1.00  0.00    -0.237 OA
ATOM     93  O   UNL A   1      44.522  23.178  35.915  1.00  0.00    -0.744 OA
ENDBRANCH  86  90
ENDBRANCH  60  83
ENDBRANCH  34  35
ENDBRANCH  27  29
ENDBRANCH  26  27
ENDBRANCH  25  26
ENDBRANCH  24  25
ENDBRANCH   1  24
TORSDOF 20
ENDMDL
MODEL 2
REMARK VINA RESULT:     -11.0      4.638     10.476
REMARK SMILES C[C@@H](Sc1nc2ccccc2c(=O)n1N)C(=O)OCCOCCOC(=O)c1ccc(-c2c3nc(c(-c4cc(S(=O)(=O)[O-])ccc4F)c4ccc([nH]4)c(-c4cc(S(=O)(=O)[O-])ccc4F)c4nc(c(-c5cc(S(=O)(=O)[O-])ccc5F)c5ccc2[nH]5)C=C4)C=C3)cc1
REMARK SMILES IDX 21 1 20 2 19 3 18 4 16 5 17 6 2 7 1 8 3 9 4 10 5 11 14 12
REMARK SMILES IDX 6 13 12 14 7 15 11 16 13 17 8 18 10 19 9 20 15 21 22 24
REMARK SMILES IDX 23 25 24 26 25 27 26 28 27 29 28 30 89 31 29 32 88 33 30 34
REMARK SMILES IDX 31 35 32 36 82 37 33 38 87 39 81 40 83 41 34 42 86 43 80 44
REMARK SMILES IDX 79 45 35 47 67 48 47 49 66 50 48 51 51 52 65 53 84 54 49 55
REMARK SMILES IDX 50 56 64 58 85 59 52 60 36 61 37 62 45 63 38 64 44 65 46 66
REMARK SMILES IDX 43 67 39 68 40 69 41 70 42 71 68 72 69 73 77 74 70 75 76 76
REMARK SMILES IDX 78 77 75 78 71 79 72 80 73 81 74 82 53 83 54 84 62 85 55 86
REMARK SMILES IDX 61 87 63 88 60 89 56 90 57 91 58 92 59 93
REMARK H PARENT 15 22 15 23 83 46 51 57
REMARK Flexibility Score: inf
ROOT
ATOM      1  O   UNL A   1      35.784  21.021  25.235  1.00  0.00    -0.374 OA
ENDROOT
BRANCH   1   2
ATOM      2  C   UNL A   1      34.477  21.348  24.763  1.00  0.00     0.202 C 
BRANCH   2   3
ATOM      3  C   UNL A   1      33.319  21.071  25.725  1.00  0.00     0.261 C 
BRANCH   3   4
ATOM      4  O   UNL A   1      32.090  21.649  25.254  1.00  0.00    -0.462 OA
BRANCH   4   5
ATOM      5  C   UNL A   1      31.706  22.806  25.857  1.00  0.00     0.319 C 
ATOM      6  O   UNL A   1      31.447  22.921  27.052  1.00  0.00    -0.251 OA
BRANCH   5   7
ATOM      7  C   UNL A   1      31.626  23.978  24.885  1.00  0.00     0.161 C 
ATOM      8  C   UNL A   1      30.694  23.780  23.694  1.00  0.00     0.032 C 
BRANCH   7   9
ATOM      9  S   UNL A   1      31.170  25.440  25.874  1.00  0.00    -0.071 SA
BRANCH   9  10
ATOM     10  C   UNL A   1      30.953  26.635  24.621  1.00  0.00     0.191 A 
ATOM     11  N   UNL A   1      29.736  26.953  24.328  1.00  0.00    -0.222 NA
ATOM     12  N   UNL A   1      32.071  27.248  24.062  1.00  0.00    -0.202 N 
ATOM     13  C   UNL A   1      29.522  27.996  23.421  1.00  0.00     0.079 A 
ATOM     14  C   UNL A   1      31.947  28.300  23.153  1.00  0.00     0.280 A 
ATOM     15  C   UNL A   1      28.209  28.377  23.141  1.00  0.00     0.029 A 
ATOM     16  C   UNL A   1      30.568  28.706  22.829  1.00  0.00     0.068 A 
ATOM     17  O   UNL A   1      32.908  28.889  22.658  1.00  0.00    -0.267 OA
ATOM     18  C   UNL A   1      27.946  29.459  22.297  1.00  0.00     0.002 A 
ATOM     19  C   UNL A   1      30.317  29.789  21.980  1.00  0.00     0.016 A 
ATOM     20  C   UNL A   1      28.999  30.168  21.719  1.00  0.00     0.001 A 
BRANCH  12  21
ATOM     21  N   UNL A   1      33.407  26.842  24.391  1.00  0.00    -0.334 N 
ATOM     22  H   UNL A   1      34.139  26.990  23.750  1.00  0.00     0.178 HD
ATOM     23  H   UNL A   1      33.592  26.418  25.260  1.00  0.00     0.178 HD
ENDBRANCH  12  21
ENDBRANCH   9  10
ENDBRANCH   7   9
ENDBRANCH   5   7
ENDBRANCH   4   5
ENDBRANCH   3   4
ENDBRANCH   2   3
ENDBRANCH   1   2
BRANCH   1  24
ATOM     24  C   UNL A   1      36.318  19.746  24.879  1.00  0.00     0.202 C 
BRANCH  24  25
ATOM     25  C   UNL A   1      37.837  19.571  24.988  1.00  0.00     0.261 C 
BRANCH  25  26
ATOM     26  O   UNL A   1      38.511  20.790  25.351  1.00  0.00    -0.460 OA
BRANCH  26  27
ATOM     27  C   UNL A   1      39.618  20.609  26.110  1.00  0.00     0.338 C 
ATOM     28  O   UNL A   1      40.340  19.617  26.124  1.00  0.00    -0.246 OA
BRANCH  27  29
ATOM     29  C   UNL A   1      39.986  21.851  26.816  1.00  0.00     0.060 A 
ATOM     30  C   UNL A   1      39.371  23.032  26.386  1.00  0.00     0.016 A 
ATOM     31  C   UNL A   1      40.976  21.888  27.803  1.00  0.00     0.016 A 
ATOM     32  C   UNL A   1      39.786  24.261  26.890  1.00  0.00     0.010 A 
ATOM     33  C   UNL A   1      41.396  23.127  28.306  1.00  0.00     0.010 A 
ATOM     34  C   UNL A   1      40.832  24.322  27.822  1.00  0.00    -0.014 A 
BRANCH  34  35
ATOM     35  C   UNL A   1      41.417  25.650  28.143  1.00  0.00     0.031 A 
ATOM     36  C   UNL A   1      42.811  25.970  27.670  1.00  0.00     0.074 A 
ATOM     37  C   UNL A   1      40.682  26.591  28.762  1.00  0.00     0.049 A 
ATOM     38  N   UNL A   1      43.490  27.084  27.772  1.00  0.00    -0.248 NA
ATOM     39  C   UNL A   1      43.535  24.886  26.986  1.00  0.00     0.031 C 
ATOM     40  C   UNL A   1      39.310  26.411  29.237  1.00  0.00     0.029 A 
ATOM     41  N   UNL A   1      40.982  27.890  29.088  1.00  0.00    -0.354 N 
ATOM     42  C   UNL A   1      44.711  26.845  27.150  1.00  0.00     0.074 A 
ATOM     43  C   UNL A   1      44.700  25.461  26.726  1.00  0.00     0.031 C 
ATOM     44  C   UNL A   1      38.887  27.558  29.794  1.00  0.00     0.029 A 
ATOM     45  C   UNL A   1      39.963  28.547  29.738  1.00  0.00     0.049 A 
ATOM     46  H   UNL A   1      41.845  28.313  28.877  1.00  0.00     0.167 HD
ATOM     47  C   UNL A   1      45.738  27.704  26.934  1.00  0.00     0.034 A 
ATOM     48  C   UNL A   1      39.907  29.797  30.239  1.00  0.00     0.034 A 
ATOM     49  C   UNL A   1      45.750  29.075  27.384  1.00  0.00     0.049 A 
ATOM     50  C   UNL A   1      41.093  30.714  30.052  1.00  0.00     0.074 A 
ATOM     51  C   UNL A   1      46.746  30.026  27.236  1.00  0.00     0.029 A 
ATOM     52  N   UNL A   1      44.716  29.693  28.077  1.00  0.00    -0.354 N 
ATOM     53  N   UNL A   1      42.239  30.475  29.453  1.00  0.00    -0.248 NA
ATOM     54  C   UNL A   1      40.969  32.075  30.589  1.00  0.00     0.031 C 
ATOM     55  C   UNL A   1      46.342  31.194  27.892  1.00  0.00     0.029 A 
ATOM     56  C   UNL A   1      45.061  31.002  28.384  1.00  0.00     0.049 A 
ATOM     57  H   UNL A   1      43.862  29.264  28.315  1.00  0.00     0.167 HD
ATOM     58  C   UNL A   1      42.958  31.665  29.523  1.00  0.00     0.074 A 
ATOM     59  C   UNL A   1      42.107  32.625  30.195  1.00  0.00     0.031 C 
ATOM     60  C   UNL A   1      44.208  31.943  29.071  1.00  0.00     0.034 A 
BRANCH  47  61
ATOM     61  C   UNL A   1      46.949  27.162  26.212  1.00  0.00     0.023 A 
ATOM     62  C   UNL A   1      47.995  26.524  26.905  1.00  0.00     0.031 A 
ATOM     63  C   UNL A   1      47.075  27.308  24.819  1.00  0.00     0.131 A 
ATOM     64  C   UNL A   1      49.147  26.117  26.214  1.00  0.00     0.055 A 
ATOM     65  C   UNL A   1      48.191  26.832  24.128  1.00  0.00     0.041 A 
ATOM     66  F   UNL A   1      46.120  27.929  24.109  1.00  0.00    -0.206 F 
ATOM     67  C   UNL A   1      49.241  26.245  24.826  1.00  0.00     0.022 A 
BRANCH  64  68
ATOM     68  S   UNL A   1      50.575  25.538  27.170  1.00  0.00     0.124 S 
ATOM     69  O   UNL A   1      51.589  25.395  26.128  1.00  0.00    -0.237 OA
ATOM     70  O   UNL A   1      50.783  26.625  28.119  1.00  0.00    -0.237 OA
ATOM     71  O   UNL A   1      50.110  24.281  27.753  1.00  0.00    -0.744 OA
ENDBRANCH  64  68
ENDBRANCH  47  61
BRANCH  48  72
ATOM     72  C   UNL A   1      38.709  30.254  31.000  1.00  0.00     0.023 A 
ATOM     73  C   UNL A   1      37.655  30.938  30.373  1.00  0.00     0.031 A 
ATOM     74  C   UNL A   1      38.637  30.071  32.394  1.00  0.00     0.131 A 
ATOM     75  C   UNL A   1      36.603  31.459  31.142  1.00  0.00     0.055 A 
ATOM     76  C   UNL A   1      37.561  30.542  33.147  1.00  0.00     0.041 A 
ATOM     77  F   UNL A   1      39.618  29.425  33.045  1.00  0.00    -0.206 F 
ATOM     78  C   UNL A   1      36.543  31.255  32.523  1.00  0.00     0.022 A 
BRANCH  75  79
ATOM     79  S   UNL A   1      35.359  32.498  30.326  1.00  0.00     0.124 S 
ATOM     80  O   UNL A   1      34.360  32.648  31.377  1.00  0.00    -0.237 OA
ATOM     81  O   UNL A   1      36.132  33.692  30.000  1.00  0.00    -0.237 OA
ATOM     82  O   UNL A   1      34.944  31.694  29.179  1.00  0.00    -0.744 OA
ENDBRANCH  75  79
ENDBRANCH  48  72
BRANCH  60  83
ATOM     83  C   UNL A   1      44.707  33.357  29.265  1.00  0.00     0.023 A 
ATOM     84  C   UNL A   1      44.265  34.415  28.451  1.00  0.00     0.031 A 
ATOM     85  C   UNL A   1      45.661  33.642  30.257  1.00  0.00     0.131 A 
ATOM     86  C   UNL A   1      44.828  35.692  28.596  1.00  0.00     0.055 A 
ATOM     87  C   UNL A   1      46.171  34.928  30.440  1.00  0.00     0.041 A 
ATOM     88  F   UNL A   1      46.119  32.672  31.065  1.00  0.00    -0.206 F 
ATOM     89  C   UNL A   1      45.767  35.958  29.595  1.00  0.00     0.022 A 
BRANCH  86  90
ATOM     90  S   UNL A   1      44.398  36.975  27.387  1.00  0.00     0.124 S 
ATOM     91  O   UNL A   1      43.916  38.051  28.246  1.00  0.00    -0.237 OA
ATOM     92  O   UNL A   1      45.674  37.214  26.720  1.00  0.00    -0.237 OA
ATOM     93  O   UNL A   1      43.377  36.338  26.559  1.00  0.00    -0.744 OA
ENDBRANCH  86  90
ENDBRANCH  60  83
ENDBRANCH  34  35
ENDBRANCH  27  29
ENDBRANCH  26  27
ENDBRANCH  25  26
ENDBRANCH  24  25
ENDBRANCH   1  24
TORSDOF 20
ENDMDL
MODEL 3
REMARK VINA RESULT:     -11.0      2.342      3.792
REMARK SMILES C[C@@H](Sc1nc2ccccc2c(=O)n1N)C(=O)OCCOCCOC(=O)c1ccc(-c2c3nc(c(-c4cc(S(=O)(=O)[O-])ccc4F)c4ccc([nH]4)c(-c4cc(S(=O)(=O)[O-])ccc4F)c4nc(c(-c5cc(S(=O)(=O)[O-])ccc5F)c5ccc2[nH]5)C=C4)C=C3)cc1
REMARK SMILES IDX 21 1 20 2 19 3 18 4 16 5 17 6 2 7 1 8 3 9 4 10 5 11 14 12
REMARK SMILES IDX 6 13 12 14 7 15 11 16 13 17 8 18 10 19 9 20 15 21 22 24
REMARK SMILES IDX 23 25 24 26 25 27 26 28 27 29 28 30 89 31 29 32 88 33 30 34
REMARK SMILES IDX 31 35 32 36 82 37 33 38 87 39 81 40 83 41 34 42 86 43 80 44
REMARK SMILES IDX 79 45 35 47 67 48 47 49 66 50 48 51 51 52 65 53 84 54 49 55
REMARK SMILES IDX 50 56 64 58 85 59 52 60 36 61 37 62 45 63 38 64 44 65 46 66
REMARK SMILES IDX 43 67 39 68 40 69 41 70 42 71 68 72 69 73 77 74 70 75 76 76
REMARK SMILES IDX 78 77 75 78 71 79 72 80 73 81 74 82 53 83 54 84 62 85 55 86
REMARK SMILES IDX 61 87 63 88 60 89 56 90 57 91 58 92 59 93
REMARK H PARENT 15 22 15 23 83 46 51 57
REMARK Flexibility Score: inf
ROOT
ATOM      1  O   UNL A   1      31.907  30.402  26.845  1.00  0.00    -0.374 OA
ENDROOT
BRANCH   1   2
ATOM      2  C   UNL A   1      31.791  29.097  26.280  1.00  0.00     0.202 C 
BRANCH   2   3
ATOM      3  C   UNL A   1      31.517  27.954  27.261  1.00  0.00     0.261 C 
BRANCH   3   4
ATOM      4  O   UNL A   1      32.503  26.914  27.153  1.00  0.00    -0.462 OA
BRANCH   4   5
ATOM      5  C   UNL A   1      32.148  25.832  26.409  1.00  0.00     0.319 C 
ATOM      6  O   UNL A   1      31.189  25.103  26.645  1.00  0.00    -0.251 OA
BRANCH   5   7
ATOM      7  C   UNL A   1      33.078  25.605  25.221  1.00  0.00     0.161 C 
ATOM      8  C   UNL A   1      34.323  24.774  25.512  1.00  0.00     0.032 C 
BRANCH   7   9
ATOM      9  S   UNL A   1      32.059  24.871  23.900  1.00  0.00    -0.071 SA
BRANCH   9  10
ATOM     10  C   UNL A   1      31.119  26.251  23.398  1.00  0.00     0.191 A 
ATOM     11  N   UNL A   1      29.849  26.205  23.636  1.00  0.00    -0.222 NA
ATOM     12  N   UNL A   1      31.766  27.356  22.853  1.00  0.00    -0.202 N 
ATOM     13  C   UNL A   1      29.081  27.343  23.364  1.00  0.00     0.079 A 
ATOM     14  C   UNL A   1      31.076  28.533  22.558  1.00  0.00     0.280 A 
ATOM     15  C   UNL A   1      27.720  27.316  23.669  1.00  0.00     0.029 A 
ATOM     16  C   UNL A   1      29.632  28.520  22.854  1.00  0.00     0.068 A 
ATOM     17  O   UNL A   1      31.614  29.543  22.105  1.00  0.00    -0.267 OA
ATOM     18  C   UNL A   1      26.926  28.450  23.482  1.00  0.00     0.002 A 
ATOM     19  C   UNL A   1      28.847  29.661  22.660  1.00  0.00     0.016 A 
ATOM     20  C   UNL A   1      27.489  29.624  22.982  1.00  0.00     0.001 A 
BRANCH  12  21
ATOM     21  N   UNL A   1      33.174  27.354  22.575  1.00  0.00    -0.334 N 
ATOM     22  H   UNL A   1      33.529  27.889  21.829  1.00  0.00     0.178 HD
ATOM     23  H   UNL A   1      33.784  26.818  23.131  1.00  0.00     0.178 HD
ENDBRANCH  12  21
ENDBRANCH   9  10
ENDBRANCH   7   9
ENDBRANCH   5   7
ENDBRANCH   4   5
ENDBRANCH   3   4
ENDBRANCH   2   3
ENDBRANCH   1   2
BRANCH   1  24
ATOM     24  C   UNL A   1      31.224  31.470  26.190  1.00  0.00     0.202 C 
BRANCH  24  25
ATOM     25  C   UNL A   1      31.450  32.884  26.740  1.00  0.00     0.261 C 
BRANCH  25  26
ATOM     26  O   UNL A   1      32.840  33.258  26.752  1.00  0.00    -0.460 OA
BRANCH  26  27
ATOM     27  C   UNL A   1      33.320  33.577  27.978  1.00  0.00     0.338 C 
ATOM     28  O   UNL A   1      32.728  34.199  28.854  1.00  0.00    -0.246 OA
BRANCH  27  29
ATOM     29  C   UNL A   1      34.614  32.917  28.228  1.00  0.00     0.060 A 
ATOM     30  C   UNL A   1      34.575  31.614  28.738  1.00  0.00     0.016 A 
ATOM     31  C   UNL A   1      35.836  33.577  28.070  1.00  0.00     0.016 A 
ATOM     32  C   UNL A   1      35.747  30.989  29.152  1.00  0.00     0.010 A 
ATOM     33  C   UNL A   1      37.016  32.947  28.493  1.00  0.00     0.010 A 
ATOM     34  C   UNL A   1      36.971  31.667  29.074  1.00  0.00    -0.014 A 
BRANCH  34  35
ATOM     35  C   UNL A   1      38.153  31.075  29.755  1.00  0.00     0.031 A 
ATOM     36  C   UNL A   1      38.438  31.451  31.186  1.00  0.00     0.074 A 
ATOM     37  C   UNL A   1      38.904  30.144  29.140  1.00  0.00     0.049 A 
ATOM     38  N   UNL A   1      39.364  31.005  31.995  1.00  0.00    -0.248 NA
ATOM     39  C   UNL A   1      37.554  32.464  31.785  1.00  0.00     0.031 C 
ATOM     40  C   UNL A   1      38.705  29.674  27.769  1.00  0.00     0.029 A 
ATOM     41  N   UNL A   1      39.977  29.418  29.591  1.00  0.00    -0.354 N 
ATOM     42  C   UNL A   1      39.166  31.666  33.203  1.00  0.00     0.074 A 
ATOM     43  C   UNL A   1      38.067  32.585  33.000  1.00  0.00     0.031 C 
ATOM     44  C   UNL A   1      39.629  28.738  27.491  1.00  0.00     0.029 A 
ATOM     45  C   UNL A   1      40.497  28.557  28.653  1.00  0.00     0.049 A 
ATOM     46  H   UNL A   1      40.341  29.505  30.502  1.00  0.00     0.167 HD
ATOM     47  C   UNL A   1      39.825  31.507  34.378  1.00  0.00     0.034 A 
ATOM     48  C   UNL A   1      41.558  27.728  28.719  1.00  0.00     0.034 A 
ATOM     49  C   UNL A   1      40.936  30.605  34.563  1.00  0.00     0.049 A 
ATOM     50  C   UNL A   1      42.324  27.622  30.017  1.00  0.00     0.074 A 
ATOM     51  C   UNL A   1      41.688  30.381  35.704  1.00  0.00     0.029 A 
ATOM     52  N   UNL A   1      41.462  29.781  33.577  1.00  0.00    -0.354 N 
ATOM     53  N   UNL A   1      42.118  28.249  31.154  1.00  0.00    -0.248 NA
ATOM     54  C   UNL A   1      43.451  26.681  30.045  1.00  0.00     0.031 C 
ATOM     55  C   UNL A   1      42.703  29.471  35.391  1.00  0.00     0.029 A 
ATOM     56  C   UNL A   1      42.543  29.066  34.076  1.00  0.00     0.049 A 
ATOM     57  H   UNL A   1      41.119  29.712  32.656  1.00  0.00     0.167 HD
ATOM     58  C   UNL A   1      43.076  27.756  32.037  1.00  0.00     0.074 A 
ATOM     59  C   UNL A   1      43.839  26.763  31.309  1.00  0.00     0.031 C 
ATOM     60  C   UNL A   1      43.305  28.091  33.333  1.00  0.00     0.034 A 
BRANCH  47  61
ATOM     61  C   UNL A   1      39.377  32.362  35.540  1.00  0.00     0.023 A 
ATOM     62  C   UNL A   1      39.768  33.710  35.655  1.00  0.00     0.031 A 
ATOM     63  C   UNL A   1      38.575  31.820  36.559  1.00  0.00     0.131 A 
ATOM     64  C   UNL A   1      39.412  34.447  36.795  1.00  0.00     0.055 A 
ATOM     65  C   UNL A   1      38.160  32.582  37.653  1.00  0.00     0.041 A 
ATOM     66  F   UNL A   1      38.191  30.535  36.514  1.00  0.00    -0.206 F 
ATOM     67  C   UNL A   1      38.590  33.900  37.782  1.00  0.00     0.022 A 
BRANCH  64  68
ATOM     68  S   UNL A   1      40.144  36.089  37.032  1.00  0.00     0.124 S 
ATOM     69  O   UNL A   1      41.531  35.750  37.343  1.00  0.00    -0.237 OA
ATOM     70  O   UNL A   1      39.916  36.727  35.741  1.00  0.00    -0.237 OA
ATOM     71  O   UNL A   1      39.383  36.646  38.147  1.00  0.00    -0.744 OA
ENDBRANCH  64  68
ENDBRANCH  47  61
BRANCH  48  72
ATOM     72  C   UNL A   1      41.992  26.957  27.519  1.00  0.00     0.023 A 
ATOM     73  C   UNL A   1      41.747  25.580  27.400  1.00  0.00     0.031 A 
ATOM     74  C   UNL A   1      42.727  27.585  26.495  1.00  0.00     0.131 A 
ATOM     75  C   UNL A   1      42.276  24.865  26.314  1.00  0.00     0.055 A 
ATOM     76  C   UNL A   1      43.203  26.881  25.389  1.00  0.00     0.041 A 
ATOM     77  F   UNL A   1      42.991  28.900  26.559  1.00  0.00    -0.206 F 
ATOM     78  C   UNL A   1      42.992  25.509  25.302  1.00  0.00     0.022 A 
BRANCH  75  79
ATOM     79  S   UNL A   1      42.102  23.059  26.291  1.00  0.00     0.124 S 
ATOM     80  O   UNL A   1      42.659  22.722  24.987  1.00  0.00    -0.237 OA
ATOM     81  O   UNL A   1      42.898  22.666  27.450  1.00  0.00    -0.237 OA
ATOM     82  O   UNL A   1      40.662  22.855  26.428  1.00  0.00    -0.744 OA
ENDBRANCH  75  79
ENDBRANCH  48  72
BRANCH  60  83
ATOM     83  C   UNL A   1      44.409  27.345  34.046  1.00  0.00     0.023 A 
ATOM     84  C   UNL A   1      44.170  26.131  34.713  1.00  0.00     0.031 A 
ATOM     85  C   UNL A   1      45.711  27.874  34.087  1.00  0.00     0.131 A 
ATOM     86  C   UNL A   1      45.196  25.522  35.451  1.00  0.00     0.055 A 
ATOM     87  C   UNL A   1      46.746  27.230  34.768  1.00  0.00     0.041 A 
ATOM     88  F   UNL A   1      46.000  29.030  33.467  1.00  0.00    -0.206 F 
ATOM     89  C   UNL A   1      46.487  26.057  35.470  1.00  0.00     0.022 A 
BRANCH  86  90
ATOM     90  S   UNL A   1      44.795  24.080  36.477  1.00  0.00     0.124 S 
ATOM     91  O   UNL A   1      46.100  23.443  36.628  1.00  0.00    -0.237 OA
ATOM     92  O   UNL A   1      44.244  24.698  37.678  1.00  0.00    -0.237 OA
ATOM     93  O   UNL A   1      43.833  23.339  35.665  1.00  0.00    -0.744 OA
ENDBRANCH  86  90
ENDBRANCH  60  83
ENDBRANCH  34  35
ENDBRANCH  27  29
ENDBRANCH  26  27
ENDBRANCH  25  26
ENDBRANCH  24  25
ENDBRANCH   1  24
TORSDOF 20
ENDMDL
