MODEL 1
REMARK VINA RESULT:     -13.3      0.000      0.000
REMARK SMILES CC(=O)Nc1cnc(N2CC=C(c3ccccc3C)CC2)c(C(=O)OCCOCCOC(=O)c2ccc(-c3c4nc(c(-c5cc(S(=O)(=O)[O-])ccc5F)c5ccc([nH]5)c(-c5cc(S(=O)(=O)[O-])ccc5F)c5nc(c(-c6cc(S(=O)(=O)[O-])ccc6F)c6ccc3[nH]6)C=C5)C=C4)cc2)c1
REMARK SMILES IDX 29 1 28 2 27 3 26 4 25 5 23 6 24 7 22 8 5 9 6 10 97 11 7 12
REMARK SMILES IDX 8 13 4 14 1 15 2 16 3 17 9 19 10 20 21 21 11 22 20 23 12 24
REMARK SMILES IDX 13 25 14 26 18 27 15 28 17 29 19 30 16 31 30 32 31 33 32 34
REMARK SMILES IDX 33 35 34 36 35 37 96 38 36 39 95 40 37 41 38 42 39 43 89 44
REMARK SMILES IDX 40 45 94 46 88 47 90 48 41 49 93 50 87 51 86 52 42 54 74 55
REMARK SMILES IDX 54 56 73 57 55 58 58 59 72 60 91 61 56 62 57 63 71 65 92 66
REMARK SMILES IDX 59 67 43 68 44 69 52 70 45 71 51 72 53 73 50 74 46 75 47 76
REMARK SMILES IDX 48 77 49 78 75 79 76 80 84 81 77 82 83 83 85 84 82 85 78 86
REMARK SMILES IDX 79 87 80 88 81 89 60 90 61 91 69 92 62 93 68 94 70 95 67 96
REMARK SMILES IDX 63 97 64 98 65 99 66 100
REMARK H PARENT 4 18 90 53 58 64
REMARK Flexibility Score: inf
ROOT
ATOM      1  C   UNL A   1      32.776  30.615  27.230  1.00  0.00     0.202 C 
ENDROOT
BRANCH   1   2
ATOM      2  O   UNL A   1      33.200  30.153  25.964  1.00  0.00    -0.374 OA
BRANCH   2   3
ATOM      3  C   UNL A   1      33.950  28.943  26.049  1.00  0.00     0.202 C 
BRANCH   3   4
ATOM      4  C   UNL A   1      33.811  28.303  24.723  1.00  0.00     0.261 C 
BRANCH   4   5
ATOM      5  O   UNL A   1      32.846  29.002  23.947  1.00  0.00    -0.460 OA
BRANCH   5   6
ATOM      6  C   UNL A   1      32.533  28.544  22.708  1.00  0.00     0.342 C 
ATOM      7  O   UNL A   1      33.266  28.073  21.884  1.00  0.00    -0.246 OA
BRANCH   6   8
ATOM      8  C   UNL A   1      31.074  28.688  22.626  1.00  0.00     0.104 A 
ATOM      9  C   UNL A   1      29.234  30.061  21.894  1.00  0.00     0.060 A 
ATOM     10  C   UNL A   1      28.430  29.231  22.656  1.00  0.00     0.139 A 
ATOM     11  C   UNL A   1      30.581  29.785  21.911  1.00  0.00     0.047 A 
ATOM     12  N   UNL A   1      28.872  28.124  23.317  1.00  0.00    -0.236 NA
ATOM     13  C   UNL A   1      30.205  27.844  23.310  1.00  0.00     0.143 A 
BRANCH   9  14
ATOM     14  N   UNL A   1      28.732  31.168  21.197  1.00  0.00    -0.325 N 
ATOM     15  C   UNL A   1      28.746  32.755  23.120  1.00  0.00     0.114 C 
ATOM     16  C   UNL A   1      28.323  32.375  21.716  1.00  0.00     0.221 C 
ATOM     17  O   UNL A   1      27.726  33.176  20.993  1.00  0.00    -0.275 OA
ATOM     18  H   UNL A   1      28.665  31.071  20.219  1.00  0.00     0.169 HD
ENDBRANCH   9  14
BRANCH  13  19
ATOM     19  N   UNL A   1      30.596  26.761  24.073  1.00  0.00    -0.352 N 
ATOM     20  C   UNL A   1      30.546  26.946  25.521  1.00  0.00     0.146 C 
ATOM     21  C   UNL A   1      30.298  25.405  23.617  1.00  0.00     0.123 C 
ATOM     22  C   UNL A   1      31.377  25.865  26.170  1.00  0.00    -0.002 C 
ATOM     23  C   UNL A   1      31.394  24.465  24.108  1.00  0.00     0.057 C 
ATOM     24  C   UNL A   1      31.805  24.752  25.536  1.00  0.00    -0.041 C 
BRANCH  24  25
ATOM     25  C   UNL A   1      32.726  23.812  26.206  1.00  0.00    -0.020 A 
ATOM     26  C   UNL A   1      32.196  22.901  27.139  1.00  0.00     0.008 A 
ATOM     27  C   UNL A   1      34.120  23.815  25.975  1.00  0.00    -0.044 A 
ATOM     28  C   UNL A   1      33.024  22.019  27.836  1.00  0.00     0.001 A 
ATOM     29  C   UNL A   1      34.937  22.909  26.674  1.00  0.00     0.004 A 
ATOM     30  C   UNL A   1      34.786  24.745  24.998  1.00  0.00     0.045 C 
ATOM     31  C   UNL A   1      34.394  22.025  27.606  1.00  0.00     0.000 A 
ENDBRANCH  24  25
ENDBRANCH  13  19
ENDBRANCH   6   8
ENDBRANCH   5   6
ENDBRANCH   4   5
ENDBRANCH   3   4
ENDBRANCH   2   3
ENDBRANCH   1   2
BRANCH   1  32
ATOM     32  C   UNL A   1      33.331  32.006  27.575  1.00  0.00     0.261 C 
BRANCH  32  33
ATOM     33  O   UNL A   1      34.755  31.910  27.802  1.00  0.00    -0.460 OA
BRANCH  33  34
ATOM     34  C   UNL A   1      35.144  31.564  29.064  1.00  0.00     0.338 C 
ATOM     35  O   UNL A   1      34.853  32.171  30.080  1.00  0.00    -0.246 OA
BRANCH  34  36
ATOM     36  C   UNL A   1      36.122  30.436  29.002  1.00  0.00     0.060 A 
ATOM     37  C   UNL A   1      36.432  29.696  30.161  1.00  0.00     0.016 A 
ATOM     38  C   UNL A   1      36.926  30.318  27.871  1.00  0.00     0.016 A 
ATOM     39  C   UNL A   1      37.627  28.962  30.237  1.00  0.00     0.010 A 
ATOM     40  C   UNL A   1      38.139  29.674  27.983  1.00  0.00     0.010 A 
ATOM     41  C   UNL A   1      38.520  29.017  29.168  1.00  0.00    -0.014 A 
BRANCH  41  42
ATOM     42  C   UNL A   1      39.918  28.560  29.193  1.00  0.00     0.031 A 
ATOM     43  C   UNL A   1      40.196  27.174  28.774  1.00  0.00     0.074 A 
ATOM     44  C   UNL A   1      40.947  29.435  29.329  1.00  0.00     0.049 A 
ATOM     45  N   UNL A   1      41.281  26.541  29.044  1.00  0.00    -0.248 NA
ATOM     46  C   UNL A   1      39.240  26.345  28.044  1.00  0.00     0.031 C 
ATOM     47  C   UNL A   1      42.353  29.290  28.949  1.00  0.00     0.029 A 
ATOM     48  N   UNL A   1      40.915  30.733  29.834  1.00  0.00    -0.354 N 
ATOM     49  C   UNL A   1      41.328  25.434  28.228  1.00  0.00     0.074 A 
ATOM     50  C   UNL A   1      39.978  25.271  27.763  1.00  0.00     0.031 C 
ATOM     51  C   UNL A   1      43.077  30.290  29.493  1.00  0.00     0.029 A 
ATOM     52  C   UNL A   1      42.177  31.084  30.316  1.00  0.00     0.049 A 
ATOM     53  H   UNL A   1      40.122  31.315  29.849  1.00  0.00     0.167 HD
ATOM     54  C   UNL A   1      42.546  24.910  27.912  1.00  0.00     0.034 A 
ATOM     55  C   UNL A   1      42.299  31.468  31.613  1.00  0.00     0.034 A 
ATOM     56  C   UNL A   1      43.617  25.671  28.593  1.00  0.00     0.049 A 
ATOM     57  C   UNL A   1      43.031  30.329  32.272  1.00  0.00     0.074 A 
ATOM     58  C   UNL A   1      44.577  26.563  28.141  1.00  0.00     0.029 A 
ATOM     59  N   UNL A   1      43.575  25.830  29.983  1.00  0.00    -0.354 N 
ATOM     60  N   UNL A   1      43.001  29.106  31.798  1.00  0.00    -0.248 NA
ATOM     61  C   UNL A   1      44.024  30.509  33.322  1.00  0.00     0.031 C 
ATOM     62  C   UNL A   1      45.025  27.329  29.261  1.00  0.00     0.029 A 
ATOM     63  C   UNL A   1      44.355  26.895  30.398  1.00  0.00     0.049 A 
ATOM     64  H   UNL A   1      43.054  25.255  30.590  1.00  0.00     0.167 HD
ATOM     65  C   UNL A   1      44.065  28.419  32.291  1.00  0.00     0.074 A 
ATOM     66  C   UNL A   1      44.628  29.308  33.303  1.00  0.00     0.031 C 
ATOM     67  C   UNL A   1      44.493  27.211  31.816  1.00  0.00     0.034 A 
BRANCH  54  68
ATOM     68  C   UNL A   1      42.811  23.913  26.788  1.00  0.00     0.023 A 
ATOM     69  C   UNL A   1      42.337  22.591  26.929  1.00  0.00     0.031 A 
ATOM     70  C   UNL A   1      43.514  24.150  25.584  1.00  0.00     0.131 A 
ATOM     71  C   UNL A   1      42.610  21.594  25.969  1.00  0.00     0.055 A 
ATOM     72  C   UNL A   1      43.816  23.153  24.645  1.00  0.00     0.041 A 
ATOM     73  F   UNL A   1      43.909  25.364  25.200  1.00  0.00    -0.206 F 
ATOM     74  C   UNL A   1      43.365  21.864  24.833  1.00  0.00     0.022 A 
BRANCH  71  75
ATOM     75  S   UNL A   1      41.937  19.929  26.210  1.00  0.00     0.124 S 
ATOM     76  O   UNL A   1      42.591  19.180  25.142  1.00  0.00    -0.237 OA
ATOM     77  O   UNL A   1      42.357  19.619  27.572  1.00  0.00    -0.237 OA
ATOM     78  O   UNL A   1      40.497  20.119  26.040  1.00  0.00    -0.744 OA
ENDBRANCH  71  75
ENDBRANCH  54  68
BRANCH  55  79
ATOM     79  C   UNL A   1      41.120  32.298  32.050  1.00  0.00     0.023 A 
ATOM     80  C   UNL A   1      40.180  31.664  32.915  1.00  0.00     0.031 A 
ATOM     81  C   UNL A   1      41.138  33.701  32.061  1.00  0.00     0.131 A 
ATOM     82  C   UNL A   1      39.409  32.407  33.834  1.00  0.00     0.055 A 
ATOM     83  C   UNL A   1      40.348  34.441  32.964  1.00  0.00     0.041 A 
ATOM     84  F   UNL A   1      42.017  34.378  31.309  1.00  0.00    -0.206 F 
ATOM     85  C   UNL A   1      39.510  33.799  33.879  1.00  0.00     0.022 A 
BRANCH  82  86
ATOM     86  S   UNL A   1      38.566  31.542  35.216  1.00  0.00     0.124 S 
ATOM     87  O   UNL A   1      37.218  32.090  35.153  1.00  0.00    -0.237 OA
ATOM     88  O   UNL A   1      38.703  30.134  34.850  1.00  0.00    -0.237 OA
ATOM     89  O   UNL A   1      39.353  31.935  36.384  1.00  0.00    -0.744 OA
ENDBRANCH  82  86
ENDBRANCH  55  79
BRANCH  67  90
ATOM     90  C   UNL A   1      45.184  26.240  32.721  1.00  0.00     0.023 A 
ATOM     91  C   UNL A   1      44.446  25.302  33.452  1.00  0.00     0.031 A 
ATOM     92  C   UNL A   1      46.586  26.121  32.781  1.00  0.00     0.131 A 
ATOM     93  C   UNL A   1      45.075  24.410  34.315  1.00  0.00     0.055 A 
ATOM     94  C   UNL A   1      47.216  25.138  33.540  1.00  0.00     0.041 A 
ATOM     95  F   UNL A   1      47.398  26.937  32.092  1.00  0.00    -0.206 F 
ATOM     96  C   UNL A   1      46.461  24.292  34.342  1.00  0.00     0.022 A 
BRANCH  93  97
ATOM     97  S   UNL A   1      44.019  23.530  35.483  1.00  0.00     0.124 S 
ATOM     98  O   UNL A   1      43.992  24.459  36.610  1.00  0.00    -0.237 OA
ATOM     99  O   UNL A   1      42.767  23.399  34.745  1.00  0.00    -0.237 OA
ATOM    100  O   UNL A   1      44.740  22.282  35.720  1.00  0.00    -0.744 OA
ENDBRANCH  93  97
ENDBRANCH  67  90
ENDBRANCH  41  42
ENDBRANCH  34  36
ENDBRANCH  33  34
ENDBRANCH  32  33
ENDBRANCH   1  32
TORSDOF 20
ENDMDL
MODEL 2
REMARK VINA RESULT:     -12.8      1.595      4.412
REMARK SMILES CC(=O)Nc1cnc(N2CC=C(c3ccccc3C)CC2)c(C(=O)OCCOCCOC(=O)c2ccc(-c3c4nc(c(-c5cc(S(=O)(=O)[O-])ccc5F)c5ccc([nH]5)c(-c5cc(S(=O)(=O)[O-])ccc5F)c5nc(c(-c6cc(S(=O)(=O)[O-])ccc6F)c6ccc3[nH]6)C=C5)C=C4)cc2)c1
REMARK SMILES IDX 29 1 28 2 27 3 26 4 25 5 23 6 24 7 22 8 5 9 6 10 97 11 7 12
REMARK SMILES IDX 8 13 4 14 1 15 2 16 3 17 9 19 10 20 21 21 11 22 20 23 12 24
REMARK SMILES IDX 13 25 14 26 18 27 15 28 17 29 19 30 16 31 30 32 31 33 32 34
REMARK SMILES IDX 33 35 34 36 35 37 96 38 36 39 95 40 37 41 38 42 39 43 89 44
REMARK SMILES IDX 40 45 94 46 88 47 90 48 41 49 93 50 87 51 86 52 42 54 74 55
REMARK SMILES IDX 54 56 73 57 55 58 58 59 72 60 91 61 56 62 57 63 71 65 92 66
REMARK SMILES IDX 59 67 43 68 44 69 52 70 45 71 51 72 53 73 50 74 46 75 47 76
REMARK SMILES IDX 48 77 49 78 75 79 76 80 84 81 77 82 83 83 85 84 82 85 78 86
REMARK SMILES IDX 79 87 80 88 81 89 60 90 61 91 69 92 62 93 68 94 70 95 67 96
REMARK SMILES IDX 63 97 64 98 65 99 66 100
REMARK H PARENT 4 18 90 53 58 64
REMARK Flexibility Score: inf
ROOT
ATOM      1  C   UNL A   1      33.222  29.673  27.346  1.00  0.00     0.202 C 
ENDROOT
BRANCH   1   2
ATOM      2  O   UNL A   1      31.895  29.223  27.532  1.00  0.00    -0.374 OA
BRANCH   2   3
ATOM      3  C   UNL A   1      31.802  27.800  27.557  1.00  0.00     0.202 C 
BRANCH   3   4
ATOM      4  C   UNL A   1      32.402  27.348  26.282  1.00  0.00     0.261 C 
BRANCH   4   5
ATOM      5  O   UNL A   1      32.994  26.067  26.453  1.00  0.00    -0.460 OA
BRANCH   5   6
ATOM      6  C   UNL A   1      32.234  24.956  26.283  1.00  0.00     0.342 C 
ATOM      7  O   UNL A   1      31.259  24.623  26.898  1.00  0.00    -0.246 OA
BRANCH   6   8
ATOM      8  C   UNL A   1      32.830  24.282  25.123  1.00  0.00     0.104 A 
ATOM      9  C   UNL A   1      34.512  22.741  24.348  1.00  0.00     0.060 A 
ATOM     10  C   UNL A   1      34.213  23.194  23.075  1.00  0.00     0.139 A 
ATOM     11  C   UNL A   1      33.817  23.324  25.381  1.00  0.00     0.047 A 
ATOM     12  N   UNL A   1      33.221  24.084  22.788  1.00  0.00    -0.236 NA
ATOM     13  C   UNL A   1      32.520  24.640  23.815  1.00  0.00     0.143 A 
BRANCH   9  14
ATOM     14  N   UNL A   1      35.515  21.794  24.597  1.00  0.00    -0.325 N 
ATOM     15  C   UNL A   1      37.253  23.406  25.371  1.00  0.00     0.114 C 
ATOM     16  C   UNL A   1      36.837  22.028  24.899  1.00  0.00     0.221 C 
ATOM     17  O   UNL A   1      37.636  21.088  24.900  1.00  0.00    -0.275 OA
ATOM     18  H   UNL A   1      35.242  20.850  24.550  1.00  0.00     0.169 HD
ENDBRANCH   9  14
BRANCH  13  19
ATOM     19  N   UNL A   1      31.592  25.600  23.459  1.00  0.00    -0.352 N 
ATOM     20  C   UNL A   1      31.921  26.404  22.286  1.00  0.00     0.146 C 
ATOM     21  C   UNL A   1      30.167  25.336  23.644  1.00  0.00     0.123 C 
ATOM     22  C   UNL A   1      31.047  27.636  22.291  1.00  0.00    -0.002 C 
ATOM     23  C   UNL A   1      29.454  26.653  23.936  1.00  0.00     0.057 C 
ATOM     24  C   UNL A   1      29.947  27.783  23.060  1.00  0.00    -0.041 C 
BRANCH  24  25
ATOM     25  C   UNL A   1      29.227  29.073  23.103  1.00  0.00    -0.020 A 
ATOM     26  C   UNL A   1      28.025  29.195  22.382  1.00  0.00     0.008 A 
ATOM     27  C   UNL A   1      29.715  30.195  23.808  1.00  0.00    -0.044 A 
ATOM     28  C   UNL A   1      27.324  30.402  22.349  1.00  0.00     0.001 A 
ATOM     29  C   UNL A   1      28.988  31.398  23.777  1.00  0.00     0.004 A 
ATOM     30  C   UNL A   1      30.987  30.169  24.611  1.00  0.00     0.045 C 
ATOM     31  C   UNL A   1      27.807  31.504  23.044  1.00  0.00     0.000 A 
ENDBRANCH  24  25
ENDBRANCH  13  19
ENDBRANCH   6   8
ENDBRANCH   5   6
ENDBRANCH   4   5
ENDBRANCH   3   4
ENDBRANCH   2   3
ENDBRANCH   1   2
BRANCH   1  32
ATOM     32  C   UNL A   1      33.352  31.203  27.434  1.00  0.00     0.261 C 
BRANCH  32  33
ATOM     33  O   UNL A   1      34.732  31.551  27.685  1.00  0.00    -0.460 OA
BRANCH  33  34
ATOM     34  C   UNL A   1      35.186  31.341  28.955  1.00  0.00     0.338 C 
ATOM     35  O   UNL A   1      34.938  32.048  29.916  1.00  0.00    -0.246 OA
BRANCH  34  36
ATOM     36  C   UNL A   1      36.174  30.220  28.961  1.00  0.00     0.060 A 
ATOM     37  C   UNL A   1      36.524  29.584  30.170  1.00  0.00     0.016 A 
ATOM     38  C   UNL A   1      36.947  30.011  27.822  1.00  0.00     0.016 A 
ATOM     39  C   UNL A   1      37.728  28.868  30.274  1.00  0.00     0.010 A 
ATOM     40  C   UNL A   1      38.170  29.389  27.954  1.00  0.00     0.010 A 
ATOM     41  C   UNL A   1      38.590  28.839  29.179  1.00  0.00    -0.014 A 
BRANCH  41  42
ATOM     42  C   UNL A   1      39.993  28.397  29.203  1.00  0.00     0.031 A 
ATOM     43  C   UNL A   1      40.288  27.021  28.762  1.00  0.00     0.074 A 
ATOM     44  C   UNL A   1      41.012  29.281  29.357  1.00  0.00     0.049 A 
ATOM     45  N   UNL A   1      41.379  26.395  29.027  1.00  0.00    -0.248 NA
ATOM     46  C   UNL A   1      39.344  26.193  28.015  1.00  0.00     0.031 C 
ATOM     47  C   UNL A   1      42.421  29.157  28.982  1.00  0.00     0.029 A 
ATOM     48  N   UNL A   1      40.964  30.570  29.884  1.00  0.00    -0.354 N 
ATOM     49  C   UNL A   1      41.441  25.302  28.193  1.00  0.00     0.074 A 
ATOM     50  C   UNL A   1      40.095  25.132  27.720  1.00  0.00     0.031 C 
ATOM     51  C   UNL A   1      43.132  30.156  29.544  1.00  0.00     0.029 A 
ATOM     52  C   UNL A   1      42.220  30.926  30.377  1.00  0.00     0.049 A 
ATOM     53  H   UNL A   1      40.164  31.143  29.904  1.00  0.00     0.167 HD
ATOM     54  C   UNL A   1      42.666  24.796  27.875  1.00  0.00     0.034 A 
ATOM     55  C   UNL A   1      42.332  31.290  31.680  1.00  0.00     0.034 A 
ATOM     56  C   UNL A   1      43.725  25.558  28.572  1.00  0.00     0.049 A 
ATOM     57  C   UNL A   1      43.073  30.149  32.324  1.00  0.00     0.074 A 
ATOM     58  C   UNL A   1      44.678  26.467  28.139  1.00  0.00     0.029 A 
ATOM     59  N   UNL A   1      43.676  25.694  29.964  1.00  0.00    -0.354 N 
ATOM     60  N   UNL A   1      43.059  28.934  31.830  1.00  0.00    -0.248 NA
ATOM     61  C   UNL A   1      44.060  30.322  33.381  1.00  0.00     0.031 C 
ATOM     62  C   UNL A   1      45.112  27.220  29.273  1.00  0.00     0.029 A 
ATOM     63  C   UNL A   1      44.442  26.760  30.401  1.00  0.00     0.049 A 
ATOM     64  H   UNL A   1      43.159  25.103  30.560  1.00  0.00     0.167 HD
ATOM     65  C   UNL A   1      44.128  28.250  32.317  1.00  0.00     0.074 A 
ATOM     66  C   UNL A   1      44.677  29.128  33.345  1.00  0.00     0.031 C 
ATOM     67  C   UNL A   1      44.571  27.054  31.823  1.00  0.00     0.034 A 
BRANCH  54  68
ATOM     68  C   UNL A   1      42.946  23.820  26.736  1.00  0.00     0.023 A 
ATOM     69  C   UNL A   1      42.497  22.488  26.859  1.00  0.00     0.031 A 
ATOM     70  C   UNL A   1      43.642  24.088  25.533  1.00  0.00     0.131 A 
ATOM     71  C   UNL A   1      42.786  21.510  25.883  1.00  0.00     0.055 A 
ATOM     72  C   UNL A   1      43.960  23.111  24.580  1.00  0.00     0.041 A 
ATOM     73  F   UNL A   1      44.014  25.315  25.167  1.00  0.00    -0.206 F 
ATOM     74  C   UNL A   1      43.533  21.810  24.750  1.00  0.00     0.022 A 
BRANCH  71  75
ATOM     75  S   UNL A   1      42.145  19.830  26.102  1.00  0.00     0.124 S 
ATOM     76  O   UNL A   1      42.622  19.494  27.439  1.00  0.00    -0.237 OA
ATOM     77  O   UNL A   1      40.707  20.025  25.955  1.00  0.00    -0.237 OA
ATOM     78  O   UNL A   1      42.777  19.083  25.015  1.00  0.00    -0.744 OA
ENDBRANCH  71  75
ENDBRANCH  54  68
BRANCH  55  79
ATOM     79  C   UNL A   1      41.142  32.100  32.125  1.00  0.00     0.023 A 
ATOM     80  C   UNL A   1      40.216  31.449  32.993  1.00  0.00     0.031 A 
ATOM     81  C   UNL A   1      41.138  33.503  32.140  1.00  0.00     0.131 A 
ATOM     82  C   UNL A   1      39.438  32.178  33.918  1.00  0.00     0.055 A 
ATOM     83  C   UNL A   1      40.341  34.228  33.049  1.00  0.00     0.041 A 
ATOM     84  F   UNL A   1      42.003  34.197  31.387  1.00  0.00    -0.206 F 
ATOM     85  C   UNL A   1      39.517  33.570  33.966  1.00  0.00     0.022 A 
BRANCH  82  86
ATOM     86  S   UNL A   1      38.615  31.295  35.301  1.00  0.00     0.124 S 
ATOM     87  O   UNL A   1      37.370  32.035  35.449  1.00  0.00    -0.237 OA
ATOM     88  O   UNL A   1      38.494  29.932  34.790  1.00  0.00    -0.237 OA
ATOM     89  O   UNL A   1      39.569  31.438  36.401  1.00  0.00    -0.744 OA
ENDBRANCH  82  86
ENDBRANCH  55  79
BRANCH  67  90
ATOM     90  C   UNL A   1      45.268  26.077  32.716  1.00  0.00     0.023 A 
ATOM     91  C   UNL A   1      44.547  25.071  33.369  1.00  0.00     0.031 A 
ATOM     92  C   UNL A   1      46.671  26.023  32.836  1.00  0.00     0.131 A 
ATOM     93  C   UNL A   1      45.181  24.171  34.220  1.00  0.00     0.055 A 
ATOM     94  C   UNL A   1      47.315  25.036  33.580  1.00  0.00     0.041 A 
ATOM     95  F   UNL A   1      47.471  26.907  32.223  1.00  0.00    -0.206 F 
ATOM     96  C   UNL A   1      46.568  24.118  34.307  1.00  0.00     0.022 A 
BRANCH  93  97
ATOM     97  S   UNL A   1      44.119  23.187  35.297  1.00  0.00     0.124 S 
ATOM     98  O   UNL A   1      44.461  23.723  36.613  1.00  0.00    -0.237 OA
ATOM     99  O   UNL A   1      42.782  23.516  34.813  1.00  0.00    -0.237 OA
ATOM    100  O   UNL A   1      44.557  21.817  35.047  1.00  0.00    -0.744 OA
ENDBRANCH  93  97
ENDBRANCH  67  90
ENDBRANCH  41  42
ENDBRANCH  34  36
ENDBRANCH  33  34
ENDBRANCH  32  33
ENDBRANCH   1  32
TORSDOF 20
ENDMDL
MODEL 3
REMARK VINA RESULT:     -12.8      4.618     10.482
REMARK SMILES CC(=O)Nc1cnc(N2CC=C(c3ccccc3C)CC2)c(C(=O)OCCOCCOC(=O)c2ccc(-c3c4nc(c(-c5cc(S(=O)(=O)[O-])ccc5F)c5ccc([nH]5)c(-c5cc(S(=O)(=O)[O-])ccc5F)c5nc(c(-c6cc(S(=O)(=O)[O-])ccc6F)c6ccc3[nH]6)C=C5)C=C4)cc2)c1
REMARK SMILES IDX 29 1 28 2 27 3 26 4 25 5 23 6 24 7 22 8 5 9 6 10 97 11 7 12
REMARK SMILES IDX 8 13 4 14 1 15 2 16 3 17 9 19 10 20 21 21 11 22 20 23 12 24
REMARK SMILES IDX 13 25 14 26 18 27 15 28 17 29 19 30 16 31 30 32 31 33 32 34
REMARK SMILES IDX 33 35 34 36 35 37 96 38 36 39 95 40 37 41 38 42 39 43 89 44
REMARK SMILES IDX 40 45 94 46 88 47 90 48 41 49 93 50 87 51 86 52 42 54 74 55
REMARK SMILES IDX 54 56 73 57 55 58 58 59 72 60 91 61 56 62 57 63 71 65 92 66
REMARK SMILES IDX 59 67 43 68 44 69 52 70 45 71 51 72 53 73 50 74 46 75 47 76
REMARK SMILES IDX 48 77 49 78 75 79 76 80 84 81 77 82 83 83 85 84 82 85 78 86
REMARK SMILES IDX 79 87 80 88 81 89 60 90 61 91 69 92 62 93 68 94 70 95 67 96
REMARK SMILES IDX 63 97 64 98 65 99 66 100
REMARK H PARENT 4 18 90 53 58 64
REMARK Flexibility Score: inf
ROOT
ATOM      1  C   UNL A   1      38.165  22.089  25.596  1.00  0.00     0.202 C 
ENDROOT
BRANCH   1   2
ATOM      2  O   UNL A   1      37.810  20.944  24.848  1.00  0.00    -0.374 OA
BRANCH   2   3
ATOM      3  C   UNL A   1      36.453  20.556  25.057  1.00  0.00     0.202 C 
BRANCH   3   4
ATOM      4  C   UNL A   1      35.942  21.473  26.100  1.00  0.00     0.261 C 
BRANCH   4   5
ATOM      5  O   UNL A   1      34.614  21.871  25.786  1.00  0.00    -0.460 OA
BRANCH   5   6
ATOM      6  C   UNL A   1      33.574  21.268  26.417  1.00  0.00     0.342 C 
ATOM      7  O   UNL A   1      33.175  21.454  27.533  1.00  0.00    -0.246 OA
BRANCH   6   8
ATOM      8  C   UNL A   1      32.997  20.382  25.399  1.00  0.00     0.104 A 
ATOM      9  C   UNL A   1      32.501  18.111  24.769  1.00  0.00     0.060 A 
ATOM     10  C   UNL A   1      32.237  18.614  23.506  1.00  0.00     0.139 A 
ATOM     11  C   UNL A   1      32.911  19.022  25.713  1.00  0.00     0.047 A 
ATOM     12  N   UNL A   1      32.259  19.938  23.185  1.00  0.00    -0.236 NA
ATOM     13  C   UNL A   1      32.644  20.838  24.133  1.00  0.00     0.143 A 
BRANCH   9  14
ATOM     14  N   UNL A   1      32.429  16.743  25.067  1.00  0.00    -0.325 N 
ATOM     15  C   UNL A   1      34.880  16.294  24.966  1.00  0.00     0.114 C 
ATOM     16  C   UNL A   1      33.443  15.815  25.009  1.00  0.00     0.221 C 
ATOM     17  O   UNL A   1      33.176  14.615  25.116  1.00  0.00    -0.275 OA
ATOM     18  H   UNL A   1      31.549  16.407  25.352  1.00  0.00     0.169 HD
ENDBRANCH   9  14
BRANCH  13  19
ATOM     19  N   UNL A   1      32.730  22.152  23.715  1.00  0.00    -0.352 N 
ATOM     20  C   UNL A   1      33.892  22.489  22.899  1.00  0.00     0.146 C 
ATOM     21  C   UNL A   1      31.513  22.891  23.386  1.00  0.00     0.123 C 
ATOM     22  C   UNL A   1      34.050  23.991  22.889  1.00  0.00    -0.002 C 
ATOM     23  C   UNL A   1      31.727  24.366  23.710  1.00  0.00     0.057 C 
ATOM     24  C   UNL A   1      33.094  24.857  23.290  1.00  0.00    -0.041 C 
BRANCH  24  25
ATOM     25  C   UNL A   1      33.379  26.304  23.375  1.00  0.00    -0.020 A 
ATOM     26  C   UNL A   1      33.483  27.041  22.181  1.00  0.00     0.008 A 
ATOM     27  C   UNL A   1      33.587  26.969  24.604  1.00  0.00    -0.044 A 
ATOM     28  C   UNL A   1      33.795  28.402  22.197  1.00  0.00     0.001 A 
ATOM     29  C   UNL A   1      33.884  28.343  24.603  1.00  0.00     0.004 A 
ATOM     30  C   UNL A   1      33.497  26.275  25.937  1.00  0.00     0.045 C 
ATOM     31  C   UNL A   1      33.998  29.052  23.408  1.00  0.00     0.000 A 
ENDBRANCH  24  25
ENDBRANCH  13  19
ENDBRANCH   6   8
ENDBRANCH   5   6
ENDBRANCH   4   5
ENDBRANCH   3   4
ENDBRANCH   2   3
ENDBRANCH   1   2
BRANCH   1  32
ATOM     32  C   UNL A   1      39.482  21.913  26.369  1.00  0.00     0.261 C 
BRANCH  32  33
ATOM     33  O   UNL A   1      39.683  23.053  27.234  1.00  0.00    -0.460 OA
BRANCH  33  34
ATOM     34  C   UNL A   1      40.651  23.938  26.853  1.00  0.00     0.338 C 
ATOM     35  O   UNL A   1      41.779  23.638  26.504  1.00  0.00    -0.246 OA
BRANCH  34  36
ATOM     36  C   UNL A   1      40.183  25.336  27.095  1.00  0.00     0.060 A 
ATOM     37  C   UNL A   1      40.667  26.398  26.303  1.00  0.00     0.016 A 
ATOM     38  C   UNL A   1      39.501  25.612  28.278  1.00  0.00     0.016 A 
ATOM     39  C   UNL A   1      40.603  27.720  26.772  1.00  0.00     0.010 A 
ATOM     40  C   UNL A   1      39.525  26.897  28.774  1.00  0.00     0.010 A 
ATOM     41  C   UNL A   1      40.099  27.958  28.049  1.00  0.00    -0.014 A 
BRANCH  41  42
ATOM     42  C   UNL A   1      40.225  29.216  28.802  1.00  0.00     0.031 A 
ATOM     43  C   UNL A   1      39.090  30.157  28.765  1.00  0.00     0.074 A 
ATOM     44  C   UNL A   1      41.215  29.400  29.712  1.00  0.00     0.049 A 
ATOM     45  N   UNL A   1      39.170  31.399  29.085  1.00  0.00    -0.248 NA
ATOM     46  C   UNL A   1      37.752  29.789  28.308  1.00  0.00     0.031 C 
ATOM     47  C   UNL A   1      41.282  30.324  30.846  1.00  0.00     0.029 A 
ATOM     48  N   UNL A   1      42.423  28.715  29.826  1.00  0.00    -0.354 N 
ATOM     49  C   UNL A   1      37.886  31.865  29.253  1.00  0.00     0.074 A 
ATOM     50  C   UNL A   1      37.059  30.889  28.599  1.00  0.00     0.031 C 
ATOM     51  C   UNL A   1      42.540  30.360  31.332  1.00  0.00     0.029 A 
ATOM     52  C   UNL A   1      43.362  29.515  30.478  1.00  0.00     0.049 A 
ATOM     53  H   UNL A   1      42.588  27.802  29.495  1.00  0.00     0.167 HD
ATOM     54  C   UNL A   1      37.683  32.927  30.084  1.00  0.00     0.034 A 
ATOM     55  C   UNL A   1      44.532  29.795  29.849  1.00  0.00     0.034 A 
ATOM     56  C   UNL A   1      38.977  33.399  30.625  1.00  0.00     0.049 A 
ATOM     57  C   UNL A   1      44.427  31.256  29.498  1.00  0.00     0.074 A 
ATOM     58  C   UNL A   1      39.561  33.325  31.880  1.00  0.00     0.029 A 
ATOM     59  N   UNL A   1      40.009  33.745  29.746  1.00  0.00    -0.354 N 
ATOM     60  N   UNL A   1      43.274  31.862  29.350  1.00  0.00    -0.248 NA
ATOM     61  C   UNL A   1      45.553  32.178  29.538  1.00  0.00     0.031 C 
ATOM     62  C   UNL A   1      40.967  33.520  31.721  1.00  0.00     0.029 A 
ATOM     63  C   UNL A   1      41.241  33.733  30.375  1.00  0.00     0.049 A 
ATOM     64  H   UNL A   1      39.875  33.969  28.796  1.00  0.00     0.167 HD
ATOM     65  C   UNL A   1      43.460  33.201  29.491  1.00  0.00     0.074 A 
ATOM     66  C   UNL A   1      44.911  33.359  29.523  1.00  0.00     0.031 C 
ATOM     67  C   UNL A   1      42.452  34.109  29.654  1.00  0.00     0.034 A 
BRANCH  54  68
ATOM     68  C   UNL A   1      36.331  33.365  30.638  1.00  0.00     0.023 A 
ATOM     69  C   UNL A   1      35.471  34.118  29.810  1.00  0.00     0.031 A 
ATOM     70  C   UNL A   1      35.818  33.119  31.933  1.00  0.00     0.131 A 
ATOM     71  C   UNL A   1      34.240  34.625  30.278  1.00  0.00     0.055 A 
ATOM     72  C   UNL A   1      34.612  33.650  32.411  1.00  0.00     0.041 A 
ATOM     73  F   UNL A   1      36.412  32.306  32.807  1.00  0.00    -0.206 F 
ATOM     74  C   UNL A   1      33.813  34.411  31.583  1.00  0.00     0.022 A 
BRANCH  71  75
ATOM     75  S   UNL A   1      33.181  35.555  29.140  1.00  0.00     0.124 S 
ATOM     76  O   UNL A   1      32.546  34.487  28.375  1.00  0.00    -0.237 OA
ATOM     77  O   UNL A   1      32.321  36.298  30.054  1.00  0.00    -0.237 OA
ATOM     78  O   UNL A   1      34.130  36.375  28.388  1.00  0.00    -0.744 OA
ENDBRANCH  71  75
ENDBRANCH  54  68
BRANCH  55  79
ATOM     79  C   UNL A   1      45.034  28.605  29.074  1.00  0.00     0.023 A 
ATOM     80  C   UNL A   1      45.212  28.786  27.670  1.00  0.00     0.031 A 
ATOM     81  C   UNL A   1      45.755  27.557  29.669  1.00  0.00     0.131 A 
ATOM     82  C   UNL A   1      46.168  28.040  26.948  1.00  0.00     0.055 A 
ATOM     83  C   UNL A   1      46.691  26.798  28.938  1.00  0.00     0.041 A 
ATOM     84  F   UNL A   1      45.679  27.340  30.989  1.00  0.00    -0.206 F 
ATOM     85  C   UNL A   1      46.930  27.061  27.586  1.00  0.00     0.022 A 
BRANCH  82  86
ATOM     86  S   UNL A   1      46.681  28.605  25.278  1.00  0.00     0.124 S 
ATOM     87  O   UNL A   1      45.880  27.760  24.403  1.00  0.00    -0.237 OA
ATOM     88  O   UNL A   1      46.334  30.023  25.293  1.00  0.00    -0.237 OA
ATOM     89  O   UNL A   1      48.119  28.342  25.266  1.00  0.00    -0.744 OA
ENDBRANCH  82  86
ENDBRANCH  55  79
BRANCH  67  90
ATOM     90  C   UNL A   1      42.615  35.518  29.175  1.00  0.00     0.023 A 
ATOM     91  C   UNL A   1      43.315  36.453  29.945  1.00  0.00     0.031 A 
ATOM     92  C   UNL A   1      42.209  35.936  27.892  1.00  0.00     0.131 A 
ATOM     93  C   UNL A   1      43.453  37.772  29.521  1.00  0.00     0.055 A 
ATOM     94  C   UNL A   1      42.469  37.218  27.414  1.00  0.00     0.041 A 
ATOM     95  F   UNL A   1      41.567  35.116  27.048  1.00  0.00    -0.206 F 
ATOM     96  C   UNL A   1      43.067  38.159  28.242  1.00  0.00     0.022 A 
BRANCH  93  97
ATOM     97  S   UNL A   1      44.018  38.964  30.750  1.00  0.00     0.124 S 
ATOM     98  O   UNL A   1      43.833  38.215  31.991  1.00  0.00    -0.237 OA
ATOM     99  O   UNL A   1      45.404  39.197  30.356  1.00  0.00    -0.237 OA
ATOM    100  O   UNL A   1      43.116  40.097  30.565  1.00  0.00    -0.744 OA
ENDBRANCH  93  97
ENDBRANCH  67  90
ENDBRANCH  41  42
ENDBRANCH  34  36
ENDBRANCH  33  34
ENDBRANCH  32  33
ENDBRANCH   1  32
TORSDOF 20
ENDMDL
