MODEL 1
REMARK VINA RESULT:      -9.8      0.000      0.000
REMARK SMILES O=C(CCCOc1ccc(Cl)cc1Cl)Nc1cccc(C(=O)OCCOCCOC(=O)c2ccc(-c3c4nc(c(-c5cc(S(=O)(=O)[O-])ccc5F)c5ccc([nH]5)c(-c5cc(S(=O)(=O)[O-])ccc5F)c5nc(c(-c6cc(S(=O)(=O)[O-])ccc6F)c6ccc3[nH]6)C=C5)C=C4)cc2)c1
REMARK SMILES IDX 24 1 23 2 21 3 22 4 20 5 16 6 17 7 95 8 18 9 19 10 15 11
REMARK SMILES IDX 1 12 2 13 3 15 4 16 5 17 6 18 7 19 8 20 13 21 9 22 12 23
REMARK SMILES IDX 14 24 10 25 11 26 25 27 26 28 27 29 28 30 29 31 30 32 31 33
REMARK SMILES IDX 32 34 33 35 94 36 34 37 93 38 35 39 36 40 37 41 87 42 38 43
REMARK SMILES IDX 92 44 86 45 88 46 39 47 91 48 85 49 84 50 40 52 72 53 52 54
REMARK SMILES IDX 71 55 53 56 56 57 70 58 89 59 54 60 55 61 69 63 90 64 57 65
REMARK SMILES IDX 41 66 42 67 50 68 43 69 49 70 51 71 48 72 44 73 45 74 46 75
REMARK SMILES IDX 47 76 73 77 74 78 82 79 75 80 81 81 83 82 80 83 76 84 77 85
REMARK SMILES IDX 78 86 79 87 58 88 59 89 67 90 60 91 66 92 68 93 65 94 61 95
REMARK SMILES IDX 62 96 63 97 64 98
REMARK H PARENT 15 14 88 51 56 62
REMARK Flexibility Score: inf
ROOT
ATOM      1  C   UNL A   1      41.103  19.628  26.168  1.00  0.00     0.261 C 
ENDROOT
BRANCH   1   2
ATOM      2  O   UNL A   1      40.756  20.145  27.462  1.00  0.00    -0.460 OA
BRANCH   2   3
ATOM      3  C   UNL A   1      41.254  21.369  27.765  1.00  0.00     0.338 C 
ATOM      4  O   UNL A   1      42.386  21.637  28.136  1.00  0.00    -0.246 OA
BRANCH   3   5
ATOM      5  C   UNL A   1      40.270  22.396  27.355  1.00  0.00     0.062 A 
ATOM      6  C   UNL A   1      38.471  23.164  25.947  1.00  0.00     0.042 A 
ATOM      7  C   UNL A   1      38.643  24.464  26.435  1.00  0.00     0.026 A 
ATOM      8  C   UNL A   1      39.299  22.133  26.388  1.00  0.00     0.041 A 
ATOM      9  C   UNL A   1      39.580  24.714  27.438  1.00  0.00     0.003 A 
ATOM     10  C   UNL A   1      40.390  23.679  27.904  1.00  0.00     0.016 A 
BRANCH   6  11
ATOM     11  N   UNL A   1      37.453  22.939  25.006  1.00  0.00    -0.326 N 
ATOM     12  O   UNL A   1      35.798  22.289  26.480  1.00  0.00    -0.275 OA
ATOM     13  C   UNL A   1      36.185  22.507  25.335  1.00  0.00     0.224 C 
ATOM     14  H   UNL A   1      37.658  23.098  24.056  1.00  0.00     0.169 HD
BRANCH  13  15
ATOM     15  C   UNL A   1      35.252  22.289  24.160  1.00  0.00     0.104 C 
BRANCH  15  16
ATOM     16  C   UNL A   1      34.040  23.217  24.015  1.00  0.00     0.051 C 
BRANCH  16  17
ATOM     17  C   UNL A   1      34.213  24.743  24.086  1.00  0.00     0.230 C 
BRANCH  17  18
ATOM     18  O   UNL A   1      33.070  25.511  23.690  1.00  0.00    -0.492 OA
BRANCH  18  19
ATOM     19  C   UNL A   1      32.782  26.586  24.481  1.00  0.00     0.137 A 
ATOM     20  C   UNL A   1      33.535  27.739  24.258  1.00  0.00     0.049 A 
ATOM     21  C   UNL A   1      31.703  26.626  25.370  1.00  0.00     0.084 A 
ATOM     22  C   UNL A   1      33.294  28.894  24.998  1.00  0.00     0.024 A 
ATOM     23  C   UNL A   1      31.424  27.800  26.078  1.00  0.00     0.045 A 
ATOM     24  Cl  UNL A   1      30.671  25.263  25.606  1.00  0.00    -0.080 Cl
ATOM     25  C   UNL A   1      32.230  28.923  25.893  1.00  0.00     0.042 A 
ATOM     26  Cl  UNL A   1      31.878  30.373  26.739  1.00  0.00    -0.084 Cl
ENDBRANCH  18  19
ENDBRANCH  17  18
ENDBRANCH  16  17
ENDBRANCH  15  16
ENDBRANCH  13  15
ENDBRANCH   6  11
ENDBRANCH   3   5
ENDBRANCH   2   3
ENDBRANCH   1   2
BRANCH   1  27
ATOM     27  C   UNL A   1      42.545  19.111  26.139  1.00  0.00     0.202 C 
BRANCH  27  28
ATOM     28  O   UNL A   1      43.247  19.234  24.900  1.00  0.00    -0.374 OA
BRANCH  28  29
ATOM     29  C   UNL A   1      44.632  19.571  24.969  1.00  0.00     0.202 C 
BRANCH  29  30
ATOM     30  C   UNL A   1      45.028  21.007  24.606  1.00  0.00     0.261 C 
BRANCH  30  31
ATOM     31  O   UNL A   1      44.669  21.956  25.621  1.00  0.00    -0.460 OA
BRANCH  31  32
ATOM     32  C   UNL A   1      43.686  22.822  25.271  1.00  0.00     0.338 C 
ATOM     33  O   UNL A   1      42.652  22.561  24.672  1.00  0.00    -0.246 OA
BRANCH  32  34
ATOM     34  C   UNL A   1      43.962  24.134  25.879  1.00  0.00     0.060 A 
ATOM     35  C   UNL A   1      44.436  24.183  27.196  1.00  0.00     0.016 A 
ATOM     36  C   UNL A   1      43.713  25.309  25.171  1.00  0.00     0.016 A 
ATOM     37  C   UNL A   1      44.638  25.416  27.820  1.00  0.00     0.010 A 
ATOM     38  C   UNL A   1      43.915  26.539  25.796  1.00  0.00     0.010 A 
ATOM     39  C   UNL A   1      44.352  26.601  27.131  1.00  0.00    -0.014 A 
BRANCH  39  40
ATOM     40  C   UNL A   1      44.358  27.915  27.821  1.00  0.00     0.031 A 
ATOM     41  C   UNL A   1      43.061  28.455  28.357  1.00  0.00     0.074 A 
ATOM     42  C   UNL A   1      45.485  28.638  27.924  1.00  0.00     0.049 A 
ATOM     43  N   UNL A   1      42.785  29.636  28.844  1.00  0.00    -0.248 NA
ATOM     44  C   UNL A   1      41.916  27.533  28.313  1.00  0.00     0.031 C 
ATOM     45  C   UNL A   1      46.811  28.202  27.489  1.00  0.00     0.029 A 
ATOM     46  N   UNL A   1      45.688  29.904  28.412  1.00  0.00    -0.354 N 
ATOM     47  C   UNL A   1      41.429  29.608  29.150  1.00  0.00     0.074 A 
ATOM     48  C   UNL A   1      40.934  28.310  28.740  1.00  0.00     0.031 C 
ATOM     49  C   UNL A   1      47.692  29.189  27.729  1.00  0.00     0.029 A 
ATOM     50  C   UNL A   1      46.984  30.343  28.279  1.00  0.00     0.049 A 
ATOM     51  H   UNL A   1      44.974  30.446  28.819  1.00  0.00     0.167 HD
ATOM     52  C   UNL A   1      40.669  30.573  29.729  1.00  0.00     0.034 A 
ATOM     53  C   UNL A   1      47.526  31.549  28.543  1.00  0.00     0.034 A 
ATOM     54  C   UNL A   1      41.179  31.869  30.108  1.00  0.00     0.049 A 
ATOM     55  C   UNL A   1      46.643  32.652  29.074  1.00  0.00     0.074 A 
ATOM     56  C   UNL A   1      40.508  32.922  30.704  1.00  0.00     0.029 A 
ATOM     57  N   UNL A   1      42.487  32.298  29.909  1.00  0.00    -0.354 N 
ATOM     58  N   UNL A   1      45.359  32.627  29.350  1.00  0.00    -0.248 NA
ATOM     59  C   UNL A   1      47.284  33.949  29.326  1.00  0.00     0.031 C 
ATOM     60  C   UNL A   1      41.383  34.011  30.788  1.00  0.00     0.029 A 
ATOM     61  C   UNL A   1      42.632  33.610  30.335  1.00  0.00     0.049 A 
ATOM     62  H   UNL A   1      43.207  31.750  29.523  1.00  0.00     0.167 HD
ATOM     63  C   UNL A   1      45.052  33.889  29.854  1.00  0.00     0.074 A 
ATOM     64  C   UNL A   1      46.284  34.651  29.836  1.00  0.00     0.031 C 
ATOM     65  C   UNL A   1      43.863  34.367  30.305  1.00  0.00     0.034 A 
BRANCH  52  66
ATOM     66  C   UNL A   1      39.199  30.267  29.920  1.00  0.00     0.023 A 
ATOM     67  C   UNL A   1      38.225  30.748  29.027  1.00  0.00     0.031 A 
ATOM     68  C   UNL A   1      38.758  29.553  31.048  1.00  0.00     0.131 A 
ATOM     69  C   UNL A   1      36.862  30.614  29.338  1.00  0.00     0.055 A 
ATOM     70  C   UNL A   1      37.401  29.331  31.296  1.00  0.00     0.041 A 
ATOM     71  F   UNL A   1      39.635  29.086  31.951  1.00  0.00    -0.206 F 
ATOM     72  C   UNL A   1      36.443  29.884  30.452  1.00  0.00     0.022 A 
BRANCH  69  73
ATOM     73  S   UNL A   1      35.663  31.588  28.386  1.00  0.00     0.124 S 
ATOM     74  O   UNL A   1      34.612  31.810  29.377  1.00  0.00    -0.237 OA
ATOM     75  O   UNL A   1      36.440  32.761  28.005  1.00  0.00    -0.237 OA
ATOM     76  O   UNL A   1      35.293  30.698  27.288  1.00  0.00    -0.744 OA
ENDBRANCH  69  73
ENDBRANCH  52  66
BRANCH  53  77
ATOM     77  C   UNL A   1      48.977  31.786  28.301  1.00  0.00     0.023 A 
ATOM     78  C   UNL A   1      49.409  32.448  27.142  1.00  0.00     0.031 A 
ATOM     79  C   UNL A   1      49.952  31.337  29.209  1.00  0.00     0.131 A 
ATOM     80  C   UNL A   1      50.780  32.613  26.901  1.00  0.00     0.055 A 
ATOM     81  C   UNL A   1      51.314  31.551  28.990  1.00  0.00     0.041 A 
ATOM     82  F   UNL A   1      49.593  30.694  30.331  1.00  0.00    -0.206 F 
ATOM     83  C   UNL A   1      51.736  32.185  27.825  1.00  0.00     0.022 A 
BRANCH  80  84
ATOM     84  S   UNL A   1      51.301  33.340  25.324  1.00  0.00     0.124 S 
ATOM     85  O   UNL A   1      52.560  33.976  25.693  1.00  0.00    -0.237 OA
ATOM     86  O   UNL A   1      51.404  32.162  24.467  1.00  0.00    -0.237 OA
ATOM     87  O   UNL A   1      50.211  34.254  24.994  1.00  0.00    -0.744 OA
ENDBRANCH  80  84
ENDBRANCH  53  77
BRANCH  65  88
ATOM     88  C   UNL A   1      43.851  35.765  30.882  1.00  0.00     0.023 A 
ATOM     89  C   UNL A   1      43.732  36.910  30.077  1.00  0.00     0.031 A 
ATOM     90  C   UNL A   1      43.958  35.947  32.275  1.00  0.00     0.131 A 
ATOM     91  C   UNL A   1      43.772  38.186  30.663  1.00  0.00     0.055 A 
ATOM     92  C   UNL A   1      43.931  37.215  32.858  1.00  0.00     0.041 A 
ATOM     93  F   UNL A   1      44.080  34.891  33.095  1.00  0.00    -0.206 F 
ATOM     94  C   UNL A   1      43.851  38.344  32.049  1.00  0.00     0.022 A 
BRANCH  91  95
ATOM     95  S   UNL A   1      43.815  39.643  29.583  1.00  0.00     0.124 S 
ATOM     96  O   UNL A   1      44.181  40.702  30.517  1.00  0.00    -0.237 OA
ATOM     97  O   UNL A   1      44.835  39.276  28.604  1.00  0.00    -0.237 OA
ATOM     98  O   UNL A   1      42.453  39.722  29.056  1.00  0.00    -0.744 OA
ENDBRANCH  91  95
ENDBRANCH  65  88
ENDBRANCH  39  40
ENDBRANCH  32  34
ENDBRANCH  31  32
ENDBRANCH  30  31
ENDBRANCH  29  30
ENDBRANCH  28  29
ENDBRANCH  27  28
ENDBRANCH   1  27
TORSDOF 23
ENDMDL
MODEL 2
REMARK VINA RESULT:      -9.7      1.873      3.039
REMARK SMILES O=C(CCCOc1ccc(Cl)cc1Cl)Nc1cccc(C(=O)OCCOCCOC(=O)c2ccc(-c3c4nc(c(-c5cc(S(=O)(=O)[O-])ccc5F)c5ccc([nH]5)c(-c5cc(S(=O)(=O)[O-])ccc5F)c5nc(c(-c6cc(S(=O)(=O)[O-])ccc6F)c6ccc3[nH]6)C=C5)C=C4)cc2)c1
REMARK SMILES IDX 24 1 23 2 21 3 22 4 20 5 16 6 17 7 95 8 18 9 19 10 15 11
REMARK SMILES IDX 1 12 2 13 3 15 4 16 5 17 6 18 7 19 8 20 13 21 9 22 12 23
REMARK SMILES IDX 14 24 10 25 11 26 25 27 26 28 27 29 28 30 29 31 30 32 31 33
REMARK SMILES IDX 32 34 33 35 94 36 34 37 93 38 35 39 36 40 37 41 87 42 38 43
REMARK SMILES IDX 92 44 86 45 88 46 39 47 91 48 85 49 84 50 40 52 72 53 52 54
REMARK SMILES IDX 71 55 53 56 56 57 70 58 89 59 54 60 55 61 69 63 90 64 57 65
REMARK SMILES IDX 41 66 42 67 50 68 43 69 49 70 51 71 48 72 44 73 45 74 46 75
REMARK SMILES IDX 47 76 73 77 74 78 82 79 75 80 81 81 83 82 80 83 76 84 77 85
REMARK SMILES IDX 78 86 79 87 58 88 59 89 67 90 60 91 66 92 68 93 65 94 61 95
REMARK SMILES IDX 62 96 63 97 64 98
REMARK H PARENT 15 14 88 51 56 62
REMARK Flexibility Score: inf
ROOT
ATOM      1  C   UNL A   1      40.764  19.509  26.108  1.00  0.00     0.261 C 
ENDROOT
BRANCH   1   2
ATOM      2  O   UNL A   1      40.456  20.186  27.336  1.00  0.00    -0.460 OA
BRANCH   2   3
ATOM      3  C   UNL A   1      41.271  21.217  27.665  1.00  0.00     0.338 C 
ATOM      4  O   UNL A   1      42.464  21.166  27.920  1.00  0.00    -0.246 OA
BRANCH   3   5
ATOM      5  C   UNL A   1      40.542  22.487  27.447  1.00  0.00     0.062 A 
ATOM      6  C   UNL A   1      38.898  23.813  26.286  1.00  0.00     0.042 A 
ATOM      7  C   UNL A   1      39.412  24.971  26.881  1.00  0.00     0.026 A 
ATOM      8  C   UNL A   1      39.477  22.573  26.549  1.00  0.00     0.041 A 
ATOM      9  C   UNL A   1      40.443  24.877  27.815  1.00  0.00     0.003 A 
ATOM     10  C   UNL A   1      41.004  23.634  28.105  1.00  0.00     0.016 A 
BRANCH   6  11
ATOM     11  N   UNL A   1      37.799  23.944  25.422  1.00  0.00    -0.326 N 
ATOM     12  O   UNL A   1      36.157  23.259  26.894  1.00  0.00    -0.275 OA
ATOM     13  C   UNL A   1      36.500  23.649  25.781  1.00  0.00     0.224 C 
ATOM     14  H   UNL A   1      37.966  24.264  24.505  1.00  0.00     0.169 HD
BRANCH  13  15
ATOM     15  C   UNL A   1      35.471  23.822  24.682  1.00  0.00     0.104 C 
BRANCH  15  16
ATOM     16  C   UNL A   1      33.987  23.768  25.065  1.00  0.00     0.051 C 
BRANCH  16  17
ATOM     17  C   UNL A   1      33.150  22.513  24.768  1.00  0.00     0.230 C 
BRANCH  17  18
ATOM     18  O   UNL A   1      33.703  21.620  23.793  1.00  0.00    -0.492 OA
BRANCH  18  19
ATOM     19  C   UNL A   1      33.596  20.291  24.087  1.00  0.00     0.137 A 
ATOM     20  C   UNL A   1      32.421  19.659  23.679  1.00  0.00     0.049 A 
ATOM     21  C   UNL A   1      34.639  19.530  24.626  1.00  0.00     0.084 A 
ATOM     22  C   UNL A   1      32.234  18.298  23.911  1.00  0.00     0.024 A 
ATOM     23  C   UNL A   1      34.475  18.154  24.813  1.00  0.00     0.045 A 
ATOM     24  Cl  UNL A   1      36.154  20.240  25.049  1.00  0.00    -0.080 Cl
ATOM     25  C   UNL A   1      33.268  17.550  24.463  1.00  0.00     0.042 A 
ATOM     26  Cl  UNL A   1      33.071  15.858  24.666  1.00  0.00    -0.084 Cl
ENDBRANCH  18  19
ENDBRANCH  17  18
ENDBRANCH  16  17
ENDBRANCH  15  16
ENDBRANCH  13  15
ENDBRANCH   6  11
ENDBRANCH   3   5
ENDBRANCH   2   3
ENDBRANCH   1   2
BRANCH   1  27
ATOM     27  C   UNL A   1      42.225  19.046  26.074  1.00  0.00     0.202 C 
BRANCH  27  28
ATOM     28  O   UNL A   1      42.994  19.429  24.932  1.00  0.00    -0.374 OA
BRANCH  28  29
ATOM     29  C   UNL A   1      44.379  19.700  25.143  1.00  0.00     0.202 C 
BRANCH  29  30
ATOM     30  C   UNL A   1      44.912  21.060  24.674  1.00  0.00     0.261 C 
BRANCH  30  31
ATOM     31  O   UNL A   1      44.691  22.104  25.633  1.00  0.00    -0.460 OA
BRANCH  31  32
ATOM     32  C   UNL A   1      43.692  22.967  25.320  1.00  0.00     0.338 C 
ATOM     33  O   UNL A   1      42.641  22.703  24.753  1.00  0.00    -0.246 OA
BRANCH  32  34
ATOM     34  C   UNL A   1      43.982  24.277  25.924  1.00  0.00     0.060 A 
ATOM     35  C   UNL A   1      44.444  24.326  27.246  1.00  0.00     0.016 A 
ATOM     36  C   UNL A   1      43.756  25.452  25.209  1.00  0.00     0.016 A 
ATOM     37  C   UNL A   1      44.657  25.558  27.867  1.00  0.00     0.010 A 
ATOM     38  C   UNL A   1      43.970  26.682  25.830  1.00  0.00     0.010 A 
ATOM     39  C   UNL A   1      44.395  26.744  27.169  1.00  0.00    -0.014 A 
BRANCH  39  40
ATOM     40  C   UNL A   1      44.413  28.061  27.853  1.00  0.00     0.031 A 
ATOM     41  C   UNL A   1      43.126  28.605  28.406  1.00  0.00     0.074 A 
ATOM     42  C   UNL A   1      45.543  28.783  27.936  1.00  0.00     0.049 A 
ATOM     43  N   UNL A   1      42.859  29.788  28.892  1.00  0.00    -0.248 NA
ATOM     44  C   UNL A   1      41.979  27.685  28.383  1.00  0.00     0.031 C 
ATOM     45  C   UNL A   1      46.862  28.343  27.483  1.00  0.00     0.029 A 
ATOM     46  N   UNL A   1      45.755  30.051  28.416  1.00  0.00    -0.354 N 
ATOM     47  C   UNL A   1      41.507  29.765  29.218  1.00  0.00     0.074 A 
ATOM     48  C   UNL A   1      41.005  28.466  28.822  1.00  0.00     0.031 C 
ATOM     49  C   UNL A   1      47.748  29.329  27.706  1.00  0.00     0.029 A 
ATOM     50  C   UNL A   1      47.050  30.487  28.262  1.00  0.00     0.049 A 
ATOM     51  H   UNL A   1      45.048  30.595  28.831  1.00  0.00     0.167 HD
ATOM     52  C   UNL A   1      40.758  30.733  29.805  1.00  0.00     0.034 A 
ATOM     53  C   UNL A   1      47.597  31.692  28.512  1.00  0.00     0.034 A 
ATOM     54  C   UNL A   1      41.275  32.030  30.170  1.00  0.00     0.049 A 
ATOM     55  C   UNL A   1      46.724  32.800  29.051  1.00  0.00     0.074 A 
ATOM     56  C   UNL A   1      40.615  33.087  30.772  1.00  0.00     0.029 A 
ATOM     57  N   UNL A   1      42.581  32.456  29.950  1.00  0.00    -0.354 N 
ATOM     58  N   UNL A   1      45.444  32.777  29.347  1.00  0.00    -0.248 NA
ATOM     59  C   UNL A   1      47.371  34.097  29.288  1.00  0.00     0.031 C 
ATOM     60  C   UNL A   1      41.493  34.174  30.838  1.00  0.00     0.029 A 
ATOM     61  C   UNL A   1      42.734  33.770  30.369  1.00  0.00     0.049 A 
ATOM     62  H   UNL A   1      43.294  31.905  29.555  1.00  0.00     0.167 HD
ATOM     63  C   UNL A   1      45.147  34.042  29.850  1.00  0.00     0.074 A 
ATOM     64  C   UNL A   1      46.379  34.803  29.810  1.00  0.00     0.031 C 
ATOM     65  C   UNL A   1      43.966  34.524  30.317  1.00  0.00     0.034 A 
BRANCH  52  66
ATOM     66  C   UNL A   1      39.290  30.430  30.018  1.00  0.00     0.023 A 
ATOM     67  C   UNL A   1      38.298  30.955  29.171  1.00  0.00     0.031 A 
ATOM     68  C   UNL A   1      38.871  29.673  31.127  1.00  0.00     0.131 A 
ATOM     69  C   UNL A   1      36.943  30.819  29.510  1.00  0.00     0.055 A 
ATOM     70  C   UNL A   1      37.519  29.450  31.398  1.00  0.00     0.041 A 
ATOM     71  F   UNL A   1      39.765  29.162  31.987  1.00  0.00    -0.206 F 
ATOM     72  C   UNL A   1      36.545  30.045  30.602  1.00  0.00     0.022 A 
BRANCH  69  73
ATOM     73  S   UNL A   1      35.729  31.841  28.629  1.00  0.00     0.124 S 
ATOM     74  O   UNL A   1      36.560  32.948  28.161  1.00  0.00    -0.237 OA
ATOM     75  O   UNL A   1      35.238  30.931  27.601  1.00  0.00    -0.237 OA
ATOM     76  O   UNL A   1      34.763  32.194  29.666  1.00  0.00    -0.744 OA
ENDBRANCH  69  73
ENDBRANCH  52  66
BRANCH  53  77
ATOM     77  C   UNL A   1      49.045  31.927  28.248  1.00  0.00     0.023 A 
ATOM     78  C   UNL A   1      49.464  32.525  27.050  1.00  0.00     0.031 A 
ATOM     79  C   UNL A   1      50.030  31.536  29.172  1.00  0.00     0.131 A 
ATOM     80  C   UNL A   1      50.833  32.687  26.792  1.00  0.00     0.055 A 
ATOM     81  C   UNL A   1      51.388  31.747  28.933  1.00  0.00     0.041 A 
ATOM     82  F   UNL A   1      49.682  30.956  30.332  1.00  0.00    -0.206 F 
ATOM     83  C   UNL A   1      51.798  32.318  27.732  1.00  0.00     0.022 A 
BRANCH  80  84
ATOM     84  S   UNL A   1      51.338  33.327  25.172  1.00  0.00     0.124 S 
ATOM     85  O   UNL A   1      51.457  32.099  24.394  1.00  0.00    -0.237 OA
ATOM     86  O   UNL A   1      50.220  34.199  24.828  1.00  0.00    -0.237 OA
ATOM     87  O   UNL A   1      52.596  34.012  25.455  1.00  0.00    -0.744 OA
ENDBRANCH  80  84
ENDBRANCH  53  77
BRANCH  65  88
ATOM     88  C   UNL A   1      43.964  35.925  30.888  1.00  0.00     0.023 A 
ATOM     89  C   UNL A   1      43.834  37.067  30.080  1.00  0.00     0.031 A 
ATOM     90  C   UNL A   1      44.094  36.113  32.278  1.00  0.00     0.131 A 
ATOM     91  C   UNL A   1      43.885  38.345  30.659  1.00  0.00     0.055 A 
ATOM     92  C   UNL A   1      44.078  37.383  32.855  1.00  0.00     0.041 A 
ATOM     93  F   UNL A   1      44.228  35.060  33.101  1.00  0.00    -0.206 F 
ATOM     94  C   UNL A   1      43.986  38.508  32.043  1.00  0.00     0.022 A 
BRANCH  91  95
ATOM     95  S   UNL A   1      43.912  39.797  29.572  1.00  0.00     0.124 S 
ATOM     96  O   UNL A   1      42.514  40.212  29.585  1.00  0.00    -0.237 OA
ATOM     97  O   UNL A   1      44.847  40.684  30.259  1.00  0.00    -0.237 OA
ATOM     98  O   UNL A   1      44.390  39.264  28.297  1.00  0.00    -0.744 OA
ENDBRANCH  91  95
ENDBRANCH  65  88
ENDBRANCH  39  40
ENDBRANCH  32  34
ENDBRANCH  31  32
ENDBRANCH  30  31
ENDBRANCH  29  30
ENDBRANCH  28  29
ENDBRANCH  27  28
ENDBRANCH   1  27
TORSDOF 23
ENDMDL
MODEL 3
REMARK VINA RESULT:      -9.7      5.630      8.727
REMARK SMILES O=C(CCCOc1ccc(Cl)cc1Cl)Nc1cccc(C(=O)OCCOCCOC(=O)c2ccc(-c3c4nc(c(-c5cc(S(=O)(=O)[O-])ccc5F)c5ccc([nH]5)c(-c5cc(S(=O)(=O)[O-])ccc5F)c5nc(c(-c6cc(S(=O)(=O)[O-])ccc6F)c6ccc3[nH]6)C=C5)C=C4)cc2)c1
REMARK SMILES IDX 24 1 23 2 21 3 22 4 20 5 16 6 17 7 95 8 18 9 19 10 15 11
REMARK SMILES IDX 1 12 2 13 3 15 4 16 5 17 6 18 7 19 8 20 13 21 9 22 12 23
REMARK SMILES IDX 14 24 10 25 11 26 25 27 26 28 27 29 28 30 29 31 30 32 31 33
REMARK SMILES IDX 32 34 33 35 94 36 34 37 93 38 35 39 36 40 37 41 87 42 38 43
REMARK SMILES IDX 92 44 86 45 88 46 39 47 91 48 85 49 84 50 40 52 72 53 52 54
REMARK SMILES IDX 71 55 53 56 56 57 70 58 89 59 54 60 55 61 69 63 90 64 57 65
REMARK SMILES IDX 41 66 42 67 50 68 43 69 49 70 51 71 48 72 44 73 45 74 46 75
REMARK SMILES IDX 47 76 73 77 74 78 82 79 75 80 81 81 83 82 80 83 76 84 77 85
REMARK SMILES IDX 78 86 79 87 58 88 59 89 67 90 60 91 66 92 68 93 65 94 61 95
REMARK SMILES IDX 62 96 63 97 64 98
REMARK H PARENT 15 14 88 51 56 62
REMARK Flexibility Score: inf
ROOT
ATOM      1  C   UNL A   1      41.084  19.457  26.002  1.00  0.00     0.261 C 
ENDROOT
BRANCH   1   2
ATOM      2  O   UNL A   1      40.233  20.196  26.891  1.00  0.00    -0.460 OA
BRANCH   2   3
ATOM      3  C   UNL A   1      40.340  21.545  26.830  1.00  0.00     0.338 C 
ATOM      4  O   UNL A   1      41.360  22.212  26.916  1.00  0.00    -0.246 OA
BRANCH   3   5
ATOM      5  C   UNL A   1      39.038  22.106  26.407  1.00  0.00     0.062 A 
ATOM      6  C   UNL A   1      36.896  21.903  25.318  1.00  0.00     0.042 A 
ATOM      7  C   UNL A   1      36.733  23.291  25.380  1.00  0.00     0.026 A 
ATOM      8  C   UNL A   1      38.059  21.311  25.810  1.00  0.00     0.041 A 
ATOM      9  C   UNL A   1      37.689  24.079  26.022  1.00  0.00     0.003 A 
ATOM     10  C   UNL A   1      38.839  23.486  26.542  1.00  0.00     0.016 A 
BRANCH   6  11
ATOM     11  N   UNL A   1      35.866  21.139  24.747  1.00  0.00    -0.326 N 
ATOM     12  O   UNL A   1      34.344  21.319  26.474  1.00  0.00    -0.275 OA
ATOM     13  C   UNL A   1      34.660  20.890  25.367  1.00  0.00     0.224 C 
ATOM     14  H   UNL A   1      36.015  20.758  23.850  1.00  0.00     0.169 HD
BRANCH  13  15
ATOM     15  C   UNL A   1      33.703  20.007  24.590  1.00  0.00     0.104 C 
BRANCH  15  16
ATOM     16  C   UNL A   1      32.664  20.684  23.689  1.00  0.00     0.051 C 
BRANCH  16  17
ATOM     17  C   UNL A   1      32.708  22.202  23.450  1.00  0.00     0.230 C 
BRANCH  17  18
ATOM     18  O   UNL A   1      31.488  22.787  22.979  1.00  0.00    -0.492 OA
BRANCH  18  19
ATOM     19  C   UNL A   1      31.320  24.111  23.270  1.00  0.00     0.137 A 
ATOM     20  C   UNL A   1      30.639  24.404  24.452  1.00  0.00     0.049 A 
ATOM     21  C   UNL A   1      31.911  25.146  22.537  1.00  0.00     0.084 A 
ATOM     22  C   UNL A   1      30.443  25.725  24.845  1.00  0.00     0.024 A 
ATOM     23  C   UNL A   1      31.761  26.472  22.957  1.00  0.00     0.045 A 
ATOM     24  Cl  UNL A   1      32.856  24.835  21.128  1.00  0.00    -0.080 Cl
ATOM     25  C   UNL A   1      31.019  26.751  24.104  1.00  0.00     0.042 A 
ATOM     26  Cl  UNL A   1      30.853  28.373  24.637  1.00  0.00    -0.084 Cl
ENDBRANCH  18  19
ENDBRANCH  17  18
ENDBRANCH  16  17
ENDBRANCH  15  16
ENDBRANCH  13  15
ENDBRANCH   6  11
ENDBRANCH   3   5
ENDBRANCH   2   3
ENDBRANCH   1   2
BRANCH   1  27
ATOM     27  C   UNL A   1      42.557  19.841  26.187  1.00  0.00     0.202 C 
BRANCH  27  28
ATOM     28  O   UNL A   1      43.354  19.916  25.004  1.00  0.00    -0.374 OA
BRANCH  28  29
ATOM     29  C   UNL A   1      44.475  20.799  25.031  1.00  0.00     0.202 C 
BRANCH  29  30
ATOM     30  C   UNL A   1      44.367  22.049  25.913  1.00  0.00     0.261 C 
BRANCH  30  31
ATOM     31  O   UNL A   1      43.524  23.061  25.343  1.00  0.00    -0.460 OA
BRANCH  31  32
ATOM     32  C   UNL A   1      44.115  24.269  25.170  1.00  0.00     0.338 C 
ATOM     33  O   UNL A   1      44.940  24.570  24.319  1.00  0.00    -0.246 OA
BRANCH  32  34
ATOM     34  C   UNL A   1      43.484  25.247  26.072  1.00  0.00     0.060 A 
ATOM     35  C   UNL A   1      44.176  26.424  26.383  1.00  0.00     0.016 A 
ATOM     36  C   UNL A   1      42.240  24.984  26.641  1.00  0.00     0.016 A 
ATOM     37  C   UNL A   1      43.633  27.335  27.291  1.00  0.00     0.010 A 
ATOM     38  C   UNL A   1      41.698  25.895  27.548  1.00  0.00     0.010 A 
ATOM     39  C   UNL A   1      42.401  27.060  27.900  1.00  0.00    -0.014 A 
BRANCH  39  40
ATOM     40  C   UNL A   1      41.888  27.895  29.014  1.00  0.00     0.031 A 
ATOM     41  C   UNL A   1      42.602  27.851  30.337  1.00  0.00     0.074 A 
ATOM     42  C   UNL A   1      40.780  28.641  28.868  1.00  0.00     0.049 A 
ATOM     43  N   UNL A   1      42.254  28.355  31.491  1.00  0.00    -0.248 NA
ATOM     44  C   UNL A   1      43.873  27.113  30.355  1.00  0.00     0.031 C 
ATOM     45  C   UNL A   1      40.031  28.806  27.624  1.00  0.00     0.029 A 
ATOM     46  N   UNL A   1      40.082  29.385  29.786  1.00  0.00    -0.354 N 
ATOM     47  C   UNL A   1      43.255  27.982  32.381  1.00  0.00     0.074 A 
ATOM     48  C   UNL A   1      44.190  27.163  31.638  1.00  0.00     0.031 C 
ATOM     49  C   UNL A   1      38.973  29.602  27.858  1.00  0.00     0.029 A 
ATOM     50  C   UNL A   1      38.939  29.954  29.276  1.00  0.00     0.049 A 
ATOM     51  H   UNL A   1      40.373  29.501  30.719  1.00  0.00     0.167 HD
ATOM     52  C   UNL A   1      43.386  28.301  33.695  1.00  0.00     0.034 A 
ATOM     53  C   UNL A   1      37.965  30.651  29.892  1.00  0.00     0.034 A 
ATOM     54  C   UNL A   1      42.427  29.099  34.421  1.00  0.00     0.049 A 
ATOM     55  C   UNL A   1      38.063  30.896  31.379  1.00  0.00     0.074 A 
ATOM     56  C   UNL A   1      42.456  29.491  35.747  1.00  0.00     0.029 A 
ATOM     57  N   UNL A   1      41.253  29.615  33.883  1.00  0.00    -0.354 N 
ATOM     58  N   UNL A   1      39.004  30.531  32.219  1.00  0.00    -0.248 NA
ATOM     59  C   UNL A   1      36.963  31.646  32.000  1.00  0.00     0.031 C 
ATOM     60  C   UNL A   1      41.265  30.167  36.033  1.00  0.00     0.029 A 
ATOM     61  C   UNL A   1      40.533  30.287  34.861  1.00  0.00     0.049 A 
ATOM     62  H   UNL A   1      40.973  29.519  32.945  1.00  0.00     0.167 HD
ATOM     63  C   UNL A   1      38.632  31.050  33.458  1.00  0.00     0.074 A 
ATOM     64  C   UNL A   1      37.378  31.746  33.253  1.00  0.00     0.031 C 
ATOM     65  C   UNL A   1      39.277  30.971  34.650  1.00  0.00     0.034 A 
BRANCH  52  66
ATOM     66  C   UNL A   1      44.580  27.725  34.424  1.00  0.00     0.023 A 
ATOM     67  C   UNL A   1      44.490  26.523  35.149  1.00  0.00     0.031 A 
ATOM     68  C   UNL A   1      45.800  28.423  34.463  1.00  0.00     0.131 A 
ATOM     69  C   UNL A   1      45.553  26.120  35.973  1.00  0.00     0.055 A 
ATOM     70  C   UNL A   1      46.892  27.959  35.200  1.00  0.00     0.041 A 
ATOM     71  F   UNL A   1      45.945  29.587  33.811  1.00  0.00    -0.206 F 
ATOM     72  C   UNL A   1      46.765  26.814  35.981  1.00  0.00     0.022 A 
BRANCH  69  73
ATOM     73  S   UNL A   1      45.252  24.805  37.187  1.00  0.00     0.124 S 
ATOM     74  O   UNL A   1      45.632  23.614  36.431  1.00  0.00    -0.237 OA
ATOM     75  O   UNL A   1      46.140  25.178  38.282  1.00  0.00    -0.237 OA
ATOM     76  O   UNL A   1      43.824  24.923  37.471  1.00  0.00    -0.744 OA
ENDBRANCH  69  73
ENDBRANCH  52  66
BRANCH  53  77
ATOM     77  C   UNL A   1      36.802  31.163  29.113  1.00  0.00     0.023 A 
ATOM     78  C   UNL A   1      35.853  30.276  28.583  1.00  0.00     0.031 A 
ATOM     79  C   UNL A   1      36.635  32.537  28.865  1.00  0.00     0.131 A 
ATOM     80  C   UNL A   1      34.796  30.768  27.803  1.00  0.00     0.055 A 
ATOM     81  C   UNL A   1      35.552  33.026  28.134  1.00  0.00     0.041 A 
ATOM     82  F   UNL A   1      37.517  33.427  29.347  1.00  0.00    -0.206 F 
ATOM     83  C   UNL A   1      34.629  32.138  27.589  1.00  0.00     0.022 A 
BRANCH  80  84
ATOM     84  S   UNL A   1      33.677  29.580  27.014  1.00  0.00     0.124 S 
ATOM     85  O   UNL A   1      33.397  28.663  28.112  1.00  0.00    -0.237 OA
ATOM     86  O   UNL A   1      32.571  30.436  26.596  1.00  0.00    -0.237 OA
ATOM     87  O   UNL A   1      34.480  29.027  25.926  1.00  0.00    -0.744 OA
ENDBRANCH  80  84
ENDBRANCH  53  77
BRANCH  65  88
ATOM     88  C   UNL A   1      38.670  31.716  35.819  1.00  0.00     0.023 A 
ATOM     89  C   UNL A   1      38.064  31.053  36.899  1.00  0.00     0.031 A 
ATOM     90  C   UNL A   1      38.708  33.124  35.846  1.00  0.00     0.131 A 
ATOM     91  C   UNL A   1      37.476  31.797  37.936  1.00  0.00     0.055 A 
ATOM     92  C   UNL A   1      38.180  33.855  36.910  1.00  0.00     0.041 A 
ATOM     93  F   UNL A   1      39.269  33.812  34.838  1.00  0.00    -0.206 F 
ATOM     94  C   UNL A   1      37.549  33.192  37.957  1.00  0.00     0.022 A 
BRANCH  91  95
ATOM     95  S   UNL A   1      36.531  30.921  39.213  1.00  0.00     0.124 S 
ATOM     96  O   UNL A   1      35.511  31.903  39.562  1.00  0.00    -0.237 OA
ATOM     97  O   UNL A   1      36.059  29.739  38.497  1.00  0.00    -0.237 OA
ATOM     98  O   UNL A   1      37.522  30.657  40.255  1.00  0.00    -0.744 OA
ENDBRANCH  91  95
ENDBRANCH  65  88
ENDBRANCH  39  40
ENDBRANCH  32  34
ENDBRANCH  31  32
ENDBRANCH  30  31
ENDBRANCH  29  30
ENDBRANCH  28  29
ENDBRANCH  27  28
ENDBRANCH   1  27
TORSDOF 23
ENDMDL
