MODEL 1
REMARK VINA RESULT:     -10.6      0.000      0.000
REMARK SMILES C[C@H]1CCc2sc3ncn4nc(/C=C\C(=O)OCCOCCOC(=O)c5ccc(-c6c7nc(c(-c8cc(S(=O)(=O)[O-])ccc8F)c8ccc([nH]8)c(-c8cc(S(=O)(=O)[O-])ccc8F)c8nc(c(-c9cc(S(=O)(=O)[O-])ccc9F)c9ccc6[nH]9)C=C8)C=C7)cc5)nc4c3c2C1
REMARK SMILES IDX 21 1 20 2 19 3 18 4 17 5 15 6 16 7 14 8 13 9 12 10 1 11 2 12
REMARK SMILES IDX 3 13 93 14 4 15 92 16 5 17 91 18 6 19 7 20 90 21 8 22 10 23
REMARK SMILES IDX 89 24 9 25 11 26 22 27 23 28 24 29 25 30 26 31 27 32 88 33
REMARK SMILES IDX 28 34 87 35 29 36 30 37 31 38 81 39 32 40 86 41 80 42 82 43
REMARK SMILES IDX 33 44 85 45 79 46 78 47 34 49 66 50 46 51 65 52 47 53 50 54
REMARK SMILES IDX 64 55 83 56 48 57 49 58 63 60 84 61 51 62 35 63 36 64 44 65
REMARK SMILES IDX 37 66 43 67 45 68 42 69 38 70 39 71 40 72 41 73 67 74 68 75
REMARK SMILES IDX 76 76 69 77 75 78 77 79 74 80 70 81 71 82 72 83 73 84 52 85
REMARK SMILES IDX 53 86 61 87 54 88 60 89 62 90 59 91 55 92 56 93 57 94 58 95
REMARK H PARENT 82 48 50 59
REMARK Flexibility Score: inf
ROOT
ATOM      1  C   UNL A   1      33.308  34.500  28.179  1.00  0.00     0.202 C 
ENDROOT
BRANCH   1   2
ATOM      2  O   UNL A   1      32.790  34.562  29.505  1.00  0.00    -0.374 OA
BRANCH   2   3
ATOM      3  C   UNL A   1      33.212  35.652  30.326  1.00  0.00     0.202 C 
BRANCH   3   4
ATOM      4  C   UNL A   1      33.431  35.297  31.794  1.00  0.00     0.261 C 
BRANCH   4   5
ATOM      5  O   UNL A   1      33.950  33.961  31.897  1.00  0.00    -0.460 OA
BRANCH   5   6
ATOM      6  C   UNL A   1      34.730  33.680  32.951  1.00  0.00     0.330 C 
ATOM      7  O   UNL A   1      34.743  34.279  34.019  1.00  0.00    -0.247 OA
BRANCH   6   8
ATOM      8  C   UNL A   1      35.488  32.422  32.788  1.00  0.00     0.097 C 
ATOM      9  C   UNL A   1      36.783  32.093  32.918  1.00  0.00     0.058 C 
BRANCH   9  10
ATOM     10  C   UNL A   1      37.935  32.843  33.290  1.00  0.00     0.175 A 
ATOM     11  C   UNL A   1      41.772  35.683  28.534  1.00  0.00     0.008 C 
ATOM     12  C   UNL A   1      42.273  34.356  29.113  1.00  0.00    -0.009 C 
ATOM     13  C   UNL A   1      43.764  34.423  29.513  1.00  0.00     0.009 C 
ATOM     14  C   UNL A   1      41.399  33.888  30.291  1.00  0.00     0.041 C 
ATOM     15  C   UNL A   1      44.048  35.323  30.734  1.00  0.00     0.047 C 
ATOM     16  C   UNL A   1      41.812  34.461  31.602  1.00  0.00    -0.020 A 
ATOM     17  C   UNL A   1      43.017  35.106  31.799  1.00  0.00     0.011 A 
ATOM     18  C   UNL A   1      41.089  34.408  32.808  1.00  0.00     0.060 A 
ATOM     19  S   UNL A   1      43.203  35.686  33.398  1.00  0.00    -0.120 S 
ATOM     20  C   UNL A   1      41.683  35.053  33.879  1.00  0.00     0.129 A 
ATOM     21  C   UNL A   1      39.792  33.794  33.120  1.00  0.00     0.168 A 
ATOM     22  N   UNL A   1      41.179  35.199  35.153  1.00  0.00    -0.225 NA
ATOM     23  N   UNL A   1      39.332  33.927  34.389  1.00  0.00    -0.201 N 
ATOM     24  N   UNL A   1      38.939  33.119  32.396  1.00  0.00    -0.207 NA
ATOM     25  C   UNL A   1      40.018  34.631  35.380  1.00  0.00     0.227 A 
ATOM     26  N   UNL A   1      38.136  33.325  34.533  1.00  0.00    -0.145 NA
ENDBRANCH   9  10
ENDBRANCH   6   8
ENDBRANCH   5   6
ENDBRANCH   4   5
ENDBRANCH   3   4
ENDBRANCH   2   3
ENDBRANCH   1   2
BRANCH   1  27
ATOM     27  C   UNL A   1      34.774  34.116  28.045  1.00  0.00     0.261 C 
BRANCH  27  28
ATOM     28  O   UNL A   1      35.118  33.003  28.869  1.00  0.00    -0.460 OA
BRANCH  28  29
ATOM     29  C   UNL A   1      35.330  31.850  28.195  1.00  0.00     0.338 C 
ATOM     30  O   UNL A   1      34.673  31.422  27.254  1.00  0.00    -0.246 OA
BRANCH  29  31
ATOM     31  C   UNL A   1      36.339  31.068  28.919  1.00  0.00     0.060 A 
ATOM     32  C   UNL A   1      37.491  31.751  29.310  1.00  0.00     0.016 A 
ATOM     33  C   UNL A   1      36.270  29.664  28.944  1.00  0.00     0.016 A 
ATOM     34  C   UNL A   1      38.641  31.024  29.530  1.00  0.00     0.010 A 
ATOM     35  C   UNL A   1      37.423  28.939  29.157  1.00  0.00     0.010 A 
ATOM     36  C   UNL A   1      38.611  29.632  29.367  1.00  0.00    -0.014 A 
BRANCH  36  37
ATOM     37  C   UNL A   1      39.853  28.909  29.547  1.00  0.00     0.031 A 
ATOM     38  C   UNL A   1      40.208  28.747  30.973  1.00  0.00     0.074 A 
ATOM     39  C   UNL A   1      40.593  28.411  28.539  1.00  0.00     0.049 A 
ATOM     40  N   UNL A   1      41.120  29.393  31.615  1.00  0.00    -0.248 NA
ATOM     41  C   UNL A   1      39.325  27.942  31.828  1.00  0.00     0.031 C 
ATOM     42  C   UNL A   1      40.276  28.321  27.115  1.00  0.00     0.029 A 
ATOM     43  N   UNL A   1      41.808  27.804  28.616  1.00  0.00    -0.354 N 
ATOM     44  C   UNL A   1      41.082  28.909  32.914  1.00  0.00     0.074 A 
ATOM     45  C   UNL A   1      39.847  28.182  33.032  1.00  0.00     0.031 C 
ATOM     46  C   UNL A   1      41.168  27.502  26.508  1.00  0.00     0.029 A 
ATOM     47  C   UNL A   1      42.191  27.117  27.470  1.00  0.00     0.049 A 
ATOM     48  H   UNL A   1      42.373  27.848  29.421  1.00  0.00     0.167 HD
ATOM     49  C   UNL A   1      42.190  28.953  33.702  1.00  0.00     0.034 A 
ATOM     50  C   UNL A   1      43.244  26.259  27.350  1.00  0.00     0.034 A 
ATOM     51  C   UNL A   1      43.167  29.881  33.176  1.00  0.00     0.049 A 
ATOM     52  C   UNL A   1      44.220  26.658  28.403  1.00  0.00     0.074 A 
ATOM     53  C   UNL A   1      43.159  31.238  32.909  1.00  0.00     0.029 A 
ATOM     54  N   UNL A   1      44.226  29.370  32.459  1.00  0.00    -0.354 N 
ATOM     55  N   UNL A   1      44.830  27.814  28.397  1.00  0.00    -0.248 NA
ATOM     56  C   UNL A   1      44.117  26.021  29.710  1.00  0.00     0.031 C 
ATOM     57  C   UNL A   1      43.865  31.371  31.677  1.00  0.00     0.029 A 
ATOM     58  C   UNL A   1      44.332  30.109  31.305  1.00  0.00     0.049 A 
ATOM     59  H   UNL A   1      44.799  28.615  32.724  1.00  0.00     0.167 HD
ATOM     60  C   UNL A   1      44.792  28.248  29.715  1.00  0.00     0.074 A 
ATOM     61  C   UNL A   1      44.413  27.066  30.491  1.00  0.00     0.031 C 
ATOM     62  C   UNL A   1      44.785  29.577  30.033  1.00  0.00     0.034 A 
BRANCH  49  63
ATOM     63  C   UNL A   1      42.553  27.897  34.716  1.00  0.00     0.023 A 
ATOM     64  C   UNL A   1      43.332  26.817  34.265  1.00  0.00     0.031 A 
ATOM     65  C   UNL A   1      41.945  27.737  35.982  1.00  0.00     0.131 A 
ATOM     66  C   UNL A   1      43.391  25.618  34.996  1.00  0.00     0.055 A 
ATOM     67  C   UNL A   1      42.059  26.566  36.734  1.00  0.00     0.041 A 
ATOM     68  F   UNL A   1      41.130  28.651  36.519  1.00  0.00    -0.206 F 
ATOM     69  C   UNL A   1      42.756  25.485  36.228  1.00  0.00     0.022 A 
BRANCH  66  70
ATOM     70  S   UNL A   1      44.178  24.183  34.226  1.00  0.00     0.124 S 
ATOM     71  O   UNL A   1      45.064  23.725  35.292  1.00  0.00    -0.237 OA
ATOM     72  O   UNL A   1      43.030  23.332  33.932  1.00  0.00    -0.237 OA
ATOM     73  O   UNL A   1      44.848  24.751  33.059  1.00  0.00    -0.744 OA
ENDBRANCH  66  70
ENDBRANCH  49  63
BRANCH  50  74
ATOM     74  C   UNL A   1      43.242  24.929  26.661  1.00  0.00     0.023 A 
ATOM     75  C   UNL A   1      42.359  23.874  26.998  1.00  0.00     0.031 A 
ATOM     76  C   UNL A   1      43.983  24.760  25.468  1.00  0.00     0.131 A 
ATOM     77  C   UNL A   1      42.258  22.727  26.167  1.00  0.00     0.055 A 
ATOM     78  C   UNL A   1      43.881  23.627  24.656  1.00  0.00     0.041 A 
ATOM     79  F   UNL A   1      44.777  25.732  24.995  1.00  0.00    -0.206 F 
ATOM     80  C   UNL A   1      43.011  22.608  24.997  1.00  0.00     0.022 A 
BRANCH  77  81
ATOM     81  S   UNL A   1      41.063  21.394  26.535  1.00  0.00     0.124 S 
ATOM     82  O   UNL A   1      41.063  21.374  27.993  1.00  0.00    -0.237 OA
ATOM     83  O   UNL A   1      39.845  21.874  25.893  1.00  0.00    -0.237 OA
ATOM     84  O   UNL A   1      41.661  20.216  25.904  1.00  0.00    -0.744 OA
ENDBRANCH  77  81
ENDBRANCH  50  74
BRANCH  62  85
ATOM     85  C   UNL A   1      45.065  30.593  28.944  1.00  0.00     0.023 A 
ATOM     86  C   UNL A   1      46.348  31.072  28.594  1.00  0.00     0.031 A 
ATOM     87  C   UNL A   1      43.986  30.948  28.114  1.00  0.00     0.131 A 
ATOM     88  C   UNL A   1      46.511  31.875  27.444  1.00  0.00     0.055 A 
ATOM     89  C   UNL A   1      44.154  31.723  26.968  1.00  0.00     0.041 A 
ATOM     90  F   UNL A   1      42.749  30.495  28.378  1.00  0.00    -0.206 F 
ATOM     91  C   UNL A   1      45.419  32.190  26.629  1.00  0.00     0.022 A 
BRANCH  88  92
ATOM     92  S   UNL A   1      48.158  32.498  26.968  1.00  0.00     0.124 S 
ATOM     93  O   UNL A   1      48.843  31.301  26.494  1.00  0.00    -0.237 OA
ATOM     94  O   UNL A   1      47.843  33.501  25.954  1.00  0.00    -0.237 OA
ATOM     95  O   UNL A   1      48.691  33.048  28.216  1.00  0.00    -0.744 OA
ENDBRANCH  88  92
ENDBRANCH  62  85
ENDBRANCH  36  37
ENDBRANCH  29  31
ENDBRANCH  28  29
ENDBRANCH  27  28
ENDBRANCH   1  27
TORSDOF 18
ENDMDL
MODEL 2
REMARK VINA RESULT:     -10.4      4.611      8.218
REMARK SMILES C[C@H]1CCc2sc3ncn4nc(/C=C\C(=O)OCCOCCOC(=O)c5ccc(-c6c7nc(c(-c8cc(S(=O)(=O)[O-])ccc8F)c8ccc([nH]8)c(-c8cc(S(=O)(=O)[O-])ccc8F)c8nc(c(-c9cc(S(=O)(=O)[O-])ccc9F)c9ccc6[nH]9)C=C8)C=C7)cc5)nc4c3c2C1
REMARK SMILES IDX 21 1 20 2 19 3 18 4 17 5 15 6 16 7 14 8 13 9 12 10 1 11 2 12
REMARK SMILES IDX 3 13 93 14 4 15 92 16 5 17 91 18 6 19 7 20 90 21 8 22 10 23
REMARK SMILES IDX 89 24 9 25 11 26 22 27 23 28 24 29 25 30 26 31 27 32 88 33
REMARK SMILES IDX 28 34 87 35 29 36 30 37 31 38 81 39 32 40 86 41 80 42 82 43
REMARK SMILES IDX 33 44 85 45 79 46 78 47 34 49 66 50 46 51 65 52 47 53 50 54
REMARK SMILES IDX 64 55 83 56 48 57 49 58 63 60 84 61 51 62 35 63 36 64 44 65
REMARK SMILES IDX 37 66 43 67 45 68 42 69 38 70 39 71 40 72 41 73 67 74 68 75
REMARK SMILES IDX 76 76 69 77 75 78 77 79 74 80 70 81 71 82 72 83 73 84 52 85
REMARK SMILES IDX 53 86 61 87 54 88 60 89 62 90 59 91 55 92 56 93 57 94 58 95
REMARK H PARENT 82 48 50 59
REMARK Flexibility Score: inf
ROOT
ATOM      1  C   UNL A   1      33.468  30.428  27.481  1.00  0.00     0.202 C 
ENDROOT
BRANCH   1   2
ATOM      2  O   UNL A   1      33.269  29.966  26.148  1.00  0.00    -0.374 OA
BRANCH   2   3
ATOM      3  C   UNL A   1      32.044  29.289  25.861  1.00  0.00     0.202 C 
BRANCH   3   4
ATOM      4  C   UNL A   1      31.609  29.351  24.400  1.00  0.00     0.261 C 
BRANCH   4   5
ATOM      5  O   UNL A   1      31.850  28.084  23.769  1.00  0.00    -0.460 OA
BRANCH   5   6
ATOM      6  C   UNL A   1      30.792  27.436  23.257  1.00  0.00     0.330 C 
ATOM      7  O   UNL A   1      30.436  27.449  22.085  1.00  0.00    -0.247 OA
BRANCH   6   8
ATOM      8  C   UNL A   1      30.154  26.519  24.223  1.00  0.00     0.097 C 
ATOM      9  C   UNL A   1      30.576  25.440  24.901  1.00  0.00     0.058 C 
BRANCH   9  10
ATOM     10  C   UNL A   1      31.833  24.772  24.962  1.00  0.00     0.175 A 
ATOM     11  C   UNL A   1      32.460  18.566  22.411  1.00  0.00     0.008 C 
ATOM     12  C   UNL A   1      32.278  18.666  23.928  1.00  0.00    -0.009 C 
ATOM     13  C   UNL A   1      33.311  17.809  24.694  1.00  0.00     0.009 C 
ATOM     14  C   UNL A   1      32.301  20.130  24.406  1.00  0.00     0.041 C 
ATOM     15  C   UNL A   1      34.757  18.340  24.607  1.00  0.00     0.047 C 
ATOM     16  C   UNL A   1      33.672  20.645  24.672  1.00  0.00    -0.020 A 
ATOM     17  C   UNL A   1      34.782  19.829  24.768  1.00  0.00     0.011 A 
ATOM     18  C   UNL A   1      34.037  21.986  24.897  1.00  0.00     0.060 A 
ATOM     19  S   UNL A   1      36.225  20.705  25.049  1.00  0.00    -0.120 S 
ATOM     20  C   UNL A   1      35.391  22.203  25.086  1.00  0.00     0.129 A 
ATOM     21  C   UNL A   1      33.220  23.204  24.947  1.00  0.00     0.168 A 
ATOM     22  N   UNL A   1      36.027  23.411  25.275  1.00  0.00    -0.225 NA
ATOM     23  N   UNL A   1      33.866  24.377  25.164  1.00  0.00    -0.201 N 
ATOM     24  N   UNL A   1      31.936  23.412  24.812  1.00  0.00    -0.207 NA
ATOM     25  C   UNL A   1      35.251  24.469  25.313  1.00  0.00     0.227 A 
ATOM     26  N   UNL A   1      33.001  25.408  25.180  1.00  0.00    -0.145 NA
ENDBRANCH   9  10
ENDBRANCH   6   8
ENDBRANCH   5   6
ENDBRANCH   4   5
ENDBRANCH   3   4
ENDBRANCH   2   3
ENDBRANCH   1   2
BRANCH   1  27
ATOM     27  C   UNL A   1      33.824  31.898  27.639  1.00  0.00     0.261 C 
BRANCH  27  28
ATOM     28  O   UNL A   1      35.232  32.104  27.739  1.00  0.00    -0.460 OA
BRANCH  28  29
ATOM     29  C   UNL A   1      35.760  31.800  28.946  1.00  0.00     0.338 C 
ATOM     30  O   UNL A   1      35.342  32.163  30.039  1.00  0.00    -0.246 OA
BRANCH  29  31
ATOM     31  C   UNL A   1      37.060  31.152  28.736  1.00  0.00     0.060 A 
ATOM     32  C   UNL A   1      37.031  29.859  28.211  1.00  0.00     0.016 A 
ATOM     33  C   UNL A   1      38.226  31.689  29.307  1.00  0.00     0.016 A 
ATOM     34  C   UNL A   1      38.109  29.034  28.443  1.00  0.00     0.010 A 
ATOM     35  C   UNL A   1      39.300  30.858  29.545  1.00  0.00     0.010 A 
ATOM     36  C   UNL A   1      39.195  29.520  29.182  1.00  0.00    -0.014 A 
BRANCH  36  37
ATOM     37  C   UNL A   1      40.283  28.603  29.458  1.00  0.00     0.031 A 
ATOM     38  C   UNL A   1      40.577  28.498  30.902  1.00  0.00     0.074 A 
ATOM     39  C   UNL A   1      40.938  27.900  28.515  1.00  0.00     0.049 A 
ATOM     40  N   UNL A   1      41.579  29.022  31.521  1.00  0.00    -0.248 NA
ATOM     41  C   UNL A   1      39.548  27.937  31.788  1.00  0.00     0.031 C 
ATOM     42  C   UNL A   1      40.635  27.751  27.093  1.00  0.00     0.029 A 
ATOM     43  N   UNL A   1      42.022  27.094  28.679  1.00  0.00    -0.354 N 
ATOM     44  C   UNL A   1      41.432  28.661  32.852  1.00  0.00     0.074 A 
ATOM     45  C   UNL A   1      40.083  28.178  32.987  1.00  0.00     0.031 C 
ATOM     46  C   UNL A   1      41.375  26.738  26.581  1.00  0.00     0.029 A 
ATOM     47  C   UNL A   1      42.294  26.257  27.602  1.00  0.00     0.049 A 
ATOM     48  H   UNL A   1      42.571  27.102  29.495  1.00  0.00     0.167 HD
ATOM     49  C   UNL A   1      42.516  28.571  33.669  1.00  0.00     0.034 A 
ATOM     50  C   UNL A   1      43.177  25.218  27.583  1.00  0.00     0.034 A 
ATOM     51  C   UNL A   1      43.653  29.263  33.105  1.00  0.00     0.049 A 
ATOM     52  C   UNL A   1      44.190  25.521  28.633  1.00  0.00     0.074 A 
ATOM     53  C   UNL A   1      43.896  30.572  32.732  1.00  0.00     0.029 A 
ATOM     54  N   UNL A   1      44.615  28.513  32.464  1.00  0.00    -0.354 N 
ATOM     55  N   UNL A   1      44.999  26.545  28.557  1.00  0.00    -0.248 NA
ATOM     56  C   UNL A   1      43.951  25.023  29.982  1.00  0.00     0.031 C 
ATOM     57  C   UNL A   1      44.635  30.475  31.517  1.00  0.00     0.029 A 
ATOM     58  C   UNL A   1      44.873  29.124  31.260  1.00  0.00     0.049 A 
ATOM     59  H   UNL A   1      45.037  27.692  32.805  1.00  0.00     0.167 HD
ATOM     60  C   UNL A   1      45.017  27.086  29.835  1.00  0.00     0.074 A 
ATOM     61  C   UNL A   1      44.417  26.059  30.688  1.00  0.00     0.031 C 
ATOM     62  C   UNL A   1      45.244  28.416  30.048  1.00  0.00     0.034 A 
BRANCH  49  63
ATOM     63  C   UNL A   1      42.664  27.554  34.773  1.00  0.00     0.023 A 
ATOM     64  C   UNL A   1      43.418  26.402  34.487  1.00  0.00     0.031 A 
ATOM     65  C   UNL A   1      41.881  27.505  35.949  1.00  0.00     0.131 A 
ATOM     66  C   UNL A   1      43.294  25.247  35.277  1.00  0.00     0.055 A 
ATOM     67  C   UNL A   1      41.810  26.375  36.766  1.00  0.00     0.041 A 
ATOM     68  F   UNL A   1      41.067  28.499  36.324  1.00  0.00    -0.206 F 
ATOM     69  C   UNL A   1      42.491  25.225  36.414  1.00  0.00     0.022 A 
BRANCH  66  70
ATOM     70  S   UNL A   1      44.075  23.723  34.693  1.00  0.00     0.124 S 
ATOM     71  O   UNL A   1      42.955  23.044  34.050  1.00  0.00    -0.237 OA
ATOM     72  O   UNL A   1      45.113  24.237  33.805  1.00  0.00    -0.237 OA
ATOM     73  O   UNL A   1      44.561  23.100  35.922  1.00  0.00    -0.744 OA
ENDBRANCH  66  70
ENDBRANCH  49  63
BRANCH  50  74
ATOM     74  C   UNL A   1      42.947  23.858  27.000  1.00  0.00     0.023 A 
ATOM     75  C   UNL A   1      43.835  23.237  26.088  1.00  0.00     0.031 A 
ATOM     76  C   UNL A   1      41.928  23.033  27.533  1.00  0.00     0.131 A 
ATOM     77  C   UNL A   1      43.674  21.868  25.747  1.00  0.00     0.055 A 
ATOM     78  C   UNL A   1      41.774  21.687  27.191  1.00  0.00     0.041 A 
ATOM     79  F   UNL A   1      41.090  23.482  28.478  1.00  0.00    -0.206 F 
ATOM     80  C   UNL A   1      42.652  21.095  26.301  1.00  0.00     0.022 A 
BRANCH  77  81
ATOM     81  S   UNL A   1      44.859  21.023  24.640  1.00  0.00     0.124 S 
ATOM     82  O   UNL A   1      46.088  21.051  25.425  1.00  0.00    -0.237 OA
ATOM     83  O   UNL A   1      44.239  19.716  24.451  1.00  0.00    -0.237 OA
ATOM     84  O   UNL A   1      44.874  21.868  23.446  1.00  0.00    -0.744 OA
ENDBRANCH  77  81
ENDBRANCH  50  74
BRANCH  62  85
ATOM     85  C   UNL A   1      45.723  29.273  28.893  1.00  0.00     0.023 A 
ATOM     86  C   UNL A   1      44.939  30.241  28.224  1.00  0.00     0.031 A 
ATOM     87  C   UNL A   1      47.094  29.217  28.586  1.00  0.00     0.131 A 
ATOM     88  C   UNL A   1      45.540  31.109  27.287  1.00  0.00     0.055 A 
ATOM     89  C   UNL A   1      47.688  30.090  27.677  1.00  0.00     0.041 A 
ATOM     90  F   UNL A   1      47.895  28.341  29.215  1.00  0.00    -0.206 F 
ATOM     91  C   UNL A   1      46.912  31.040  27.023  1.00  0.00     0.022 A 
BRANCH  88  92
ATOM     92  S   UNL A   1      44.551  32.371  26.417  1.00  0.00     0.124 S 
ATOM     93  O   UNL A   1      43.505  31.588  25.770  1.00  0.00    -0.237 OA
ATOM     94  O   UNL A   1      44.119  33.247  27.502  1.00  0.00    -0.237 OA
ATOM     95  O   UNL A   1      45.511  32.981  25.494  1.00  0.00    -0.744 OA
ENDBRANCH  88  92
ENDBRANCH  62  85
ENDBRANCH  36  37
ENDBRANCH  29  31
ENDBRANCH  28  29
ENDBRANCH  27  28
ENDBRANCH   1  27
TORSDOF 18
ENDMDL
MODEL 3
REMARK VINA RESULT:     -10.4      4.848     10.748
REMARK SMILES C[C@H]1CCc2sc3ncn4nc(/C=C\C(=O)OCCOCCOC(=O)c5ccc(-c6c7nc(c(-c8cc(S(=O)(=O)[O-])ccc8F)c8ccc([nH]8)c(-c8cc(S(=O)(=O)[O-])ccc8F)c8nc(c(-c9cc(S(=O)(=O)[O-])ccc9F)c9ccc6[nH]9)C=C8)C=C7)cc5)nc4c3c2C1
REMARK SMILES IDX 21 1 20 2 19 3 18 4 17 5 15 6 16 7 14 8 13 9 12 10 1 11 2 12
REMARK SMILES IDX 3 13 93 14 4 15 92 16 5 17 91 18 6 19 7 20 90 21 8 22 10 23
REMARK SMILES IDX 89 24 9 25 11 26 22 27 23 28 24 29 25 30 26 31 27 32 88 33
REMARK SMILES IDX 28 34 87 35 29 36 30 37 31 38 81 39 32 40 86 41 80 42 82 43
REMARK SMILES IDX 33 44 85 45 79 46 78 47 34 49 66 50 46 51 65 52 47 53 50 54
REMARK SMILES IDX 64 55 83 56 48 57 49 58 63 60 84 61 51 62 35 63 36 64 44 65
REMARK SMILES IDX 37 66 43 67 45 68 42 69 38 70 39 71 40 72 41 73 67 74 68 75
REMARK SMILES IDX 76 76 69 77 75 78 77 79 74 80 70 81 71 82 72 83 73 84 52 85
REMARK SMILES IDX 53 86 61 87 54 88 60 89 62 90 59 91 55 92 56 93 57 94 58 95
REMARK H PARENT 82 48 50 59
REMARK Flexibility Score: inf
ROOT
ATOM      1  C   UNL A   1      34.387  29.575  27.244  1.00  0.00     0.202 C 
ENDROOT
BRANCH   1   2
ATOM      2  O   UNL A   1      32.999  29.695  26.945  1.00  0.00    -0.374 OA
BRANCH   2   3
ATOM      3  C   UNL A   1      32.308  28.511  26.543  1.00  0.00     0.202 C 
BRANCH   3   4
ATOM      4  C   UNL A   1      31.659  28.590  25.164  1.00  0.00     0.261 C 
BRANCH   4   5
ATOM      5  O   UNL A   1      31.852  27.350  24.466  1.00  0.00    -0.460 OA
BRANCH   5   6
ATOM      6  C   UNL A   1      30.764  26.605  24.216  1.00  0.00     0.330 C 
ATOM      7  O   UNL A   1      30.220  26.466  23.128  1.00  0.00    -0.247 OA
BRANCH   6   8
ATOM      8  C   UNL A   1      30.350  25.782  25.370  1.00  0.00     0.097 C 
ATOM      9  C   UNL A   1      30.915  24.763  26.037  1.00  0.00     0.058 C 
BRANCH   9  10
ATOM     10  C   UNL A   1      32.164  24.092  25.893  1.00  0.00     0.175 A 
ATOM     11  C   UNL A   1      32.508  18.371  22.349  1.00  0.00     0.008 C 
ATOM     12  C   UNL A   1      32.444  18.227  23.872  1.00  0.00    -0.009 C 
ATOM     13  C   UNL A   1      33.521  17.258  24.410  1.00  0.00     0.009 C 
ATOM     14  C   UNL A   1      32.525  19.596  24.573  1.00  0.00     0.041 C 
ATOM     15  C   UNL A   1      34.963  17.795  24.295  1.00  0.00     0.047 C 
ATOM     16  C   UNL A   1      33.919  20.061  24.810  1.00  0.00    -0.020 A 
ATOM     17  C   UNL A   1      35.021  19.239  24.688  1.00  0.00     0.011 A 
ATOM     18  C   UNL A   1      34.318  21.349  25.216  1.00  0.00     0.060 A 
ATOM     19  S   UNL A   1      36.493  20.057  24.992  1.00  0.00    -0.120 S 
ATOM     20  C   UNL A   1      35.686  21.531  25.331  1.00  0.00     0.129 A 
ATOM     21  C   UNL A   1      33.524  22.544  25.522  1.00  0.00     0.168 A 
ATOM     22  N   UNL A   1      36.350  22.692  25.659  1.00  0.00    -0.225 NA
ATOM     23  N   UNL A   1      34.201  23.667  25.871  1.00  0.00    -0.201 N 
ATOM     24  N   UNL A   1      32.237  22.773  25.522  1.00  0.00    -0.207 NA
ATOM     25  C   UNL A   1      35.594  23.731  25.925  1.00  0.00     0.227 A 
ATOM     26  N   UNL A   1      33.354  24.684  26.118  1.00  0.00    -0.145 NA
ENDBRANCH   9  10
ENDBRANCH   6   8
ENDBRANCH   5   6
ENDBRANCH   4   5
ENDBRANCH   3   4
ENDBRANCH   2   3
ENDBRANCH   1   2
BRANCH   1  27
ATOM     27  C   UNL A   1      35.022  30.749  27.976  1.00  0.00     0.261 C 
BRANCH  27  28
ATOM     28  O   UNL A   1      36.426  30.574  28.160  1.00  0.00    -0.460 OA
BRANCH  28  29
ATOM     29  C   UNL A   1      36.760  29.638  29.077  1.00  0.00     0.338 C 
ATOM     30  O   UNL A   1      36.296  29.521  30.204  1.00  0.00    -0.246 OA
BRANCH  29  31
ATOM     31  C   UNL A   1      37.944  28.916  28.595  1.00  0.00     0.060 A 
ATOM     32  C   UNL A   1      38.531  28.020  29.489  1.00  0.00     0.016 A 
ATOM     33  C   UNL A   1      38.605  29.330  27.425  1.00  0.00     0.016 A 
ATOM     34  C   UNL A   1      39.859  27.698  29.316  1.00  0.00     0.010 A 
ATOM     35  C   UNL A   1      39.936  29.013  27.259  1.00  0.00     0.010 A 
ATOM     36  C   UNL A   1      40.568  28.267  28.250  1.00  0.00    -0.014 A 
BRANCH  36  37
ATOM     37  C   UNL A   1      41.977  27.953  28.137  1.00  0.00     0.031 A 
ATOM     38  C   UNL A   1      42.215  26.687  27.413  1.00  0.00     0.074 A 
ATOM     39  C   UNL A   1      42.967  28.734  28.608  1.00  0.00     0.049 A 
ATOM     40  N   UNL A   1      42.559  25.559  27.933  1.00  0.00    -0.248 NA
ATOM     41  C   UNL A   1      41.827  26.604  25.998  1.00  0.00     0.031 C 
ATOM     42  C   UNL A   1      42.897  30.086  29.159  1.00  0.00     0.029 A 
ATOM     43  N   UNL A   1      44.302  28.471  28.624  1.00  0.00    -0.354 N 
ATOM     44  C   UNL A   1      42.657  24.669  26.874  1.00  0.00     0.074 A 
ATOM     45  C   UNL A   1      42.009  25.304  25.758  1.00  0.00     0.031 C 
ATOM     46  C   UNL A   1      44.148  30.601  29.245  1.00  0.00     0.029 A 
ATOM     47  C   UNL A   1      45.111  29.572  28.879  1.00  0.00     0.049 A 
ATOM     48  H   UNL A   1      44.667  27.570  28.467  1.00  0.00     0.167 HD
ATOM     49  C   UNL A   1      43.477  23.586  26.954  1.00  0.00     0.034 A 
ATOM     50  C   UNL A   1      46.467  29.633  28.745  1.00  0.00     0.034 A 
ATOM     51  C   UNL A   1      43.842  23.308  28.325  1.00  0.00     0.049 A 
ATOM     52  C   UNL A   1      46.957  28.234  28.892  1.00  0.00     0.074 A 
ATOM     53  C   UNL A   1      43.128  22.998  29.467  1.00  0.00     0.029 A 
ATOM     54  N   UNL A   1      45.076  23.733  28.765  1.00  0.00    -0.354 N 
ATOM     55  N   UNL A   1      46.839  27.559  30.006  1.00  0.00    -0.248 NA
ATOM     56  C   UNL A   1      47.082  27.421  27.689  1.00  0.00     0.031 C 
ATOM     57  C   UNL A   1      43.770  23.729  30.509  1.00  0.00     0.029 A 
ATOM     58  C   UNL A   1      44.882  24.374  29.965  1.00  0.00     0.049 A 
ATOM     59  H   UNL A   1      45.936  23.602  28.305  1.00  0.00     0.167 HD
ATOM     60  C   UNL A   1      46.438  26.288  29.617  1.00  0.00     0.074 A 
ATOM     61  C   UNL A   1      46.683  26.240  28.174  1.00  0.00     0.031 C 
ATOM     62  C   UNL A   1      45.679  25.495  30.430  1.00  0.00     0.034 A 
BRANCH  49  63
ATOM     63  C   UNL A   1      44.248  23.019  25.788  1.00  0.00     0.023 A 
ATOM     64  C   UNL A   1      44.154  21.633  25.571  1.00  0.00     0.031 A 
ATOM     65  C   UNL A   1      45.278  23.687  25.087  1.00  0.00     0.131 A 
ATOM     66  C   UNL A   1      45.109  20.960  24.790  1.00  0.00     0.055 A 
ATOM     67  C   UNL A   1      46.187  23.022  24.261  1.00  0.00     0.041 A 
ATOM     68  F   UNL A   1      45.530  24.992  25.233  1.00  0.00    -0.206 F 
ATOM     69  C   UNL A   1      46.128  21.646  24.135  1.00  0.00     0.022 A 
BRANCH  66  70
ATOM     70  S   UNL A   1      45.088  19.151  24.782  1.00  0.00     0.124 S 
ATOM     71  O   UNL A   1      46.394  18.838  25.354  1.00  0.00    -0.237 OA
ATOM     72  O   UNL A   1      43.931  18.859  25.621  1.00  0.00    -0.237 OA
ATOM     73  O   UNL A   1      44.930  18.821  23.368  1.00  0.00    -0.744 OA
ENDBRANCH  66  70
ENDBRANCH  49  63
BRANCH  50  74
ATOM     74  C   UNL A   1      47.257  30.743  28.123  1.00  0.00     0.023 A 
ATOM     75  C   UNL A   1      46.685  31.745  27.300  1.00  0.00     0.031 A 
ATOM     76  C   UNL A   1      48.592  30.965  28.534  1.00  0.00     0.131 A 
ATOM     77  C   UNL A   1      47.443  32.886  26.926  1.00  0.00     0.055 A 
ATOM     78  C   UNL A   1      49.333  32.090  28.159  1.00  0.00     0.041 A 
ATOM     79  F   UNL A   1      49.206  30.137  29.392  1.00  0.00    -0.206 F 
ATOM     80  C   UNL A   1      48.759  33.061  27.359  1.00  0.00     0.022 A 
BRANCH  77  81
ATOM     81  S   UNL A   1      46.699  34.233  25.939  1.00  0.00     0.124 S 
ATOM     82  O   UNL A   1      47.781  34.577  25.023  1.00  0.00    -0.237 OA
ATOM     83  O   UNL A   1      45.531  33.588  25.352  1.00  0.00    -0.237 OA
ATOM     84  O   UNL A   1      46.392  35.258  26.937  1.00  0.00    -0.744 OA
ENDBRANCH  77  81
ENDBRANCH  50  74
BRANCH  62  85
ATOM     85  C   UNL A   1      45.473  25.910  31.874  1.00  0.00     0.023 A 
ATOM     86  C   UNL A   1      44.267  26.424  32.405  1.00  0.00     0.031 A 
ATOM     87  C   UNL A   1      46.502  25.594  32.778  1.00  0.00     0.131 A 
ATOM     88  C   UNL A   1      44.131  26.602  33.798  1.00  0.00     0.055 A 
ATOM     89  C   UNL A   1      46.357  25.751  34.155  1.00  0.00     0.041 A 
ATOM     90  F   UNL A   1      47.658  25.071  32.335  1.00  0.00    -0.206 F 
ATOM     91  C   UNL A   1      45.169  26.256  34.670  1.00  0.00     0.022 A 
BRANCH  88  92
ATOM     92  S   UNL A   1      42.583  27.257  34.508  1.00  0.00     0.124 S 
ATOM     93  O   UNL A   1      41.900  26.059  34.981  1.00  0.00    -0.237 OA
ATOM     94  O   UNL A   1      43.062  28.172  35.540  1.00  0.00    -0.237 OA
ATOM     95  O   UNL A   1      41.936  27.914  33.370  1.00  0.00    -0.744 OA
ENDBRANCH  88  92
ENDBRANCH  62  85
ENDBRANCH  36  37
ENDBRANCH  29  31
ENDBRANCH  28  29
ENDBRANCH  27  28
ENDBRANCH   1  27
TORSDOF 18
ENDMDL
