MODEL 1
REMARK VINA RESULT:     -11.5      0.000      0.000
REMARK SMILES O=C(CSc1nnnn1-c1ccc(C(=O)OCCOCCOC(=O)c2ccc(-c3c4nc(c(-c5cc(S(=O)(=O)[O-])ccc5F)c5ccc([nH]5)c(-c5cc(S(=O)(=O)[O-])ccc5F)c5nc(c(-c6cc(S(=O)(=O)[O-])ccc6F)c6ccc3[nH]6)C=C5)C=C4)cc2)cc1)Nc1nc(-c2ccccc2)cs1
REMARK SMILES IDX 17 1 16 2 14 3 15 4 13 5 10 6 11 7 89 8 12 9 88 10 9 11 5 12
REMARK SMILES IDX 6 13 7 14 8 15 4 16 3 17 2 18 1 19 90 20 91 22 92 23 101 24
REMARK SMILES IDX 93 25 100 26 94 27 95 28 99 29 96 30 98 31 97 32 18 33 19 34
REMARK SMILES IDX 20 35 21 36 22 37 23 38 24 39 25 40 26 41 87 42 27 43 86 44
REMARK SMILES IDX 28 45 29 46 30 47 80 48 31 49 85 50 79 51 81 52 32 53 84 54
REMARK SMILES IDX 78 55 77 56 33 58 65 59 45 60 64 61 46 62 49 63 63 64 82 65
REMARK SMILES IDX 47 66 48 67 62 69 83 70 50 71 34 72 35 73 43 74 36 75 42 76
REMARK SMILES IDX 44 77 41 78 37 79 38 80 39 81 40 82 66 83 67 84 75 85 68 86
REMARK SMILES IDX 74 87 76 88 73 89 69 90 70 91 71 92 72 93 51 94 52 95 60 96
REMARK SMILES IDX 53 97 59 98 61 99 58 100 54 101 55 102 56 103 57 104
REMARK H PARENT 90 21 81 57 49 68
REMARK Flexibility Score: inf
ROOT
ATOM      1  C   UNL A   1      38.545  21.409  25.399  1.00  0.00     0.261 C 
ENDROOT
BRANCH   1   2
ATOM      2  O   UNL A   1      37.460  22.180  24.867  1.00  0.00    -0.460 OA
BRANCH   2   3
ATOM      3  C   UNL A   1      36.231  21.667  25.107  1.00  0.00     0.338 C 
ATOM      4  O   UNL A   1      35.908  20.489  25.103  1.00  0.00    -0.246 OA
BRANCH   3   5
ATOM      5  C   UNL A   1      35.296  22.739  25.517  1.00  0.00     0.060 A 
ATOM      6  C   UNL A   1      33.314  24.621  25.965  1.00  0.00     0.069 A 
ATOM      7  C   UNL A   1      33.090  23.301  26.357  1.00  0.00     0.029 A 
ATOM      8  C   UNL A   1      34.581  25.035  25.544  1.00  0.00     0.029 A 
ATOM      9  C   UNL A   1      34.081  22.355  26.106  1.00  0.00     0.018 A 
ATOM     10  C   UNL A   1      35.577  24.090  25.307  1.00  0.00     0.018 A 
BRANCH   6  11
ATOM     11  N   UNL A   1      32.248  25.533  25.947  1.00  0.00    -0.187 N 
ATOM     12  C   UNL A   1      31.578  26.116  24.878  1.00  0.00     0.214 A 
ATOM     13  N   UNL A   1      30.760  27.027  25.366  1.00  0.00    -0.101 NA
ATOM     14  N   UNL A   1      30.822  26.910  26.731  1.00  0.00    -0.022 NA
ATOM     15  N   UNL A   1      31.650  25.939  27.090  1.00  0.00    -0.039 NA
BRANCH  12  16
ATOM     16  S   UNL A   1      31.239  25.378  23.330  1.00  0.00    -0.074 SA
BRANCH  16  17
ATOM     17  C   UNL A   1      32.780  24.930  22.521  1.00  0.00     0.178 C 
BRANCH  17  18
ATOM     18  C   UNL A   1      33.078  23.447  22.458  1.00  0.00     0.236 C 
ATOM     19  O   UNL A   1      34.197  23.082  22.105  1.00  0.00    -0.274 OA
ATOM     20  N   UNL A   1      32.042  22.638  22.859  1.00  0.00    -0.301 N 
ATOM     21  H   UNL A   1      31.206  23.051  23.177  1.00  0.00     0.172 HD
BRANCH  20  22
ATOM     22  C   UNL A   1      32.143  21.276  22.829  1.00  0.00     0.189 A 
ATOM     23  N   UNL A   1      32.562  20.461  23.758  1.00  0.00    -0.220 NA
ATOM     24  S   UNL A   1      31.692  20.573  21.341  1.00  0.00    -0.105 S 
ATOM     25  C   UNL A   1      32.630  19.182  23.246  1.00  0.00     0.084 A 
ATOM     26  C   UNL A   1      32.214  19.048  21.934  1.00  0.00     0.097 A 
BRANCH  25  27
ATOM     27  C   UNL A   1      33.112  18.073  24.045  1.00  0.00     0.001 A 
ATOM     28  C   UNL A   1      34.396  17.560  23.821  1.00  0.00     0.010 A 
ATOM     29  C   UNL A   1      32.296  17.492  25.022  1.00  0.00     0.010 A 
ATOM     30  C   UNL A   1      34.865  16.488  24.583  1.00  0.00     0.001 A 
ATOM     31  C   UNL A   1      32.764  16.413  25.775  1.00  0.00     0.001 A 
ATOM     32  C   UNL A   1      34.049  15.915  25.558  1.00  0.00     0.000 A 
ENDBRANCH  25  27
ENDBRANCH  20  22
ENDBRANCH  17  18
ENDBRANCH  16  17
ENDBRANCH  12  16
ENDBRANCH   6  11
ENDBRANCH   3   5
ENDBRANCH   2   3
ENDBRANCH   1   2
BRANCH   1  33
ATOM     33  C   UNL A   1      39.319  22.172  26.475  1.00  0.00     0.202 C 
BRANCH  33  34
ATOM     34  O   UNL A   1      40.086  21.409  27.405  1.00  0.00    -0.374 OA
BRANCH  34  35
ATOM     35  C   UNL A   1      41.504  21.372  27.284  1.00  0.00     0.202 C 
BRANCH  35  36
ATOM     36  C   UNL A   1      42.129  20.650  26.099  1.00  0.00     0.261 C 
BRANCH  36  37
ATOM     37  O   UNL A   1      43.548  20.645  26.130  1.00  0.00    -0.460 OA
BRANCH  37  38
ATOM     38  C   UNL A   1      44.102  21.365  25.122  1.00  0.00     0.338 C 
ATOM     39  O   UNL A   1      44.550  20.931  24.078  1.00  0.00    -0.246 OA
BRANCH  38  40
ATOM     40  C   UNL A   1      44.221  22.764  25.548  1.00  0.00     0.060 A 
ATOM     41  C   UNL A   1      44.880  22.995  26.755  1.00  0.00     0.016 A 
ATOM     42  C   UNL A   1      43.479  23.764  24.903  1.00  0.00     0.016 A 
ATOM     43  C   UNL A   1      44.641  24.183  27.411  1.00  0.00     0.010 A 
ATOM     44  C   UNL A   1      43.235  24.947  25.564  1.00  0.00     0.010 A 
ATOM     45  C   UNL A   1      43.754  25.109  26.845  1.00  0.00    -0.014 A 
BRANCH  45  46
ATOM     46  C   UNL A   1      43.510  26.342  27.562  1.00  0.00     0.031 A 
ATOM     47  C   UNL A   1      44.608  27.314  27.381  1.00  0.00     0.074 A 
ATOM     48  C   UNL A   1      42.380  26.609  28.245  1.00  0.00     0.049 A 
ATOM     49  N   UNL A   1      45.512  27.625  28.247  1.00  0.00    -0.248 NA
ATOM     50  C   UNL A   1      44.877  27.821  26.025  1.00  0.00     0.031 C 
ATOM     51  C   UNL A   1      41.138  25.840  28.311  1.00  0.00     0.029 A 
ATOM     52  N   UNL A   1      42.089  27.709  28.990  1.00  0.00    -0.354 N 
ATOM     53  C   UNL A   1      46.313  28.573  27.625  1.00  0.00     0.074 A 
ATOM     54  C   UNL A   1      46.023  28.476  26.221  1.00  0.00     0.031 C 
ATOM     55  C   UNL A   1      40.164  26.610  28.855  1.00  0.00     0.029 A 
ATOM     56  C   UNL A   1      40.740  27.873  29.292  1.00  0.00     0.049 A 
ATOM     57  H   UNL A   1      42.780  28.341  29.294  1.00  0.00     0.167 HD
ATOM     58  C   UNL A   1      46.936  29.534  28.359  1.00  0.00     0.034 A 
ATOM     59  C   UNL A   1      40.153  28.993  29.805  1.00  0.00     0.034 A 
ATOM     60  C   UNL A   1      46.994  29.158  29.758  1.00  0.00     0.049 A 
ATOM     61  C   UNL A   1      41.234  29.749  30.497  1.00  0.00     0.074 A 
ATOM     62  C   UNL A   1      47.507  28.067  30.437  1.00  0.00     0.029 A 
ATOM     63  N   UNL A   1      46.104  29.747  30.631  1.00  0.00    -0.354 N 
ATOM     64  N   UNL A   1      41.845  29.296  31.561  1.00  0.00    -0.248 NA
ATOM     65  C   UNL A   1      41.994  30.717  29.716  1.00  0.00     0.031 C 
ATOM     66  C   UNL A   1      46.526  27.761  31.427  1.00  0.00     0.029 A 
ATOM     67  C   UNL A   1      45.531  28.738  31.369  1.00  0.00     0.049 A 
ATOM     68  H   UNL A   1      45.916  30.710  30.712  1.00  0.00     0.167 HD
ATOM     69  C   UNL A   1      43.189  29.564  31.347  1.00  0.00     0.074 A 
ATOM     70  C   UNL A   1      43.213  30.504  30.225  1.00  0.00     0.031 C 
ATOM     71  C   UNL A   1      44.175  28.786  31.888  1.00  0.00     0.034 A 
BRANCH  58  72
ATOM     72  C   UNL A   1      47.119  30.960  27.896  1.00  0.00     0.023 A 
ATOM     73  C   UNL A   1      45.968  31.631  27.446  1.00  0.00     0.031 A 
ATOM     74  C   UNL A   1      48.352  31.581  27.587  1.00  0.00     0.131 A 
ATOM     75  C   UNL A   1      46.070  32.768  26.629  1.00  0.00     0.055 A 
ATOM     76  C   UNL A   1      48.445  32.754  26.835  1.00  0.00     0.041 A 
ATOM     77  F   UNL A   1      49.538  31.051  27.905  1.00  0.00    -0.206 F 
ATOM     78  C   UNL A   1      47.303  33.335  26.318  1.00  0.00     0.022 A 
BRANCH  75  79
ATOM     79  S   UNL A   1      44.568  33.372  25.822  1.00  0.00     0.124 S 
ATOM     80  O   UNL A   1      44.033  34.269  26.840  1.00  0.00    -0.237 OA
ATOM     81  O   UNL A   1      45.108  34.006  24.623  1.00  0.00    -0.237 OA
ATOM     82  O   UNL A   1      43.797  32.153  25.590  1.00  0.00    -0.744 OA
ENDBRANCH  75  79
ENDBRANCH  58  72
BRANCH  59  83
ATOM     83  C   UNL A   1      38.850  29.604  29.384  1.00  0.00     0.023 A 
ATOM     84  C   UNL A   1      38.035  30.383  30.243  1.00  0.00     0.031 A 
ATOM     85  C   UNL A   1      38.501  29.622  28.013  1.00  0.00     0.131 A 
ATOM     86  C   UNL A   1      36.939  31.121  29.721  1.00  0.00     0.055 A 
ATOM     87  C   UNL A   1      37.422  30.352  27.506  1.00  0.00     0.041 A 
ATOM     88  F   UNL A   1      39.250  28.996  27.093  1.00  0.00    -0.206 F 
ATOM     89  C   UNL A   1      36.641  31.114  28.357  1.00  0.00     0.022 A 
BRANCH  86  90
ATOM     90  S   UNL A   1      35.911  32.183  30.797  1.00  0.00     0.124 S 
ATOM     91  O   UNL A   1      34.611  32.127  30.141  1.00  0.00    -0.237 OA
ATOM     92  O   UNL A   1      36.018  31.519  32.091  1.00  0.00    -0.237 OA
ATOM     93  O   UNL A   1      36.575  33.487  30.726  1.00  0.00    -0.744 OA
ENDBRANCH  86  90
ENDBRANCH  59  83
BRANCH  71  94
ATOM     94  C   UNL A   1      43.818  27.769  32.958  1.00  0.00     0.023 A 
ATOM     95  C   UNL A   1      43.340  28.072  34.255  1.00  0.00     0.031 A 
ATOM     96  C   UNL A   1      43.839  26.414  32.576  1.00  0.00     0.131 A 
ATOM     97  C   UNL A   1      42.912  27.032  35.110  1.00  0.00     0.055 A 
ATOM     98  C   UNL A   1      43.391  25.394  33.414  1.00  0.00     0.041 A 
ATOM     99  F   UNL A   1      44.264  26.058  31.353  1.00  0.00    -0.206 F 
ATOM    100  C   UNL A   1      42.929  25.699  34.686  1.00  0.00     0.022 A 
BRANCH  97 101
ATOM    101  S   UNL A   1      42.339  27.386  36.806  1.00  0.00     0.124 S 
ATOM    102  O   UNL A   1      43.367  26.780  37.646  1.00  0.00    -0.237 OA
ATOM    103  O   UNL A   1      42.277  28.844  36.822  1.00  0.00    -0.237 OA
ATOM    104  O   UNL A   1      41.035  26.722  36.869  1.00  0.00    -0.744 OA
ENDBRANCH  97 101
ENDBRANCH  71  94
ENDBRANCH  45  46
ENDBRANCH  38  40
ENDBRANCH  37  38
ENDBRANCH  36  37
ENDBRANCH  35  36
ENDBRANCH  34  35
ENDBRANCH  33  34
ENDBRANCH   1  33
TORSDOF 23
ENDMDL
MODEL 2
REMARK VINA RESULT:     -10.8      2.958      9.427
REMARK SMILES O=C(CSc1nnnn1-c1ccc(C(=O)OCCOCCOC(=O)c2ccc(-c3c4nc(c(-c5cc(S(=O)(=O)[O-])ccc5F)c5ccc([nH]5)c(-c5cc(S(=O)(=O)[O-])ccc5F)c5nc(c(-c6cc(S(=O)(=O)[O-])ccc6F)c6ccc3[nH]6)C=C5)C=C4)cc2)cc1)Nc1nc(-c2ccccc2)cs1
REMARK SMILES IDX 17 1 16 2 14 3 15 4 13 5 10 6 11 7 89 8 12 9 88 10 9 11 5 12
REMARK SMILES IDX 6 13 7 14 8 15 4 16 3 17 2 18 1 19 90 20 91 22 92 23 101 24
REMARK SMILES IDX 93 25 100 26 94 27 95 28 99 29 96 30 98 31 97 32 18 33 19 34
REMARK SMILES IDX 20 35 21 36 22 37 23 38 24 39 25 40 26 41 87 42 27 43 86 44
REMARK SMILES IDX 28 45 29 46 30 47 80 48 31 49 85 50 79 51 81 52 32 53 84 54
REMARK SMILES IDX 78 55 77 56 33 58 65 59 45 60 64 61 46 62 49 63 63 64 82 65
REMARK SMILES IDX 47 66 48 67 62 69 83 70 50 71 34 72 35 73 43 74 36 75 42 76
REMARK SMILES IDX 44 77 41 78 37 79 38 80 39 81 40 82 66 83 67 84 75 85 68 86
REMARK SMILES IDX 74 87 76 88 73 89 69 90 70 91 71 92 72 93 51 94 52 95 60 96
REMARK SMILES IDX 53 97 59 98 61 99 58 100 54 101 55 102 56 103 57 104
REMARK H PARENT 90 21 81 57 49 68
REMARK Flexibility Score: inf
ROOT
ATOM      1  C   UNL A   1      33.578  31.181  27.581  1.00  0.00     0.261 C 
ENDROOT
BRANCH   1   2
ATOM      2  O   UNL A   1      33.614  30.122  26.615  1.00  0.00    -0.460 OA
BRANCH   2   3
ATOM      3  C   UNL A   1      34.338  29.041  26.989  1.00  0.00     0.338 C 
ATOM      4  O   UNL A   1      35.357  29.031  27.659  1.00  0.00    -0.246 OA
BRANCH   3   5
ATOM      5  C   UNL A   1      33.652  27.795  26.576  1.00  0.00     0.060 A 
ATOM      6  C   UNL A   1      32.311  25.400  26.208  1.00  0.00     0.069 A 
ATOM      7  C   UNL A   1      31.573  26.545  26.510  1.00  0.00     0.029 A 
ATOM      8  C   UNL A   1      33.670  25.490  25.894  1.00  0.00     0.029 A 
ATOM      9  C   UNL A   1      32.256  27.741  26.718  1.00  0.00     0.018 A 
ATOM     10  C   UNL A   1      34.350  26.689  26.089  1.00  0.00     0.018 A 
BRANCH   6  11
ATOM     11  N   UNL A   1      31.696  24.141  26.265  1.00  0.00    -0.187 N 
ATOM     12  C   UNL A   1      31.786  23.054  25.403  1.00  0.00     0.214 A 
ATOM     13  N   UNL A   1      30.899  22.159  25.792  1.00  0.00    -0.101 NA
ATOM     14  N   UNL A   1      30.365  22.629  26.965  1.00  0.00    -0.022 NA
ATOM     15  N   UNL A   1      30.914  23.785  27.310  1.00  0.00    -0.039 NA
BRANCH  12  16
ATOM     16  S   UNL A   1      33.195  22.550  24.501  1.00  0.00    -0.074 SA
BRANCH  16  17
ATOM     17  C   UNL A   1      33.102  23.188  22.824  1.00  0.00     0.178 C 
BRANCH  17  18
ATOM     18  C   UNL A   1      33.029  24.695  22.701  1.00  0.00     0.236 C 
ATOM     19  O   UNL A   1      34.047  25.316  22.404  1.00  0.00    -0.274 OA
ATOM     20  N   UNL A   1      31.775  25.224  22.898  1.00  0.00    -0.301 N 
ATOM     21  H   UNL A   1      31.021  24.618  23.076  1.00  0.00     0.172 HD
BRANCH  20  22
ATOM     22  C   UNL A   1      31.551  26.571  22.854  1.00  0.00     0.189 A 
ATOM     23  N   UNL A   1      30.478  27.238  23.178  1.00  0.00    -0.220 NA
ATOM     24  S   UNL A   1      32.862  27.479  22.244  1.00  0.00    -0.105 S 
ATOM     25  C   UNL A   1      30.645  28.566  22.840  1.00  0.00     0.084 A 
ATOM     26  C   UNL A   1      31.876  28.886  22.298  1.00  0.00     0.097 A 
BRANCH  25  27
ATOM     27  C   UNL A   1      29.588  29.536  23.043  1.00  0.00     0.001 A 
ATOM     28  C   UNL A   1      29.873  30.755  23.670  1.00  0.00     0.010 A 
ATOM     29  C   UNL A   1      28.277  29.254  22.642  1.00  0.00     0.010 A 
ATOM     30  C   UNL A   1      28.857  31.692  23.874  1.00  0.00     0.001 A 
ATOM     31  C   UNL A   1      27.262  30.187  22.858  1.00  0.00     0.001 A 
ATOM     32  C   UNL A   1      27.553  31.407  23.469  1.00  0.00     0.000 A 
ENDBRANCH  25  27
ENDBRANCH  20  22
ENDBRANCH  17  18
ENDBRANCH  16  17
ENDBRANCH  12  16
ENDBRANCH   6  11
ENDBRANCH   3   5
ENDBRANCH   2   3
ENDBRANCH   1   2
BRANCH   1  33
ATOM     33  C   UNL A   1      34.929  31.886  27.711  1.00  0.00     0.202 C 
BRANCH  33  34
ATOM     34  O   UNL A   1      34.944  33.310  27.625  1.00  0.00    -0.374 OA
BRANCH  34  35
ATOM     35  C   UNL A   1      35.347  34.078  28.755  1.00  0.00     0.202 C 
BRANCH  35  36
ATOM     36  C   UNL A   1      35.107  33.524  30.152  1.00  0.00     0.261 C 
BRANCH  36  37
ATOM     37  O   UNL A   1      36.303  33.164  30.826  1.00  0.00    -0.460 OA
BRANCH  37  38
ATOM     38  C   UNL A   1      36.271  31.902  31.323  1.00  0.00     0.338 C 
ATOM     39  O   UNL A   1      35.505  31.469  32.162  1.00  0.00    -0.246 OA
BRANCH  38  40
ATOM     40  C   UNL A   1      37.420  31.156  30.798  1.00  0.00     0.060 A 
ATOM     41  C   UNL A   1      37.254  29.779  30.644  1.00  0.00     0.016 A 
ATOM     42  C   UNL A   1      38.681  31.765  30.716  1.00  0.00     0.016 A 
ATOM     43  C   UNL A   1      38.381  28.988  30.591  1.00  0.00     0.010 A 
ATOM     44  C   UNL A   1      39.805  30.973  30.670  1.00  0.00     0.010 A 
ATOM     45  C   UNL A   1      39.643  29.591  30.689  1.00  0.00    -0.014 A 
BRANCH  45  46
ATOM     46  C   UNL A   1      40.810  28.735  30.646  1.00  0.00     0.031 A 
ATOM     47  C   UNL A   1      41.353  28.474  31.995  1.00  0.00     0.074 A 
ATOM     48  C   UNL A   1      41.295  28.174  29.522  1.00  0.00     0.049 A 
ATOM     49  N   UNL A   1      42.420  28.986  32.508  1.00  0.00    -0.248 NA
ATOM     50  C   UNL A   1      40.508  27.756  32.963  1.00  0.00     0.031 C 
ATOM     51  C   UNL A   1      40.725  28.162  28.176  1.00  0.00     0.029 A 
ATOM     52  N   UNL A   1      42.410  27.409  29.380  1.00  0.00    -0.354 N 
ATOM     53  C   UNL A   1      42.520  28.442  33.781  1.00  0.00     0.074 A 
ATOM     54  C   UNL A   1      41.225  27.896  34.079  1.00  0.00     0.031 C 
ATOM     55  C   UNL A   1      41.371  27.237  27.424  1.00  0.00     0.029 A 
ATOM     56  C   UNL A   1      42.479  26.686  28.191  1.00  0.00     0.049 A 
ATOM     57  H   UNL A   1      43.116  27.368  30.065  1.00  0.00     0.167 HD
ATOM     58  C   UNL A   1      43.739  28.254  34.354  1.00  0.00     0.034 A 
ATOM     59  C   UNL A   1      43.348  25.674  27.905  1.00  0.00     0.034 A 
ATOM     60  C   UNL A   1      44.751  29.052  33.690  1.00  0.00     0.049 A 
ATOM     61  C   UNL A   1      44.522  25.869  28.801  1.00  0.00     0.074 A 
ATOM     62  C   UNL A   1      44.890  30.404  33.435  1.00  0.00     0.029 A 
ATOM     63  N   UNL A   1      45.603  28.424  32.807  1.00  0.00    -0.354 N 
ATOM     64  N   UNL A   1      45.322  26.899  28.707  1.00  0.00    -0.248 NA
ATOM     65  C   UNL A   1      44.488  25.234  30.113  1.00  0.00     0.031 C 
ATOM     66  C   UNL A   1      45.383  30.474  32.098  1.00  0.00     0.029 A 
ATOM     67  C   UNL A   1      45.617  29.172  31.653  1.00  0.00     0.049 A 
ATOM     68  H   UNL A   1      46.108  27.595  32.971  1.00  0.00     0.167 HD
ATOM     69  C   UNL A   1      45.540  27.308  30.014  1.00  0.00     0.074 A 
ATOM     70  C   UNL A   1      45.057  26.201  30.842  1.00  0.00     0.031 C 
ATOM     71  C   UNL A   1      45.811  28.612  30.327  1.00  0.00     0.034 A 
BRANCH  58  72
ATOM     72  C   UNL A   1      44.086  27.068  35.223  1.00  0.00     0.023 A 
ATOM     73  C   UNL A   1      44.774  27.342  36.419  1.00  0.00     0.031 A 
ATOM     74  C   UNL A   1      44.062  25.711  34.825  1.00  0.00     0.131 A 
ATOM     75  C   UNL A   1      45.496  26.335  37.081  1.00  0.00     0.055 A 
ATOM     76  C   UNL A   1      44.722  24.700  35.528  1.00  0.00     0.041 A 
ATOM     77  F   UNL A   1      43.489  25.291  33.692  1.00  0.00    -0.206 F 
ATOM     78  C   UNL A   1      45.476  25.015  36.642  1.00  0.00     0.022 A 
BRANCH  75  79
ATOM     79  S   UNL A   1      46.617  26.829  38.411  1.00  0.00     0.124 S 
ATOM     80  O   UNL A   1      47.851  26.161  38.013  1.00  0.00    -0.237 OA
ATOM     81  O   UNL A   1      46.603  28.283  38.289  1.00  0.00    -0.237 OA
ATOM     82  O   UNL A   1      45.973  26.297  39.610  1.00  0.00    -0.744 OA
ENDBRANCH  75  79
ENDBRANCH  58  72
BRANCH  59  83
ATOM     83  C   UNL A   1      43.033  24.379  27.217  1.00  0.00     0.023 A 
ATOM     84  C   UNL A   1      43.883  23.774  26.259  1.00  0.00     0.031 A 
ATOM     85  C   UNL A   1      41.964  23.582  27.691  1.00  0.00     0.131 A 
ATOM     86  C   UNL A   1      43.641  22.443  25.821  1.00  0.00     0.055 A 
ATOM     87  C   UNL A   1      41.733  22.273  27.257  1.00  0.00     0.041 A 
ATOM     88  F   UNL A   1      41.148  24.015  28.663  1.00  0.00    -0.206 F 
ATOM     89  C   UNL A   1      42.577  21.694  26.327  1.00  0.00     0.022 A 
BRANCH  86  90
ATOM     90  S   UNL A   1      44.759  21.617  24.633  1.00  0.00     0.124 S 
ATOM     91  O   UNL A   1      46.068  21.826  25.240  1.00  0.00    -0.237 OA
ATOM     92  O   UNL A   1      44.255  20.249  24.623  1.00  0.00    -0.237 OA
ATOM     93  O   UNL A   1      44.539  22.355  23.387  1.00  0.00    -0.744 OA
ENDBRANCH  86  90
ENDBRANCH  59  83
BRANCH  71  94
ATOM     94  C   UNL A   1      46.145  29.590  29.215  1.00  0.00     0.023 A 
ATOM     95  C   UNL A   1      45.204  30.277  28.412  1.00  0.00     0.031 A 
ATOM     96  C   UNL A   1      47.501  29.939  29.064  1.00  0.00     0.131 A 
ATOM     97  C   UNL A   1      45.640  31.266  27.503  1.00  0.00     0.055 A 
ATOM     98  C   UNL A   1      47.924  30.934  28.184  1.00  0.00     0.041 A 
ATOM     99  F   UNL A   1      48.445  29.338  29.807  1.00  0.00    -0.206 F 
ATOM    100  C   UNL A   1      46.994  31.599  27.397  1.00  0.00     0.022 A 
BRANCH  97 101
ATOM    101  S   UNL A   1      44.456  32.133  26.418  1.00  0.00     0.124 S 
ATOM    102  O   UNL A   1      45.271  32.537  25.278  1.00  0.00    -0.237 OA
ATOM    103  O   UNL A   1      43.454  31.104  26.156  1.00  0.00    -0.237 OA
ATOM    104  O   UNL A   1      43.984  33.242  27.250  1.00  0.00    -0.744 OA
ENDBRANCH  97 101
ENDBRANCH  71  94
ENDBRANCH  45  46
ENDBRANCH  38  40
ENDBRANCH  37  38
ENDBRANCH  36  37
ENDBRANCH  35  36
ENDBRANCH  34  35
ENDBRANCH  33  34
ENDBRANCH   1  33
TORSDOF 23
ENDMDL
MODEL 3
REMARK VINA RESULT:     -10.8      3.532      9.610
REMARK SMILES O=C(CSc1nnnn1-c1ccc(C(=O)OCCOCCOC(=O)c2ccc(-c3c4nc(c(-c5cc(S(=O)(=O)[O-])ccc5F)c5ccc([nH]5)c(-c5cc(S(=O)(=O)[O-])ccc5F)c5nc(c(-c6cc(S(=O)(=O)[O-])ccc6F)c6ccc3[nH]6)C=C5)C=C4)cc2)cc1)Nc1nc(-c2ccccc2)cs1
REMARK SMILES IDX 17 1 16 2 14 3 15 4 13 5 10 6 11 7 89 8 12 9 88 10 9 11 5 12
REMARK SMILES IDX 6 13 7 14 8 15 4 16 3 17 2 18 1 19 90 20 91 22 92 23 101 24
REMARK SMILES IDX 93 25 100 26 94 27 95 28 99 29 96 30 98 31 97 32 18 33 19 34
REMARK SMILES IDX 20 35 21 36 22 37 23 38 24 39 25 40 26 41 87 42 27 43 86 44
REMARK SMILES IDX 28 45 29 46 30 47 80 48 31 49 85 50 79 51 81 52 32 53 84 54
REMARK SMILES IDX 78 55 77 56 33 58 65 59 45 60 64 61 46 62 49 63 63 64 82 65
REMARK SMILES IDX 47 66 48 67 62 69 83 70 50 71 34 72 35 73 43 74 36 75 42 76
REMARK SMILES IDX 44 77 41 78 37 79 38 80 39 81 40 82 66 83 67 84 75 85 68 86
REMARK SMILES IDX 74 87 76 88 73 89 69 90 70 91 71 92 72 93 51 94 52 95 60 96
REMARK SMILES IDX 53 97 59 98 61 99 58 100 54 101 55 102 56 103 57 104
REMARK H PARENT 90 21 81 57 49 68
REMARK Flexibility Score: inf
ROOT
ATOM      1  C   UNL A   1      34.397  31.149  28.251  1.00  0.00     0.261 C 
ENDROOT
BRANCH   1   2
ATOM      2  O   UNL A   1      33.991  30.949  26.891  1.00  0.00    -0.460 OA
BRANCH   2   3
ATOM      3  C   UNL A   1      32.692  30.602  26.734  1.00  0.00     0.338 C 
ATOM      4  O   UNL A   1      31.757  31.340  26.467  1.00  0.00    -0.246 OA
BRANCH   3   5
ATOM      5  C   UNL A   1      32.541  29.131  26.805  1.00  0.00     0.060 A 
ATOM      6  C   UNL A   1      32.180  26.398  26.531  1.00  0.00     0.069 A 
ATOM      7  C   UNL A   1      33.382  26.965  26.103  1.00  0.00     0.029 A 
ATOM      8  C   UNL A   1      31.261  27.149  27.268  1.00  0.00     0.029 A 
ATOM      9  C   UNL A   1      33.546  28.343  26.220  1.00  0.00     0.018 A 
ATOM     10  C   UNL A   1      31.432  28.525  27.398  1.00  0.00     0.018 A 
BRANCH   6  11
ATOM     11  N   UNL A   1      31.870  25.076  26.179  1.00  0.00    -0.187 N 
ATOM     12  C   UNL A   1      32.223  24.335  25.058  1.00  0.00     0.214 A 
ATOM     13  N   UNL A   1      31.558  23.198  25.103  1.00  0.00    -0.101 NA
ATOM     14  N   UNL A   1      30.909  23.178  26.311  1.00  0.00    -0.022 NA
ATOM     15  N   UNL A   1      31.171  24.272  27.012  1.00  0.00    -0.039 NA
BRANCH  12  16
ATOM     16  S   UNL A   1      33.727  24.432  24.173  1.00  0.00    -0.074 SA
BRANCH  16  17
ATOM     17  C   UNL A   1      33.416  25.045  22.512  1.00  0.00     0.178 C 
BRANCH  17  18
ATOM     18  C   UNL A   1      32.392  26.154  22.407  1.00  0.00     0.236 C 
ATOM     19  O   UNL A   1      32.687  27.177  21.794  1.00  0.00    -0.274 OA
ATOM     20  N   UNL A   1      31.180  25.872  22.991  1.00  0.00    -0.301 N 
ATOM     21  H   UNL A   1      31.042  24.990  23.407  1.00  0.00     0.172 HD
BRANCH  20  22
ATOM     22  C   UNL A   1      30.163  26.784  23.009  1.00  0.00     0.189 A 
ATOM     23  N   UNL A   1      30.132  27.991  22.515  1.00  0.00    -0.220 NA
ATOM     24  S   UNL A   1      28.767  26.259  23.837  1.00  0.00    -0.105 S 
ATOM     25  C   UNL A   1      28.954  28.606  22.888  1.00  0.00     0.084 A 
ATOM     26  C   UNL A   1      28.089  27.824  23.632  1.00  0.00     0.097 A 
BRANCH  25  27
ATOM     27  C   UNL A   1      28.669  29.979  22.520  1.00  0.00     0.001 A 
ATOM     28  C   UNL A   1      28.481  30.313  21.173  1.00  0.00     0.010 A 
ATOM     29  C   UNL A   1      28.608  30.979  23.496  1.00  0.00     0.010 A 
ATOM     30  C   UNL A   1      28.212  31.635  20.810  1.00  0.00     0.001 A 
ATOM     31  C   UNL A   1      28.351  32.301  23.129  1.00  0.00     0.001 A 
ATOM     32  C   UNL A   1      28.148  32.627  21.788  1.00  0.00     0.000 A 
ENDBRANCH  25  27
ENDBRANCH  20  22
ENDBRANCH  17  18
ENDBRANCH  16  17
ENDBRANCH  12  16
ENDBRANCH   6  11
ENDBRANCH   3   5
ENDBRANCH   2   3
ENDBRANCH   1   2
BRANCH   1  33
ATOM     33  C   UNL A   1      34.427  32.631  28.630  1.00  0.00     0.202 C 
BRANCH  33  34
ATOM     34  O   UNL A   1      34.012  32.986  29.948  1.00  0.00    -0.374 OA
BRANCH  34  35
ATOM     35  C   UNL A   1      34.991  33.175  30.965  1.00  0.00     0.202 C 
BRANCH  35  36
ATOM     36  C   UNL A   1      36.128  32.173  31.096  1.00  0.00     0.261 C 
BRANCH  36  37
ATOM     37  O   UNL A   1      37.413  32.777  31.090  1.00  0.00    -0.460 OA
BRANCH  37  38
ATOM     38  C   UNL A   1      37.909  32.954  29.840  1.00  0.00     0.338 C 
ATOM     39  O   UNL A   1      37.505  33.734  28.999  1.00  0.00    -0.246 OA
BRANCH  38  40
ATOM     40  C   UNL A   1      38.938  31.938  29.590  1.00  0.00     0.060 A 
ATOM     41  C   UNL A   1      38.491  30.691  29.153  1.00  0.00     0.016 A 
ATOM     42  C   UNL A   1      40.255  32.143  30.026  1.00  0.00     0.016 A 
ATOM     43  C   UNL A   1      39.319  29.603  29.328  1.00  0.00     0.010 A 
ATOM     44  C   UNL A   1      41.077  31.055  30.207  1.00  0.00     0.010 A 
ATOM     45  C   UNL A   1      40.571  29.789  29.931  1.00  0.00    -0.014 A 
BRANCH  45  46
ATOM     46  C   UNL A   1      41.414  28.627  30.116  1.00  0.00     0.031 A 
ATOM     47  C   UNL A   1      41.757  28.416  31.538  1.00  0.00     0.074 A 
ATOM     48  C   UNL A   1      41.776  27.789  29.127  1.00  0.00     0.049 A 
ATOM     49  N   UNL A   1      42.894  28.655  32.100  1.00  0.00    -0.248 NA
ATOM     50  C   UNL A   1      40.668  28.133  32.487  1.00  0.00     0.031 C 
ATOM     51  C   UNL A   1      41.322  27.752  27.737  1.00  0.00     0.029 A 
ATOM     52  N   UNL A   1      42.605  26.713  29.198  1.00  0.00    -0.354 N 
ATOM     53  C   UNL A   1      42.734  28.298  33.431  1.00  0.00     0.074 A 
ATOM     54  C   UNL A   1      41.316  28.213  33.650  1.00  0.00     0.031 C 
ATOM     55  C   UNL A   1      41.698  26.576  27.175  1.00  0.00     0.029 A 
ATOM     56  C   UNL A   1      42.525  25.837  28.118  1.00  0.00     0.049 A 
ATOM     57  H   UNL A   1      43.216  26.564  29.956  1.00  0.00     0.167 HD
ATOM     58  C   UNL A   1      43.793  27.840  34.152  1.00  0.00     0.034 A 
ATOM     59  C   UNL A   1      43.055  24.582  28.050  1.00  0.00     0.034 A 
ATOM     60  C   UNL A   1      45.044  28.194  33.512  1.00  0.00     0.049 A 
ATOM     61  C   UNL A   1      44.168  24.546  29.040  1.00  0.00     0.074 A 
ATOM     62  C   UNL A   1      45.614  29.390  33.116  1.00  0.00     0.029 A 
ATOM     63  N   UNL A   1      45.717  27.218  32.808  1.00  0.00    -0.354 N 
ATOM     64  N   UNL A   1      45.252  25.265  28.911  1.00  0.00    -0.248 NA
ATOM     65  C   UNL A   1      43.850  24.149  30.406  1.00  0.00     0.031 C 
ATOM     66  C   UNL A   1      46.192  29.114  31.841  1.00  0.00     0.029 A 
ATOM     67  C   UNL A   1      46.040  27.751  31.582  1.00  0.00     0.049 A 
ATOM     68  H   UNL A   1      45.927  26.310  33.124  1.00  0.00     0.167 HD
ATOM     69  C   UNL A   1      45.498  25.776  30.177  1.00  0.00     0.074 A 
ATOM     70  C   UNL A   1      44.641  24.998  31.073  1.00  0.00     0.031 C 
ATOM     71  C   UNL A   1      46.139  26.971  30.360  1.00  0.00     0.034 A 
BRANCH  58  72
ATOM     72  C   UNL A   1      43.695  26.745  35.188  1.00  0.00     0.023 A 
ATOM     73  C   UNL A   1      44.429  25.572  34.939  1.00  0.00     0.031 A 
ATOM     74  C   UNL A   1      42.723  26.656  36.212  1.00  0.00     0.131 A 
ATOM     75  C   UNL A   1      44.105  24.369  35.584  1.00  0.00     0.055 A 
ATOM     76  C   UNL A   1      42.454  25.472  36.903  1.00  0.00     0.041 A 
ATOM     77  F   UNL A   1      41.912  27.666  36.542  1.00  0.00    -0.206 F 
ATOM     78  C   UNL A   1      43.120  24.310  36.566  1.00  0.00     0.022 A 
BRANCH  75  79
ATOM     79  S   UNL A   1      44.864  22.845  34.973  1.00  0.00     0.124 S 
ATOM     80  O   UNL A   1      43.766  22.259  34.212  1.00  0.00    -0.237 OA
ATOM     81  O   UNL A   1      45.985  23.362  34.194  1.00  0.00    -0.237 OA
ATOM     82  O   UNL A   1      45.229  22.135  36.197  1.00  0.00    -0.744 OA
ENDBRANCH  75  79
ENDBRANCH  58  72
BRANCH  59  83
ATOM     83  C   UNL A   1      42.400  23.354  27.490  1.00  0.00     0.023 A 
ATOM     84  C   UNL A   1      43.115  22.294  26.880  1.00  0.00     0.031 A 
ATOM     85  C   UNL A   1      41.037  23.102  27.775  1.00  0.00     0.131 A 
ATOM     86  C   UNL A   1      42.465  21.065  26.583  1.00  0.00     0.055 A 
ATOM     87  C   UNL A   1      40.405  21.890  27.481  1.00  0.00     0.041 A 
ATOM     88  F   UNL A   1      40.283  23.996  28.431  1.00  0.00    -0.206 F 
ATOM     89  C   UNL A   1      41.119  20.862  26.893  1.00  0.00     0.022 A 
BRANCH  86  90
ATOM     90  S   UNL A   1      43.379  19.660  25.854  1.00  0.00     0.124 S 
ATOM     91  O   UNL A   1      44.657  20.268  25.502  1.00  0.00    -0.237 OA
ATOM     92  O   UNL A   1      43.396  18.693  26.945  1.00  0.00    -0.237 OA
ATOM     93  O   UNL A   1      42.552  19.271  24.710  1.00  0.00    -0.744 OA
ENDBRANCH  86  90
ENDBRANCH  59  83
BRANCH  71  94
ATOM     94  C   UNL A   1      46.835  27.631  29.183  1.00  0.00     0.023 A 
ATOM     95  C   UNL A   1      46.229  28.517  28.261  1.00  0.00     0.031 A 
ATOM     96  C   UNL A   1      48.227  27.448  29.086  1.00  0.00     0.131 A 
ATOM     97  C   UNL A   1      47.019  29.174  27.291  1.00  0.00     0.055 A 
ATOM     98  C   UNL A   1      49.006  28.118  28.144  1.00  0.00     0.041 A 
ATOM     99  F   UNL A   1      48.868  26.635  29.942  1.00  0.00    -0.206 F 
ATOM    100  C   UNL A   1      48.403  28.982  27.240  1.00  0.00     0.022 A 
BRANCH  97 101
ATOM    101  S   UNL A   1      46.261  30.282  26.055  1.00  0.00     0.124 S 
ATOM    102  O   UNL A   1      46.419  29.553  24.801  1.00  0.00    -0.237 OA
ATOM    103  O   UNL A   1      44.893  30.418  26.548  1.00  0.00    -0.237 OA
ATOM    104  O   UNL A   1      47.065  31.502  26.155  1.00  0.00    -0.744 OA
ENDBRANCH  97 101
ENDBRANCH  71  94
ENDBRANCH  45  46
ENDBRANCH  38  40
ENDBRANCH  37  38
ENDBRANCH  36  37
ENDBRANCH  35  36
ENDBRANCH  34  35
ENDBRANCH  33  34
ENDBRANCH   1  33
TORSDOF 23
ENDMDL
