MODEL 1
REMARK VINA RESULT:     -11.1      0.000      0.000
REMARK SMILES Cc1cccc(C)c1Nc1ccccc1CC(=O)OCCOCCOC(=O)c1ccc(-c2c3nc(c(-c4cc(S(=O)(=O)[O-])ccc4F)c4ccc([nH]4)c(-c4cc(S(=O)(=O)[O-])ccc4F)c4nc(c(-c5cc(S(=O)(=O)[O-])ccc5F)c5ccc2[nH]5)C=C4)C=C3)cc1
REMARK SMILES IDX 22 1 21 2 20 3 19 4 17 5 18 6 16 7 15 8 10 9 11 10 12 11
REMARK SMILES IDX 14 12 13 13 9 14 8 16 1 17 2 18 3 19 4 20 6 21 5 22 7 23
REMARK SMILES IDX 23 24 24 25 25 26 26 27 27 28 28 29 29 30 90 31 30 32 89 33
REMARK SMILES IDX 31 34 32 35 33 36 83 37 34 38 88 39 82 40 84 41 35 42 87 43
REMARK SMILES IDX 81 44 80 45 36 47 68 48 48 49 67 50 49 51 52 52 66 53 85 54
REMARK SMILES IDX 50 55 51 56 65 58 86 59 53 60 37 61 38 62 46 63 39 64 45 65
REMARK SMILES IDX 47 66 44 67 40 68 41 69 42 70 43 71 69 72 70 73 78 74 71 75
REMARK SMILES IDX 77 76 79 77 76 78 72 79 73 80 74 81 75 82 54 83 55 84 63 85
REMARK SMILES IDX 56 86 62 87 64 88 61 89 57 90 58 91 59 92 60 93
REMARK H PARENT 9 15 84 46 52 57
REMARK Flexibility Score: inf
ROOT
ATOM      1  O   UNL A   1      31.979  30.410  25.763  1.00  0.00    -0.374 OA
ENDROOT
BRANCH   1   2
ATOM      2  C   UNL A   1      33.286  29.841  25.784  1.00  0.00     0.202 C 
BRANCH   2   3
ATOM      3  C   UNL A   1      33.527  28.641  26.709  1.00  0.00     0.261 C 
BRANCH   3   4
ATOM      4  O   UNL A   1      32.442  27.695  26.717  1.00  0.00    -0.463 OA
BRANCH   4   5
ATOM      5  C   UNL A   1      32.764  26.454  26.269  1.00  0.00     0.310 C 
ATOM      6  O   UNL A   1      32.083  25.449  26.469  1.00  0.00    -0.252 OA
BRANCH   5   7
ATOM      7  C   UNL A   1      34.046  26.357  25.483  1.00  0.00     0.160 C 
BRANCH   7   8
ATOM      8  C   UNL A   1      34.446  25.064  24.795  1.00  0.00    -0.013 A 
ATOM      9  C   UNL A   1      33.986  24.693  23.516  1.00  0.00     0.042 A 
ATOM     10  C   UNL A   1      34.357  23.436  22.991  1.00  0.00     0.026 A 
ATOM     11  C   UNL A   1      35.237  22.595  23.667  1.00  0.00     0.002 A 
ATOM     12  C   UNL A   1      35.386  24.226  25.429  1.00  0.00     0.006 A 
ATOM     13  C   UNL A   1      35.777  23.004  24.876  1.00  0.00     0.000 A 
BRANCH   9  14
ATOM     14  N   UNL A   1      33.309  25.561  22.635  1.00  0.00    -0.355 N 
ATOM     15  H   UNL A   1      33.617  25.504  21.701  1.00  0.00     0.167 HD
BRANCH  14  16
ATOM     16  C   UNL A   1      32.271  26.499  22.843  1.00  0.00     0.044 A 
ATOM     17  C   UNL A   1      33.985  28.342  22.408  1.00  0.00     0.046 C 
ATOM     18  C   UNL A   1      32.574  27.872  22.650  1.00  0.00    -0.027 A 
ATOM     19  C   UNL A   1      31.541  28.823  22.625  1.00  0.00     0.005 A 
ATOM     20  C   UNL A   1      30.217  28.439  22.797  1.00  0.00     0.001 A 
ATOM     21  C   UNL A   1      30.926  26.131  23.106  1.00  0.00    -0.027 A 
ATOM     22  C   UNL A   1      29.914  27.105  23.044  1.00  0.00     0.005 A 
ATOM     23  C   UNL A   1      30.484  24.728  23.434  1.00  0.00     0.046 C 
ENDBRANCH  14  16
ENDBRANCH   9  14
ENDBRANCH   7   8
ENDBRANCH   5   7
ENDBRANCH   4   5
ENDBRANCH   3   4
ENDBRANCH   2   3
ENDBRANCH   1   2
BRANCH   1  24
ATOM     24  C   UNL A   1      31.565  31.128  26.923  1.00  0.00     0.202 C 
BRANCH  24  25
ATOM     25  C   UNL A   1      31.498  32.657  26.825  1.00  0.00     0.261 C 
BRANCH  25  26
ATOM     26  O   UNL A   1      32.804  33.256  26.750  1.00  0.00    -0.460 OA
BRANCH  26  27
ATOM     27  C   UNL A   1      33.318  33.627  27.948  1.00  0.00     0.338 C 
ATOM     28  O   UNL A   1      32.760  34.301  28.805  1.00  0.00    -0.246 OA
BRANCH  27  29
ATOM     29  C   UNL A   1      34.593  32.934  28.202  1.00  0.00     0.060 A 
ATOM     30  C   UNL A   1      34.517  31.601  28.630  1.00  0.00     0.016 A 
ATOM     31  C   UNL A   1      35.826  33.584  28.124  1.00  0.00     0.016 A 
ATOM     32  C   UNL A   1      35.665  30.934  29.044  1.00  0.00     0.010 A 
ATOM     33  C   UNL A   1      36.979  32.914  28.553  1.00  0.00     0.010 A 
ATOM     34  C   UNL A   1      36.896  31.603  29.055  1.00  0.00    -0.014 A 
BRANCH  34  35
ATOM     35  C   UNL A   1      38.040  30.976  29.766  1.00  0.00     0.031 A 
ATOM     36  C   UNL A   1      38.287  31.345  31.205  1.00  0.00     0.074 A 
ATOM     37  C   UNL A   1      38.795  30.039  29.165  1.00  0.00     0.049 A 
ATOM     38  N   UNL A   1      39.206  30.913  32.029  1.00  0.00    -0.248 NA
ATOM     39  C   UNL A   1      37.370  32.335  31.791  1.00  0.00     0.031 C 
ATOM     40  C   UNL A   1      38.613  29.564  27.794  1.00  0.00     0.029 A 
ATOM     41  N   UNL A   1      39.863  29.315  29.633  1.00  0.00    -0.354 N 
ATOM     42  C   UNL A   1      38.978  31.576  33.231  1.00  0.00     0.074 A 
ATOM     43  C   UNL A   1      37.861  32.469  33.013  1.00  0.00     0.031 C 
ATOM     44  C   UNL A   1      39.541  28.627  27.532  1.00  0.00     0.029 A 
ATOM     45  C   UNL A   1      40.403  28.463  28.701  1.00  0.00     0.049 A 
ATOM     46  H   UNL A   1      40.209  29.399  30.551  1.00  0.00     0.167 HD
ATOM     47  C   UNL A   1      39.635  31.443  34.411  1.00  0.00     0.034 A 
ATOM     48  C   UNL A   1      41.482  27.656  28.777  1.00  0.00     0.034 A 
ATOM     49  C   UNL A   1      40.756  30.555  34.607  1.00  0.00     0.049 A 
ATOM     50  C   UNL A   1      42.253  27.590  30.074  1.00  0.00     0.074 A 
ATOM     51  C   UNL A   1      41.489  30.334  35.760  1.00  0.00     0.029 A 
ATOM     52  N   UNL A   1      41.314  29.750  33.622  1.00  0.00    -0.354 N 
ATOM     53  N   UNL A   1      42.024  28.218  31.205  1.00  0.00    -0.248 NA
ATOM     54  C   UNL A   1      43.421  26.701  30.105  1.00  0.00     0.031 C 
ATOM     55  C   UNL A   1      42.533  29.454  35.452  1.00  0.00     0.029 A 
ATOM     56  C   UNL A   1      42.405  29.061  34.129  1.00  0.00     0.049 A 
ATOM     57  H   UNL A   1      40.982  29.680  32.697  1.00  0.00     0.167 HD
ATOM     58  C   UNL A   1      43.004  27.774  32.091  1.00  0.00     0.074 A 
ATOM     59  C   UNL A   1      43.814  26.818  31.366  1.00  0.00     0.031 C 
ATOM     60  C   UNL A   1      43.212  28.121  33.387  1.00  0.00     0.034 A 
BRANCH  47  61
ATOM     61  C   UNL A   1      39.190  32.324  35.554  1.00  0.00     0.023 A 
ATOM     62  C   UNL A   1      39.619  33.657  35.676  1.00  0.00     0.031 A 
ATOM     63  C   UNL A   1      38.347  31.810  36.556  1.00  0.00     0.131 A 
ATOM     64  C   UNL A   1      39.263  34.407  36.809  1.00  0.00     0.055 A 
ATOM     65  C   UNL A   1      37.933  32.586  37.640  1.00  0.00     0.041 A 
ATOM     66  F   UNL A   1      37.924  30.537  36.507  1.00  0.00    -0.206 F 
ATOM     67  C   UNL A   1      38.403  33.889  37.779  1.00  0.00     0.022 A 
BRANCH  64  68
ATOM     68  S   UNL A   1      40.052  36.020  37.068  1.00  0.00     0.124 S 
ATOM     69  O   UNL A   1      39.868  36.651  35.764  1.00  0.00    -0.237 OA
ATOM     70  O   UNL A   1      39.274  36.580  38.167  1.00  0.00    -0.237 OA
ATOM     71  O   UNL A   1      41.435  35.677  37.396  1.00  0.00    -0.744 OA
ENDBRANCH  64  68
ENDBRANCH  47  61
BRANCH  48  72
ATOM     72  C   UNL A   1      41.930  26.879  27.585  1.00  0.00     0.023 A 
ATOM     73  C   UNL A   1      41.686  25.500  27.476  1.00  0.00     0.031 A 
ATOM     74  C   UNL A   1      42.659  27.502  26.556  1.00  0.00     0.131 A 
ATOM     75  C   UNL A   1      42.204  24.783  26.386  1.00  0.00     0.055 A 
ATOM     76  C   UNL A   1      43.126  26.794  25.447  1.00  0.00     0.041 A 
ATOM     77  F   UNL A   1      42.922  28.817  26.609  1.00  0.00    -0.206 F 
ATOM     78  C   UNL A   1      42.911  25.423  25.364  1.00  0.00     0.022 A 
BRANCH  75  79
ATOM     79  S   UNL A   1      42.015  22.979  26.362  1.00  0.00     0.124 S 
ATOM     80  O   UNL A   1      40.573  22.829  26.516  1.00  0.00    -0.237 OA
ATOM     81  O   UNL A   1      42.559  22.636  25.052  1.00  0.00    -0.237 OA
ATOM     82  O   UNL A   1      42.814  22.537  27.502  1.00  0.00    -0.744 OA
ENDBRANCH  75  79
ENDBRANCH  48  72
BRANCH  60  83
ATOM     83  C   UNL A   1      44.342  27.426  34.110  1.00  0.00     0.023 A 
ATOM     84  C   UNL A   1      44.152  26.205  34.781  1.00  0.00     0.031 A 
ATOM     85  C   UNL A   1      45.625  28.000  34.133  1.00  0.00     0.131 A 
ATOM     86  C   UNL A   1      45.213  25.626  35.493  1.00  0.00     0.055 A 
ATOM     87  C   UNL A   1      46.692  27.389  34.794  1.00  0.00     0.041 A 
ATOM     88  F   UNL A   1      45.863  29.166  33.512  1.00  0.00    -0.206 F 
ATOM     89  C   UNL A   1      46.485  26.202  35.490  1.00  0.00     0.022 A 
BRANCH  86  90
ATOM     90  S   UNL A   1      44.885  24.156  36.505  1.00  0.00     0.124 S 
ATOM     91  O   UNL A   1      44.357  24.744  37.732  1.00  0.00    -0.237 OA
ATOM     92  O   UNL A   1      43.926  23.421  35.685  1.00  0.00    -0.237 OA
ATOM     93  O   UNL A   1      46.199  23.527  36.633  1.00  0.00    -0.744 OA
ENDBRANCH  86  90
ENDBRANCH  60  83
ENDBRANCH  34  35
ENDBRANCH  27  29
ENDBRANCH  26  27
ENDBRANCH  25  26
ENDBRANCH  24  25
ENDBRANCH   1  24
TORSDOF 20
ENDMDL
MODEL 2
REMARK VINA RESULT:     -10.9      4.758     10.241
REMARK SMILES Cc1cccc(C)c1Nc1ccccc1CC(=O)OCCOCCOC(=O)c1ccc(-c2c3nc(c(-c4cc(S(=O)(=O)[O-])ccc4F)c4ccc([nH]4)c(-c4cc(S(=O)(=O)[O-])ccc4F)c4nc(c(-c5cc(S(=O)(=O)[O-])ccc5F)c5ccc2[nH]5)C=C4)C=C3)cc1
REMARK SMILES IDX 22 1 21 2 20 3 19 4 17 5 18 6 16 7 15 8 10 9 11 10 12 11
REMARK SMILES IDX 14 12 13 13 9 14 8 16 1 17 2 18 3 19 4 20 6 21 5 22 7 23
REMARK SMILES IDX 23 24 24 25 25 26 26 27 27 28 28 29 29 30 90 31 30 32 89 33
REMARK SMILES IDX 31 34 32 35 33 36 83 37 34 38 88 39 82 40 84 41 35 42 87 43
REMARK SMILES IDX 81 44 80 45 36 47 68 48 48 49 67 50 49 51 52 52 66 53 85 54
REMARK SMILES IDX 50 55 51 56 65 58 86 59 53 60 37 61 38 62 46 63 39 64 45 65
REMARK SMILES IDX 47 66 44 67 40 68 41 69 42 70 43 71 69 72 70 73 78 74 71 75
REMARK SMILES IDX 77 76 79 77 76 78 72 79 73 80 74 81 75 82 54 83 55 84 63 85
REMARK SMILES IDX 56 86 62 87 64 88 61 89 57 90 58 91 59 92 60 93
REMARK H PARENT 9 15 84 46 52 57
REMARK Flexibility Score: inf
ROOT
ATOM      1  O   UNL A   1      35.209  21.180  25.294  1.00  0.00    -0.374 OA
ENDROOT
BRANCH   1   2
ATOM      2  C   UNL A   1      34.160  20.292  24.914  1.00  0.00     0.202 C 
BRANCH   2   3
ATOM      3  C   UNL A   1      32.946  20.181  25.845  1.00  0.00     0.261 C 
BRANCH   3   4
ATOM      4  O   UNL A   1      31.777  20.860  25.350  1.00  0.00    -0.463 OA
BRANCH   4   5
ATOM      5  C   UNL A   1      31.663  22.157  25.738  1.00  0.00     0.310 C 
ATOM      6  O   UNL A   1      32.149  22.614  26.773  1.00  0.00    -0.252 OA
BRANCH   5   7
ATOM      7  C   UNL A   1      30.883  23.049  24.808  1.00  0.00     0.160 C 
BRANCH   7   8
ATOM      8  C   UNL A   1      31.569  23.781  23.667  1.00  0.00    -0.013 A 
ATOM      9  C   UNL A   1      31.255  25.104  23.296  1.00  0.00     0.042 A 
ATOM     10  C   UNL A   1      31.897  25.672  22.176  1.00  0.00     0.026 A 
ATOM     11  C   UNL A   1      32.896  24.991  21.484  1.00  0.00     0.002 A 
ATOM     12  C   UNL A   1      32.629  23.139  22.995  1.00  0.00     0.006 A 
ATOM     13  C   UNL A   1      33.284  23.732  21.914  1.00  0.00     0.000 A 
BRANCH   9  14
ATOM     14  N   UNL A   1      30.459  25.975  24.067  1.00  0.00    -0.355 N 
ATOM     15  H   UNL A   1      29.580  25.604  24.311  1.00  0.00     0.167 HD
BRANCH  14  16
ATOM     16  C   UNL A   1      30.688  27.283  24.556  1.00  0.00     0.044 A 
ATOM     17  C   UNL A   1      31.959  26.226  26.502  1.00  0.00     0.046 C 
ATOM     18  C   UNL A   1      31.499  27.423  25.712  1.00  0.00    -0.027 A 
ATOM     19  C   UNL A   1      31.940  28.695  26.112  1.00  0.00     0.005 A 
ATOM     20  C   UNL A   1      31.583  29.829  25.392  1.00  0.00     0.001 A 
ATOM     21  C   UNL A   1      30.257  28.455  23.882  1.00  0.00    -0.027 A 
ATOM     22  C   UNL A   1      30.742  29.710  24.292  1.00  0.00     0.005 A 
ATOM     23  C   UNL A   1      29.310  28.455  22.710  1.00  0.00     0.046 C 
ENDBRANCH  14  16
ENDBRANCH   9  14
ENDBRANCH   7   8
ENDBRANCH   5   7
ENDBRANCH   4   5
ENDBRANCH   3   4
ENDBRANCH   2   3
ENDBRANCH   1   2
BRANCH   1  24
ATOM     24  C   UNL A   1      36.454  21.041  24.614  1.00  0.00     0.202 C 
BRANCH  24  25
ATOM     25  C   UNL A   1      37.619  20.412  25.388  1.00  0.00     0.261 C 
BRANCH  25  26
ATOM     26  O   UNL A   1      38.833  21.173  25.259  1.00  0.00    -0.460 OA
BRANCH  26  27
ATOM     27  C   UNL A   1      39.733  20.961  26.249  1.00  0.00     0.338 C 
ATOM     28  O   UNL A   1      40.339  19.920  26.474  1.00  0.00    -0.246 OA
BRANCH  27  29
ATOM     29  C   UNL A   1      40.067  22.225  26.928  1.00  0.00     0.060 A 
ATOM     30  C   UNL A   1      39.365  23.368  26.521  1.00  0.00     0.016 A 
ATOM     31  C   UNL A   1      41.099  22.322  27.863  1.00  0.00     0.016 A 
ATOM     32  C   UNL A   1      39.736  24.621  26.998  1.00  0.00     0.010 A 
ATOM     33  C   UNL A   1      41.479  23.586  28.332  1.00  0.00     0.010 A 
ATOM     34  C   UNL A   1      40.828  24.744  27.868  1.00  0.00    -0.014 A 
BRANCH  34  35
ATOM     35  C   UNL A   1      41.381  26.097  28.129  1.00  0.00     0.031 A 
ATOM     36  C   UNL A   1      42.739  26.442  27.577  1.00  0.00     0.074 A 
ATOM     37  C   UNL A   1      40.655  27.025  28.779  1.00  0.00     0.049 A 
ATOM     38  N   UNL A   1      43.411  27.560  27.660  1.00  0.00    -0.248 NA
ATOM     39  C   UNL A   1      43.429  25.378  26.831  1.00  0.00     0.031 C 
ATOM     40  C   UNL A   1      39.308  26.820  29.308  1.00  0.00     0.029 A 
ATOM     41  N   UNL A   1      40.947  28.327  29.097  1.00  0.00    -0.354 N 
ATOM     42  C   UNL A   1      44.602  27.337  26.975  1.00  0.00     0.074 A 
ATOM     43  C   UNL A   1      44.575  25.963  26.522  1.00  0.00     0.031 C 
ATOM     44  C   UNL A   1      38.891  27.959  29.889  1.00  0.00     0.029 A 
ATOM     45  C   UNL A   1      39.953  28.959  29.803  1.00  0.00     0.049 A 
ATOM     46  H   UNL A   1      41.791  28.767  28.843  1.00  0.00     0.167 HD
ATOM     47  C   UNL A   1      45.619  28.203  26.738  1.00  0.00     0.034 A 
ATOM     48  C   UNL A   1      39.913  30.198  30.337  1.00  0.00     0.034 A 
ATOM     49  C   UNL A   1      45.635  29.567  27.209  1.00  0.00     0.049 A 
ATOM     50  C   UNL A   1      41.095  31.117  30.136  1.00  0.00     0.074 A 
ATOM     51  C   UNL A   1      46.607  30.534  27.020  1.00  0.00     0.029 A 
ATOM     52  N   UNL A   1      44.635  30.156  27.974  1.00  0.00    -0.354 N 
ATOM     53  N   UNL A   1      42.212  30.896  29.483  1.00  0.00    -0.248 NA
ATOM     54  C   UNL A   1      41.004  32.453  30.740  1.00  0.00     0.031 C 
ATOM     55  C   UNL A   1      46.230  31.679  27.731  1.00  0.00     0.029 A 
ATOM     56  C   UNL A   1      44.985  31.458  28.297  1.00  0.00     0.049 A 
ATOM     57  H   UNL A   1      43.799  29.711  28.247  1.00  0.00     0.167 HD
ATOM     58  C   UNL A   1      42.945  32.078  29.571  1.00  0.00     0.074 A 
ATOM     59  C   UNL A   1      42.135  33.009  30.329  1.00  0.00     0.031 C 
ATOM     60  C   UNL A   1      44.172  32.370  29.068  1.00  0.00     0.034 A 
BRANCH  47  61
ATOM     61  C   UNL A   1      46.819  27.674  25.988  1.00  0.00     0.023 A 
ATOM     62  C   UNL A   1      47.071  28.023  24.649  1.00  0.00     0.031 A 
ATOM     63  C   UNL A   1      47.707  26.782  26.613  1.00  0.00     0.131 A 
ATOM     64  C   UNL A   1      48.139  27.428  23.959  1.00  0.00     0.055 A 
ATOM     65  C   UNL A   1      48.814  26.254  25.945  1.00  0.00     0.041 A 
ATOM     66  F   UNL A   1      47.505  26.393  27.882  1.00  0.00    -0.206 F 
ATOM     67  C   UNL A   1      49.027  26.565  24.605  1.00  0.00     0.022 A 
BRANCH  64  68
ATOM     68  S   UNL A   1      48.271  27.687  22.169  1.00  0.00     0.124 S 
ATOM     69  O   UNL A   1      48.465  26.321  21.686  1.00  0.00    -0.237 OA
ATOM     70  O   UNL A   1      46.991  28.305  21.843  1.00  0.00    -0.237 OA
ATOM     71  O   UNL A   1      49.437  28.558  22.032  1.00  0.00    -0.744 OA
ENDBRANCH  64  68
ENDBRANCH  47  61
BRANCH  48  72
ATOM     72  C   UNL A   1      38.739  30.633  31.148  1.00  0.00     0.023 A 
ATOM     73  C   UNL A   1      37.636  31.269  30.557  1.00  0.00     0.031 A 
ATOM     74  C   UNL A   1      38.731  30.464  32.545  1.00  0.00     0.131 A 
ATOM     75  C   UNL A   1      36.591  31.750  31.363  1.00  0.00     0.055 A 
ATOM     76  C   UNL A   1      37.666  30.898  33.336  1.00  0.00     0.041 A 
ATOM     77  F   UNL A   1      39.761  29.866  33.163  1.00  0.00    -0.206 F 
ATOM     78  C   UNL A   1      36.593  31.557  32.746  1.00  0.00     0.022 A 
BRANCH  75  79
ATOM     79  S   UNL A   1      35.264  32.711  30.585  1.00  0.00     0.124 S 
ATOM     80  O   UNL A   1      34.990  31.926  29.387  1.00  0.00    -0.237 OA
ATOM     81  O   UNL A   1      34.231  32.689  31.617  1.00  0.00    -0.237 OA
ATOM     82  O   UNL A   1      35.880  34.015  30.350  1.00  0.00    -0.744 OA
ENDBRANCH  75  79
ENDBRANCH  48  72
BRANCH  60  83
ATOM     83  C   UNL A   1      44.689  33.771  29.291  1.00  0.00     0.023 A 
ATOM     84  C   UNL A   1      44.233  34.860  28.528  1.00  0.00     0.031 A 
ATOM     85  C   UNL A   1      45.659  34.017  30.280  1.00  0.00     0.131 A 
ATOM     86  C   UNL A   1      44.788  36.133  28.726  1.00  0.00     0.055 A 
ATOM     87  C   UNL A   1      46.163  35.296  30.513  1.00  0.00     0.041 A 
ATOM     88  F   UNL A   1      46.132  33.014  31.037  1.00  0.00    -0.206 F 
ATOM     89  C   UNL A   1      45.738  36.361  29.724  1.00  0.00     0.022 A 
BRANCH  86  90
ATOM     90  S   UNL A   1      44.320  37.473  27.595  1.00  0.00     0.124 S 
ATOM     91  O   UNL A   1      43.732  38.448  28.508  1.00  0.00    -0.237 OA
ATOM     92  O   UNL A   1      45.601  37.845  27.003  1.00  0.00    -0.237 OA
ATOM     93  O   UNL A   1      43.376  36.835  26.679  1.00  0.00    -0.744 OA
ENDBRANCH  86  90
ENDBRANCH  60  83
ENDBRANCH  34  35
ENDBRANCH  27  29
ENDBRANCH  26  27
ENDBRANCH  25  26
ENDBRANCH  24  25
ENDBRANCH   1  24
TORSDOF 20
ENDMDL
MODEL 3
REMARK VINA RESULT:     -10.9      1.458      3.019
REMARK SMILES Cc1cccc(C)c1Nc1ccccc1CC(=O)OCCOCCOC(=O)c1ccc(-c2c3nc(c(-c4cc(S(=O)(=O)[O-])ccc4F)c4ccc([nH]4)c(-c4cc(S(=O)(=O)[O-])ccc4F)c4nc(c(-c5cc(S(=O)(=O)[O-])ccc5F)c5ccc2[nH]5)C=C4)C=C3)cc1
REMARK SMILES IDX 22 1 21 2 20 3 19 4 17 5 18 6 16 7 15 8 10 9 11 10 12 11
REMARK SMILES IDX 14 12 13 13 9 14 8 16 1 17 2 18 3 19 4 20 6 21 5 22 7 23
REMARK SMILES IDX 23 24 24 25 25 26 26 27 27 28 28 29 29 30 90 31 30 32 89 33
REMARK SMILES IDX 31 34 32 35 33 36 83 37 34 38 88 39 82 40 84 41 35 42 87 43
REMARK SMILES IDX 81 44 80 45 36 47 68 48 48 49 67 50 49 51 52 52 66 53 85 54
REMARK SMILES IDX 50 55 51 56 65 58 86 59 53 60 37 61 38 62 46 63 39 64 45 65
REMARK SMILES IDX 47 66 44 67 40 68 41 69 42 70 43 71 69 72 70 73 78 74 71 75
REMARK SMILES IDX 77 76 79 77 76 78 72 79 73 80 74 81 75 82 54 83 55 84 63 85
REMARK SMILES IDX 56 86 62 87 64 88 61 89 57 90 58 91 59 92 60 93
REMARK H PARENT 9 15 84 46 52 57
REMARK Flexibility Score: inf
ROOT
ATOM      1  O   UNL A   1      33.312  29.353  24.698  1.00  0.00    -0.374 OA
ENDROOT
BRANCH   1   2
ATOM      2  C   UNL A   1      33.276  28.995  23.318  1.00  0.00     0.202 C 
BRANCH   2   3
ATOM      3  C   UNL A   1      32.464  27.755  22.924  1.00  0.00     0.261 C 
BRANCH   3   4
ATOM      4  O   UNL A   1      33.249  26.549  22.863  1.00  0.00    -0.463 OA
BRANCH   4   5
ATOM      5  C   UNL A   1      32.736  25.573  22.069  1.00  0.00     0.310 C 
ATOM      6  O   UNL A   1      33.319  25.097  21.096  1.00  0.00    -0.252 OA
BRANCH   5   7
ATOM      7  C   UNL A   1      31.363  25.081  22.447  1.00  0.00     0.160 C 
BRANCH   7   8
ATOM      8  C   UNL A   1      31.056  24.633  23.866  1.00  0.00    -0.013 A 
ATOM      9  C   UNL A   1      31.557  23.442  24.427  1.00  0.00     0.042 A 
ATOM     10  C   UNL A   1      31.156  23.075  25.729  1.00  0.00     0.026 A 
ATOM     11  C   UNL A   1      30.350  23.906  26.505  1.00  0.00     0.002 A 
ATOM     12  C   UNL A   1      30.298  25.487  24.693  1.00  0.00     0.006 A 
ATOM     13  C   UNL A   1      29.945  25.129  25.996  1.00  0.00     0.000 A 
BRANCH   9  14
ATOM     14  N   UNL A   1      32.573  22.658  23.844  1.00  0.00    -0.355 N 
ATOM     15  H   UNL A   1      32.460  22.509  22.877  1.00  0.00     0.167 HD
BRANCH  14  16
ATOM     16  C   UNL A   1      33.725  22.044  24.390  1.00  0.00     0.044 A 
ATOM     17  C   UNL A   1      32.493  19.812  24.219  1.00  0.00     0.046 C 
ATOM     18  C   UNL A   1      33.728  20.628  24.500  1.00  0.00    -0.027 A 
ATOM     19  C   UNL A   1      34.915  19.951  24.824  1.00  0.00     0.005 A 
ATOM     20  C   UNL A   1      36.094  20.651  25.048  1.00  0.00     0.001 A 
ATOM     21  C   UNL A   1      34.913  22.752  24.708  1.00  0.00    -0.027 A 
ATOM     22  C   UNL A   1      36.090  22.040  24.999  1.00  0.00     0.005 A 
ATOM     23  C   UNL A   1      35.016  24.255  24.736  1.00  0.00     0.046 C 
ENDBRANCH  14  16
ENDBRANCH   9  14
ENDBRANCH   7   8
ENDBRANCH   5   7
ENDBRANCH   4   5
ENDBRANCH   3   4
ENDBRANCH   2   3
ENDBRANCH   1   2
BRANCH   1  24
ATOM     24  C   UNL A   1      32.061  29.571  25.344  1.00  0.00     0.202 C 
BRANCH  24  25
ATOM     25  C   UNL A   1      31.877  30.887  26.109  1.00  0.00     0.261 C 
BRANCH  25  26
ATOM     26  O   UNL A   1      32.584  30.893  27.362  1.00  0.00    -0.460 OA
BRANCH  26  27
ATOM     27  C   UNL A   1      33.387  31.969  27.545  1.00  0.00     0.338 C 
ATOM     28  O   UNL A   1      33.036  33.141  27.601  1.00  0.00    -0.246 OA
BRANCH  27  29
ATOM     29  C   UNL A   1      34.756  31.544  27.886  1.00  0.00     0.060 A 
ATOM     30  C   UNL A   1      34.960  30.173  28.097  1.00  0.00     0.016 A 
ATOM     31  C   UNL A   1      35.793  32.456  28.092  1.00  0.00     0.016 A 
ATOM     32  C   UNL A   1      36.182  29.716  28.578  1.00  0.00     0.010 A 
ATOM     33  C   UNL A   1      37.019  31.994  28.588  1.00  0.00     0.010 A 
ATOM     34  C   UNL A   1      37.204  30.629  28.874  1.00  0.00    -0.014 A 
BRANCH  34  35
ATOM     35  C   UNL A   1      38.378  30.155  29.650  1.00  0.00     0.031 A 
ATOM     36  C   UNL A   1      38.558  30.648  31.061  1.00  0.00     0.074 A 
ATOM     37  C   UNL A   1      39.224  29.246  29.135  1.00  0.00     0.049 A 
ATOM     38  N   UNL A   1      39.490  30.358  31.932  1.00  0.00    -0.248 NA
ATOM     39  C   UNL A   1      37.547  31.596  31.555  1.00  0.00     0.031 C 
ATOM     40  C   UNL A   1      39.116  28.657  27.800  1.00  0.00     0.029 A 
ATOM     41  N   UNL A   1      40.337  28.652  29.675  1.00  0.00    -0.354 N 
ATOM     42  C   UNL A   1      39.178  31.085  33.077  1.00  0.00     0.074 A 
ATOM     43  C   UNL A   1      37.995  31.861  32.772  1.00  0.00     0.031 C 
ATOM     44  C   UNL A   1      40.126  27.787  27.625  1.00  0.00     0.029 A 
ATOM     45  C   UNL A   1      40.970  27.783  28.819  1.00  0.00     0.049 A 
ATOM     46  H   UNL A   1      40.652  28.832  30.590  1.00  0.00     0.167 HD
ATOM     47  C   UNL A   1      39.815  31.096  34.275  1.00  0.00     0.034 A 
ATOM     48  C   UNL A   1      42.111  27.080  28.974  1.00  0.00     0.034 A 
ATOM     49  C   UNL A   1      41.001  30.324  34.557  1.00  0.00     0.049 A 
ATOM     50  C   UNL A   1      42.852  27.175  30.287  1.00  0.00     0.074 A 
ATOM     51  C   UNL A   1      41.723  30.251  35.736  1.00  0.00     0.029 A 
ATOM     52  N   UNL A   1      41.649  29.500  33.645  1.00  0.00    -0.354 N 
ATOM     53  N   UNL A   1      42.544  27.861  31.363  1.00  0.00    -0.248 NA
ATOM     54  C   UNL A   1      44.090  26.394  30.405  1.00  0.00     0.031 C 
ATOM     55  C   UNL A   1      42.844  29.444  35.514  1.00  0.00     0.029 A 
ATOM     56  C   UNL A   1      42.781  28.946  34.222  1.00  0.00     0.049 A 
ATOM     57  H   UNL A   1      41.347  29.334  32.722  1.00  0.00     0.167 HD
ATOM     58  C   UNL A   1      43.536  27.569  32.297  1.00  0.00     0.074 A 
ATOM     59  C   UNL A   1      44.441  26.636  31.660  1.00  0.00     0.031 C 
ATOM     60  C   UNL A   1      43.683  28.027  33.567  1.00  0.00     0.034 A 
BRANCH  47  61
ATOM     61  C   UNL A   1      39.269  32.016  35.341  1.00  0.00     0.023 A 
ATOM     62  C   UNL A   1      39.698  33.350  35.462  1.00  0.00     0.031 A 
ATOM     63  C   UNL A   1      38.328  31.541  36.271  1.00  0.00     0.131 A 
ATOM     64  C   UNL A   1      39.241  34.139  36.530  1.00  0.00     0.055 A 
ATOM     65  C   UNL A   1      37.818  32.355  37.285  1.00  0.00     0.041 A 
ATOM     66  F   UNL A   1      37.899  30.270  36.222  1.00  0.00    -0.206 F 
ATOM     67  C   UNL A   1      38.286  33.658  37.428  1.00  0.00     0.022 A 
BRANCH  64  68
ATOM     68  S   UNL A   1      40.018  35.753  36.814  1.00  0.00     0.124 S 
ATOM     69  O   UNL A   1      41.425  35.384  36.950  1.00  0.00    -0.237 OA
ATOM     70  O   UNL A   1      39.664  36.491  35.607  1.00  0.00    -0.237 OA
ATOM     71  O   UNL A   1      39.385  36.228  38.043  1.00  0.00    -0.744 OA
ENDBRANCH  64  68
ENDBRANCH  47  61
BRANCH  48  72
ATOM     72  C   UNL A   1      42.651  26.259  27.852  1.00  0.00     0.023 A 
ATOM     73  C   UNL A   1      42.336  24.896  27.725  1.00  0.00     0.031 A 
ATOM     74  C   UNL A   1      43.538  26.821  26.916  1.00  0.00     0.131 A 
ATOM     75  C   UNL A   1      42.938  24.132  26.711  1.00  0.00     0.055 A 
ATOM     76  C   UNL A   1      44.092  26.069  25.879  1.00  0.00     0.041 A 
ATOM     77  F   UNL A   1      43.875  28.118  26.992  1.00  0.00    -0.206 F 
ATOM     78  C   UNL A   1      43.802  24.712  25.780  1.00  0.00     0.022 A 
BRANCH  75  79
ATOM     79  S   UNL A   1      42.639  22.343  26.677  1.00  0.00     0.124 S 
ATOM     80  O   UNL A   1      41.364  22.268  25.975  1.00  0.00    -0.237 OA
ATOM     81  O   UNL A   1      43.805  21.857  25.946  1.00  0.00    -0.237 OA
ATOM     82  O   UNL A   1      42.596  21.978  28.092  1.00  0.00    -0.744 OA
ENDBRANCH  75  79
ENDBRANCH  48  72
BRANCH  60  83
ATOM     83  C   UNL A   1      44.849  27.485  34.361  1.00  0.00     0.023 A 
ATOM     84  C   UNL A   1      44.717  26.367  35.202  1.00  0.00     0.031 A 
ATOM     85  C   UNL A   1      46.109  28.105  34.277  1.00  0.00     0.131 A 
ATOM     86  C   UNL A   1      45.810  25.937  35.970  1.00  0.00     0.055 A 
ATOM     87  C   UNL A   1      47.208  27.636  34.997  1.00  0.00     0.041 A 
ATOM     88  F   UNL A   1      46.291  29.178  33.490  1.00  0.00    -0.206 F 
ATOM     89  C   UNL A   1      47.058  26.554  35.860  1.00  0.00     0.022 A 
BRANCH  86  90
ATOM     90  S   UNL A   1      45.554  24.617  37.187  1.00  0.00     0.124 S 
ATOM     91  O   UNL A   1      44.714  25.278  38.180  1.00  0.00    -0.237 OA
ATOM     92  O   UNL A   1      44.906  23.579  36.391  1.00  0.00    -0.237 OA
ATOM     93  O   UNL A   1      46.909  24.296  37.636  1.00  0.00    -0.744 OA
ENDBRANCH  86  90
ENDBRANCH  60  83
ENDBRANCH  34  35
ENDBRANCH  27  29
ENDBRANCH  26  27
ENDBRANCH  25  26
ENDBRANCH  24  25
ENDBRANCH   1  24
TORSDOF 20
ENDMDL
