MODEL 1
REMARK VINA RESULT:     -11.0      0.000      0.000
REMARK SMILES O=C(OCCOCCOC(=O)[C@H]1CC[C@@H]([NH+]2CCCC2)CC1)c1ccc(-c2c3nc(c(-c4cc(S(=O)(=O)[O-])ccc4F)c4ccc([nH]4)c(-c4cc(S(=O)(=O)[O-])ccc4F)c4nc(c(-c5cc(S(=O)(=O)[O-])ccc5F)c5ccc2[nH]5)C=C4)C=C3)cc1
REMARK SMILES IDX 5 1 4 2 3 3 2 4 1 5 23 6 24 7 85 8 25 9 84 10 26 11 27 12
REMARK SMILES IDX 28 13 78 14 29 15 83 16 77 17 79 18 30 19 82 20 76 21 75 22
REMARK SMILES IDX 31 24 63 25 43 26 62 27 44 28 47 29 61 30 80 31 45 32 46 33
REMARK SMILES IDX 60 35 81 36 48 37 32 38 33 39 41 40 34 41 40 42 42 43 39 44
REMARK SMILES IDX 35 45 36 46 37 47 38 48 64 49 65 50 73 51 66 52 72 53 74 54
REMARK SMILES IDX 71 55 67 56 68 57 69 58 70 59 49 60 50 61 58 62 51 63 57 64
REMARK SMILES IDX 59 65 56 66 52 67 53 68 54 69 55 70 6 71 7 72 8 73 9 74
REMARK SMILES IDX 10 75 11 76 12 77 13 78 22 79 14 80 21 81 15 82 16 83 17 84
REMARK SMILES IDX 20 85 18 87 19 88
REMARK H PARENT 79 23 47 34 16 86
REMARK Flexibility Score: inf
ROOT
ATOM      1  C   UNL A   1      31.701  28.997  24.690  1.00  0.00     0.202 C 
ENDROOT
BRANCH   1   2
ATOM      2  C   UNL A   1      32.070  29.598  26.069  1.00  0.00     0.261 C 
BRANCH   2   3
ATOM      3  O   UNL A   1      33.095  30.611  26.038  1.00  0.00    -0.460 OA
BRANCH   3   4
ATOM      4  C   UNL A   1      33.565  31.337  27.088  1.00  0.00     0.338 C 
ATOM      5  O   UNL A   1      32.923  32.297  27.503  1.00  0.00    -0.246 OA
BRANCH   4   6
ATOM      6  C   UNL A   1      34.853  30.990  27.744  1.00  0.00     0.060 A 
ATOM      7  C   UNL A   1      35.135  29.700  28.162  1.00  0.00     0.016 A 
ATOM      8  C   UNL A   1      35.849  31.958  27.906  1.00  0.00     0.016 A 
ATOM      9  C   UNL A   1      36.253  29.379  28.882  1.00  0.00     0.010 A 
ATOM     10  C   UNL A   1      37.066  31.613  28.514  1.00  0.00     0.010 A 
ATOM     11  C   UNL A   1      37.252  30.320  29.023  1.00  0.00    -0.014 A 
BRANCH  11  12
ATOM     12  C   UNL A   1      38.415  29.882  29.809  1.00  0.00     0.031 A 
ATOM     13  C   UNL A   1      39.432  29.030  29.128  1.00  0.00     0.074 A 
ATOM     14  C   UNL A   1      38.631  30.444  31.015  1.00  0.00     0.049 A 
ATOM     15  N   UNL A   1      40.514  28.491  29.613  1.00  0.00    -0.248 NA
ATOM     16  C   UNL A   1      39.202  28.749  27.701  1.00  0.00     0.031 C 
ATOM     17  C   UNL A   1      37.759  31.445  31.651  1.00  0.00     0.029 A 
ATOM     18  N   UNL A   1      39.672  30.321  31.890  1.00  0.00    -0.354 N 
ATOM     19  C   UNL A   1      41.061  27.755  28.570  1.00  0.00     0.074 A 
ATOM     20  C   UNL A   1      40.195  27.922  27.425  1.00  0.00     0.031 C 
ATOM     21  C   UNL A   1      38.336  31.881  32.780  1.00  0.00     0.029 A 
ATOM     22  C   UNL A   1      39.547  31.110  33.011  1.00  0.00     0.049 A 
ATOM     23  H   UNL A   1      40.440  29.724  31.734  1.00  0.00     0.167 HD
ATOM     24  C   UNL A   1      42.181  26.995  28.597  1.00  0.00     0.034 A 
ATOM     25  C   UNL A   1      40.306  31.153  34.122  1.00  0.00     0.034 A 
ATOM     26  C   UNL A   1      43.002  26.884  29.775  1.00  0.00     0.049 A 
ATOM     27  C   UNL A   1      41.483  30.214  34.167  1.00  0.00     0.074 A 
ATOM     28  C   UNL A   1      44.111  26.089  29.992  1.00  0.00     0.029 A 
ATOM     29  N   UNL A   1      42.793  27.606  30.949  1.00  0.00    -0.354 N 
ATOM     30  N   UNL A   1      41.930  29.407  33.229  1.00  0.00    -0.248 NA
ATOM     31  C   UNL A   1      42.244  30.173  35.417  1.00  0.00     0.031 C 
ATOM     32  C   UNL A   1      44.528  26.280  31.314  1.00  0.00     0.029 A 
ATOM     33  C   UNL A   1      43.736  27.257  31.901  1.00  0.00     0.049 A 
ATOM     34  H   UNL A   1      42.077  28.268  31.082  1.00  0.00     0.167 HD
ATOM     35  C   UNL A   1      43.042  28.775  33.769  1.00  0.00     0.074 A 
ATOM     36  C   UNL A   1      43.207  29.317  35.106  1.00  0.00     0.031 C 
ATOM     37  C   UNL A   1      43.853  27.831  33.224  1.00  0.00     0.034 A 
BRANCH  24  38
ATOM     38  C   UNL A   1      42.457  26.154  27.375  1.00  0.00     0.023 A 
ATOM     39  C   UNL A   1      41.958  24.846  27.231  1.00  0.00     0.031 A 
ATOM     40  C   UNL A   1      43.350  26.627  26.397  1.00  0.00     0.131 A 
ATOM     41  C   UNL A   1      42.436  24.027  26.196  1.00  0.00     0.055 A 
ATOM     42  C   UNL A   1      43.750  25.837  25.317  1.00  0.00     0.041 A 
ATOM     43  F   UNL A   1      43.891  27.852  26.499  1.00  0.00    -0.206 F 
ATOM     44  C   UNL A   1      43.308  24.521  25.223  1.00  0.00     0.022 A 
BRANCH  41  45
ATOM     45  S   UNL A   1      42.054  22.251  26.247  1.00  0.00     0.124 S 
ATOM     46  O   UNL A   1      42.870  21.745  25.146  1.00  0.00    -0.237 OA
ATOM     47  O   UNL A   1      42.486  21.873  27.588  1.00  0.00    -0.237 OA
ATOM     48  O   UNL A   1      40.612  22.203  26.018  1.00  0.00    -0.744 OA
ENDBRANCH  41  45
ENDBRANCH  24  38
BRANCH  25  49
ATOM     49  C   UNL A   1      39.938  32.019  35.283  1.00  0.00     0.023 A 
ATOM     50  C   UNL A   1      39.075  31.563  36.291  1.00  0.00     0.031 A 
ATOM     51  C   UNL A   1      40.403  33.346  35.374  1.00  0.00     0.131 A 
ATOM     52  C   UNL A   1      38.671  32.434  37.318  1.00  0.00     0.055 A 
ATOM     53  C   UNL A   1      40.050  34.188  36.431  1.00  0.00     0.041 A 
ATOM     54  F   UNL A   1      41.223  33.848  34.436  1.00  0.00    -0.206 F 
ATOM     55  C   UNL A   1      39.165  33.738  37.402  1.00  0.00     0.022 A 
BRANCH  52  56
ATOM     56  S   UNL A   1      37.405  31.871  38.490  1.00  0.00     0.124 S 
ATOM     57  O   UNL A   1      36.346  32.852  38.277  1.00  0.00    -0.237 OA
ATOM     58  O   UNL A   1      37.133  30.519  38.015  1.00  0.00    -0.237 OA
ATOM     59  O   UNL A   1      38.079  31.952  39.783  1.00  0.00    -0.744 OA
ENDBRANCH  52  56
ENDBRANCH  25  49
BRANCH  37  60
ATOM     60  C   UNL A   1      45.016  27.388  34.069  1.00  0.00     0.023 A 
ATOM     61  C   UNL A   1      44.932  26.268  34.913  1.00  0.00     0.031 A 
ATOM     62  C   UNL A   1      46.218  28.116  34.043  1.00  0.00     0.131 A 
ATOM     63  C   UNL A   1      46.007  25.949  35.750  1.00  0.00     0.055 A 
ATOM     64  C   UNL A   1      47.312  27.748  34.824  1.00  0.00     0.041 A 
ATOM     65  F   UNL A   1      46.347  29.196  33.256  1.00  0.00    -0.206 F 
ATOM     66  C   UNL A   1      47.205  26.669  35.697  1.00  0.00     0.022 A 
BRANCH  63  67
ATOM     67  S   UNL A   1      45.778  24.651  36.995  1.00  0.00     0.124 S 
ATOM     68  O   UNL A   1      44.766  23.807  36.368  1.00  0.00    -0.237 OA
ATOM     69  O   UNL A   1      47.115  24.076  37.096  1.00  0.00    -0.237 OA
ATOM     70  O   UNL A   1      45.328  25.386  38.175  1.00  0.00    -0.744 OA
ENDBRANCH  63  67
ENDBRANCH  37  60
ENDBRANCH  11  12
ENDBRANCH   4   6
ENDBRANCH   3   4
ENDBRANCH   2   3
ENDBRANCH   1   2
BRANCH   1  71
ATOM     71  O   UNL A   1      31.338  27.622  24.598  1.00  0.00    -0.374 OA
BRANCH  71  72
ATOM     72  C   UNL A   1      30.985  26.954  25.806  1.00  0.00     0.202 C 
BRANCH  72  73
ATOM     73  C   UNL A   1      31.828  25.704  26.010  1.00  0.00     0.261 C 
BRANCH  73  74
ATOM     74  O   UNL A   1      30.941  24.569  25.974  1.00  0.00    -0.463 OA
BRANCH  74  75
ATOM     75  C   UNL A   1      31.409  23.454  26.590  1.00  0.00     0.309 C 
ATOM     76  O   UNL A   1      30.963  23.001  27.639  1.00  0.00    -0.252 OA
BRANCH  75  77
ATOM     77  C   UNL A   1      32.585  22.834  25.837  1.00  0.00     0.099 C 
ATOM     78  C   UNL A   1      33.427  22.038  26.843  1.00  0.00     0.021 C 
ATOM     79  C   UNL A   1      32.204  21.967  24.623  1.00  0.00     0.021 C 
ATOM     80  C   UNL A   1      34.641  21.383  26.199  1.00  0.00     0.066 C 
ATOM     81  C   UNL A   1      33.396  21.260  23.989  1.00  0.00     0.066 C 
ATOM     82  C   UNL A   1      34.346  20.522  24.959  1.00  0.00     0.184 C 
BRANCH  82  83
ATOM     83  N   UNL A   1      34.049  19.119  25.275  1.00  0.00    -0.333 N 
ATOM     84  C   UNL A   1      34.591  18.129  24.343  1.00  0.00     0.262 C 
ATOM     85  C   UNL A   1      32.705  18.711  25.667  1.00  0.00     0.262 C 
ATOM     86  H   UNL A   1      34.574  19.119  26.149  1.00  0.00     0.348 HD
ATOM     87  C   UNL A   1      33.377  17.408  23.793  1.00  0.00     0.067 C 
ATOM     88  C   UNL A   1      32.462  17.362  24.998  1.00  0.00     0.067 C 
ENDBRANCH  82  83
ENDBRANCH  75  77
ENDBRANCH  74  75
ENDBRANCH  73  74
ENDBRANCH  72  73
ENDBRANCH  71  72
ENDBRANCH   1  71
TORSDOF 18
ENDMDL
MODEL 2
REMARK VINA RESULT:     -11.0      2.009      2.252
REMARK SMILES O=C(OCCOCCOC(=O)[C@H]1CC[C@@H]([NH+]2CCCC2)CC1)c1ccc(-c2c3nc(c(-c4cc(S(=O)(=O)[O-])ccc4F)c4ccc([nH]4)c(-c4cc(S(=O)(=O)[O-])ccc4F)c4nc(c(-c5cc(S(=O)(=O)[O-])ccc5F)c5ccc2[nH]5)C=C4)C=C3)cc1
REMARK SMILES IDX 5 1 4 2 3 3 2 4 1 5 23 6 24 7 85 8 25 9 84 10 26 11 27 12
REMARK SMILES IDX 28 13 78 14 29 15 83 16 77 17 79 18 30 19 82 20 76 21 75 22
REMARK SMILES IDX 31 24 63 25 43 26 62 27 44 28 47 29 61 30 80 31 45 32 46 33
REMARK SMILES IDX 60 35 81 36 48 37 32 38 33 39 41 40 34 41 40 42 42 43 39 44
REMARK SMILES IDX 35 45 36 46 37 47 38 48 64 49 65 50 73 51 66 52 72 53 74 54
REMARK SMILES IDX 71 55 67 56 68 57 69 58 70 59 49 60 50 61 58 62 51 63 57 64
REMARK SMILES IDX 59 65 56 66 52 67 53 68 54 69 55 70 6 71 7 72 8 73 9 74
REMARK SMILES IDX 10 75 11 76 12 77 13 78 22 79 14 80 21 81 15 82 16 83 17 84
REMARK SMILES IDX 20 85 18 87 19 88
REMARK H PARENT 79 23 47 34 16 86
REMARK Flexibility Score: inf
ROOT
ATOM      1  C   UNL A   1      31.637  28.573  27.275  1.00  0.00     0.202 C 
ENDROOT
BRANCH   1   2
ATOM      2  C   UNL A   1      31.750  29.414  25.980  1.00  0.00     0.261 C 
BRANCH   2   3
ATOM      3  O   UNL A   1      32.860  30.334  25.945  1.00  0.00    -0.460 OA
BRANCH   3   4
ATOM      4  C   UNL A   1      33.292  31.140  26.951  1.00  0.00     0.338 C 
ATOM      5  O   UNL A   1      32.606  32.096  27.305  1.00  0.00    -0.246 OA
BRANCH   4   6
ATOM      6  C   UNL A   1      34.588  30.888  27.634  1.00  0.00     0.060 A 
ATOM      7  C   UNL A   1      34.953  29.622  28.060  1.00  0.00     0.016 A 
ATOM      8  C   UNL A   1      35.508  31.925  27.812  1.00  0.00     0.016 A 
ATOM      9  C   UNL A   1      36.077  29.383  28.804  1.00  0.00     0.010 A 
ATOM     10  C   UNL A   1      36.735  31.670  28.445  1.00  0.00     0.010 A 
ATOM     11  C   UNL A   1      37.003  30.394  28.961  1.00  0.00    -0.014 A 
BRANCH  11  12
ATOM     12  C   UNL A   1      38.178  30.042  29.772  1.00  0.00     0.031 A 
ATOM     13  C   UNL A   1      39.281  29.290  29.105  1.00  0.00     0.074 A 
ATOM     14  C   UNL A   1      38.315  30.599  30.991  1.00  0.00     0.049 A 
ATOM     15  N   UNL A   1      40.392  28.836  29.611  1.00  0.00    -0.248 NA
ATOM     16  C   UNL A   1      39.111  29.016  27.668  1.00  0.00     0.031 C 
ATOM     17  C   UNL A   1      37.347  31.512  31.619  1.00  0.00     0.029 A 
ATOM     18  N   UNL A   1      39.341  30.549  31.892  1.00  0.00    -0.354 N 
ATOM     19  C   UNL A   1      41.026  28.167  28.571  1.00  0.00     0.074 A 
ATOM     20  C   UNL A   1      40.177  28.280  27.407  1.00  0.00     0.031 C 
ATOM     21  C   UNL A   1      37.856  31.976  32.769  1.00  0.00     0.029 A 
ATOM     22  C   UNL A   1      39.121  31.305  33.021  1.00  0.00     0.049 A 
ATOM     23  H   UNL A   1      40.160  30.021  31.747  1.00  0.00     0.167 HD
ATOM     24  C   UNL A   1      42.205  27.504  28.616  1.00  0.00     0.034 A 
ATOM     25  C   UNL A   1      39.845  31.392  34.153  1.00  0.00     0.034 A 
ATOM     26  C   UNL A   1      43.002  27.442  29.815  1.00  0.00     0.049 A 
ATOM     27  C   UNL A   1      41.096  30.556  34.215  1.00  0.00     0.074 A 
ATOM     28  C   UNL A   1      44.168  26.739  30.048  1.00  0.00     0.029 A 
ATOM     29  N   UNL A   1      42.703  28.123  30.993  1.00  0.00    -0.354 N 
ATOM     30  N   UNL A   1      41.633  29.805  33.276  1.00  0.00    -0.248 NA
ATOM     31  C   UNL A   1      41.826  30.557  35.483  1.00  0.00     0.031 C 
ATOM     32  C   UNL A   1      44.534  26.941  31.384  1.00  0.00     0.029 A 
ATOM     33  C   UNL A   1      43.647  27.839  31.964  1.00  0.00     0.049 A 
ATOM     34  H   UNL A   1      41.931  28.720  31.117  1.00  0.00     0.167 HD
ATOM     35  C   UNL A   1      42.781  29.260  33.837  1.00  0.00     0.074 A 
ATOM     36  C   UNL A   1      42.866  29.790  35.185  1.00  0.00     0.031 C 
ATOM     37  C   UNL A   1      43.682  28.397  33.298  1.00  0.00     0.034 A 
BRANCH  24  38
ATOM     38  C   UNL A   1      42.582  26.711  27.390  1.00  0.00     0.023 A 
ATOM     39  C   UNL A   1      42.148  25.388  27.184  1.00  0.00     0.031 A 
ATOM     40  C   UNL A   1      43.505  27.248  26.475  1.00  0.00     0.131 A 
ATOM     41  C   UNL A   1      42.715  24.619  26.156  1.00  0.00     0.055 A 
ATOM     42  C   UNL A   1      43.995  26.506  25.399  1.00  0.00     0.041 A 
ATOM     43  F   UNL A   1      43.986  28.490  26.640  1.00  0.00    -0.206 F 
ATOM     44  C   UNL A   1      43.617  25.176  25.245  1.00  0.00     0.022 A 
BRANCH  41  45
ATOM     45  S   UNL A   1      42.408  22.829  26.139  1.00  0.00     0.124 S 
ATOM     46  O   UNL A   1      42.796  22.478  24.775  1.00  0.00    -0.237 OA
ATOM     47  O   UNL A   1      43.287  22.346  27.198  1.00  0.00    -0.237 OA
ATOM     48  O   UNL A   1      40.977  22.723  26.418  1.00  0.00    -0.744 OA
ENDBRANCH  41  45
ENDBRANCH  24  38
BRANCH  25  49
ATOM     49  C   UNL A   1      39.376  32.204  35.315  1.00  0.00     0.023 A 
ATOM     50  C   UNL A   1      39.801  33.528  35.504  1.00  0.00     0.031 A 
ATOM     51  C   UNL A   1      38.529  31.647  36.295  1.00  0.00     0.131 A 
ATOM     52  C   UNL A   1      39.419  34.232  36.658  1.00  0.00     0.055 A 
ATOM     53  C   UNL A   1      38.101  32.372  37.408  1.00  0.00     0.041 A 
ATOM     54  F   UNL A   1      38.095  30.381  36.182  1.00  0.00    -0.206 F 
ATOM     55  C   UNL A   1      38.559  33.669  37.603  1.00  0.00     0.022 A 
BRANCH  52  56
ATOM     56  S   UNL A   1      40.147  35.867  36.962  1.00  0.00     0.124 S 
ATOM     57  O   UNL A   1      39.656  36.628  35.818  1.00  0.00    -0.237 OA
ATOM     58  O   UNL A   1      39.576  36.216  38.258  1.00  0.00    -0.237 OA
ATOM     59  O   UNL A   1      41.584  35.604  36.965  1.00  0.00    -0.744 OA
ENDBRANCH  52  56
ENDBRANCH  25  49
BRANCH  37  60
ATOM     60  C   UNL A   1      44.857  28.039  34.168  1.00  0.00     0.023 A 
ATOM     61  C   UNL A   1      46.037  28.803  34.166  1.00  0.00     0.031 A 
ATOM     62  C   UNL A   1      44.798  26.904  34.994  1.00  0.00     0.131 A 
ATOM     63  C   UNL A   1      47.137  28.380  34.921  1.00  0.00     0.055 A 
ATOM     64  C   UNL A   1      45.870  26.531  35.801  1.00  0.00     0.041 A 
ATOM     65  F   UNL A   1      43.694  26.141  35.029  1.00  0.00    -0.206 F 
ATOM     66  C   UNL A   1      47.055  27.261  35.755  1.00  0.00     0.022 A 
BRANCH  63  67
ATOM     67  S   UNL A   1      48.715  29.246  34.709  1.00  0.00     0.124 S 
ATOM     68  O   UNL A   1      48.295  30.481  34.054  1.00  0.00    -0.237 OA
ATOM     69  O   UNL A   1      49.184  29.381  36.083  1.00  0.00    -0.237 OA
ATOM     70  O   UNL A   1      49.495  28.335  33.873  1.00  0.00    -0.744 OA
ENDBRANCH  63  67
ENDBRANCH  37  60
ENDBRANCH  11  12
ENDBRANCH   4   6
ENDBRANCH   3   4
ENDBRANCH   2   3
ENDBRANCH   1   2
BRANCH   1  71
ATOM     71  O   UNL A   1      31.342  27.181  27.185  1.00  0.00    -0.374 OA
BRANCH  71  72
ATOM     72  C   UNL A   1      30.982  26.668  25.905  1.00  0.00     0.202 C 
BRANCH  72  73
ATOM     73  C   UNL A   1      30.062  25.463  26.035  1.00  0.00     0.261 C 
BRANCH  73  74
ATOM     74  O   UNL A   1      30.758  24.324  25.493  1.00  0.00    -0.463 OA
BRANCH  74  75
ATOM     75  C   UNL A   1      31.538  23.653  26.377  1.00  0.00     0.309 C 
ATOM     76  O   UNL A   1      31.338  23.610  27.587  1.00  0.00    -0.252 OA
BRANCH  75  77
ATOM     77  C   UNL A   1      32.723  22.972  25.694  1.00  0.00     0.099 C 
ATOM     78  C   UNL A   1      33.455  22.126  26.744  1.00  0.00     0.021 C 
ATOM     79  C   UNL A   1      32.370  22.132  24.453  1.00  0.00     0.021 C 
ATOM     80  C   UNL A   1      34.669  21.406  26.172  1.00  0.00     0.066 C 
ATOM     81  C   UNL A   1      33.558  21.362  23.888  1.00  0.00     0.066 C 
ATOM     82  C   UNL A   1      34.403  20.568  24.910  1.00  0.00     0.184 C 
BRANCH  82  83
ATOM     83  N   UNL A   1      34.010  19.182  25.196  1.00  0.00    -0.333 N 
ATOM     84  C   UNL A   1      34.758  18.149  24.480  1.00  0.00     0.262 C 
ATOM     85  C   UNL A   1      32.604  18.801  25.241  1.00  0.00     0.262 C 
ATOM     86  H   UNL A   1      34.290  19.219  26.176  1.00  0.00     0.348 HD
ATOM     87  C   UNL A   1      33.716  17.411  23.663  1.00  0.00     0.067 C 
ATOM     88  C   UNL A   1      32.519  17.425  24.590  1.00  0.00     0.067 C 
ENDBRANCH  82  83
ENDBRANCH  75  77
ENDBRANCH  74  75
ENDBRANCH  73  74
ENDBRANCH  72  73
ENDBRANCH  71  72
ENDBRANCH   1  71
TORSDOF 18
ENDMDL
MODEL 3
REMARK VINA RESULT:     -10.8      1.698      2.238
REMARK SMILES O=C(OCCOCCOC(=O)[C@H]1CC[C@@H]([NH+]2CCCC2)CC1)c1ccc(-c2c3nc(c(-c4cc(S(=O)(=O)[O-])ccc4F)c4ccc([nH]4)c(-c4cc(S(=O)(=O)[O-])ccc4F)c4nc(c(-c5cc(S(=O)(=O)[O-])ccc5F)c5ccc2[nH]5)C=C4)C=C3)cc1
REMARK SMILES IDX 5 1 4 2 3 3 2 4 1 5 23 6 24 7 85 8 25 9 84 10 26 11 27 12
REMARK SMILES IDX 28 13 78 14 29 15 83 16 77 17 79 18 30 19 82 20 76 21 75 22
REMARK SMILES IDX 31 24 63 25 43 26 62 27 44 28 47 29 61 30 80 31 45 32 46 33
REMARK SMILES IDX 60 35 81 36 48 37 32 38 33 39 41 40 34 41 40 42 42 43 39 44
REMARK SMILES IDX 35 45 36 46 37 47 38 48 64 49 65 50 73 51 66 52 72 53 74 54
REMARK SMILES IDX 71 55 67 56 68 57 69 58 70 59 49 60 50 61 58 62 51 63 57 64
REMARK SMILES IDX 59 65 56 66 52 67 53 68 54 69 55 70 6 71 7 72 8 73 9 74
REMARK SMILES IDX 10 75 11 76 12 77 13 78 22 79 14 80 21 81 15 82 16 83 17 84
REMARK SMILES IDX 20 85 18 87 19 88
REMARK H PARENT 79 23 47 34 16 86
REMARK Flexibility Score: inf
ROOT
ATOM      1  C   UNL A   1      31.634  28.571  27.326  1.00  0.00     0.202 C 
ENDROOT
BRANCH   1   2
ATOM      2  C   UNL A   1      31.755  29.373  26.007  1.00  0.00     0.261 C 
BRANCH   2   3
ATOM      3  O   UNL A   1      32.882  30.269  25.939  1.00  0.00    -0.460 OA
BRANCH   3   4
ATOM      4  C   UNL A   1      33.319  31.115  26.910  1.00  0.00     0.338 C 
ATOM      5  O   UNL A   1      32.650  32.100  27.209  1.00  0.00    -0.246 OA
BRANCH   4   6
ATOM      6  C   UNL A   1      34.604  30.872  27.618  1.00  0.00     0.060 A 
ATOM      7  C   UNL A   1      35.008  29.596  27.977  1.00  0.00     0.016 A 
ATOM      8  C   UNL A   1      35.474  31.931  27.892  1.00  0.00     0.016 A 
ATOM      9  C   UNL A   1      36.117  29.355  28.741  1.00  0.00     0.010 A 
ATOM     10  C   UNL A   1      36.689  31.685  28.548  1.00  0.00     0.010 A 
ATOM     11  C   UNL A   1      36.995  30.390  28.992  1.00  0.00    -0.014 A 
BRANCH  11  12
ATOM     12  C   UNL A   1      38.158  30.035  29.818  1.00  0.00     0.031 A 
ATOM     13  C   UNL A   1      39.268  29.281  29.165  1.00  0.00     0.074 A 
ATOM     14  C   UNL A   1      38.280  30.590  31.040  1.00  0.00     0.049 A 
ATOM     15  N   UNL A   1      40.371  28.824  29.685  1.00  0.00    -0.248 NA
ATOM     16  C   UNL A   1      39.117  29.009  27.725  1.00  0.00     0.031 C 
ATOM     17  C   UNL A   1      37.305  31.503  31.656  1.00  0.00     0.029 A 
ATOM     18  N   UNL A   1      39.294  30.535  31.954  1.00  0.00    -0.354 N 
ATOM     19  C   UNL A   1      41.017  28.154  28.653  1.00  0.00     0.074 A 
ATOM     20  C   UNL A   1      40.185  28.271  27.477  1.00  0.00     0.031 C 
ATOM     21  C   UNL A   1      37.800  31.964  32.813  1.00  0.00     0.029 A 
ATOM     22  C   UNL A   1      39.060  31.290  33.081  1.00  0.00     0.049 A 
ATOM     23  H   UNL A   1      40.113  30.006  31.820  1.00  0.00     0.167 HD
ATOM     24  C   UNL A   1      42.194  27.488  28.713  1.00  0.00     0.034 A 
ATOM     25  C   UNL A   1      39.769  31.374  34.223  1.00  0.00     0.034 A 
ATOM     26  C   UNL A   1      42.975  27.422  29.922  1.00  0.00     0.049 A 
ATOM     27  C   UNL A   1      41.017  30.534  34.300  1.00  0.00     0.074 A 
ATOM     28  C   UNL A   1      44.136  26.716  30.170  1.00  0.00     0.029 A 
ATOM     29  N   UNL A   1      42.662  28.102  31.097  1.00  0.00    -0.354 N 
ATOM     30  N   UNL A   1      41.565  29.784  33.368  1.00  0.00    -0.248 NA
ATOM     31  C   UNL A   1      41.730  30.532  35.579  1.00  0.00     0.031 C 
ATOM     32  C   UNL A   1      44.484  26.916  31.511  1.00  0.00     0.029 A 
ATOM     33  C   UNL A   1      43.592  27.815  32.081  1.00  0.00     0.049 A 
ATOM     34  H   UNL A   1      41.889  28.702  31.212  1.00  0.00     0.167 HD
ATOM     35  C   UNL A   1      42.704  29.235  33.943  1.00  0.00     0.074 A 
ATOM     36  C   UNL A   1      42.772  29.764  35.293  1.00  0.00     0.031 C 
ATOM     37  C   UNL A   1      43.610  28.371  33.416  1.00  0.00     0.034 A 
BRANCH  24  38
ATOM     38  C   UNL A   1      42.586  26.696  27.490  1.00  0.00     0.023 A 
ATOM     39  C   UNL A   1      42.403  25.303  27.404  1.00  0.00     0.031 A 
ATOM     40  C   UNL A   1      43.279  27.333  26.446  1.00  0.00     0.131 A 
ATOM     41  C   UNL A   1      42.997  24.585  26.354  1.00  0.00     0.055 A 
ATOM     42  C   UNL A   1      43.787  26.623  25.356  1.00  0.00     0.041 A 
ATOM     43  F   UNL A   1      43.519  28.652  26.490  1.00  0.00    -0.206 F 
ATOM     44  C   UNL A   1      43.665  25.238  25.315  1.00  0.00     0.022 A 
BRANCH  41  45
ATOM     45  S   UNL A   1      43.051  22.772  26.462  1.00  0.00     0.124 S 
ATOM     46  O   UNL A   1      42.267  22.385  25.292  1.00  0.00    -0.237 OA
ATOM     47  O   UNL A   1      44.480  22.493  26.394  1.00  0.00    -0.237 OA
ATOM     48  O   UNL A   1      42.419  22.486  27.749  1.00  0.00    -0.744 OA
ENDBRANCH  41  45
ENDBRANCH  24  38
BRANCH  25  49
ATOM     49  C   UNL A   1      39.286  32.185  35.380  1.00  0.00     0.023 A 
ATOM     50  C   UNL A   1      39.708  33.510  35.572  1.00  0.00     0.031 A 
ATOM     51  C   UNL A   1      38.431  31.627  36.351  1.00  0.00     0.131 A 
ATOM     52  C   UNL A   1      39.312  34.214  36.722  1.00  0.00     0.055 A 
ATOM     53  C   UNL A   1      37.989  32.352  37.460  1.00  0.00     0.041 A 
ATOM     54  F   UNL A   1      37.999  30.360  36.233  1.00  0.00    -0.206 F 
ATOM     55  C   UNL A   1      38.443  33.649  37.659  1.00  0.00     0.022 A 
BRANCH  52  56
ATOM     56  S   UNL A   1      40.033  35.850  37.033  1.00  0.00     0.124 S 
ATOM     57  O   UNL A   1      39.656  36.576  35.826  1.00  0.00    -0.237 OA
ATOM     58  O   UNL A   1      39.356  36.251  38.262  1.00  0.00    -0.237 OA
ATOM     59  O   UNL A   1      41.461  35.571  37.173  1.00  0.00    -0.744 OA
ENDBRANCH  52  56
ENDBRANCH  25  49
BRANCH  37  60
ATOM     60  C   UNL A   1      44.773  28.009  34.301  1.00  0.00     0.023 A 
ATOM     61  C   UNL A   1      44.752  26.864  35.115  1.00  0.00     0.031 A 
ATOM     62  C   UNL A   1      45.906  28.838  34.342  1.00  0.00     0.131 A 
ATOM     63  C   UNL A   1      45.817  26.618  35.990  1.00  0.00     0.055 A 
ATOM     64  C   UNL A   1      46.995  28.547  35.161  1.00  0.00     0.041 A 
ATOM     65  F   UNL A   1      45.972  29.946  33.585  1.00  0.00    -0.206 F 
ATOM     66  C   UNL A   1      46.947  27.440  36.004  1.00  0.00     0.022 A 
BRANCH  63  67
ATOM     67  S   UNL A   1      45.651  25.274  37.195  1.00  0.00     0.124 S 
ATOM     68  O   UNL A   1      46.129  24.125  36.432  1.00  0.00    -0.237 OA
ATOM     69  O   UNL A   1      46.516  25.722  38.282  1.00  0.00    -0.237 OA
ATOM     70  O   UNL A   1      44.223  25.265  37.502  1.00  0.00    -0.744 OA
ENDBRANCH  63  67
ENDBRANCH  37  60
ENDBRANCH  11  12
ENDBRANCH   4   6
ENDBRANCH   3   4
ENDBRANCH   2   3
ENDBRANCH   1   2
BRANCH   1  71
ATOM     71  O   UNL A   1      31.444  27.159  27.274  1.00  0.00    -0.374 OA
BRANCH  71  72
ATOM     72  C   UNL A   1      31.500  26.535  25.995  1.00  0.00     0.202 C 
BRANCH  72  73
ATOM     73  C   UNL A   1      30.218  25.772  25.697  1.00  0.00     0.261 C 
BRANCH  73  74
ATOM     74  O   UNL A   1      30.569  24.389  25.503  1.00  0.00    -0.463 OA
BRANCH  74  75
ATOM     75  C   UNL A   1      30.415  23.598  26.595  1.00  0.00     0.309 C 
ATOM     76  O   UNL A   1      29.493  23.695  27.399  1.00  0.00    -0.252 OA
BRANCH  75  77
ATOM     77  C   UNL A   1      31.546  22.579  26.729  1.00  0.00     0.099 C 
ATOM     78  C   UNL A   1      32.016  22.202  25.318  1.00  0.00     0.021 C 
ATOM     79  C   UNL A   1      32.729  23.024  27.607  1.00  0.00     0.021 C 
ATOM     80  C   UNL A   1      33.141  21.177  25.331  1.00  0.00     0.066 C 
ATOM     81  C   UNL A   1      33.891  22.038  27.600  1.00  0.00     0.066 C 
ATOM     82  C   UNL A   1      34.350  21.536  26.213  1.00  0.00     0.184 C 
BRANCH  82  83
ATOM     83  N   UNL A   1      35.381  22.311  25.510  1.00  0.00    -0.333 N 
ATOM     84  C   UNL A   1      36.005  21.647  24.365  1.00  0.00     0.262 C 
ATOM     85  C   UNL A   1      36.407  23.032  26.253  1.00  0.00     0.262 C 
ATOM     86  H   UNL A   1      34.738  23.040  25.201  1.00  0.00     0.348 HD
ATOM     87  C   UNL A   1      37.475  21.559  24.720  1.00  0.00     0.067 C 
ATOM     88  C   UNL A   1      37.700  22.858  25.463  1.00  0.00     0.067 C 
ENDBRANCH  82  83
ENDBRANCH  75  77
ENDBRANCH  74  75
ENDBRANCH  73  74
ENDBRANCH  72  73
ENDBRANCH  71  72
ENDBRANCH   1  71
TORSDOF 18
ENDMDL
