MODEL 1
REMARK VINA RESULT:     -10.9      0.000      0.000
REMARK SMILES C[C@@H](C(=O)OCCOCCOC(=O)c1ccc(-c2c3nc(c(-c4cc(S(=O)(=O)[O-])ccc4F)c4ccc([nH]4)c(-c4cc(S(=O)(=O)[O-])ccc4F)c4nc(c(-c5cc(S(=O)(=O)[O-])ccc5F)c5ccc2[nH]5)C=C4)C=C3)cc1)[C@H](C)n1ncc2ccc([N+](=O)[O-])cc21
REMARK SMILES IDX 8 1 7 2 6 3 5 4 3 5 4 6 2 7 1 8 77 9 78 10 79 11 80 12 90 13
REMARK SMILES IDX 81 14 82 15 89 16 83 17 85 18 84 19 86 20 87 21 88 22 9 23
REMARK SMILES IDX 10 24 11 25 12 26 13 27 14 28 15 29 76 30 16 31 75 32 17 33
REMARK SMILES IDX 18 34 19 35 69 36 20 37 74 38 68 39 70 40 21 41 73 42 67 43
REMARK SMILES IDX 66 44 22 46 54 47 34 48 53 49 35 50 38 51 52 52 71 53 36 54
REMARK SMILES IDX 37 55 51 57 72 58 39 59 23 60 24 61 32 62 25 63 31 64 33 65
REMARK SMILES IDX 30 66 26 67 27 68 28 69 29 70 55 71 56 72 64 73 57 74 63 75
REMARK SMILES IDX 65 76 62 77 58 78 59 79 60 80 61 81 40 82 41 83 49 84 42 85
REMARK SMILES IDX 48 86 50 87 47 88 43 89 44 90 45 91 46 92
REMARK H PARENT 70 45 38 56
REMARK Flexibility Score: inf
ROOT
ATOM      1  O   UNL A   1      35.641  21.250  25.873  1.00  0.00    -0.374 OA
ENDROOT
BRANCH   1   2
ATOM      2  C   UNL A   1      34.999  22.368  25.254  1.00  0.00     0.202 C 
BRANCH   2   3
ATOM      3  C   UNL A   1      35.061  22.427  23.723  1.00  0.00     0.261 C 
BRANCH   3   4
ATOM      4  O   UNL A   1      34.681  23.737  23.263  1.00  0.00    -0.463 OA
BRANCH   4   5
ATOM      5  C   UNL A   1      33.474  23.857  22.656  1.00  0.00     0.310 C 
ATOM      6  O   UNL A   1      32.964  23.009  21.937  1.00  0.00    -0.252 OA
BRANCH   5   7
ATOM      7  C   UNL A   1      32.809  25.194  22.956  1.00  0.00     0.120 C 
ATOM      8  C   UNL A   1      33.709  26.430  22.779  1.00  0.00     0.022 C 
BRANCH   7   9
ATOM      9  C   UNL A   1      32.063  25.109  24.324  1.00  0.00     0.119 C 
ATOM     10  C   UNL A   1      30.682  24.455  24.155  1.00  0.00     0.034 C 
BRANCH   9  11
ATOM     11  N   UNL A   1      31.918  26.362  25.079  1.00  0.00    -0.261 N 
ATOM     12  N   UNL A   1      32.615  26.499  26.231  1.00  0.00    -0.180 NA
ATOM     13  C   UNL A   1      31.333  27.551  24.664  1.00  0.00     0.075 A 
ATOM     14  C   UNL A   1      32.544  27.798  26.511  1.00  0.00     0.143 A 
ATOM     15  C   UNL A   1      31.775  28.514  25.576  1.00  0.00     0.020 A 
ATOM     16  C   UNL A   1      30.482  27.892  23.594  1.00  0.00     0.114 A 
ATOM     17  C   UNL A   1      31.408  29.863  25.424  1.00  0.00     0.019 A 
ATOM     18  C   UNL A   1      30.117  29.249  23.468  1.00  0.00     0.271 A 
ATOM     19  C   UNL A   1      30.580  30.226  24.358  1.00  0.00     0.086 A 
BRANCH  18  20
ATOM     20  N   UNL A   1      29.236  29.667  22.368  1.00  0.00     0.062 N 
ATOM     21  O   UNL A   1      28.295  28.915  22.067  1.00  0.00    -0.258 OA
ATOM     22  O   UNL A   1      29.469  30.751  21.817  1.00  0.00    -0.258 OA
ENDBRANCH  18  20
ENDBRANCH   9  11
ENDBRANCH   7   9
ENDBRANCH   5   7
ENDBRANCH   4   5
ENDBRANCH   3   4
ENDBRANCH   2   3
ENDBRANCH   1   2
BRANCH   1  23
ATOM     23  C   UNL A   1      36.271  20.307  25.011  1.00  0.00     0.202 C 
BRANCH  23  24
ATOM     24  C   UNL A   1      37.801  20.242  24.980  1.00  0.00     0.261 C 
BRANCH  24  25
ATOM     25  O   UNL A   1      38.407  21.459  25.408  1.00  0.00    -0.460 OA
BRANCH  25  26
ATOM     26  C   UNL A   1      39.516  21.254  26.157  1.00  0.00     0.338 C 
ATOM     27  O   UNL A   1      40.216  20.253  26.187  1.00  0.00    -0.246 OA
BRANCH  26  28
ATOM     28  C   UNL A   1      39.884  22.514  26.812  1.00  0.00     0.060 A 
ATOM     29  C   UNL A   1      39.224  23.668  26.377  1.00  0.00     0.016 A 
ATOM     30  C   UNL A   1      40.867  22.572  27.803  1.00  0.00     0.016 A 
ATOM     31  C   UNL A   1      39.593  24.903  26.886  1.00  0.00     0.010 A 
ATOM     32  C   UNL A   1      41.241  23.815  28.311  1.00  0.00     0.010 A 
ATOM     33  C   UNL A   1      40.635  24.984  27.819  1.00  0.00    -0.014 A 
BRANCH  33  34
ATOM     34  C   UNL A   1      41.202  26.311  28.135  1.00  0.00     0.031 A 
ATOM     35  C   UNL A   1      42.606  26.612  27.693  1.00  0.00     0.074 A 
ATOM     36  C   UNL A   1      40.449  27.242  28.745  1.00  0.00     0.049 A 
ATOM     37  N   UNL A   1      43.318  27.693  27.871  1.00  0.00    -0.248 NA
ATOM     38  C   UNL A   1      43.301  25.546  26.954  1.00  0.00     0.031 C 
ATOM     39  C   UNL A   1      39.058  27.061  29.158  1.00  0.00     0.029 A 
ATOM     40  N   UNL A   1      40.748  28.525  29.119  1.00  0.00    -0.354 N 
ATOM     41  C   UNL A   1      44.546  27.437  27.269  1.00  0.00     0.074 A 
ATOM     42  C   UNL A   1      44.495  26.082  26.763  1.00  0.00     0.031 C 
ATOM     43  C   UNL A   1      38.624  28.195  29.732  1.00  0.00     0.029 A 
ATOM     44  C   UNL A   1      39.718  29.162  29.768  1.00  0.00     0.049 A 
ATOM     45  H   UNL A   1      41.618  28.950  28.939  1.00  0.00     0.167 HD
ATOM     46  C   UNL A   1      45.610  28.266  27.143  1.00  0.00     0.034 A 
ATOM     47  C   UNL A   1      39.679  30.377  30.349  1.00  0.00     0.034 A 
ATOM     48  C   UNL A   1      45.634  29.608  27.670  1.00  0.00     0.049 A 
ATOM     49  C   UNL A   1      40.911  31.246  30.282  1.00  0.00     0.074 A 
ATOM     50  C   UNL A   1      46.652  30.542  27.604  1.00  0.00     0.029 A 
ATOM     51  N   UNL A   1      44.593  30.203  28.374  1.00  0.00    -0.354 N 
ATOM     52  N   UNL A   1      42.070  30.997  29.711  1.00  0.00    -0.248 NA
ATOM     53  C   UNL A   1      40.828  32.563  30.924  1.00  0.00     0.031 C 
ATOM     54  C   UNL A   1      46.260  31.666  28.338  1.00  0.00     0.029 A 
ATOM     55  C   UNL A   1      44.960  31.476  28.781  1.00  0.00     0.049 A 
ATOM     56  H   UNL A   1      43.722  29.782  28.557  1.00  0.00     0.167 HD
ATOM     57  C   UNL A   1      42.840  32.141  29.900  1.00  0.00     0.074 A 
ATOM     58  C   UNL A   1      42.008  33.084  30.622  1.00  0.00     0.031 C 
ATOM     59  C   UNL A   1      44.117  32.396  29.510  1.00  0.00     0.034 A 
BRANCH  46  60
ATOM     60  C   UNL A   1      46.843  27.718  26.464  1.00  0.00     0.023 A 
ATOM     61  C   UNL A   1      47.135  27.993  25.116  1.00  0.00     0.031 A 
ATOM     62  C   UNL A   1      47.725  26.878  27.168  1.00  0.00     0.131 A 
ATOM     63  C   UNL A   1      48.235  27.380  24.498  1.00  0.00     0.055 A 
ATOM     64  C   UNL A   1      48.866  26.340  26.571  1.00  0.00     0.041 A 
ATOM     65  F   UNL A   1      47.484  26.554  28.448  1.00  0.00    -0.206 F 
ATOM     66  C   UNL A   1      49.118  26.578  25.223  1.00  0.00     0.022 A 
BRANCH  63  67
ATOM     67  S   UNL A   1      48.412  27.524  22.698  1.00  0.00     0.124 S 
ATOM     68  O   UNL A   1      47.213  28.280  22.344  1.00  0.00    -0.237 OA
ATOM     69  O   UNL A   1      49.679  28.233  22.561  1.00  0.00    -0.237 OA
ATOM     70  O   UNL A   1      48.421  26.136  22.242  1.00  0.00    -0.744 OA
ENDBRANCH  63  67
ENDBRANCH  46  60
BRANCH  47  71
ATOM     71  C   UNL A   1      38.459  30.826  31.078  1.00  0.00     0.023 A 
ATOM     72  C   UNL A   1      37.396  31.449  30.406  1.00  0.00     0.031 A 
ATOM     73  C   UNL A   1      38.359  30.681  32.475  1.00  0.00     0.131 A 
ATOM     74  C   UNL A   1      36.304  31.946  31.133  1.00  0.00     0.055 A 
ATOM     75  C   UNL A   1      37.243  31.122  33.186  1.00  0.00     0.041 A 
ATOM     76  F   UNL A   1      39.347  30.094  33.169  1.00  0.00    -0.206 F 
ATOM     77  C   UNL A   1      36.212  31.773  32.516  1.00  0.00     0.022 A 
BRANCH  74  78
ATOM     78  S   UNL A   1      35.047  32.916  30.256  1.00  0.00     0.124 S 
ATOM     79  O   UNL A   1      34.126  33.252  31.336  1.00  0.00    -0.237 OA
ATOM     80  O   UNL A   1      35.837  34.018  29.718  1.00  0.00    -0.237 OA
ATOM     81  O   UNL A   1      34.528  31.979  29.262  1.00  0.00    -0.744 OA
ENDBRANCH  74  78
ENDBRANCH  47  71
BRANCH  59  82
ATOM     82  C   UNL A   1      44.667  33.769  29.816  1.00  0.00     0.023 A 
ATOM     83  C   UNL A   1      44.585  34.825  28.893  1.00  0.00     0.031 A 
ATOM     84  C   UNL A   1      45.291  34.018  31.052  1.00  0.00     0.131 A 
ATOM     85  C   UNL A   1      45.171  36.064  29.195  1.00  0.00     0.055 A 
ATOM     86  C   UNL A   1      45.808  35.274  31.375  1.00  0.00     0.041 A 
ATOM     87  F   UNL A   1      45.402  33.046  31.971  1.00  0.00    -0.206 F 
ATOM     88  C   UNL A   1      45.763  36.301  30.437  1.00  0.00     0.022 A 
BRANCH  85  89
ATOM     89  S   UNL A   1      45.247  37.329  27.897  1.00  0.00     0.124 S 
ATOM     90  O   UNL A   1      46.327  38.186  28.372  1.00  0.00    -0.237 OA
ATOM     91  O   UNL A   1      45.539  36.537  26.705  1.00  0.00    -0.237 OA
ATOM     92  O   UNL A   1      43.916  37.931  27.929  1.00  0.00    -0.744 OA
ENDBRANCH  85  89
ENDBRANCH  59  82
ENDBRANCH  33  34
ENDBRANCH  26  28
ENDBRANCH  25  26
ENDBRANCH  24  25
ENDBRANCH  23  24
ENDBRANCH   1  23
TORSDOF 20
ENDMDL
MODEL 2
REMARK VINA RESULT:     -10.9      4.820     10.427
REMARK SMILES C[C@@H](C(=O)OCCOCCOC(=O)c1ccc(-c2c3nc(c(-c4cc(S(=O)(=O)[O-])ccc4F)c4ccc([nH]4)c(-c4cc(S(=O)(=O)[O-])ccc4F)c4nc(c(-c5cc(S(=O)(=O)[O-])ccc5F)c5ccc2[nH]5)C=C4)C=C3)cc1)[C@H](C)n1ncc2ccc([N+](=O)[O-])cc21
REMARK SMILES IDX 8 1 7 2 6 3 5 4 3 5 4 6 2 7 1 8 77 9 78 10 79 11 80 12 90 13
REMARK SMILES IDX 81 14 82 15 89 16 83 17 85 18 84 19 86 20 87 21 88 22 9 23
REMARK SMILES IDX 10 24 11 25 12 26 13 27 14 28 15 29 76 30 16 31 75 32 17 33
REMARK SMILES IDX 18 34 19 35 69 36 20 37 74 38 68 39 70 40 21 41 73 42 67 43
REMARK SMILES IDX 66 44 22 46 54 47 34 48 53 49 35 50 38 51 52 52 71 53 36 54
REMARK SMILES IDX 37 55 51 57 72 58 39 59 23 60 24 61 32 62 25 63 31 64 33 65
REMARK SMILES IDX 30 66 26 67 27 68 28 69 29 70 55 71 56 72 64 73 57 74 63 75
REMARK SMILES IDX 65 76 62 77 58 78 59 79 60 80 61 81 40 82 41 83 49 84 42 85
REMARK SMILES IDX 48 86 50 87 47 88 43 89 44 90 45 91 46 92
REMARK H PARENT 70 45 38 56
REMARK Flexibility Score: inf
ROOT
ATOM      1  O   UNL A   1      32.484  30.252  26.547  1.00  0.00    -0.374 OA
ENDROOT
BRANCH   1   2
ATOM      2  C   UNL A   1      32.843  29.469  25.406  1.00  0.00     0.202 C 
BRANCH   2   3
ATOM      3  C   UNL A   1      31.705  29.110  24.442  1.00  0.00     0.261 C 
BRANCH   3   4
ATOM      4  O   UNL A   1      31.752  27.708  24.121  1.00  0.00    -0.463 OA
BRANCH   4   5
ATOM      5  C   UNL A   1      32.640  27.317  23.173  1.00  0.00     0.310 C 
ATOM      6  O   UNL A   1      32.987  27.995  22.216  1.00  0.00    -0.252 OA
BRANCH   5   7
ATOM      7  C   UNL A   1      33.161  25.907  23.419  1.00  0.00     0.120 C 
ATOM      8  C   UNL A   1      32.745  24.861  22.370  1.00  0.00     0.022 C 
BRANCH   7   9
ATOM      9  C   UNL A   1      32.890  25.503  24.901  1.00  0.00     0.119 C 
ATOM     10  C   UNL A   1      34.040  25.960  25.813  1.00  0.00     0.034 C 
BRANCH   9  11
ATOM     11  N   UNL A   1      32.599  24.085  25.159  1.00  0.00    -0.261 N 
ATOM     12  N   UNL A   1      31.303  23.704  25.253  1.00  0.00    -0.180 NA
ATOM     13  C   UNL A   1      33.470  23.005  25.097  1.00  0.00     0.075 A 
ATOM     14  C   UNL A   1      31.339  22.377  25.166  1.00  0.00     0.143 A 
ATOM     15  C   UNL A   1      32.649  21.875  25.055  1.00  0.00     0.020 A 
ATOM     16  C   UNL A   1      34.874  22.893  25.060  1.00  0.00     0.114 A 
ATOM     17  C   UNL A   1      33.209  20.590  24.938  1.00  0.00     0.019 A 
ATOM     18  C   UNL A   1      35.413  21.593  24.953  1.00  0.00     0.271 A 
ATOM     19  C   UNL A   1      34.598  20.456  24.880  1.00  0.00     0.086 A 
BRANCH  18  20
ATOM     20  N   UNL A   1      36.872  21.412  24.904  1.00  0.00     0.062 N 
ATOM     21  O   UNL A   1      37.305  20.251  24.823  1.00  0.00    -0.258 OA
ATOM     22  O   UNL A   1      37.584  22.425  24.927  1.00  0.00    -0.258 OA
ENDBRANCH  18  20
ENDBRANCH   9  11
ENDBRANCH   7   9
ENDBRANCH   5   7
ENDBRANCH   4   5
ENDBRANCH   3   4
ENDBRANCH   2   3
ENDBRANCH   1   2
BRANCH   1  23
ATOM     23  C   UNL A   1      31.400  31.163  26.393  1.00  0.00     0.202 C 
BRANCH  23  24
ATOM     24  C   UNL A   1      31.593  32.620  26.823  1.00  0.00     0.261 C 
BRANCH  24  25
ATOM     25  O   UNL A   1      32.946  33.050  26.700  1.00  0.00    -0.460 OA
BRANCH  25  26
ATOM     26  C   UNL A   1      33.427  33.594  27.842  1.00  0.00     0.338 C 
ATOM     27  O   UNL A   1      32.865  34.392  28.578  1.00  0.00    -0.246 OA
BRANCH  26  28
ATOM     28  C   UNL A   1      34.689  32.930  28.188  1.00  0.00     0.060 A 
ATOM     29  C   UNL A   1      34.622  31.564  28.483  1.00  0.00     0.016 A 
ATOM     30  C   UNL A   1      35.898  33.627  28.251  1.00  0.00     0.016 A 
ATOM     31  C   UNL A   1      35.760  30.898  28.912  1.00  0.00     0.010 A 
ATOM     32  C   UNL A   1      37.040  32.958  28.687  1.00  0.00     0.010 A 
ATOM     33  C   UNL A   1      36.961  31.605  29.060  1.00  0.00    -0.014 A 
BRANCH  33  34
ATOM     34  C   UNL A   1      38.079  30.959  29.779  1.00  0.00     0.031 A 
ATOM     35  C   UNL A   1      38.313  31.330  31.215  1.00  0.00     0.074 A 
ATOM     36  C   UNL A   1      38.820  30.017  29.172  1.00  0.00     0.049 A 
ATOM     37  N   UNL A   1      39.237  30.912  32.039  1.00  0.00    -0.248 NA
ATOM     38  C   UNL A   1      37.380  32.306  31.799  1.00  0.00     0.031 C 
ATOM     39  C   UNL A   1      38.628  29.550  27.799  1.00  0.00     0.029 A 
ATOM     40  N   UNL A   1      39.880  29.282  29.634  1.00  0.00    -0.354 N 
ATOM     41  C   UNL A   1      39.000  31.577  33.238  1.00  0.00     0.074 A 
ATOM     42  C   UNL A   1      37.874  32.459  33.017  1.00  0.00     0.031 C 
ATOM     43  C   UNL A   1      39.544  28.606  27.529  1.00  0.00     0.029 A 
ATOM     44  C   UNL A   1      40.413  28.437  28.691  1.00  0.00     0.049 A 
ATOM     45  H   UNL A   1      40.224  29.353  30.553  1.00  0.00     0.167 HD
ATOM     46  C   UNL A   1      39.658  31.450  34.416  1.00  0.00     0.034 A 
ATOM     47  C   UNL A   1      41.499  27.640  28.757  1.00  0.00     0.034 A 
ATOM     48  C   UNL A   1      40.786  30.570  34.600  1.00  0.00     0.049 A 
ATOM     49  C   UNL A   1      42.275  27.589  30.050  1.00  0.00     0.074 A 
ATOM     50  C   UNL A   1      41.532  30.354  35.744  1.00  0.00     0.029 A 
ATOM     51  N   UNL A   1      41.339  29.768  33.608  1.00  0.00    -0.354 N 
ATOM     52  N   UNL A   1      42.046  28.221  31.179  1.00  0.00    -0.248 NA
ATOM     53  C   UNL A   1      43.449  26.708  30.082  1.00  0.00     0.031 C 
ATOM     54  C   UNL A   1      42.584  29.490  35.422  1.00  0.00     0.029 A 
ATOM     55  C   UNL A   1      42.439  29.087  34.102  1.00  0.00     0.049 A 
ATOM     56  H   UNL A   1      40.998  29.695  32.686  1.00  0.00     0.167 HD
ATOM     57  C   UNL A   1      43.029  27.789  32.065  1.00  0.00     0.074 A 
ATOM     58  C   UNL A   1      43.841  26.830  31.341  1.00  0.00     0.031 C 
ATOM     59  C   UNL A   1      43.242  28.143  33.359  1.00  0.00     0.034 A 
BRANCH  46  60
ATOM     60  C   UNL A   1      39.208  32.323  35.562  1.00  0.00     0.023 A 
ATOM     61  C   UNL A   1      39.616  33.664  35.680  1.00  0.00     0.031 A 
ATOM     62  C   UNL A   1      38.383  31.797  36.573  1.00  0.00     0.131 A 
ATOM     63  C   UNL A   1      39.258  34.408  36.816  1.00  0.00     0.055 A 
ATOM     64  C   UNL A   1      37.960  32.568  37.656  1.00  0.00     0.041 A 
ATOM     65  F   UNL A   1      37.986  30.515  36.531  1.00  0.00    -0.206 F 
ATOM     66  C   UNL A   1      38.409  33.877  37.790  1.00  0.00     0.022 A 
BRANCH  63  67
ATOM     67  S   UNL A   1      40.036  36.025  37.076  1.00  0.00     0.124 S 
ATOM     68  O   UNL A   1      41.411  35.643  37.389  1.00  0.00    -0.237 OA
ATOM     69  O   UNL A   1      39.833  36.684  35.791  1.00  0.00    -0.237 OA
ATOM     70  O   UNL A   1      39.285  36.592  38.194  1.00  0.00    -0.744 OA
ENDBRANCH  63  67
ENDBRANCH  46  60
BRANCH  47  71
ATOM     71  C   UNL A   1      41.940  26.867  27.561  1.00  0.00     0.023 A 
ATOM     72  C   UNL A   1      41.690  25.491  27.452  1.00  0.00     0.031 A 
ATOM     73  C   UNL A   1      42.665  27.489  26.528  1.00  0.00     0.131 A 
ATOM     74  C   UNL A   1      42.202  24.772  26.360  1.00  0.00     0.055 A 
ATOM     75  C   UNL A   1      43.119  26.782  25.414  1.00  0.00     0.041 A 
ATOM     76  F   UNL A   1      42.934  28.803  26.582  1.00  0.00    -0.206 F 
ATOM     77  C   UNL A   1      42.901  25.411  25.332  1.00  0.00     0.022 A 
BRANCH  74  78
ATOM     78  S   UNL A   1      42.028  22.967  26.351  1.00  0.00     0.124 S 
ATOM     79  O   UNL A   1      42.818  22.588  27.516  1.00  0.00    -0.237 OA
ATOM     80  O   UNL A   1      40.583  22.803  26.473  1.00  0.00    -0.237 OA
ATOM     81  O   UNL A   1      42.592  22.577  25.061  1.00  0.00    -0.744 OA
ENDBRANCH  74  78
ENDBRANCH  47  71
BRANCH  59  82
ATOM     82  C   UNL A   1      44.371  27.450  34.084  1.00  0.00     0.023 A 
ATOM     83  C   UNL A   1      44.163  26.284  34.841  1.00  0.00     0.031 A 
ATOM     84  C   UNL A   1      45.675  27.973  34.021  1.00  0.00     0.131 A 
ATOM     85  C   UNL A   1      45.229  25.714  35.553  1.00  0.00     0.055 A 
ATOM     86  C   UNL A   1      46.747  27.360  34.672  1.00  0.00     0.041 A 
ATOM     87  F   UNL A   1      45.933  29.086  33.317  1.00  0.00    -0.206 F 
ATOM     88  C   UNL A   1      46.523  26.232  35.457  1.00  0.00     0.022 A 
BRANCH  85  89
ATOM     89  S   UNL A   1      44.880  24.350  36.696  1.00  0.00     0.124 S 
ATOM     90  O   UNL A   1      46.196  24.092  37.271  1.00  0.00    -0.237 OA
ATOM     91  O   UNL A   1      43.895  24.941  37.597  1.00  0.00    -0.237 OA
ATOM     92  O   UNL A   1      44.366  23.296  35.823  1.00  0.00    -0.744 OA
ENDBRANCH  85  89
ENDBRANCH  59  82
ENDBRANCH  33  34
ENDBRANCH  26  28
ENDBRANCH  25  26
ENDBRANCH  24  25
ENDBRANCH  23  24
ENDBRANCH   1  23
TORSDOF 20
ENDMDL
MODEL 3
REMARK VINA RESULT:     -10.9      4.789     10.037
REMARK SMILES C[C@@H](C(=O)OCCOCCOC(=O)c1ccc(-c2c3nc(c(-c4cc(S(=O)(=O)[O-])ccc4F)c4ccc([nH]4)c(-c4cc(S(=O)(=O)[O-])ccc4F)c4nc(c(-c5cc(S(=O)(=O)[O-])ccc5F)c5ccc2[nH]5)C=C4)C=C3)cc1)[C@H](C)n1ncc2ccc([N+](=O)[O-])cc21
REMARK SMILES IDX 8 1 7 2 6 3 5 4 3 5 4 6 2 7 1 8 77 9 78 10 79 11 80 12 90 13
REMARK SMILES IDX 81 14 82 15 89 16 83 17 85 18 84 19 86 20 87 21 88 22 9 23
REMARK SMILES IDX 10 24 11 25 12 26 13 27 14 28 15 29 76 30 16 31 75 32 17 33
REMARK SMILES IDX 18 34 19 35 69 36 20 37 74 38 68 39 70 40 21 41 73 42 67 43
REMARK SMILES IDX 66 44 22 46 54 47 34 48 53 49 35 50 38 51 52 52 71 53 36 54
REMARK SMILES IDX 37 55 51 57 72 58 39 59 23 60 24 61 32 62 25 63 31 64 33 65
REMARK SMILES IDX 30 66 26 67 27 68 28 69 29 70 55 71 56 72 64 73 57 74 63 75
REMARK SMILES IDX 65 76 62 77 58 78 59 79 60 80 61 81 40 82 41 83 49 84 42 85
REMARK SMILES IDX 48 86 50 87 47 88 43 89 44 90 45 91 46 92
REMARK H PARENT 70 45 38 56
REMARK Flexibility Score: inf
ROOT
ATOM      1  O   UNL A   1      32.564  30.256  26.079  1.00  0.00    -0.374 OA
ENDROOT
BRANCH   1   2
ATOM      2  C   UNL A   1      32.992  29.180  26.918  1.00  0.00     0.202 C 
BRANCH   2   3
ATOM      3  C   UNL A   1      31.888  28.287  27.497  1.00  0.00     0.261 C 
BRANCH   3   4
ATOM      4  O   UNL A   1      31.323  27.465  26.461  1.00  0.00    -0.463 OA
BRANCH   4   5
ATOM      5  C   UNL A   1      31.821  26.211  26.322  1.00  0.00     0.310 C 
ATOM      6  O   UNL A   1      32.965  25.875  26.597  1.00  0.00    -0.252 OA
BRANCH   5   7
ATOM      7  C   UNL A   1      30.790  25.241  25.759  1.00  0.00     0.120 C 
ATOM      8  C   UNL A   1      30.791  23.840  26.395  1.00  0.00     0.022 C 
BRANCH   7   9
ATOM      9  C   UNL A   1      30.851  25.262  24.201  1.00  0.00     0.119 C 
ATOM     10  C   UNL A   1      31.739  24.124  23.672  1.00  0.00     0.034 C 
BRANCH   9  11
ATOM     11  N   UNL A   1      31.255  26.527  23.570  1.00  0.00    -0.261 N 
ATOM     12  N   UNL A   1      32.498  26.610  23.041  1.00  0.00    -0.180 NA
ATOM     13  C   UNL A   1      30.454  27.608  23.225  1.00  0.00     0.075 A 
ATOM     14  C   UNL A   1      32.466  27.706  22.286  1.00  0.00     0.143 A 
ATOM     15  C   UNL A   1      31.227  28.368  22.342  1.00  0.00     0.020 A 
ATOM     16  C   UNL A   1      29.145  27.995  23.573  1.00  0.00     0.114 A 
ATOM     17  C   UNL A   1      30.698  29.529  21.749  1.00  0.00     0.019 A 
ATOM     18  C   UNL A   1      28.640  29.169  22.974  1.00  0.00     0.271 A 
ATOM     19  C   UNL A   1      29.395  29.921  22.065  1.00  0.00     0.086 A 
BRANCH  18  20
ATOM     20  N   UNL A   1      27.277  29.620  23.294  1.00  0.00     0.062 N 
ATOM     21  O   UNL A   1      26.371  28.773  23.278  1.00  0.00    -0.258 OA
ATOM     22  O   UNL A   1      27.114  30.815  23.579  1.00  0.00    -0.258 OA
ENDBRANCH  18  20
ENDBRANCH   9  11
ENDBRANCH   7   9
ENDBRANCH   5   7
ENDBRANCH   4   5
ENDBRANCH   3   4
ENDBRANCH   2   3
ENDBRANCH   1   2
BRANCH   1  23
ATOM     23  C   UNL A   1      31.590  31.147  26.615  1.00  0.00     0.202 C 
BRANCH  23  24
ATOM     24  C   UNL A   1      31.938  32.634  26.737  1.00  0.00     0.261 C 
BRANCH  24  25
ATOM     25  O   UNL A   1      32.485  32.964  28.011  1.00  0.00    -0.460 OA
BRANCH  25  26
ATOM     26  C   UNL A   1      33.549  33.796  27.923  1.00  0.00     0.338 C 
ATOM     27  O   UNL A   1      33.531  35.006  27.749  1.00  0.00    -0.246 OA
BRANCH  26  28
ATOM     28  C   UNL A   1      34.765  33.049  28.263  1.00  0.00     0.060 A 
ATOM     29  C   UNL A   1      34.589  31.771  28.803  1.00  0.00     0.016 A 
ATOM     30  C   UNL A   1      36.039  33.592  28.086  1.00  0.00     0.016 A 
ATOM     31  C   UNL A   1      35.692  31.051  29.236  1.00  0.00     0.010 A 
ATOM     32  C   UNL A   1      37.147  32.870  28.526  1.00  0.00     0.010 A 
ATOM     33  C   UNL A   1      36.969  31.619  29.141  1.00  0.00    -0.014 A 
BRANCH  33  34
ATOM     34  C   UNL A   1      38.088  30.970  29.857  1.00  0.00     0.031 A 
ATOM     35  C   UNL A   1      38.331  31.342  31.291  1.00  0.00     0.074 A 
ATOM     36  C   UNL A   1      38.823  30.023  29.248  1.00  0.00     0.049 A 
ATOM     37  N   UNL A   1      39.256  30.923  32.112  1.00  0.00    -0.248 NA
ATOM     38  C   UNL A   1      37.405  32.324  31.877  1.00  0.00     0.031 C 
ATOM     39  C   UNL A   1      38.622  29.554  27.877  1.00  0.00     0.029 A 
ATOM     40  N   UNL A   1      39.881  29.285  29.707  1.00  0.00    -0.354 N 
ATOM     41  C   UNL A   1      39.028  31.591  33.310  1.00  0.00     0.074 A 
ATOM     42  C   UNL A   1      37.905  32.477  33.093  1.00  0.00     0.031 C 
ATOM     43  C   UNL A   1      39.533  28.606  27.605  1.00  0.00     0.029 A 
ATOM     44  C   UNL A   1      40.406  28.435  28.763  1.00  0.00     0.049 A 
ATOM     45  H   UNL A   1      40.230  29.356  30.624  1.00  0.00     0.167 HD
ATOM     46  C   UNL A   1      39.691  31.463  34.485  1.00  0.00     0.034 A 
ATOM     47  C   UNL A   1      41.489  27.634  28.826  1.00  0.00     0.034 A 
ATOM     48  C   UNL A   1      40.816  30.579  34.665  1.00  0.00     0.049 A 
ATOM     49  C   UNL A   1      42.271  27.582  30.115  1.00  0.00     0.074 A 
ATOM     50  C   UNL A   1      41.567  30.362  35.806  1.00  0.00     0.029 A 
ATOM     51  N   UNL A   1      41.361  29.773  33.672  1.00  0.00    -0.354 N 
ATOM     52  N   UNL A   1      42.050  28.218  31.244  1.00  0.00    -0.248 NA
ATOM     53  C   UNL A   1      43.441  26.697  30.144  1.00  0.00     0.031 C 
ATOM     54  C   UNL A   1      42.613  29.493  35.482  1.00  0.00     0.029 A 
ATOM     55  C   UNL A   1      42.460  29.089  34.164  1.00  0.00     0.049 A 
ATOM     56  H   UNL A   1      41.015  29.700  32.753  1.00  0.00     0.167 HD
ATOM     57  C   UNL A   1      43.036  27.783  32.126  1.00  0.00     0.074 A 
ATOM     58  C   UNL A   1      43.840  26.820  31.401  1.00  0.00     0.031 C 
ATOM     59  C   UNL A   1      43.256  28.140  33.419  1.00  0.00     0.034 A 
BRANCH  46  60
ATOM     60  C   UNL A   1      39.250  32.341  35.631  1.00  0.00     0.023 A 
ATOM     61  C   UNL A   1      39.646  33.687  35.733  1.00  0.00     0.031 A 
ATOM     62  C   UNL A   1      38.447  31.814  36.659  1.00  0.00     0.131 A 
ATOM     63  C   UNL A   1      39.298  34.436  36.868  1.00  0.00     0.055 A 
ATOM     64  C   UNL A   1      38.032  32.590  37.743  1.00  0.00     0.041 A 
ATOM     65  F   UNL A   1      38.062  30.528  36.633  1.00  0.00    -0.206 F 
ATOM     66  C   UNL A   1      38.470  33.905  37.860  1.00  0.00     0.022 A 
BRANCH  63  67
ATOM     67  S   UNL A   1      40.064  36.063  37.103  1.00  0.00     0.124 S 
ATOM     68  O   UNL A   1      39.855  36.679  35.795  1.00  0.00    -0.237 OA
ATOM     69  O   UNL A   1      39.288  36.622  38.203  1.00  0.00    -0.237 OA
ATOM     70  O   UNL A   1      41.455  35.746  37.418  1.00  0.00    -0.744 OA
ENDBRANCH  63  67
ENDBRANCH  46  60
BRANCH  47  71
ATOM     71  C   UNL A   1      41.921  26.856  27.630  1.00  0.00     0.023 A 
ATOM     72  C   UNL A   1      41.788  25.461  27.582  1.00  0.00     0.031 A 
ATOM     73  C   UNL A   1      42.522  27.499  26.531  1.00  0.00     0.131 A 
ATOM     74  C   UNL A   1      42.292  24.748  26.483  1.00  0.00     0.055 A 
ATOM     75  C   UNL A   1      42.966  26.792  25.414  1.00  0.00     0.041 A 
ATOM     76  F   UNL A   1      42.677  28.833  26.524  1.00  0.00    -0.206 F 
ATOM     77  C   UNL A   1      42.866  25.404  25.391  1.00  0.00     0.022 A 
BRANCH  74  78
ATOM     78  S   UNL A   1      42.278  22.935  26.545  1.00  0.00     0.124 S 
ATOM     79  O   UNL A   1      42.324  22.591  25.129  1.00  0.00    -0.237 OA
ATOM     80  O   UNL A   1      43.484  22.650  27.315  1.00  0.00    -0.237 OA
ATOM     81  O   UNL A   1      41.020  22.628  27.222  1.00  0.00    -0.744 OA
ENDBRANCH  74  78
ENDBRANCH  47  71
BRANCH  59  82
ATOM     82  C   UNL A   1      44.385  27.443  34.140  1.00  0.00     0.023 A 
ATOM     83  C   UNL A   1      44.201  26.215  34.798  1.00  0.00     0.031 A 
ATOM     84  C   UNL A   1      45.665  28.026  34.173  1.00  0.00     0.131 A 
ATOM     85  C   UNL A   1      45.263  25.640  35.513  1.00  0.00     0.055 A 
ATOM     86  C   UNL A   1      46.737  27.412  34.825  1.00  0.00     0.041 A 
ATOM     87  F   UNL A   1      45.899  29.199  33.565  1.00  0.00    -0.206 F 
ATOM     88  C   UNL A   1      46.534  26.219  35.513  1.00  0.00     0.022 A 
BRANCH  85  89
ATOM     89  S   UNL A   1      44.931  24.179  36.536  1.00  0.00     0.124 S 
ATOM     90  O   UNL A   1      43.890  23.503  35.770  1.00  0.00    -0.237 OA
ATOM     91  O   UNL A   1      46.232  23.517  36.566  1.00  0.00    -0.237 OA
ATOM     92  O   UNL A   1      44.495  24.746  37.811  1.00  0.00    -0.744 OA
ENDBRANCH  85  89
ENDBRANCH  59  82
ENDBRANCH  33  34
ENDBRANCH  26  28
ENDBRANCH  25  26
ENDBRANCH  24  25
ENDBRANCH  23  24
ENDBRANCH   1  23
TORSDOF 20
ENDMDL
