MODEL 1
REMARK VINA RESULT:     -10.5      0.000      0.000
REMARK SMILES C[C@H]([NH2+][C@@H]1CCOC2(CCC2)C1)C(=O)OCCOCCOC(=O)c1ccc(-c2c3nc(c(-c4cc(S(=O)(=O)[O-])ccc4F)c4ccc([nH]4)c(-c4cc(S(=O)(=O)[O-])ccc4F)c4nc(c(-c5cc(S(=O)(=O)[O-])ccc5F)c5ccc2[nH]5)C=C4)C=C3)cc1
REMARK SMILES IDX 19 1 18 2 17 3 16 4 15 5 13 6 14 7 2 8 1 9 3 10 4 13 5 14
REMARK SMILES IDX 12 15 6 16 8 17 7 18 9 19 11 20 10 21 20 22 21 23 22 24
REMARK SMILES IDX 23 25 24 26 25 27 86 28 26 29 85 30 27 31 28 32 29 33 79 34
REMARK SMILES IDX 30 35 84 36 78 37 80 38 31 39 83 40 77 41 76 42 32 44 64 45
REMARK SMILES IDX 44 46 63 47 45 48 48 49 62 50 81 51 46 52 47 53 61 55 82 56
REMARK SMILES IDX 49 57 33 58 34 59 42 60 35 61 41 62 43 63 40 64 36 65 37 66
REMARK SMILES IDX 38 67 39 68 65 69 66 70 74 71 67 72 73 73 75 74 72 75 68 76
REMARK SMILES IDX 69 77 70 78 71 79 50 80 51 81 59 82 52 83 58 84 60 85 57 86
REMARK SMILES IDX 53 87 54 88 55 89 56 90
REMARK H PARENT 3 11 3 12 80 43 48 54
REMARK Flexibility Score: inf
ROOT
ATOM      1  C   UNL A   1      35.896  21.248  24.888  1.00  0.00     0.202 C 
ENDROOT
BRANCH   1   2
ATOM      2  O   UNL A   1      34.739  20.861  25.629  1.00  0.00    -0.374 OA
BRANCH   2   3
ATOM      3  C   UNL A   1      33.560  20.539  24.902  1.00  0.00     0.202 C 
BRANCH   3   4
ATOM      4  C   UNL A   1      32.263  21.284  25.249  1.00  0.00     0.261 C 
BRANCH   4   5
ATOM      5  O   UNL A   1      32.381  22.717  25.281  1.00  0.00    -0.459 OA
BRANCH   5   6
ATOM      6  C   UNL A   1      32.307  23.313  24.057  1.00  0.00     0.364 C 
ATOM      7  O   UNL A   1      31.587  22.936  23.134  1.00  0.00    -0.245 OA
BRANCH   6   8
ATOM      8  C   UNL A   1      33.226  24.532  23.907  1.00  0.00     0.290 C 
ATOM      9  C   UNL A   1      34.197  24.657  25.069  1.00  0.00     0.088 C 
BRANCH   8  10
ATOM     10  N   UNL A   1      32.489  25.745  23.528  1.00  0.00    -0.332 N 
ATOM     11  H   UNL A   1      32.244  25.652  22.542  1.00  0.00     0.347 HD
ATOM     12  H   UNL A   1      33.125  26.506  23.765  1.00  0.00     0.347 HD
BRANCH  10  13
ATOM     13  C   UNL A   1      31.252  26.074  24.254  1.00  0.00     0.188 C 
ATOM     14  C   UNL A   1      30.525  27.184  23.467  1.00  0.00     0.093 C 
ATOM     15  C   UNL A   1      31.325  26.481  25.743  1.00  0.00     0.100 C 
ATOM     16  C   UNL A   1      31.160  28.544  23.729  1.00  0.00     0.167 C 
ATOM     17  C   UNL A   1      31.840  27.908  25.979  1.00  0.00     0.074 C 
ATOM     18  O   UNL A   1      31.107  28.828  25.127  1.00  0.00    -0.375 OA
ATOM     19  C   UNL A   1      31.762  28.268  27.499  1.00  0.00     0.036 C 
ATOM     20  C   UNL A   1      33.376  28.211  26.121  1.00  0.00     0.036 C 
ATOM     21  C   UNL A   1      33.039  29.107  27.317  1.00  0.00     0.006 C 
ENDBRANCH  10  13
ENDBRANCH   8  10
ENDBRANCH   6   8
ENDBRANCH   5   6
ENDBRANCH   4   5
ENDBRANCH   3   4
ENDBRANCH   2   3
ENDBRANCH   1   2
BRANCH   1  22
ATOM     22  C   UNL A   1      37.181  20.427  25.064  1.00  0.00     0.261 C 
BRANCH  22  23
ATOM     23  O   UNL A   1      38.376  21.235  25.037  1.00  0.00    -0.460 OA
BRANCH  23  24
ATOM     24  C   UNL A   1      39.259  20.981  26.034  1.00  0.00     0.338 C 
ATOM     25  O   UNL A   1      39.746  19.895  26.327  1.00  0.00    -0.246 OA
BRANCH  24  26
ATOM     26  C   UNL A   1      39.725  22.241  26.632  1.00  0.00     0.060 A 
ATOM     27  C   UNL A   1      39.190  23.442  26.147  1.00  0.00     0.016 A 
ATOM     28  C   UNL A   1      40.754  22.252  27.575  1.00  0.00     0.016 A 
ATOM     29  C   UNL A   1      39.703  24.661  26.583  1.00  0.00     0.010 A 
ATOM     30  C   UNL A   1      41.275  23.479  28.003  1.00  0.00     0.010 A 
ATOM     31  C   UNL A   1      40.773  24.687  27.486  1.00  0.00    -0.014 A 
BRANCH  31  32
ATOM     32  C   UNL A   1      41.460  25.972  27.769  1.00  0.00     0.031 A 
ATOM     33  C   UNL A   1      40.721  27.041  28.527  1.00  0.00     0.074 A 
ATOM     34  C   UNL A   1      42.734  26.168  27.385  1.00  0.00     0.049 A 
ATOM     35  N   UNL A   1      41.107  28.248  28.850  1.00  0.00    -0.248 NA
ATOM     36  C   UNL A   1      39.362  26.701  28.974  1.00  0.00     0.031 C 
ATOM     37  C   UNL A   1      43.565  25.185  26.691  1.00  0.00     0.029 A 
ATOM     38  N   UNL A   1      43.550  27.262  27.522  1.00  0.00    -0.354 N 
ATOM     39  C   UNL A   1      40.039  28.815  29.540  1.00  0.00     0.074 A 
ATOM     40  C   UNL A   1      38.977  27.830  29.551  1.00  0.00     0.031 C 
ATOM     41  C   UNL A   1      44.772  25.726  26.454  1.00  0.00     0.029 A 
ATOM     42  C   UNL A   1      44.787  27.103  26.943  1.00  0.00     0.049 A 
ATOM     43  H   UNL A   1      43.277  28.083  27.990  1.00  0.00     0.167 HD
ATOM     44  C   UNL A   1      39.958  30.039  30.117  1.00  0.00     0.034 A 
ATOM     45  C   UNL A   1      45.803  27.978  26.800  1.00  0.00     0.034 A 
ATOM     46  C   UNL A   1      41.022  31.014  30.084  1.00  0.00     0.049 A 
ATOM     47  C   UNL A   1      45.654  29.370  27.367  1.00  0.00     0.074 A 
ATOM     48  C   UNL A   1      41.051  32.279  30.645  1.00  0.00     0.029 A 
ATOM     49  N   UNL A   1      42.241  30.839  29.441  1.00  0.00    -0.354 N 
ATOM     50  N   UNL A   1      44.642  29.893  28.023  1.00  0.00    -0.248 NA
ATOM     51  C   UNL A   1      46.786  30.287  27.181  1.00  0.00     0.031 C 
ATOM     52  C   UNL A   1      42.254  32.894  30.281  1.00  0.00     0.029 A 
ATOM     53  C   UNL A   1      43.013  31.986  29.560  1.00  0.00     0.049 A 
ATOM     54  H   UNL A   1      42.517  30.020  28.970  1.00  0.00     0.167 HD
ATOM     55  C   UNL A   1      45.031  31.190  28.351  1.00  0.00     0.074 A 
ATOM     56  C   UNL A   1      46.373  31.363  27.834  1.00  0.00     0.031 C 
ATOM     57  C   UNL A   1      44.345  32.149  29.024  1.00  0.00     0.034 A 
BRANCH  44  58
ATOM     58  C   UNL A   1      38.651  30.407  30.781  1.00  0.00     0.023 A 
ATOM     59  C   UNL A   1      37.637  31.097  30.092  1.00  0.00     0.031 A 
ATOM     60  C   UNL A   1      38.431  30.092  32.133  1.00  0.00     0.131 A 
ATOM     61  C   UNL A   1      36.484  31.511  30.776  1.00  0.00     0.055 A 
ATOM     62  C   UNL A   1      37.247  30.438  32.787  1.00  0.00     0.041 A 
ATOM     63  F   UNL A   1      39.372  29.456  32.849  1.00  0.00    -0.206 F 
ATOM     64  C   UNL A   1      36.271  31.165  32.112  1.00  0.00     0.022 A 
BRANCH  61  65
ATOM     65  S   UNL A   1      35.333  32.634  29.936  1.00  0.00     0.124 S 
ATOM     66  O   UNL A   1      36.210  33.751  29.589  1.00  0.00    -0.237 OA
ATOM     67  O   UNL A   1      34.860  31.823  28.820  1.00  0.00    -0.237 OA
ATOM     68  O   UNL A   1      34.334  32.930  30.960  1.00  0.00    -0.744 OA
ENDBRANCH  61  65
ENDBRANCH  44  58
BRANCH  45  69
ATOM     69  C   UNL A   1      47.034  27.592  26.052  1.00  0.00     0.023 A 
ATOM     70  C   UNL A   1      47.169  27.865  24.681  1.00  0.00     0.031 A 
ATOM     71  C   UNL A   1      48.073  26.891  26.690  1.00  0.00     0.131 A 
ATOM     72  C   UNL A   1      48.296  27.400  23.984  1.00  0.00     0.055 A 
ATOM     73  C   UNL A   1      49.216  26.477  26.004  1.00  0.00     0.041 A 
ATOM     74  F   UNL A   1      47.994  26.602  27.998  1.00  0.00    -0.206 F 
ATOM     75  C   UNL A   1      49.326  26.720  24.638  1.00  0.00     0.022 A 
BRANCH  72  76
ATOM     76  S   UNL A   1      48.357  27.622  22.185  1.00  0.00     0.124 S 
ATOM     77  O   UNL A   1      47.053  28.216  21.915  1.00  0.00    -0.237 OA
ATOM     78  O   UNL A   1      49.508  28.505  22.030  1.00  0.00    -0.237 OA
ATOM     79  O   UNL A   1      48.544  26.264  21.681  1.00  0.00    -0.744 OA
ENDBRANCH  72  76
ENDBRANCH  45  69
BRANCH  57  80
ATOM     80  C   UNL A   1      45.058  33.457  29.273  1.00  0.00     0.023 A 
ATOM     81  C   UNL A   1      44.947  34.542  28.385  1.00  0.00     0.031 A 
ATOM     82  C   UNL A   1      45.868  33.616  30.412  1.00  0.00     0.131 A 
ATOM     83  C   UNL A   1      45.678  35.716  28.621  1.00  0.00     0.055 A 
ATOM     84  C   UNL A   1      46.545  34.807  30.673  1.00  0.00     0.041 A 
ATOM     85  F   UNL A   1      46.012  32.612  31.293  1.00  0.00    -0.206 F 
ATOM     86  C   UNL A   1      46.463  35.862  29.768  1.00  0.00     0.022 A 
BRANCH  83  87
ATOM     87  S   UNL A   1      45.666  37.020  27.360  1.00  0.00     0.124 S 
ATOM     88  O   UNL A   1      46.334  38.117  28.053  1.00  0.00    -0.237 OA
ATOM     89  O   UNL A   1      46.416  36.406  26.269  1.00  0.00    -0.237 OA
ATOM     90  O   UNL A   1      44.245  37.228  27.095  1.00  0.00    -0.744 OA
ENDBRANCH  83  87
ENDBRANCH  57  80
ENDBRANCH  31  32
ENDBRANCH  24  26
ENDBRANCH  23  24
ENDBRANCH  22  23
ENDBRANCH   1  22
TORSDOF 19
ENDMDL
MODEL 2
REMARK VINA RESULT:     -10.5      1.126      7.778
REMARK SMILES C[C@H]([NH2+][C@@H]1CCOC2(CCC2)C1)C(=O)OCCOCCOC(=O)c1ccc(-c2c3nc(c(-c4cc(S(=O)(=O)[O-])ccc4F)c4ccc([nH]4)c(-c4cc(S(=O)(=O)[O-])ccc4F)c4nc(c(-c5cc(S(=O)(=O)[O-])ccc5F)c5ccc2[nH]5)C=C4)C=C3)cc1
REMARK SMILES IDX 19 1 18 2 17 3 16 4 15 5 13 6 14 7 2 8 1 9 3 10 4 13 5 14
REMARK SMILES IDX 12 15 6 16 8 17 7 18 9 19 11 20 10 21 20 22 21 23 22 24
REMARK SMILES IDX 23 25 24 26 25 27 86 28 26 29 85 30 27 31 28 32 29 33 79 34
REMARK SMILES IDX 30 35 84 36 78 37 80 38 31 39 83 40 77 41 76 42 32 44 64 45
REMARK SMILES IDX 44 46 63 47 45 48 48 49 62 50 81 51 46 52 47 53 61 55 82 56
REMARK SMILES IDX 49 57 33 58 34 59 42 60 35 61 41 62 43 63 40 64 36 65 37 66
REMARK SMILES IDX 38 67 39 68 65 69 66 70 74 71 67 72 73 73 75 74 72 75 68 76
REMARK SMILES IDX 69 77 70 78 71 79 50 80 51 81 59 82 52 83 58 84 60 85 57 86
REMARK SMILES IDX 53 87 54 88 55 89 56 90
REMARK H PARENT 3 11 3 12 80 43 48 54
REMARK Flexibility Score: inf
ROOT
ATOM      1  C   UNL A   1      35.777  21.321  25.194  1.00  0.00     0.202 C 
ENDROOT
BRANCH   1   2
ATOM      2  O   UNL A   1      35.694  22.547  25.918  1.00  0.00    -0.374 OA
BRANCH   2   3
ATOM      3  C   UNL A   1      34.690  22.663  26.919  1.00  0.00     0.202 C 
BRANCH   3   4
ATOM      4  C   UNL A   1      33.618  21.568  27.008  1.00  0.00     0.261 C 
BRANCH   4   5
ATOM      5  O   UNL A   1      32.348  21.922  26.433  1.00  0.00    -0.459 OA
BRANCH   5   6
ATOM      6  C   UNL A   1      32.063  21.279  25.264  1.00  0.00     0.364 C 
ATOM      7  O   UNL A   1      32.024  20.058  25.126  1.00  0.00    -0.245 OA
BRANCH   6   8
ATOM      8  C   UNL A   1      31.791  22.225  24.089  1.00  0.00     0.290 C 
ATOM      9  C   UNL A   1      32.263  21.639  22.769  1.00  0.00     0.088 C 
BRANCH   8  10
ATOM     10  N   UNL A   1      32.193  23.608  24.379  1.00  0.00    -0.332 N 
ATOM     11  H   UNL A   1      32.851  23.572  25.158  1.00  0.00     0.347 HD
ATOM     12  H   UNL A   1      31.311  24.090  24.556  1.00  0.00     0.347 HD
BRANCH  10  13
ATOM     13  C   UNL A   1      32.825  24.398  23.312  1.00  0.00     0.188 C 
ATOM     14  C   UNL A   1      34.038  25.130  23.922  1.00  0.00     0.093 C 
ATOM     15  C   UNL A   1      31.981  25.412  22.509  1.00  0.00     0.100 C 
ATOM     16  C   UNL A   1      33.595  26.358  24.708  1.00  0.00     0.167 C 
ATOM     17  C   UNL A   1      31.659  26.705  23.272  1.00  0.00     0.074 C 
ATOM     18  O   UNL A   1      32.884  27.241  23.841  1.00  0.00    -0.375 OA
ATOM     19  C   UNL A   1      30.911  27.713  22.340  1.00  0.00     0.036 C 
ATOM     20  C   UNL A   1      30.391  26.819  24.193  1.00  0.00     0.036 C 
ATOM     21  C   UNL A   1      30.122  28.192  23.570  1.00  0.00     0.006 C 
ENDBRANCH  10  13
ENDBRANCH   8  10
ENDBRANCH   6   8
ENDBRANCH   5   6
ENDBRANCH   4   5
ENDBRANCH   3   4
ENDBRANCH   2   3
ENDBRANCH   1   2
BRANCH   1  22
ATOM     22  C   UNL A   1      37.116  20.571  25.182  1.00  0.00     0.261 C 
BRANCH  22  23
ATOM     23  O   UNL A   1      38.254  21.448  25.051  1.00  0.00    -0.460 OA
BRANCH  23  24
ATOM     24  C   UNL A   1      39.244  21.237  25.953  1.00  0.00     0.338 C 
ATOM     25  O   UNL A   1      39.845  20.188  26.155  1.00  0.00    -0.246 OA
BRANCH  24  26
ATOM     26  C   UNL A   1      39.658  22.512  26.559  1.00  0.00     0.060 A 
ATOM     27  C   UNL A   1      39.061  23.691  26.094  1.00  0.00     0.016 A 
ATOM     28  C   UNL A   1      40.696  22.561  27.491  1.00  0.00     0.016 A 
ATOM     29  C   UNL A   1      39.521  24.929  26.536  1.00  0.00     0.010 A 
ATOM     30  C   UNL A   1      41.164  23.807  27.926  1.00  0.00     0.010 A 
ATOM     31  C   UNL A   1      40.600  24.996  27.428  1.00  0.00    -0.014 A 
BRANCH  31  32
ATOM     32  C   UNL A   1      41.229  26.308  27.717  1.00  0.00     0.031 A 
ATOM     33  C   UNL A   1      42.606  26.589  27.176  1.00  0.00     0.074 A 
ATOM     34  C   UNL A   1      40.570  27.246  28.420  1.00  0.00     0.049 A 
ATOM     35  N   UNL A   1      43.361  27.645  27.335  1.00  0.00    -0.248 NA
ATOM     36  C   UNL A   1      43.209  25.533  26.350  1.00  0.00     0.031 C 
ATOM     37  C   UNL A   1      39.215  27.104  28.948  1.00  0.00     0.029 A 
ATOM     38  N   UNL A   1      40.956  28.503  28.813  1.00  0.00    -0.354 N 
ATOM     39  C   UNL A   1      44.531  27.382  26.628  1.00  0.00     0.074 A 
ATOM     40  C   UNL A   1      44.398  26.050  26.077  1.00  0.00     0.031 C 
ATOM     41  C   UNL A   1      38.885  28.229  29.607  1.00  0.00     0.029 A 
ATOM     42  C   UNL A   1      40.018  29.152  29.580  1.00  0.00     0.049 A 
ATOM     43  H   UNL A   1      41.822  28.902  28.570  1.00  0.00     0.167 HD
ATOM     44  C   UNL A   1      45.612  28.182  26.452  1.00  0.00     0.034 A 
ATOM     45  C   UNL A   1      40.078  30.343  30.211  1.00  0.00     0.034 A 
ATOM     46  C   UNL A   1      45.734  29.503  27.022  1.00  0.00     0.049 A 
ATOM     47  C   UNL A   1      41.330  31.177  30.079  1.00  0.00     0.074 A 
ATOM     48  C   UNL A   1      46.777  30.404  26.898  1.00  0.00     0.029 A 
ATOM     49  N   UNL A   1      44.786  30.107  27.839  1.00  0.00    -0.354 N 
ATOM     50  N   UNL A   1      42.428  30.921  29.404  1.00  0.00    -0.248 NA
ATOM     51  C   UNL A   1      41.348  32.463  30.789  1.00  0.00     0.031 C 
ATOM     52  C   UNL A   1      46.494  31.518  27.696  1.00  0.00     0.029 A 
ATOM     53  C   UNL A   1      45.238  31.351  28.256  1.00  0.00     0.049 A 
ATOM     54  H   UNL A   1      43.920  29.710  28.086  1.00  0.00     0.167 HD
ATOM     55  C   UNL A   1      43.253  32.029  29.586  1.00  0.00     0.074 A 
ATOM     56  C   UNL A   1      42.520  32.958  30.421  1.00  0.00     0.031 C 
ATOM     57  C   UNL A   1      44.501  32.261  29.103  1.00  0.00     0.034 A 
BRANCH  44  58
ATOM     58  C   UNL A   1      46.766  27.622  25.655  1.00  0.00     0.023 A 
ATOM     59  C   UNL A   1      47.028  28.035  24.337  1.00  0.00     0.031 A 
ATOM     60  C   UNL A   1      47.597  26.633  26.212  1.00  0.00     0.131 A 
ATOM     61  C   UNL A   1      48.045  27.413  23.597  1.00  0.00     0.055 A 
ATOM     62  C   UNL A   1      48.658  26.074  25.497  1.00  0.00     0.041 A 
ATOM     63  F   UNL A   1      47.381  26.181  27.457  1.00  0.00    -0.206 F 
ATOM     64  C   UNL A   1      48.877  26.452  24.176  1.00  0.00     0.022 A 
BRANCH  61  65
ATOM     65  S   UNL A   1      48.171  27.770  21.823  1.00  0.00     0.124 S 
ATOM     66  O   UNL A   1      46.878  28.397  21.555  1.00  0.00    -0.237 OA
ATOM     67  O   UNL A   1      49.333  28.650  21.761  1.00  0.00    -0.237 OA
ATOM     68  O   UNL A   1      48.353  26.452  21.219  1.00  0.00    -0.744 OA
ENDBRANCH  61  65
ENDBRANCH  44  58
BRANCH  45  69
ATOM     69  C   UNL A   1      38.945  30.805  31.063  1.00  0.00     0.023 A 
ATOM     70  C   UNL A   1      37.920  31.610  30.539  1.00  0.00     0.031 A 
ATOM     71  C   UNL A   1      38.901  30.492  32.434  1.00  0.00     0.131 A 
ATOM     72  C   UNL A   1      36.921  32.111  31.388  1.00  0.00     0.055 A 
ATOM     73  C   UNL A   1      37.877  30.949  33.264  1.00  0.00     0.041 A 
ATOM     74  F   UNL A   1      39.856  29.729  32.986  1.00  0.00    -0.206 F 
ATOM     75  C   UNL A   1      36.885  31.776  32.744  1.00  0.00     0.022 A 
BRANCH  72  76
ATOM     76  S   UNL A   1      35.712  33.283  30.713  1.00  0.00     0.124 S 
ATOM     77  O   UNL A   1      35.795  34.378  31.671  1.00  0.00    -0.237 OA
ATOM     78  O   UNL A   1      36.259  33.547  29.386  1.00  0.00    -0.237 OA
ATOM     79  O   UNL A   1      34.462  32.528  30.731  1.00  0.00    -0.744 OA
ENDBRANCH  72  76
ENDBRANCH  45  69
BRANCH  57  80
ATOM     80  C   UNL A   1      45.130  33.593  29.435  1.00  0.00     0.023 A 
ATOM     81  C   UNL A   1      44.909  34.735  28.644  1.00  0.00     0.031 A 
ATOM     82  C   UNL A   1      45.972  33.718  30.555  1.00  0.00     0.131 A 
ATOM     83  C   UNL A   1      45.566  35.936  28.953  1.00  0.00     0.055 A 
ATOM     84  C   UNL A   1      46.573  34.930  30.891  1.00  0.00     0.041 A 
ATOM     85  F   UNL A   1      46.220  32.660  31.344  1.00  0.00    -0.206 F 
ATOM     86  C   UNL A   1      46.383  36.046  30.081  1.00  0.00     0.022 A 
BRANCH  83  87
ATOM     87  S   UNL A   1      45.412  37.333  27.805  1.00  0.00     0.124 S 
ATOM     88  O   UNL A   1      44.371  36.865  26.896  1.00  0.00    -0.237 OA
ATOM     89  O   UNL A   1      45.037  38.427  28.695  1.00  0.00    -0.237 OA
ATOM     90  O   UNL A   1      46.745  37.443  27.217  1.00  0.00    -0.744 OA
ENDBRANCH  83  87
ENDBRANCH  57  80
ENDBRANCH  31  32
ENDBRANCH  24  26
ENDBRANCH  23  24
ENDBRANCH  22  23
ENDBRANCH   1  22
TORSDOF 19
ENDMDL
MODEL 3
REMARK VINA RESULT:     -10.4      1.644      1.929
REMARK SMILES C[C@H]([NH2+][C@@H]1CCOC2(CCC2)C1)C(=O)OCCOCCOC(=O)c1ccc(-c2c3nc(c(-c4cc(S(=O)(=O)[O-])ccc4F)c4ccc([nH]4)c(-c4cc(S(=O)(=O)[O-])ccc4F)c4nc(c(-c5cc(S(=O)(=O)[O-])ccc5F)c5ccc2[nH]5)C=C4)C=C3)cc1
REMARK SMILES IDX 19 1 18 2 17 3 16 4 15 5 13 6 14 7 2 8 1 9 3 10 4 13 5 14
REMARK SMILES IDX 12 15 6 16 8 17 7 18 9 19 11 20 10 21 20 22 21 23 22 24
REMARK SMILES IDX 23 25 24 26 25 27 86 28 26 29 85 30 27 31 28 32 29 33 79 34
REMARK SMILES IDX 30 35 84 36 78 37 80 38 31 39 83 40 77 41 76 42 32 44 64 45
REMARK SMILES IDX 44 46 63 47 45 48 48 49 62 50 81 51 46 52 47 53 61 55 82 56
REMARK SMILES IDX 49 57 33 58 34 59 42 60 35 61 41 62 43 63 40 64 36 65 37 66
REMARK SMILES IDX 38 67 39 68 65 69 66 70 74 71 67 72 73 73 75 74 72 75 68 76
REMARK SMILES IDX 69 77 70 78 71 79 50 80 51 81 59 82 52 83 58 84 60 85 57 86
REMARK SMILES IDX 53 87 54 88 55 89 56 90
REMARK H PARENT 3 11 3 12 80 43 48 54
REMARK Flexibility Score: inf
ROOT
ATOM      1  C   UNL A   1      35.435  21.030  25.150  1.00  0.00     0.202 C 
ENDROOT
BRANCH   1   2
ATOM      2  O   UNL A   1      35.235  21.853  26.298  1.00  0.00    -0.374 OA
BRANCH   2   3
ATOM      3  C   UNL A   1      34.239  21.460  27.234  1.00  0.00     0.202 C 
BRANCH   3   4
ATOM      4  C   UNL A   1      32.912  22.230  27.255  1.00  0.00     0.261 C 
BRANCH   4   5
ATOM      5  O   UNL A   1      32.797  23.260  26.258  1.00  0.00    -0.459 OA
BRANCH   5   6
ATOM      6  C   UNL A   1      31.595  23.904  26.253  1.00  0.00     0.364 C 
ATOM      7  O   UNL A   1      30.912  24.124  27.251  1.00  0.00    -0.245 OA
BRANCH   6   8
ATOM      8  C   UNL A   1      31.137  24.347  24.858  1.00  0.00     0.290 C 
ATOM      9  C   UNL A   1      31.371  23.267  23.815  1.00  0.00     0.088 C 
BRANCH   8  10
ATOM     10  N   UNL A   1      31.596  25.701  24.522  1.00  0.00    -0.332 N 
ATOM     11  H   UNL A   1      31.599  25.773  23.504  1.00  0.00     0.347 HD
ATOM     12  H   UNL A   1      32.504  25.777  24.982  1.00  0.00     0.347 HD
BRANCH  10  13
ATOM     13  C   UNL A   1      30.838  26.851  25.037  1.00  0.00     0.188 C 
ATOM     14  C   UNL A   1      30.642  27.846  23.875  1.00  0.00     0.093 C 
ATOM     15  C   UNL A   1      31.360  27.620  26.272  1.00  0.00     0.100 C 
ATOM     16  C   UNL A   1      31.907  28.660  23.634  1.00  0.00     0.167 C 
ATOM     17  C   UNL A   1      32.553  28.541  25.979  1.00  0.00     0.074 C 
ATOM     18  O   UNL A   1      32.246  29.369  24.826  1.00  0.00    -0.375 OA
ATOM     19  C   UNL A   1      32.928  29.363  27.256  1.00  0.00     0.036 C 
ATOM     20  C   UNL A   1      34.031  28.012  26.045  1.00  0.00     0.036 C 
ATOM     21  C   UNL A   1      34.400  29.284  26.816  1.00  0.00     0.006 C 
ENDBRANCH  10  13
ENDBRANCH   8  10
ENDBRANCH   6   8
ENDBRANCH   5   6
ENDBRANCH   4   5
ENDBRANCH   3   4
ENDBRANCH   2   3
ENDBRANCH   1   2
BRANCH   1  22
ATOM     22  C   UNL A   1      36.796  20.342  24.975  1.00  0.00     0.261 C 
BRANCH  22  23
ATOM     23  O   UNL A   1      37.902  21.267  24.974  1.00  0.00    -0.460 OA
BRANCH  23  24
ATOM     24  C   UNL A   1      38.913  20.948  25.819  1.00  0.00     0.338 C 
ATOM     25  O   UNL A   1      39.447  19.852  25.947  1.00  0.00    -0.246 OA
BRANCH  24  26
ATOM     26  C   UNL A   1      39.444  22.162  26.458  1.00  0.00     0.060 A 
ATOM     27  C   UNL A   1      38.928  23.401  26.055  1.00  0.00     0.016 A 
ATOM     28  C   UNL A   1      40.509  22.094  27.357  1.00  0.00     0.016 A 
ATOM     29  C   UNL A   1      39.496  24.581  26.528  1.00  0.00     0.010 A 
ATOM     30  C   UNL A   1      41.086  23.282  27.822  1.00  0.00     0.010 A 
ATOM     31  C   UNL A   1      40.602  24.530  27.387  1.00  0.00    -0.014 A 
BRANCH  31  32
ATOM     32  C   UNL A   1      41.341  25.777  27.703  1.00  0.00     0.031 A 
ATOM     33  C   UNL A   1      40.624  26.882  28.432  1.00  0.00     0.074 A 
ATOM     34  C   UNL A   1      42.639  25.908  27.377  1.00  0.00     0.049 A 
ATOM     35  N   UNL A   1      41.057  28.068  28.776  1.00  0.00    -0.248 NA
ATOM     36  C   UNL A   1      39.232  26.612  28.819  1.00  0.00     0.031 C 
ATOM     37  C   UNL A   1      43.448  24.885  26.716  1.00  0.00     0.029 A 
ATOM     38  N   UNL A   1      43.503  26.959  27.553  1.00  0.00    -0.354 N 
ATOM     39  C   UNL A   1      39.990  28.687  29.420  1.00  0.00     0.074 A 
ATOM     40  C   UNL A   1      38.880  27.758  29.381  1.00  0.00     0.031 C 
ATOM     41  C   UNL A   1      44.690  25.364  26.534  1.00  0.00     0.029 A 
ATOM     42  C   UNL A   1      44.754  26.739  27.027  1.00  0.00     0.049 A 
ATOM     43  H   UNL A   1      43.251  27.793  28.011  1.00  0.00     0.167 HD
ATOM     44  C   UNL A   1      39.946  29.913  29.997  1.00  0.00     0.034 A 
ATOM     45  C   UNL A   1      45.819  27.561  26.932  1.00  0.00     0.034 A 
ATOM     46  C   UNL A   1      41.058  30.833  30.014  1.00  0.00     0.049 A 
ATOM     47  C   UNL A   1      45.716  28.958  27.497  1.00  0.00     0.074 A 
ATOM     48  C   UNL A   1      41.128  32.094  30.580  1.00  0.00     0.029 A 
ATOM     49  N   UNL A   1      42.294  30.596  29.424  1.00  0.00    -0.354 N 
ATOM     50  N   UNL A   1      44.704  29.531  28.109  1.00  0.00    -0.248 NA
ATOM     51  C   UNL A   1      46.900  29.816  27.363  1.00  0.00     0.031 C 
ATOM     52  C   UNL A   1      42.375  32.647  30.270  1.00  0.00     0.029 A 
ATOM     53  C   UNL A   1      43.117  31.702  29.580  1.00  0.00     0.049 A 
ATOM     54  H   UNL A   1      42.549  29.765  28.963  1.00  0.00     0.167 HD
ATOM     55  C   UNL A   1      45.143  30.806  28.459  1.00  0.00     0.074 A 
ATOM     56  C   UNL A   1      46.514  30.911  28.001  1.00  0.00     0.031 C 
ATOM     57  C   UNL A   1      44.478  31.798  29.104  1.00  0.00     0.034 A 
BRANCH  44  58
ATOM     58  C   UNL A   1      38.632  30.347  30.604  1.00  0.00     0.023 A 
ATOM     59  C   UNL A   1      37.711  31.138  29.894  1.00  0.00     0.031 A 
ATOM     60  C   UNL A   1      38.311  29.991  31.926  1.00  0.00     0.131 A 
ATOM     61  C   UNL A   1      36.552  31.605  30.532  1.00  0.00     0.055 A 
ATOM     62  C   UNL A   1      37.118  30.393  32.529  1.00  0.00     0.041 A 
ATOM     63  F   UNL A   1      39.161  29.257  32.662  1.00  0.00    -0.206 F 
ATOM     64  C   UNL A   1      36.237  31.218  31.837  1.00  0.00     0.022 A 
BRANCH  61  65
ATOM     65  S   UNL A   1      35.534  32.845  29.684  1.00  0.00     0.124 S 
ATOM     66  O   UNL A   1      35.220  32.162  28.431  1.00  0.00    -0.237 OA
ATOM     67  O   UNL A   1      34.422  33.025  30.610  1.00  0.00    -0.237 OA
ATOM     68  O   UNL A   1      36.430  33.992  29.553  1.00  0.00    -0.744 OA
ENDBRANCH  61  65
ENDBRANCH  44  58
BRANCH  45  69
ATOM     69  C   UNL A   1      47.060  27.113  26.237  1.00  0.00     0.023 A 
ATOM     70  C   UNL A   1      48.054  26.390  26.915  1.00  0.00     0.031 A 
ATOM     71  C   UNL A   1      47.294  27.453  24.892  1.00  0.00     0.131 A 
ATOM     72  C   UNL A   1      49.254  26.070  26.261  1.00  0.00     0.055 A 
ATOM     73  C   UNL A   1      48.467  27.087  24.230  1.00  0.00     0.041 A 
ATOM     74  F   UNL A   1      46.378  28.147  24.198  1.00  0.00    -0.206 F 
ATOM     75  C   UNL A   1      49.462  26.401  24.920  1.00  0.00     0.022 A 
BRANCH  72  76
ATOM     76  S   UNL A   1      50.582  25.285  27.216  1.00  0.00     0.124 S 
ATOM     77  O   UNL A   1      51.478  24.831  26.159  1.00  0.00    -0.237 OA
ATOM     78  O   UNL A   1      51.062  26.396  28.031  1.00  0.00    -0.237 OA
ATOM     79  O   UNL A   1      49.893  24.227  27.950  1.00  0.00    -0.744 OA
ENDBRANCH  72  76
ENDBRANCH  45  69
BRANCH  57  80
ATOM     80  C   UNL A   1      45.245  33.068  29.388  1.00  0.00     0.023 A 
ATOM     81  C   UNL A   1      45.364  34.092  28.431  1.00  0.00     0.031 A 
ATOM     82  C   UNL A   1      45.875  33.251  30.633  1.00  0.00     0.131 A 
ATOM     83  C   UNL A   1      46.140  35.226  28.714  1.00  0.00     0.055 A 
ATOM     84  C   UNL A   1      46.595  34.408  30.930  1.00  0.00     0.041 A 
ATOM     85  F   UNL A   1      45.796  32.305  31.583  1.00  0.00    -0.206 F 
ATOM     86  C   UNL A   1      46.742  35.398  29.963  1.00  0.00     0.022 A 
BRANCH  83  87
ATOM     87  S   UNL A   1      46.433  36.434  27.392  1.00  0.00     0.124 S 
ATOM     88  O   UNL A   1      45.914  37.663  27.986  1.00  0.00    -0.237 OA
ATOM     89  O   UNL A   1      47.881  36.370  27.226  1.00  0.00    -0.237 OA
ATOM     90  O   UNL A   1      45.656  35.912  26.271  1.00  0.00    -0.744 OA
ENDBRANCH  83  87
ENDBRANCH  57  80
ENDBRANCH  31  32
ENDBRANCH  24  26
ENDBRANCH  23  24
ENDBRANCH  22  23
ENDBRANCH   1  22
TORSDOF 19
ENDMDL
