MODEL 1
REMARK VINA RESULT:     -11.2      0.000      0.000
REMARK SMILES C[C@H]1CCCCN1S(=O)(=O)c1ccc(Br)c(C(=O)OCCOCCOC(=O)c2ccc(-c3c4nc(c(-c5cc(S(=O)(=O)[O-])ccc5F)c5ccc([nH]5)c(-c5cc(S(=O)(=O)[O-])ccc5F)c5nc(c(-c6cc(S(=O)(=O)[O-])ccc6F)c6ccc3[nH]6)C=C5)C=C4)cc2)c1
REMARK SMILES IDX 23 1 22 2 21 3 20 4 19 5 17 6 18 7 16 8 11 9 12 10 91 11
REMARK SMILES IDX 13 12 14 13 15 14 8 15 9 16 10 17 7 18 1 19 2 20 3 21 4 22
REMARK SMILES IDX 6 23 5 24 24 25 25 26 26 27 27 28 28 29 29 30 90 31 30 32
REMARK SMILES IDX 89 33 31 34 32 35 33 36 83 37 34 38 88 39 82 40 84 41 35 42
REMARK SMILES IDX 87 43 81 44 80 45 36 47 68 48 48 49 67 50 49 51 52 52 66 53
REMARK SMILES IDX 85 54 50 55 51 56 65 58 86 59 53 60 37 61 38 62 46 63 39 64
REMARK SMILES IDX 45 65 47 66 44 67 40 68 41 69 42 70 43 71 69 72 70 73 78 74
REMARK SMILES IDX 71 75 77 76 79 77 76 78 72 79 73 80 74 81 75 82 54 83 55 84
REMARK SMILES IDX 63 85 56 86 62 87 64 88 61 89 57 90 58 91 59 92 60 93
REMARK H PARENT 84 46 52 57
REMARK Flexibility Score: inf
ROOT
ATOM      1  C   UNL A   1      37.518  20.319  25.001  1.00  0.00     0.202 C 
ENDROOT
BRANCH   1   2
ATOM      2  O   UNL A   1      36.831  21.336  25.727  1.00  0.00    -0.374 OA
BRANCH   2   3
ATOM      3  C   UNL A   1      36.781  22.642  25.149  1.00  0.00     0.202 C 
BRANCH   3   4
ATOM      4  C   UNL A   1      35.468  23.410  25.333  1.00  0.00     0.261 C 
BRANCH   4   5
ATOM      5  O   UNL A   1      35.038  23.305  26.698  1.00  0.00    -0.460 OA
BRANCH   5   6
ATOM      6  C   UNL A   1      33.981  22.511  26.971  1.00  0.00     0.339 C 
ATOM      7  O   UNL A   1      33.796  21.861  27.988  1.00  0.00    -0.246 OA
BRANCH   6   8
ATOM      8  C   UNL A   1      32.927  22.742  25.948  1.00  0.00     0.075 A 
ATOM      9  C   UNL A   1      31.255  24.291  25.098  1.00  0.00     0.083 A 
ATOM     10  C   UNL A   1      31.180  23.556  23.913  1.00  0.00     0.023 A 
ATOM     11  C   UNL A   1      32.162  23.918  26.095  1.00  0.00     0.038 A 
ATOM     12  C   UNL A   1      31.876  22.354  23.796  1.00  0.00     0.018 A 
ATOM     13  C   UNL A   1      32.730  21.928  24.819  1.00  0.00     0.032 A 
ATOM     14  Br  UNL A   1      33.505  20.207  24.597  1.00  0.00    -0.050 Br
BRANCH   9  15
ATOM     15  S   UNL A   1      30.292  25.774  25.262  1.00  0.00     0.243 S 
ATOM     16  O   UNL A   1      29.560  25.697  26.511  1.00  0.00    -0.207 OA
ATOM     17  O   UNL A   1      29.580  25.937  24.011  1.00  0.00    -0.207 OA
BRANCH  15  18
ATOM     18  N   UNL A   1      31.410  27.111  25.414  1.00  0.00    -0.195 NA
ATOM     19  C   UNL A   1      32.707  26.877  23.241  1.00  0.00     0.026 C 
ATOM     20  C   UNL A   1      32.774  26.953  24.763  1.00  0.00     0.070 C 
ATOM     21  C   UNL A   1      33.665  28.171  25.078  1.00  0.00     0.020 C 
ATOM     22  C   UNL A   1      33.815  28.413  26.565  1.00  0.00     0.003 C 
ATOM     23  C   UNL A   1      31.556  27.401  26.896  1.00  0.00     0.103 C 
ATOM     24  C   UNL A   1      32.440  28.608  27.171  1.00  0.00     0.017 C 
ENDBRANCH  15  18
ENDBRANCH   9  15
ENDBRANCH   6   8
ENDBRANCH   5   6
ENDBRANCH   4   5
ENDBRANCH   3   4
ENDBRANCH   2   3
ENDBRANCH   1   2
BRANCH   1  25
ATOM     25  C   UNL A   1      38.939  19.959  25.455  1.00  0.00     0.261 C 
BRANCH  25  26
ATOM     26  O   UNL A   1      39.749  21.107  25.755  1.00  0.00    -0.460 OA
BRANCH  26  27
ATOM     27  C   UNL A   1      40.360  21.058  26.967  1.00  0.00     0.338 C 
ATOM     28  O   UNL A   1      40.797  20.066  27.526  1.00  0.00    -0.246 OA
BRANCH  27  29
ATOM     29  C   UNL A   1      40.596  22.425  27.466  1.00  0.00     0.060 A 
ATOM     30  C   UNL A   1      39.827  23.459  26.918  1.00  0.00     0.016 A 
ATOM     31  C   UNL A   1      41.599  22.702  28.396  1.00  0.00     0.016 A 
ATOM     32  C   UNL A   1      40.087  24.783  27.265  1.00  0.00     0.010 A 
ATOM     33  C   UNL A   1      41.861  24.033  28.741  1.00  0.00     0.010 A 
ATOM     34  C   UNL A   1      41.128  25.082  28.153  1.00  0.00    -0.014 A 
BRANCH  34  35
ATOM     35  C   UNL A   1      41.541  26.493  28.360  1.00  0.00     0.031 A 
ATOM     36  C   UNL A   1      42.927  26.919  27.966  1.00  0.00     0.074 A 
ATOM     37  C   UNL A   1      40.680  27.390  28.875  1.00  0.00     0.049 A 
ATOM     38  N   UNL A   1      43.512  28.082  28.095  1.00  0.00    -0.248 NA
ATOM     39  C   UNL A   1      43.769  25.884  27.350  1.00  0.00     0.031 C 
ATOM     40  C   UNL A   1      39.295  27.111  29.245  1.00  0.00     0.029 A 
ATOM     41  N   UNL A   1      40.850  28.718  29.171  1.00  0.00    -0.354 N 
ATOM     42  C   UNL A   1      44.796  27.919  27.584  1.00  0.00     0.074 A 
ATOM     43  C   UNL A   1      44.914  26.528  27.197  1.00  0.00     0.031 C 
ATOM     44  C   UNL A   1      38.734  28.242  29.709  1.00  0.00     0.029 A 
ATOM     45  C   UNL A   1      39.734  29.308  29.716  1.00  0.00     0.049 A 
ATOM     46  H   UNL A   1      41.691  29.204  29.009  1.00  0.00     0.167 HD
ATOM     47  C   UNL A   1      45.778  28.846  27.441  1.00  0.00     0.034 A 
ATOM     48  C   UNL A   1      39.547  30.558  30.182  1.00  0.00     0.034 A 
ATOM     49  C   UNL A   1      45.645  30.224  27.854  1.00  0.00     0.049 A 
ATOM     50  C   UNL A   1      40.690  31.542  30.127  1.00  0.00     0.074 A 
ATOM     51  C   UNL A   1      46.567  31.251  27.744  1.00  0.00     0.029 A 
ATOM     52  N   UNL A   1      44.527  30.765  28.478  1.00  0.00    -0.354 N 
ATOM     53  N   UNL A   1      41.899  31.381  29.639  1.00  0.00    -0.248 NA
ATOM     54  C   UNL A   1      40.439  32.876  30.686  1.00  0.00     0.031 C 
ATOM     55  C   UNL A   1      46.043  32.382  28.383  1.00  0.00     0.029 A 
ATOM     56  C   UNL A   1      44.755  32.095  28.804  1.00  0.00     0.049 A 
ATOM     57  H   UNL A   1      43.693  30.275  28.665  1.00  0.00     0.167 HD
ATOM     58  C   UNL A   1      42.539  32.610  29.798  1.00  0.00     0.074 A 
ATOM     59  C   UNL A   1      41.579  33.498  30.422  1.00  0.00     0.031 C 
ATOM     60  C   UNL A   1      43.801  32.972  29.446  1.00  0.00     0.034 A 
BRANCH  47  61
ATOM     61  C   UNL A   1      47.095  28.367  26.871  1.00  0.00     0.023 A 
ATOM     62  C   UNL A   1      47.283  28.187  25.488  1.00  0.00     0.031 A 
ATOM     63  C   UNL A   1      48.155  28.011  27.725  1.00  0.00     0.131 A 
ATOM     64  C   UNL A   1      48.446  27.560  25.014  1.00  0.00     0.055 A 
ATOM     65  C   UNL A   1      49.353  27.487  27.236  1.00  0.00     0.041 A 
ATOM     66  F   UNL A   1      48.034  28.138  29.056  1.00  0.00    -0.206 F 
ATOM     67  C   UNL A   1      49.494  27.234  25.876  1.00  0.00     0.022 A 
BRANCH  64  68
ATOM     68  S   UNL A   1      48.473  26.984  23.293  1.00  0.00     0.124 S 
ATOM     69  O   UNL A   1      47.975  25.616  23.433  1.00  0.00    -0.237 OA
ATOM     70  O   UNL A   1      47.578  27.925  22.632  1.00  0.00    -0.237 OA
ATOM     71  O   UNL A   1      49.881  27.088  22.919  1.00  0.00    -0.744 OA
ENDBRANCH  64  68
ENDBRANCH  47  61
BRANCH  48  72
ATOM     72  C   UNL A   1      38.229  30.954  30.753  1.00  0.00     0.023 A 
ATOM     73  C   UNL A   1      37.254  31.567  29.951  1.00  0.00     0.031 A 
ATOM     74  C   UNL A   1      37.933  30.748  32.113  1.00  0.00     0.131 A 
ATOM     75  C   UNL A   1      36.040  31.980  30.520  1.00  0.00     0.055 A 
ATOM     76  C   UNL A   1      36.704  31.115  32.663  1.00  0.00     0.041 A 
ATOM     77  F   UNL A   1      38.833  30.170  32.924  1.00  0.00    -0.206 F 
ATOM     78  C   UNL A   1      35.752  31.743  31.866  1.00  0.00     0.022 A 
BRANCH  75  79
ATOM     79  S   UNL A   1      34.865  32.894  29.485  1.00  0.00     0.124 S 
ATOM     80  O   UNL A   1      34.021  33.533  30.489  1.00  0.00    -0.237 OA
ATOM     81  O   UNL A   1      35.747  33.777  28.731  1.00  0.00    -0.237 OA
ATOM     82  O   UNL A   1      34.216  31.845  28.700  1.00  0.00    -0.744 OA
ENDBRANCH  75  79
ENDBRANCH  48  72
BRANCH  60  83
ATOM     83  C   UNL A   1      44.199  34.411  29.687  1.00  0.00     0.023 A 
ATOM     84  C   UNL A   1      43.995  35.415  28.724  1.00  0.00     0.031 A 
ATOM     85  C   UNL A   1      44.806  34.781  30.902  1.00  0.00     0.131 A 
ATOM     86  C   UNL A   1      44.446  36.722  28.967  1.00  0.00     0.055 A 
ATOM     87  C   UNL A   1      45.187  36.097  31.167  1.00  0.00     0.041 A 
ATOM     88  F   UNL A   1      45.034  33.865  31.859  1.00  0.00    -0.206 F 
ATOM     89  C   UNL A   1      45.021  37.074  30.190  1.00  0.00     0.022 A 
BRANCH  86  90
ATOM     90  S   UNL A   1      44.368  37.937  27.622  1.00  0.00     0.124 S 
ATOM     91  O   UNL A   1      44.257  39.195  28.355  1.00  0.00    -0.237 OA
ATOM     92  O   UNL A   1      45.630  37.714  26.925  1.00  0.00    -0.237 OA
ATOM     93  O   UNL A   1      43.171  37.548  26.876  1.00  0.00    -0.744 OA
ENDBRANCH  86  90
ENDBRANCH  60  83
ENDBRANCH  34  35
ENDBRANCH  27  29
ENDBRANCH  26  27
ENDBRANCH  25  26
ENDBRANCH   1  25
TORSDOF 19
ENDMDL
MODEL 2
REMARK VINA RESULT:     -11.1      5.006     10.588
REMARK SMILES C[C@H]1CCCCN1S(=O)(=O)c1ccc(Br)c(C(=O)OCCOCCOC(=O)c2ccc(-c3c4nc(c(-c5cc(S(=O)(=O)[O-])ccc5F)c5ccc([nH]5)c(-c5cc(S(=O)(=O)[O-])ccc5F)c5nc(c(-c6cc(S(=O)(=O)[O-])ccc6F)c6ccc3[nH]6)C=C5)C=C4)cc2)c1
REMARK SMILES IDX 23 1 22 2 21 3 20 4 19 5 17 6 18 7 16 8 11 9 12 10 91 11
REMARK SMILES IDX 13 12 14 13 15 14 8 15 9 16 10 17 7 18 1 19 2 20 3 21 4 22
REMARK SMILES IDX 6 23 5 24 24 25 25 26 26 27 27 28 28 29 29 30 90 31 30 32
REMARK SMILES IDX 89 33 31 34 32 35 33 36 83 37 34 38 88 39 82 40 84 41 35 42
REMARK SMILES IDX 87 43 81 44 80 45 36 47 68 48 48 49 67 50 49 51 52 52 66 53
REMARK SMILES IDX 85 54 50 55 51 56 65 58 86 59 53 60 37 61 38 62 46 63 39 64
REMARK SMILES IDX 45 65 47 66 44 67 40 68 41 69 42 70 43 71 69 72 70 73 78 74
REMARK SMILES IDX 71 75 77 76 79 77 76 78 72 79 73 80 74 81 75 82 54 83 55 84
REMARK SMILES IDX 63 85 56 86 62 87 64 88 61 89 57 90 58 91 59 92 60 93
REMARK H PARENT 84 46 52 57
REMARK Flexibility Score: inf
ROOT
ATOM      1  C   UNL A   1      31.967  32.091  26.898  1.00  0.00     0.202 C 
ENDROOT
BRANCH   1   2
ATOM      2  O   UNL A   1      32.823  31.182  27.588  1.00  0.00    -0.374 OA
BRANCH   2   3
ATOM      3  C   UNL A   1      33.012  29.887  27.014  1.00  0.00     0.202 C 
BRANCH   3   4
ATOM      4  C   UNL A   1      31.840  28.909  27.159  1.00  0.00     0.261 C 
BRANCH   4   5
ATOM      5  O   UNL A   1      31.551  28.317  25.884  1.00  0.00    -0.460 OA
BRANCH   5   6
ATOM      6  C   UNL A   1      31.288  26.993  25.845  1.00  0.00     0.339 C 
ATOM      7  O   UNL A   1      30.494  26.384  26.545  1.00  0.00    -0.246 OA
BRANCH   6   8
ATOM      8  C   UNL A   1      31.923  26.409  24.634  1.00  0.00     0.075 A 
ATOM      9  C   UNL A   1      33.563  24.822  23.792  1.00  0.00     0.083 A 
ATOM     10  C   UNL A   1      32.985  24.901  22.523  1.00  0.00     0.023 A 
ATOM     11  C   UNL A   1      33.006  25.533  24.859  1.00  0.00     0.038 A 
ATOM     12  C   UNL A   1      31.966  25.822  22.281  1.00  0.00     0.018 A 
ATOM     13  C   UNL A   1      31.449  26.597  23.325  1.00  0.00     0.032 A 
ATOM     14  Br  UNL A   1      30.167  27.911  22.832  1.00  0.00    -0.050 Br
BRANCH   9  15
ATOM     15  S   UNL A   1      34.919  23.707  24.060  1.00  0.00     0.243 S 
ATOM     16  O   UNL A   1      35.761  24.267  25.098  1.00  0.00    -0.207 OA
ATOM     17  O   UNL A   1      35.472  23.419  22.752  1.00  0.00    -0.207 OA
BRANCH  15  18
ATOM     18  N   UNL A   1      34.257  22.218  24.696  1.00  0.00    -0.195 NA
ATOM     19  C   UNL A   1      36.393  21.009  25.357  1.00  0.00     0.026 C 
ATOM     20  C   UNL A   1      35.101  20.963  24.546  1.00  0.00     0.070 C 
ATOM     21  C   UNL A   1      34.331  19.731  25.063  1.00  0.00     0.020 C 
ATOM     22  C   UNL A   1      32.993  19.552  24.377  1.00  0.00     0.003 C 
ATOM     23  C   UNL A   1      32.898  22.026  24.051  1.00  0.00     0.103 C 
ATOM     24  C   UNL A   1      32.165  20.804  24.583  1.00  0.00     0.017 C 
ENDBRANCH  15  18
ENDBRANCH   9  15
ENDBRANCH   6   8
ENDBRANCH   5   6
ENDBRANCH   4   5
ENDBRANCH   3   4
ENDBRANCH   2   3
ENDBRANCH   1   2
BRANCH   1  25
ATOM     25  C   UNL A   1      32.163  33.590  27.164  1.00  0.00     0.261 C 
BRANCH  25  26
ATOM     26  O   UNL A   1      32.445  33.892  28.540  1.00  0.00    -0.460 OA
BRANCH  26  27
ATOM     27  C   UNL A   1      33.586  34.603  28.732  1.00  0.00     0.338 C 
ATOM     28  O   UNL A   1      33.690  35.817  28.792  1.00  0.00    -0.246 OA
BRANCH  27  29
ATOM     29  C   UNL A   1      34.700  33.690  29.047  1.00  0.00     0.060 A 
ATOM     30  C   UNL A   1      34.434  32.610  29.899  1.00  0.00     0.016 A 
ATOM     31  C   UNL A   1      35.994  33.925  28.581  1.00  0.00     0.016 A 
ATOM     32  C   UNL A   1      35.472  31.785  30.324  1.00  0.00     0.010 A 
ATOM     33  C   UNL A   1      37.036  33.096  29.012  1.00  0.00     0.010 A 
ATOM     34  C   UNL A   1      36.785  32.042  29.911  1.00  0.00    -0.014 A 
BRANCH  34  35
ATOM     35  C   UNL A   1      37.913  31.297  30.525  1.00  0.00     0.031 A 
ATOM     36  C   UNL A   1      38.311  31.603  31.942  1.00  0.00     0.074 A 
ATOM     37  C   UNL A   1      38.561  30.342  29.834  1.00  0.00     0.049 A 
ATOM     38  N   UNL A   1      39.287  31.109  32.661  1.00  0.00    -0.248 NA
ATOM     39  C   UNL A   1      37.501  32.614  32.635  1.00  0.00     0.031 C 
ATOM     40  C   UNL A   1      38.234  29.917  28.475  1.00  0.00     0.029 A 
ATOM     41  N   UNL A   1      39.629  29.556  30.187  1.00  0.00    -0.354 N 
ATOM     42  C   UNL A   1      39.214  31.754  33.891  1.00  0.00     0.074 A 
ATOM     43  C   UNL A   1      38.132  32.713  33.793  1.00  0.00     0.031 C 
ATOM     44  C   UNL A   1      39.077  28.935  28.112  1.00  0.00     0.029 A 
ATOM     45  C   UNL A   1      40.034  28.699  29.191  1.00  0.00     0.049 A 
ATOM     46  H   UNL A   1      40.063  29.601  31.069  1.00  0.00     0.167 HD
ATOM     47  C   UNL A   1      39.971  31.556  35.001  1.00  0.00     0.034 A 
ATOM     48  C   UNL A   1      41.068  27.837  29.150  1.00  0.00     0.034 A 
ATOM     49  C   UNL A   1      41.060  30.609  35.069  1.00  0.00     0.049 A 
ATOM     50  C   UNL A   1      41.975  27.718  30.351  1.00  0.00     0.074 A 
ATOM     51  C   UNL A   1      41.883  30.315  36.143  1.00  0.00     0.029 A 
ATOM     52  N   UNL A   1      41.495  29.817  34.013  1.00  0.00    -0.354 N 
ATOM     53  N   UNL A   1      41.898  28.328  31.512  1.00  0.00    -0.248 NA
ATOM     54  C   UNL A   1      43.108  26.792  30.233  1.00  0.00     0.031 C 
ATOM     55  C   UNL A   1      42.867  29.419  35.710  1.00  0.00     0.029 A 
ATOM     56  C   UNL A   1      42.603  29.073  34.395  1.00  0.00     0.049 A 
ATOM     57  H   UNL A   1      41.077  29.788  33.121  1.00  0.00     0.167 HD
ATOM     58  C   UNL A   1      42.951  27.827  32.275  1.00  0.00     0.074 A 
ATOM     59  C   UNL A   1      43.642  26.864  31.443  1.00  0.00     0.031 C 
ATOM     60  C   UNL A   1      43.303  28.128  33.553  1.00  0.00     0.034 A 
BRANCH  47  61
ATOM     61  C   UNL A   1      39.676  32.434  36.198  1.00  0.00     0.023 A 
ATOM     62  C   UNL A   1      38.841  32.003  37.246  1.00  0.00     0.031 A 
ATOM     63  C   UNL A   1      40.173  33.748  36.258  1.00  0.00     0.131 A 
ATOM     64  C   UNL A   1      38.436  32.908  38.238  1.00  0.00     0.055 A 
ATOM     65  C   UNL A   1      39.850  34.612  37.308  1.00  0.00     0.041 A 
ATOM     66  F   UNL A   1      40.958  34.230  35.282  1.00  0.00    -0.206 F 
ATOM     67  C   UNL A   1      38.957  34.203  38.292  1.00  0.00     0.022 A 
BRANCH  64  68
ATOM     68  S   UNL A   1      37.059  32.438  39.322  1.00  0.00     0.124 S 
ATOM     69  O   UNL A   1      35.906  32.684  38.458  1.00  0.00    -0.237 OA
ATOM     70  O   UNL A   1      37.351  31.041  39.615  1.00  0.00    -0.237 OA
ATOM     71  O   UNL A   1      37.185  33.356  40.452  1.00  0.00    -0.744 OA
ENDBRANCH  64  68
ENDBRANCH  47  61
BRANCH  48  72
ATOM     72  C   UNL A   1      41.315  27.021  27.928  1.00  0.00     0.023 A 
ATOM     73  C   UNL A   1      40.924  25.674  27.873  1.00  0.00     0.031 A 
ATOM     74  C   UNL A   1      41.964  27.568  26.806  1.00  0.00     0.131 A 
ATOM     75  C   UNL A   1      41.212  24.909  26.733  1.00  0.00     0.055 A 
ATOM     76  C   UNL A   1      42.203  26.817  25.654  1.00  0.00     0.041 A 
ATOM     77  F   UNL A   1      42.361  28.850  26.810  1.00  0.00    -0.206 F 
ATOM     78  C   UNL A   1      41.833  25.476  25.617  1.00  0.00     0.022 A 
BRANCH  75  79
ATOM     79  S   UNL A   1      40.819  23.140  26.754  1.00  0.00     0.124 S 
ATOM     80  O   UNL A   1      40.939  22.827  28.173  1.00  0.00    -0.237 OA
ATOM     81  O   UNL A   1      39.468  23.122  26.204  1.00  0.00    -0.237 OA
ATOM     82  O   UNL A   1      41.847  22.553  25.896  1.00  0.00    -0.744 OA
ENDBRANCH  75  79
ENDBRANCH  48  72
BRANCH  60  83
ATOM     83  C   UNL A   1      44.468  27.367  34.146  1.00  0.00     0.023 A 
ATOM     84  C   UNL A   1      44.314  26.093  34.721  1.00  0.00     0.031 A 
ATOM     85  C   UNL A   1      45.756  27.935  34.145  1.00  0.00     0.131 A 
ATOM     86  C   UNL A   1      45.412  25.456  35.321  1.00  0.00     0.055 A 
ATOM     87  C   UNL A   1      46.859  27.267  34.679  1.00  0.00     0.041 A 
ATOM     88  F   UNL A   1      45.965  29.153  33.617  1.00  0.00    -0.206 F 
ATOM     89  C   UNL A   1      46.687  26.026  35.285  1.00  0.00     0.022 A 
BRANCH  86  90
ATOM     90  S   UNL A   1      45.134  23.921  36.245  1.00  0.00     0.124 S 
ATOM     91  O   UNL A   1      46.333  23.152  35.925  1.00  0.00    -0.237 OA
ATOM     92  O   UNL A   1      45.029  24.396  37.620  1.00  0.00    -0.237 OA
ATOM     93  O   UNL A   1      43.893  23.396  35.675  1.00  0.00    -0.744 OA
ENDBRANCH  86  90
ENDBRANCH  60  83
ENDBRANCH  34  35
ENDBRANCH  27  29
ENDBRANCH  26  27
ENDBRANCH  25  26
ENDBRANCH   1  25
TORSDOF 19
ENDMDL
MODEL 3
REMARK VINA RESULT:     -11.1      4.881     10.281
REMARK SMILES C[C@H]1CCCCN1S(=O)(=O)c1ccc(Br)c(C(=O)OCCOCCOC(=O)c2ccc(-c3c4nc(c(-c5cc(S(=O)(=O)[O-])ccc5F)c5ccc([nH]5)c(-c5cc(S(=O)(=O)[O-])ccc5F)c5nc(c(-c6cc(S(=O)(=O)[O-])ccc6F)c6ccc3[nH]6)C=C5)C=C4)cc2)c1
REMARK SMILES IDX 23 1 22 2 21 3 20 4 19 5 17 6 18 7 16 8 11 9 12 10 91 11
REMARK SMILES IDX 13 12 14 13 15 14 8 15 9 16 10 17 7 18 1 19 2 20 3 21 4 22
REMARK SMILES IDX 6 23 5 24 24 25 25 26 26 27 27 28 28 29 29 30 90 31 30 32
REMARK SMILES IDX 89 33 31 34 32 35 33 36 83 37 34 38 88 39 82 40 84 41 35 42
REMARK SMILES IDX 87 43 81 44 80 45 36 47 68 48 48 49 67 50 49 51 52 52 66 53
REMARK SMILES IDX 85 54 50 55 51 56 65 58 86 59 53 60 37 61 38 62 46 63 39 64
REMARK SMILES IDX 45 65 47 66 44 67 40 68 41 69 42 70 43 71 69 72 70 73 78 74
REMARK SMILES IDX 71 75 77 76 79 77 76 78 72 79 73 80 74 81 75 82 54 83 55 84
REMARK SMILES IDX 63 85 56 86 62 87 64 88 61 89 57 90 58 91 59 92 60 93
REMARK H PARENT 84 46 52 57
REMARK Flexibility Score: inf
ROOT
ATOM      1  C   UNL A   1      31.466  32.067  26.828  1.00  0.00     0.202 C 
ENDROOT
BRANCH   1   2
ATOM      2  O   UNL A   1      32.059  30.824  27.201  1.00  0.00    -0.374 OA
BRANCH   2   3
ATOM      3  C   UNL A   1      32.983  30.232  26.287  1.00  0.00     0.202 C 
BRANCH   3   4
ATOM      4  C   UNL A   1      32.389  29.251  25.270  1.00  0.00     0.261 C 
BRANCH   4   5
ATOM      5  O   UNL A   1      32.708  27.906  25.660  1.00  0.00    -0.460 OA
BRANCH   5   6
ATOM      6  C   UNL A   1      31.716  27.141  26.163  1.00  0.00     0.339 C 
ATOM      7  O   UNL A   1      30.957  27.432  27.075  1.00  0.00    -0.246 OA
BRANCH   6   8
ATOM      8  C   UNL A   1      31.503  25.973  25.267  1.00  0.00     0.075 A 
ATOM      9  C   UNL A   1      31.966  23.615  24.894  1.00  0.00     0.083 A 
ATOM     10  C   UNL A   1      30.935  23.563  23.954  1.00  0.00     0.023 A 
ATOM     11  C   UNL A   1      32.220  24.802  25.589  1.00  0.00     0.038 A 
ATOM     12  C   UNL A   1      30.278  24.734  23.580  1.00  0.00     0.018 A 
ATOM     13  C   UNL A   1      30.574  25.946  24.213  1.00  0.00     0.032 A 
ATOM     14  Br  UNL A   1      29.712  27.487  23.510  1.00  0.00    -0.050 Br
BRANCH   9  15
ATOM     15  S   UNL A   1      32.852  22.129  25.294  1.00  0.00     0.243 S 
ATOM     16  O   UNL A   1      32.470  21.108  24.339  1.00  0.00    -0.207 OA
ATOM     17  O   UNL A   1      32.655  21.907  26.713  1.00  0.00    -0.207 OA
BRANCH  15  18
ATOM     18  N   UNL A   1      34.553  22.446  25.039  1.00  0.00    -0.195 NA
ATOM     19  C   UNL A   1      34.460  23.719  22.840  1.00  0.00     0.026 C 
ATOM     20  C   UNL A   1      35.036  22.528  23.600  1.00  0.00     0.070 C 
ATOM     21  C   UNL A   1      36.567  22.709  23.554  1.00  0.00     0.020 C 
ATOM     22  C   UNL A   1      37.304  21.615  24.297  1.00  0.00     0.003 C 
ATOM     23  C   UNL A   1      35.322  21.384  25.799  1.00  0.00     0.103 C 
ATOM     24  C   UNL A   1      36.828  21.592  25.736  1.00  0.00     0.017 C 
ENDBRANCH  15  18
ENDBRANCH   9  15
ENDBRANCH   6   8
ENDBRANCH   5   6
ENDBRANCH   4   5
ENDBRANCH   3   4
ENDBRANCH   2   3
ENDBRANCH   1   2
BRANCH   1  25
ATOM     25  C   UNL A   1      32.315  33.335  26.987  1.00  0.00     0.261 C 
BRANCH  25  26
ATOM     26  O   UNL A   1      32.395  33.799  28.345  1.00  0.00    -0.460 OA
BRANCH  26  27
ATOM     27  C   UNL A   1      33.480  34.572  28.608  1.00  0.00     0.338 C 
ATOM     28  O   UNL A   1      33.503  35.786  28.726  1.00  0.00    -0.246 OA
BRANCH  27  29
ATOM     29  C   UNL A   1      34.642  33.718  28.918  1.00  0.00     0.060 A 
ATOM     30  C   UNL A   1      34.400  32.507  29.578  1.00  0.00     0.016 A 
ATOM     31  C   UNL A   1      35.946  34.126  28.636  1.00  0.00     0.016 A 
ATOM     32  C   UNL A   1      35.467  31.717  30.000  1.00  0.00     0.010 A 
ATOM     33  C   UNL A   1      37.016  33.332  29.064  1.00  0.00     0.010 A 
ATOM     34  C   UNL A   1      36.783  32.140  29.776  1.00  0.00    -0.014 A 
BRANCH  34  35
ATOM     35  C   UNL A   1      37.912  31.409  30.405  1.00  0.00     0.031 A 
ATOM     36  C   UNL A   1      38.283  31.715  31.829  1.00  0.00     0.074 A 
ATOM     37  C   UNL A   1      38.584  30.466  29.721  1.00  0.00     0.049 A 
ATOM     38  N   UNL A   1      39.254  31.232  32.562  1.00  0.00    -0.248 NA
ATOM     39  C   UNL A   1      37.446  32.711  32.514  1.00  0.00     0.031 C 
ATOM     40  C   UNL A   1      38.285  30.043  28.355  1.00  0.00     0.029 A 
ATOM     41  N   UNL A   1      39.658  29.695  30.087  1.00  0.00    -0.354 N 
ATOM     42  C   UNL A   1      39.152  31.871  33.793  1.00  0.00     0.074 A 
ATOM     43  C   UNL A   1      38.058  32.814  33.682  1.00  0.00     0.031 C 
ATOM     44  C   UNL A   1      39.149  29.075  28.002  1.00  0.00     0.029 A 
ATOM     45  C   UNL A   1      40.091  28.848  29.095  1.00  0.00     0.049 A 
ATOM     46  H   UNL A   1      40.077  29.743  30.976  1.00  0.00     0.167 HD
ATOM     47  C   UNL A   1      39.894  31.680  34.914  1.00  0.00     0.034 A 
ATOM     48  C   UNL A   1      41.139  28.002  29.066  1.00  0.00     0.034 A 
ATOM     49  C   UNL A   1      40.996  30.749  34.996  1.00  0.00     0.049 A 
ATOM     50  C   UNL A   1      42.028  27.892  30.281  1.00  0.00     0.074 A 
ATOM     51  C   UNL A   1      41.806  30.462  36.081  1.00  0.00     0.029 A 
ATOM     52  N   UNL A   1      41.459  29.967  33.944  1.00  0.00    -0.354 N 
ATOM     53  N   UNL A   1      41.924  28.495  31.443  1.00  0.00    -0.248 NA
ATOM     54  C   UNL A   1      43.177  26.983  30.177  1.00  0.00     0.031 C 
ATOM     55  C   UNL A   1      42.811  29.582  35.660  1.00  0.00     0.029 A 
ATOM     56  C   UNL A   1      42.572  29.238  34.340  1.00  0.00     0.049 A 
ATOM     57  H   UNL A   1      41.056  29.936  33.045  1.00  0.00     0.167 HD
ATOM     58  C   UNL A   1      42.972  28.007  32.221  1.00  0.00     0.074 A 
ATOM     59  C   UNL A   1      43.691  27.057  31.396  1.00  0.00     0.031 C 
ATOM     60  C   UNL A   1      43.299  28.307  33.506  1.00  0.00     0.034 A 
BRANCH  47  61
ATOM     61  C   UNL A   1      39.568  32.548  36.110  1.00  0.00     0.023 A 
ATOM     62  C   UNL A   1      38.752  32.087  37.160  1.00  0.00     0.031 A 
ATOM     63  C   UNL A   1      40.014  33.881  36.167  1.00  0.00     0.131 A 
ATOM     64  C   UNL A   1      38.313  32.978  38.151  1.00  0.00     0.055 A 
ATOM     65  C   UNL A   1      39.659  34.733  37.215  1.00  0.00     0.041 A 
ATOM     66  F   UNL A   1      40.778  34.390  35.188  1.00  0.00    -0.206 F 
ATOM     67  C   UNL A   1      38.784  34.292  38.201  1.00  0.00     0.022 A 
BRANCH  64  68
ATOM     68  S   UNL A   1      36.956  32.458  39.238  1.00  0.00     0.124 S 
ATOM     69  O   UNL A   1      37.236  31.031  39.396  1.00  0.00    -0.237 OA
ATOM     70  O   UNL A   1      37.165  33.285  40.419  1.00  0.00    -0.237 OA
ATOM     71  O   UNL A   1      35.758  32.764  38.461  1.00  0.00    -0.744 OA
ENDBRANCH  64  68
ENDBRANCH  47  61
BRANCH  48  72
ATOM     72  C   UNL A   1      41.417  27.195  27.845  1.00  0.00     0.023 A 
ATOM     73  C   UNL A   1      41.169  25.814  27.825  1.00  0.00     0.031 A 
ATOM     74  C   UNL A   1      41.955  27.787  26.688  1.00  0.00     0.131 A 
ATOM     75  C   UNL A   1      41.486  25.063  26.683  1.00  0.00     0.055 A 
ATOM     76  C   UNL A   1      42.222  27.045  25.537  1.00  0.00     0.041 A 
ATOM     77  F   UNL A   1      42.215  29.104  26.657  1.00  0.00    -0.206 F 
ATOM     78  C   UNL A   1      41.995  25.672  25.533  1.00  0.00     0.022 A 
BRANCH  75  79
ATOM     79  S   UNL A   1      41.284  23.263  26.745  1.00  0.00     0.124 S 
ATOM     80  O   UNL A   1      39.857  23.116  26.481  1.00  0.00    -0.237 OA
ATOM     81  O   UNL A   1      42.182  22.820  25.685  1.00  0.00    -0.237 OA
ATOM     82  O   UNL A   1      41.707  22.920  28.101  1.00  0.00    -0.744 OA
ENDBRANCH  75  79
ENDBRANCH  48  72
BRANCH  60  83
ATOM     83  C   UNL A   1      44.466  27.561  34.114  1.00  0.00     0.023 A 
ATOM     84  C   UNL A   1      45.776  28.071  34.088  1.00  0.00     0.031 A 
ATOM     85  C   UNL A   1      44.261  26.308  34.722  1.00  0.00     0.131 A 
ATOM     86  C   UNL A   1      46.836  27.309  34.604  1.00  0.00     0.055 A 
ATOM     87  C   UNL A   1      45.309  25.586  35.297  1.00  0.00     0.041 A 
ATOM     88  F   UNL A   1      43.034  25.764  34.772  1.00  0.00    -0.206 F 
ATOM     89  C   UNL A   1      46.608  26.079  35.227  1.00  0.00     0.022 A 
BRANCH  86  90
ATOM     90  S   UNL A   1      48.534  27.895  34.355  1.00  0.00     0.124 S 
ATOM     91  O   UNL A   1      48.406  28.689  33.136  1.00  0.00    -0.237 OA
ATOM     92  O   UNL A   1      48.790  28.645  35.580  1.00  0.00    -0.237 OA
ATOM     93  O   UNL A   1      49.307  26.662  34.211  1.00  0.00    -0.744 OA
ENDBRANCH  86  90
ENDBRANCH  60  83
ENDBRANCH  34  35
ENDBRANCH  27  29
ENDBRANCH  26  27
ENDBRANCH  25  26
ENDBRANCH   1  25
TORSDOF 19
ENDMDL
