MODEL 1
REMARK VINA RESULT:      -8.9      0.000      0.000
REMARK SMILES O=C(Cc1cccn1-c1ccc2c(c1)OCCO2)OCCOCCOC(=O)c1ccc(-c2c3nc(c(-c4cc(S(=O)(=O)[O-])ccc4F)c4ccc([nH]4)c(-c4cc(S(=O)(=O)[O-])ccc4F)c4nc(c(-c5cc(S(=O)(=O)[O-])ccc5F)c5ccc2[nH]5)C=C4)C=C3)cc1
REMARK SMILES IDX 23 1 22 2 21 3 20 4 19 5 2 6 1 7 3 8 4 9 5 10 8 11 6 12 7 13
REMARK SMILES IDX 9 14 10 15 14 16 11 17 13 18 12 19 15 20 18 21 16 22 17 23
REMARK SMILES IDX 24 24 25 25 26 26 27 27 28 28 29 29 90 30 30 31 89 32 31 33
REMARK SMILES IDX 32 34 33 35 83 36 34 37 88 38 82 39 84 40 35 41 87 42 81 43
REMARK SMILES IDX 80 44 36 46 68 47 48 48 67 49 49 50 52 51 66 52 85 53 50 54
REMARK SMILES IDX 51 55 65 57 86 58 53 59 37 60 38 61 46 62 39 63 45 64 47 65
REMARK SMILES IDX 44 66 40 67 41 68 42 69 43 70 69 71 70 72 78 73 71 74 77 75
REMARK SMILES IDX 79 76 76 77 72 78 73 79 74 80 75 81 54 82 55 83 63 84 56 85
REMARK SMILES IDX 62 86 64 87 61 88 57 89 58 90 59 91 60 92
REMARK H PARENT 84 45 52 56
REMARK Flexibility Score: inf
ROOT
ATOM      1  C   UNL A   1      48.251  32.538  26.767  1.00  0.00     0.202 C 
ENDROOT
BRANCH   1   2
ATOM      2  O   UNL A   1      47.118  31.823  26.281  1.00  0.00    -0.374 OA
BRANCH   2   3
ATOM      3  C   UNL A   1      46.472  30.852  27.089  1.00  0.00     0.202 C 
BRANCH   3   4
ATOM      4  C   UNL A   1      45.415  29.950  26.463  1.00  0.00     0.261 C 
BRANCH   4   5
ATOM      5  O   UNL A   1      44.060  30.393  26.606  1.00  0.00    -0.463 OA
BRANCH   5   6
ATOM      6  C   UNL A   1      42.981  29.582  26.719  1.00  0.00     0.311 C 
ATOM      7  O   UNL A   1      42.380  29.238  25.700  1.00  0.00    -0.252 OA
BRANCH   6   8
ATOM      8  C   UNL A   1      42.417  29.234  28.081  1.00  0.00     0.177 C 
BRANCH   8   9
ATOM      9  C   UNL A   1      40.975  28.820  28.170  1.00  0.00     0.034 A 
ATOM     10  C   UNL A   1      39.913  29.621  28.566  1.00  0.00     0.024 A 
ATOM     11  N   UNL A   1      40.475  27.543  27.956  1.00  0.00    -0.320 N 
ATOM     12  C   UNL A   1      38.768  28.806  28.668  1.00  0.00     0.020 A 
ATOM     13  C   UNL A   1      39.149  27.528  28.327  1.00  0.00     0.091 A 
BRANCH  11  14
ATOM     14  C   UNL A   1      41.232  26.395  27.649  1.00  0.00     0.049 A 
ATOM     15  C   UNL A   1      41.352  25.986  26.319  1.00  0.00     0.031 A 
ATOM     16  C   UNL A   1      42.035  25.849  28.656  1.00  0.00     0.077 A 
ATOM     17  C   UNL A   1      42.305  25.021  25.987  1.00  0.00     0.052 A 
ATOM     18  C   UNL A   1      43.053  24.976  28.291  1.00  0.00     0.163 A 
ATOM     19  C   UNL A   1      43.176  24.539  26.966  1.00  0.00     0.161 A 
ATOM     20  O   UNL A   1      43.964  24.652  29.266  1.00  0.00    -0.486 OA
ATOM     21  O   UNL A   1      44.167  23.693  26.540  1.00  0.00    -0.486 OA
ATOM     22  C   UNL A   1      45.221  24.329  28.654  1.00  0.00     0.271 C 
ATOM     23  C   UNL A   1      45.008  23.243  27.612  1.00  0.00     0.271 C 
ENDBRANCH  11  14
ENDBRANCH   8   9
ENDBRANCH   6   8
ENDBRANCH   5   6
ENDBRANCH   4   5
ENDBRANCH   3   4
ENDBRANCH   2   3
ENDBRANCH   1   2
BRANCH   1  24
ATOM     24  C   UNL A   1      48.116  33.928  27.383  1.00  0.00     0.261 C 
BRANCH  24  25
ATOM     25  O   UNL A   1      47.196  34.006  28.471  1.00  0.00    -0.460 OA
BRANCH  25  26
ATOM     26  C   UNL A   1      46.533  35.176  28.491  1.00  0.00     0.338 C 
ATOM     27  O   UNL A   1      47.019  36.305  28.428  1.00  0.00    -0.246 OA
BRANCH  26  28
ATOM     28  C   UNL A   1      45.106  34.990  28.701  1.00  0.00     0.060 A 
ATOM     29  C   UNL A   1      44.603  35.391  29.944  1.00  0.00     0.016 A 
ATOM     30  C   UNL A   1      44.458  34.051  27.893  1.00  0.00     0.016 A 
ATOM     31  C   UNL A   1      43.533  34.704  30.473  1.00  0.00     0.010 A 
ATOM     32  C   UNL A   1      43.409  33.339  28.441  1.00  0.00     0.010 A 
ATOM     33  C   UNL A   1      43.005  33.625  29.754  1.00  0.00    -0.014 A 
BRANCH  33  34
ATOM     34  C   UNL A   1      42.016  32.766  30.422  1.00  0.00     0.031 A 
ATOM     35  C   UNL A   1      42.628  31.473  30.952  1.00  0.00     0.074 A 
ATOM     36  C   UNL A   1      40.737  33.249  30.428  1.00  0.00     0.049 A 
ATOM     37  N   UNL A   1      42.065  30.357  31.297  1.00  0.00    -0.248 NA
ATOM     38  C   UNL A   1      44.113  31.383  31.045  1.00  0.00     0.031 C 
ATOM     39  C   UNL A   1      40.308  34.536  29.824  1.00  0.00     0.029 A 
ATOM     40  N   UNL A   1      39.545  32.774  30.923  1.00  0.00    -0.354 N 
ATOM     41  C   UNL A   1      43.071  29.545  31.855  1.00  0.00     0.074 A 
ATOM     42  C   UNL A   1      44.321  30.167  31.544  1.00  0.00     0.031 C 
ATOM     43  C   UNL A   1      38.970  34.698  29.924  1.00  0.00     0.029 A 
ATOM     44  C   UNL A   1      38.403  33.565  30.628  1.00  0.00     0.049 A 
ATOM     45  H   UNL A   1      39.486  31.941  31.446  1.00  0.00     0.167 HD
ATOM     46  C   UNL A   1      42.827  28.465  32.650  1.00  0.00     0.034 A 
ATOM     47  C   UNL A   1      37.088  33.314  30.906  1.00  0.00     0.034 A 
ATOM     48  C   UNL A   1      41.429  28.208  32.753  1.00  0.00     0.049 A 
ATOM     49  C   UNL A   1      37.104  32.087  31.723  1.00  0.00     0.074 A 
ATOM     50  C   UNL A   1      40.520  27.591  31.937  1.00  0.00     0.029 A 
ATOM     51  N   UNL A   1      40.746  28.819  33.776  1.00  0.00    -0.354 N 
ATOM     52  N   UNL A   1      37.495  32.023  32.959  1.00  0.00    -0.248 NA
ATOM     53  C   UNL A   1      36.741  30.814  31.092  1.00  0.00     0.031 C 
ATOM     54  C   UNL A   1      39.270  28.142  32.303  1.00  0.00     0.029 A 
ATOM     55  C   UNL A   1      39.468  29.070  33.330  1.00  0.00     0.049 A 
ATOM     56  H   UNL A   1      41.105  29.038  34.666  1.00  0.00     0.167 HD
ATOM     57  C   UNL A   1      37.703  30.680  33.158  1.00  0.00     0.074 A 
ATOM     58  C   UNL A   1      36.966  29.998  32.117  1.00  0.00     0.031 C 
ATOM     59  C   UNL A   1      38.794  30.248  33.844  1.00  0.00     0.034 A 
BRANCH  46  60
ATOM     60  C   UNL A   1      43.761  27.651  33.503  1.00  0.00     0.023 A 
ATOM     61  C   UNL A   1      43.781  26.254  33.283  1.00  0.00     0.031 A 
ATOM     62  C   UNL A   1      44.432  28.111  34.646  1.00  0.00     0.131 A 
ATOM     63  C   UNL A   1      44.390  25.376  34.190  1.00  0.00     0.055 A 
ATOM     64  C   UNL A   1      45.086  27.237  35.527  1.00  0.00     0.041 A 
ATOM     65  F   UNL A   1      44.415  29.404  34.999  1.00  0.00    -0.206 F 
ATOM     66  C   UNL A   1      45.049  25.861  35.314  1.00  0.00     0.022 A 
BRANCH  63  67
ATOM     67  S   UNL A   1      44.184  23.590  33.938  1.00  0.00     0.124 S 
ATOM     68  O   UNL A   1      42.864  23.340  34.505  1.00  0.00    -0.237 OA
ATOM     69  O   UNL A   1      44.287  23.477  32.487  1.00  0.00    -0.237 OA
ATOM     70  O   UNL A   1      45.300  23.013  34.687  1.00  0.00    -0.744 OA
ENDBRANCH  63  67
ENDBRANCH  46  60
BRANCH  47  71
ATOM     71  C   UNL A   1      35.727  33.896  30.574  1.00  0.00     0.023 A 
ATOM     72  C   UNL A   1      34.950  34.718  31.409  1.00  0.00     0.031 A 
ATOM     73  C   UNL A   1      35.161  33.658  29.282  1.00  0.00     0.131 A 
ATOM     74  C   UNL A   1      33.737  35.290  30.936  1.00  0.00     0.055 A 
ATOM     75  C   UNL A   1      34.000  34.269  28.802  1.00  0.00     0.041 A 
ATOM     76  F   UNL A   1      35.723  32.820  28.400  1.00  0.00    -0.206 F 
ATOM     77  C   UNL A   1      33.285  35.103  29.628  1.00  0.00     0.022 A 
BRANCH  74  78
ATOM     78  S   UNL A   1      32.700  36.341  31.998  1.00  0.00     0.124 S 
ATOM     79  O   UNL A   1      32.614  37.570  31.217  1.00  0.00    -0.237 OA
ATOM     80  O   UNL A   1      31.463  35.574  32.122  1.00  0.00    -0.237 OA
ATOM     81  O   UNL A   1      33.489  36.437  33.226  1.00  0.00    -0.744 OA
ENDBRANCH  74  78
ENDBRANCH  47  71
BRANCH  59  82
ATOM     82  C   UNL A   1      39.411  31.312  34.746  1.00  0.00     0.023 A 
ATOM     83  C   UNL A   1      40.453  32.132  34.277  1.00  0.00     0.031 A 
ATOM     84  C   UNL A   1      39.077  31.454  36.107  1.00  0.00     0.131 A 
ATOM     85  C   UNL A   1      41.110  33.027  35.145  1.00  0.00     0.055 A 
ATOM     86  C   UNL A   1      39.712  32.354  36.966  1.00  0.00     0.041 A 
ATOM     87  F   UNL A   1      38.113  30.717  36.655  1.00  0.00    -0.206 F 
ATOM     88  C   UNL A   1      40.742  33.146  36.487  1.00  0.00     0.022 A 
BRANCH  85  89
ATOM     89  S   UNL A   1      42.449  34.069  34.506  1.00  0.00     0.124 S 
ATOM     90  O   UNL A   1      41.778  34.853  33.476  1.00  0.00    -0.237 OA
ATOM     91  O   UNL A   1      42.873  34.804  35.694  1.00  0.00    -0.237 OA
ATOM     92  O   UNL A   1      43.426  33.100  34.008  1.00  0.00    -0.744 OA
ENDBRANCH  85  89
ENDBRANCH  59  82
ENDBRANCH  33  34
ENDBRANCH  26  28
ENDBRANCH  25  26
ENDBRANCH  24  25
ENDBRANCH   1  24
TORSDOF 19
ENDMDL
MODEL 2
REMARK VINA RESULT:      -8.7      3.642     11.615
REMARK SMILES O=C(Cc1cccn1-c1ccc2c(c1)OCCO2)OCCOCCOC(=O)c1ccc(-c2c3nc(c(-c4cc(S(=O)(=O)[O-])ccc4F)c4ccc([nH]4)c(-c4cc(S(=O)(=O)[O-])ccc4F)c4nc(c(-c5cc(S(=O)(=O)[O-])ccc5F)c5ccc2[nH]5)C=C4)C=C3)cc1
REMARK SMILES IDX 23 1 22 2 21 3 20 4 19 5 2 6 1 7 3 8 4 9 5 10 8 11 6 12 7 13
REMARK SMILES IDX 9 14 10 15 14 16 11 17 13 18 12 19 15 20 18 21 16 22 17 23
REMARK SMILES IDX 24 24 25 25 26 26 27 27 28 28 29 29 90 30 30 31 89 32 31 33
REMARK SMILES IDX 32 34 33 35 83 36 34 37 88 38 82 39 84 40 35 41 87 42 81 43
REMARK SMILES IDX 80 44 36 46 68 47 48 48 67 49 49 50 52 51 66 52 85 53 50 54
REMARK SMILES IDX 51 55 65 57 86 58 53 59 37 60 38 61 46 62 39 63 45 64 47 65
REMARK SMILES IDX 44 66 40 67 41 68 42 69 43 70 69 71 70 72 78 73 71 74 77 75
REMARK SMILES IDX 79 76 76 77 72 78 73 79 74 80 75 81 54 82 55 83 63 84 56 85
REMARK SMILES IDX 62 86 64 87 61 88 57 89 58 90 59 91 60 92
REMARK H PARENT 84 45 52 56
REMARK Flexibility Score: inf
ROOT
ATOM      1  C   UNL A   1      42.901  29.676  36.165  1.00  0.00     0.202 C 
ENDROOT
BRANCH   1   2
ATOM      2  O   UNL A   1      42.589  29.879  34.789  1.00  0.00    -0.374 OA
BRANCH   2   3
ATOM      3  C   UNL A   1      42.064  31.118  34.340  1.00  0.00     0.202 C 
BRANCH   3   4
ATOM      4  C   UNL A   1      40.692  31.148  33.677  1.00  0.00     0.261 C 
BRANCH   4   5
ATOM      5  O   UNL A   1      40.558  30.347  32.496  1.00  0.00    -0.463 OA
BRANCH   5   6
ATOM      6  C   UNL A   1      39.876  29.179  32.419  1.00  0.00     0.311 C 
ATOM      7  O   UNL A   1      40.474  28.121  32.624  1.00  0.00    -0.252 OA
BRANCH   6   8
ATOM      8  C   UNL A   1      38.444  29.153  31.925  1.00  0.00     0.177 C 
BRANCH   8   9
ATOM      9  C   UNL A   1      38.157  29.677  30.547  1.00  0.00     0.034 A 
ATOM     10  C   UNL A   1      38.498  29.067  29.348  1.00  0.00     0.024 A 
ATOM     11  N   UNL A   1      37.581  30.903  30.240  1.00  0.00    -0.320 N 
ATOM     12  C   UNL A   1      38.195  29.961  28.302  1.00  0.00     0.020 A 
ATOM     13  C   UNL A   1      37.671  31.096  28.880  1.00  0.00     0.091 A 
BRANCH  11  14
ATOM     14  C   UNL A   1      37.191  31.891  31.164  1.00  0.00     0.049 A 
ATOM     15  C   UNL A   1      38.139  32.800  31.641  1.00  0.00     0.031 A 
ATOM     16  C   UNL A   1      35.822  32.082  31.384  1.00  0.00     0.077 A 
ATOM     17  C   UNL A   1      37.708  33.930  32.339  1.00  0.00     0.052 A 
ATOM     18  C   UNL A   1      35.406  33.266  31.980  1.00  0.00     0.163 A 
ATOM     19  C   UNL A   1      36.342  34.179  32.481  1.00  0.00     0.161 A 
ATOM     20  O   UNL A   1      34.057  33.524  31.960  1.00  0.00    -0.486 OA
ATOM     21  O   UNL A   1      35.995  35.371  33.064  1.00  0.00    -0.486 OA
ATOM     22  C   UNL A   1      33.842  34.942  31.986  1.00  0.00     0.271 C 
ATOM     23  C   UNL A   1      34.575  35.540  33.176  1.00  0.00     0.271 C 
ENDBRANCH  11  14
ENDBRANCH   8   9
ENDBRANCH   6   8
ENDBRANCH   5   6
ENDBRANCH   4   5
ENDBRANCH   3   4
ENDBRANCH   2   3
ENDBRANCH   1   2
BRANCH   1  24
ATOM     24  C   UNL A   1      44.097  28.833  36.597  1.00  0.00     0.261 C 
BRANCH  24  25
ATOM     25  O   UNL A   1      43.849  27.428  36.636  1.00  0.00    -0.460 OA
BRANCH  25  26
ATOM     26  C   UNL A   1      44.936  26.711  36.301  1.00  0.00     0.338 C 
ATOM     27  O   UNL A   1      45.997  26.638  36.921  1.00  0.00    -0.246 OA
BRANCH  26  28
ATOM     28  C   UNL A   1      44.782  26.060  35.010  1.00  0.00     0.060 A 
ATOM     29  C   UNL A   1      45.876  26.138  34.140  1.00  0.00     0.016 A 
ATOM     30  C   UNL A   1      43.479  25.827  34.563  1.00  0.00     0.016 A 
ATOM     31  C   UNL A   1      45.636  26.170  32.784  1.00  0.00     0.010 A 
ATOM     32  C   UNL A   1      43.237  25.896  33.205  1.00  0.00     0.010 A 
ATOM     33  C   UNL A   1      44.311  26.141  32.334  1.00  0.00    -0.014 A 
BRANCH  33  34
ATOM     34  C   UNL A   1      44.057  26.398  30.909  1.00  0.00     0.031 A 
ATOM     35  C   UNL A   1      43.748  27.865  30.626  1.00  0.00     0.074 A 
ATOM     36  C   UNL A   1      44.112  25.296  30.102  1.00  0.00     0.049 A 
ATOM     37  N   UNL A   1      43.176  28.420  29.603  1.00  0.00    -0.248 NA
ATOM     38  C   UNL A   1      44.060  28.867  31.684  1.00  0.00     0.031 C 
ATOM     39  C   UNL A   1      44.399  23.914  30.562  1.00  0.00     0.029 A 
ATOM     40  N   UNL A   1      43.934  25.098  28.752  1.00  0.00    -0.354 N 
ATOM     41  C   UNL A   1      43.274  29.813  29.784  1.00  0.00     0.074 A 
ATOM     42  C   UNL A   1      43.695  30.023  31.135  1.00  0.00     0.031 C 
ATOM     43  C   UNL A   1      44.306  23.033  29.542  1.00  0.00     0.029 A 
ATOM     44  C   UNL A   1      43.990  23.746  28.321  1.00  0.00     0.049 A 
ATOM     45  H   UNL A   1      43.778  25.843  28.127  1.00  0.00     0.167 HD
ATOM     46  C   UNL A   1      43.125  30.725  28.782  1.00  0.00     0.034 A 
ATOM     47  C   UNL A   1      43.770  23.232  27.073  1.00  0.00     0.034 A 
ATOM     48  C   UNL A   1      42.754  30.092  27.561  1.00  0.00     0.049 A 
ATOM     49  C   UNL A   1      43.595  24.411  26.206  1.00  0.00     0.074 A 
ATOM     50  C   UNL A   1      41.571  29.616  27.066  1.00  0.00     0.029 A 
ATOM     51  N   UNL A   1      43.766  29.689  26.724  1.00  0.00    -0.354 N 
ATOM     52  N   UNL A   1      44.550  25.206  25.833  1.00  0.00    -0.248 NA
ATOM     53  C   UNL A   1      42.239  24.787  25.792  1.00  0.00     0.031 C 
ATOM     54  C   UNL A   1      41.942  28.636  26.116  1.00  0.00     0.029 A 
ATOM     55  C   UNL A   1      43.337  28.557  26.069  1.00  0.00     0.049 A 
ATOM     56  H   UNL A   1      44.639  30.130  26.612  1.00  0.00     0.167 HD
ATOM     57  C   UNL A   1      43.881  26.324  25.395  1.00  0.00     0.074 A 
ATOM     58  C   UNL A   1      42.524  25.902  25.127  1.00  0.00     0.031 C 
ATOM     59  C   UNL A   1      44.335  27.564  25.714  1.00  0.00     0.034 A 
BRANCH  46  60
ATOM     60  C   UNL A   1      43.426  32.198  28.752  1.00  0.00     0.023 A 
ATOM     61  C   UNL A   1      44.396  32.639  27.822  1.00  0.00     0.031 A 
ATOM     62  C   UNL A   1      43.014  33.135  29.712  1.00  0.00     0.131 A 
ATOM     63  C   UNL A   1      44.954  33.923  27.895  1.00  0.00     0.055 A 
ATOM     64  C   UNL A   1      43.535  34.437  29.753  1.00  0.00     0.041 A 
ATOM     65  F   UNL A   1      42.159  32.808  30.692  1.00  0.00    -0.206 F 
ATOM     66  C   UNL A   1      44.526  34.830  28.857  1.00  0.00     0.022 A 
BRANCH  63  67
ATOM     67  S   UNL A   1      46.340  34.328  26.795  1.00  0.00     0.124 S 
ATOM     68  O   UNL A   1      45.716  35.197  25.804  1.00  0.00    -0.237 OA
ATOM     69  O   UNL A   1      47.273  34.975  27.712  1.00  0.00    -0.237 OA
ATOM     70  O   UNL A   1      46.766  33.022  26.294  1.00  0.00    -0.744 OA
ENDBRANCH  63  67
ENDBRANCH  46  60
BRANCH  47  71
ATOM     71  C   UNL A   1      43.620  21.872  26.417  1.00  0.00     0.023 A 
ATOM     72  C   UNL A   1      44.628  21.162  25.740  1.00  0.00     0.031 A 
ATOM     73  C   UNL A   1      42.371  21.183  26.513  1.00  0.00     0.131 A 
ATOM     74  C   UNL A   1      44.388  19.844  25.263  1.00  0.00     0.055 A 
ATOM     75  C   UNL A   1      42.158  19.867  26.095  1.00  0.00     0.041 A 
ATOM     76  F   UNL A   1      41.279  21.755  27.040  1.00  0.00    -0.206 F 
ATOM     77  C   UNL A   1      43.177  19.183  25.475  1.00  0.00     0.022 A 
BRANCH  74  78
ATOM     78  S   UNL A   1      45.664  18.908  24.366  1.00  0.00     0.124 S 
ATOM     79  O   UNL A   1      44.976  18.570  23.126  1.00  0.00    -0.237 OA
ATOM     80  O   UNL A   1      46.761  19.864  24.249  1.00  0.00    -0.237 OA
ATOM     81  O   UNL A   1      45.925  17.780  25.261  1.00  0.00    -0.744 OA
ENDBRANCH  74  78
ENDBRANCH  47  71
BRANCH  59  82
ATOM     82  C   UNL A   1      45.809  27.597  26.104  1.00  0.00     0.023 A 
ATOM     83  C   UNL A   1      46.197  27.451  27.448  1.00  0.00     0.031 A 
ATOM     84  C   UNL A   1      46.840  27.892  25.191  1.00  0.00     0.131 A 
ATOM     85  C   UNL A   1      47.546  27.608  27.828  1.00  0.00     0.055 A 
ATOM     86  C   UNL A   1      48.181  28.028  25.559  1.00  0.00     0.041 A 
ATOM     87  F   UNL A   1      46.578  28.061  23.896  1.00  0.00    -0.206 F 
ATOM     88  C   UNL A   1      48.540  27.890  26.889  1.00  0.00     0.022 A 
BRANCH  85  89
ATOM     89  S   UNL A   1      48.011  27.412  29.569  1.00  0.00     0.124 S 
ATOM     90  O   UNL A   1      49.453  27.621  29.540  1.00  0.00    -0.237 OA
ATOM     91  O   UNL A   1      47.227  28.455  30.225  1.00  0.00    -0.237 OA
ATOM     92  O   UNL A   1      47.589  26.046  29.883  1.00  0.00    -0.744 OA
ENDBRANCH  85  89
ENDBRANCH  59  82
ENDBRANCH  33  34
ENDBRANCH  26  28
ENDBRANCH  25  26
ENDBRANCH  24  25
ENDBRANCH   1  24
TORSDOF 19
ENDMDL
MODEL 3
REMARK VINA RESULT:      -8.7      4.587      7.509
REMARK SMILES O=C(Cc1cccn1-c1ccc2c(c1)OCCO2)OCCOCCOC(=O)c1ccc(-c2c3nc(c(-c4cc(S(=O)(=O)[O-])ccc4F)c4ccc([nH]4)c(-c4cc(S(=O)(=O)[O-])ccc4F)c4nc(c(-c5cc(S(=O)(=O)[O-])ccc5F)c5ccc2[nH]5)C=C4)C=C3)cc1
REMARK SMILES IDX 23 1 22 2 21 3 20 4 19 5 2 6 1 7 3 8 4 9 5 10 8 11 6 12 7 13
REMARK SMILES IDX 9 14 10 15 14 16 11 17 13 18 12 19 15 20 18 21 16 22 17 23
REMARK SMILES IDX 24 24 25 25 26 26 27 27 28 28 29 29 90 30 30 31 89 32 31 33
REMARK SMILES IDX 32 34 33 35 83 36 34 37 88 38 82 39 84 40 35 41 87 42 81 43
REMARK SMILES IDX 80 44 36 46 68 47 48 48 67 49 49 50 52 51 66 52 85 53 50 54
REMARK SMILES IDX 51 55 65 57 86 58 53 59 37 60 38 61 46 62 39 63 45 64 47 65
REMARK SMILES IDX 44 66 40 67 41 68 42 69 43 70 69 71 70 72 78 73 71 74 77 75
REMARK SMILES IDX 79 76 76 77 72 78 73 79 74 80 75 81 54 82 55 83 63 84 56 85
REMARK SMILES IDX 62 86 64 87 61 88 57 89 58 90 59 91 60 92
REMARK H PARENT 84 45 52 56
REMARK Flexibility Score: inf
ROOT
ATOM      1  C   UNL A   1      43.471  21.485  25.559  1.00  0.00     0.202 C 
ENDROOT
BRANCH   1   2
ATOM      2  O   UNL A   1      42.146  20.958  25.527  1.00  0.00    -0.374 OA
BRANCH   2   3
ATOM      3  C   UNL A   1      41.452  20.668  26.730  1.00  0.00     0.202 C 
BRANCH   3   4
ATOM      4  C   UNL A   1      40.429  21.668  27.257  1.00  0.00     0.261 C 
BRANCH   4   5
ATOM      5  O   UNL A   1      39.894  22.575  26.286  1.00  0.00    -0.463 OA
BRANCH   5   6
ATOM      6  C   UNL A   1      38.893  23.459  26.513  1.00  0.00     0.311 C 
ATOM      7  O   UNL A   1      38.865  24.072  27.582  1.00  0.00    -0.252 OA
BRANCH   6   8
ATOM      8  C   UNL A   1      37.732  23.575  25.547  1.00  0.00     0.177 C 
BRANCH   8   9
ATOM      9  C   UNL A   1      36.795  22.407  25.417  1.00  0.00     0.034 A 
ATOM     10  C   UNL A   1      37.156  21.079  25.241  1.00  0.00     0.024 A 
ATOM     11  N   UNL A   1      35.409  22.471  25.362  1.00  0.00    -0.320 N 
ATOM     12  C   UNL A   1      35.983  20.336  25.001  1.00  0.00     0.020 A 
ATOM     13  C   UNL A   1      34.929  21.221  25.040  1.00  0.00     0.091 A 
BRANCH  11  14
ATOM     14  C   UNL A   1      34.630  23.644  25.385  1.00  0.00     0.049 A 
ATOM     15  C   UNL A   1      34.778  24.589  24.367  1.00  0.00     0.031 A 
ATOM     16  C   UNL A   1      33.566  23.708  26.292  1.00  0.00     0.077 A 
ATOM     17  C   UNL A   1      33.833  25.609  24.243  1.00  0.00     0.052 A 
ATOM     18  C   UNL A   1      32.575  24.661  26.084  1.00  0.00     0.163 A 
ATOM     19  C   UNL A   1      32.716  25.628  25.080  1.00  0.00     0.161 A 
ATOM     20  O   UNL A   1      31.436  24.539  26.841  1.00  0.00    -0.486 OA
ATOM     21  O   UNL A   1      31.768  26.583  24.815  1.00  0.00    -0.486 OA
ATOM     22  C   UNL A   1      30.328  25.104  26.127  1.00  0.00     0.271 C 
ATOM     23  C   UNL A   1      30.663  26.532  25.727  1.00  0.00     0.271 C 
ENDBRANCH  11  14
ENDBRANCH   8   9
ENDBRANCH   6   8
ENDBRANCH   5   6
ENDBRANCH   4   5
ENDBRANCH   3   4
ENDBRANCH   2   3
ENDBRANCH   1   2
BRANCH   1  24
ATOM     24  C   UNL A   1      43.781  22.897  25.071  1.00  0.00     0.261 C 
BRANCH  24  25
ATOM     25  O   UNL A   1      44.927  23.494  25.675  1.00  0.00    -0.460 OA
BRANCH  25  26
ATOM     26  C   UNL A   1      44.714  23.810  26.965  1.00  0.00     0.338 C 
ATOM     27  O   UNL A   1      45.269  23.321  27.950  1.00  0.00    -0.246 OA
BRANCH  26  28
ATOM     28  C   UNL A   1      43.637  24.773  27.119  1.00  0.00     0.060 A 
ATOM     29  C   UNL A   1      43.961  26.112  26.875  1.00  0.00     0.016 A 
ATOM     30  C   UNL A   1      42.548  24.394  27.909  1.00  0.00     0.016 A 
ATOM     31  C   UNL A   1      43.298  27.090  27.584  1.00  0.00     0.010 A 
ATOM     32  C   UNL A   1      41.910  25.372  28.646  1.00  0.00     0.010 A 
ATOM     33  C   UNL A   1      42.341  26.702  28.530  1.00  0.00    -0.014 A 
BRANCH  33  34
ATOM     34  C   UNL A   1      41.803  27.731  29.432  1.00  0.00     0.031 A 
ATOM     35  C   UNL A   1      42.582  27.827  30.740  1.00  0.00     0.074 A 
ATOM     36  C   UNL A   1      40.701  28.392  28.966  1.00  0.00     0.049 A 
ATOM     37  N   UNL A   1      42.250  28.353  31.878  1.00  0.00    -0.248 NA
ATOM     38  C   UNL A   1      43.917  27.169  30.814  1.00  0.00     0.031 C 
ATOM     39  C   UNL A   1      40.043  28.141  27.658  1.00  0.00     0.029 A 
ATOM     40  N   UNL A   1      39.904  29.390  29.480  1.00  0.00    -0.354 N 
ATOM     41  C   UNL A   1      43.392  28.300  32.702  1.00  0.00     0.074 A 
ATOM     42  C   UNL A   1      44.331  27.441  32.049  1.00  0.00     0.031 C 
ATOM     43  C   UNL A   1      38.933  28.897  27.519  1.00  0.00     0.029 A 
ATOM     44  C   UNL A   1      38.775  29.736  28.690  1.00  0.00     0.049 A 
ATOM     45  H   UNL A   1      40.103  29.833  30.336  1.00  0.00     0.167 HD
ATOM     46  C   UNL A   1      43.561  29.061  33.820  1.00  0.00     0.034 A 
ATOM     47  C   UNL A   1      37.768  30.617  28.972  1.00  0.00     0.034 A 
ATOM     48  C   UNL A   1      42.395  29.830  34.100  1.00  0.00     0.049 A 
ATOM     49  C   UNL A   1      38.172  31.260  30.235  1.00  0.00     0.074 A 
ATOM     50  C   UNL A   1      41.194  29.543  34.690  1.00  0.00     0.029 A 
ATOM     51  N   UNL A   1      42.315  31.084  33.546  1.00  0.00    -0.354 N 
ATOM     52  N   UNL A   1      39.123  32.136  30.351  1.00  0.00    -0.248 NA
ATOM     53  C   UNL A   1      37.529  30.833  31.482  1.00  0.00     0.031 C 
ATOM     54  C   UNL A   1      40.296  30.505  34.173  1.00  0.00     0.029 A 
ATOM     55  C   UNL A   1      40.987  31.342  33.292  1.00  0.00     0.049 A 
ATOM     56  H   UNL A   1      43.070  31.689  33.364  1.00  0.00     0.167 HD
ATOM     57  C   UNL A   1      39.387  32.142  31.699  1.00  0.00     0.074 A 
ATOM     58  C   UNL A   1      38.224  31.572  32.341  1.00  0.00     0.031 C 
ATOM     59  C   UNL A   1      40.669  32.177  32.148  1.00  0.00     0.034 A 
BRANCH  46  60
ATOM     60  C   UNL A   1      44.785  29.300  34.660  1.00  0.00     0.023 A 
ATOM     61  C   UNL A   1      44.653  29.121  36.057  1.00  0.00     0.031 A 
ATOM     62  C   UNL A   1      45.971  29.908  34.221  1.00  0.00     0.131 A 
ATOM     63  C   UNL A   1      45.628  29.579  36.953  1.00  0.00     0.055 A 
ATOM     64  C   UNL A   1      46.971  30.320  35.114  1.00  0.00     0.041 A 
ATOM     65  F   UNL A   1      46.174  30.200  32.928  1.00  0.00    -0.206 F 
ATOM     66  C   UNL A   1      46.794  30.177  36.488  1.00  0.00     0.022 A 
BRANCH  63  67
ATOM     67  S   UNL A   1      45.278  29.498  38.732  1.00  0.00     0.124 S 
ATOM     68  O   UNL A   1      46.552  29.890  39.325  1.00  0.00    -0.237 OA
ATOM     69  O   UNL A   1      44.188  30.458  38.869  1.00  0.00    -0.237 OA
ATOM     70  O   UNL A   1      44.903  28.099  38.938  1.00  0.00    -0.744 OA
ENDBRANCH  63  67
ENDBRANCH  46  60
BRANCH  47  71
ATOM     71  C   UNL A   1      36.427  31.030  28.392  1.00  0.00     0.023 A 
ATOM     72  C   UNL A   1      35.440  30.164  27.890  1.00  0.00     0.031 A 
ATOM     73  C   UNL A   1      36.066  32.413  28.382  1.00  0.00     0.131 A 
ATOM     74  C   UNL A   1      34.177  30.671  27.475  1.00  0.00     0.055 A 
ATOM     75  C   UNL A   1      34.806  32.899  28.028  1.00  0.00     0.041 A 
ATOM     76  F   UNL A   1      36.927  33.378  28.734  1.00  0.00    -0.206 F 
ATOM     77  C   UNL A   1      33.845  32.023  27.581  1.00  0.00     0.022 A 
BRANCH  74  78
ATOM     78  S   UNL A   1      32.887  29.581  26.802  1.00  0.00     0.124 S 
ATOM     79  O   UNL A   1      33.272  29.486  25.398  1.00  0.00    -0.237 OA
ATOM     80  O   UNL A   1      33.035  28.360  27.589  1.00  0.00    -0.237 OA
ATOM     81  O   UNL A   1      31.660  30.334  27.061  1.00  0.00    -0.744 OA
ENDBRANCH  74  78
ENDBRANCH  47  71
BRANCH  59  82
ATOM     82  C   UNL A   1      41.664  32.704  31.119  1.00  0.00     0.023 A 
ATOM     83  C   UNL A   1      42.351  31.819  30.268  1.00  0.00     0.031 A 
ATOM     84  C   UNL A   1      42.045  34.057  31.041  1.00  0.00     0.131 A 
ATOM     85  C   UNL A   1      43.363  32.289  29.406  1.00  0.00     0.055 A 
ATOM     86  C   UNL A   1      43.033  34.531  30.174  1.00  0.00     0.041 A 
ATOM     87  F   UNL A   1      41.466  34.976  31.811  1.00  0.00    -0.206 F 
ATOM     88  C   UNL A   1      43.704  33.642  29.351  1.00  0.00     0.022 A 
BRANCH  85  89
ATOM     89  S   UNL A   1      44.226  31.120  28.323  1.00  0.00     0.124 S 
ATOM     90  O   UNL A   1      45.144  31.983  27.589  1.00  0.00    -0.237 OA
ATOM     91  O   UNL A   1      44.839  30.198  29.275  1.00  0.00    -0.237 OA
ATOM     92  O   UNL A   1      43.148  30.539  27.521  1.00  0.00    -0.744 OA
ENDBRANCH  85  89
ENDBRANCH  59  82
ENDBRANCH  33  34
ENDBRANCH  26  28
ENDBRANCH  25  26
ENDBRANCH  24  25
ENDBRANCH   1  24
TORSDOF 19
ENDMDL
