MODEL 1
REMARK VINA RESULT:      -7.7      0.000      0.000
REMARK SMILES CCCCCCNC(=O)Oc1cccc(-c2ccc(CC(=O)OCCOCCOC(=O)c3ccc(-c4c5nc(c(-c6cc(S(=O)(=O)[O-])ccc6F)c6ccc([nH]6)c(-c6cc(S(=O)(=O)[O-])ccc6F)c6nc(c(-c7cc(S(=O)(=O)[O-])ccc7F)c7ccc4[nH]7)C=C6)C=C5)cc3)cc2F)c1
REMARK SMILES IDX 23 1 21 2 22 3 20 4 19 5 16 6 17 7 96 8 18 9 95 10 97 11
REMARK SMILES IDX 15 12 11 13 12 14 98 15 13 16 14 17 10 18 8 19 7 20 9 22
REMARK SMILES IDX 6 23 5 24 4 25 3 26 2 27 1 28 24 29 25 30 26 31 27 32 28 33
REMARK SMILES IDX 29 34 30 35 31 36 32 37 33 38 94 39 34 40 93 41 35 42 36 43
REMARK SMILES IDX 37 44 87 45 38 46 92 47 86 48 88 49 39 50 91 51 85 52 84 53
REMARK SMILES IDX 40 55 72 56 52 57 71 58 53 59 56 60 70 61 89 62 54 63 55 64
REMARK SMILES IDX 69 66 90 67 57 68 41 69 42 70 50 71 43 72 49 73 51 74 48 75
REMARK SMILES IDX 44 76 45 77 46 78 47 79 73 80 74 81 82 82 75 83 81 84 83 85
REMARK SMILES IDX 80 86 76 87 77 88 78 89 79 90 58 91 59 92 67 93 60 94 66 95
REMARK SMILES IDX 68 96 65 97 61 98 62 99 63 100 64 101
REMARK H PARENT 7 21 88 54 56 65
REMARK Flexibility Score: inf
ROOT
ATOM      1  O   UNL A   1      41.299  24.313  27.058  1.00  0.00    -0.463 OA
ENDROOT
BRANCH   1   2
ATOM      2  C   UNL A   1      40.221  25.137  27.004  1.00  0.00     0.310 C 
ATOM      3  O   UNL A   1      39.061  24.763  26.854  1.00  0.00    -0.252 OA
BRANCH   2   4
ATOM      4  C   UNL A   1      40.566  26.606  27.074  1.00  0.00     0.158 C 
BRANCH   4   5
ATOM      5  C   UNL A   1      40.173  27.391  28.305  1.00  0.00    -0.034 A 
ATOM      6  C   UNL A   1      39.256  28.975  30.479  1.00  0.00     0.018 A 
ATOM      7  C   UNL A   1      38.832  27.646  30.329  1.00  0.00     0.012 A 
ATOM      8  C   UNL A   1      40.166  29.478  29.541  1.00  0.00     0.131 A 
ATOM      9  C   UNL A   1      39.274  26.870  29.248  1.00  0.00     0.005 A 
ATOM     10  C   UNL A   1      40.632  28.702  28.479  1.00  0.00     0.044 A 
ATOM     11  F   UNL A   1      40.591  30.748  29.631  1.00  0.00    -0.206 F 
BRANCH   6  12
ATOM     12  C   UNL A   1      38.723  29.822  31.551  1.00  0.00    -0.012 A 
ATOM     13  C   UNL A   1      37.449  31.761  32.265  1.00  0.00     0.133 A 
ATOM     14  C   UNL A   1      37.749  31.497  33.599  1.00  0.00     0.047 A 
ATOM     15  C   UNL A   1      37.940  30.946  31.244  1.00  0.00     0.056 A 
ATOM     16  C   UNL A   1      38.522  30.381  33.917  1.00  0.00     0.004 A 
ATOM     17  C   UNL A   1      39.001  29.546  32.901  1.00  0.00     0.009 A 
BRANCH  13  18
ATOM     18  O   UNL A   1      36.749  32.948  31.989  1.00  0.00    -0.410 OA
BRANCH  18  19
ATOM     19  C   UNL A   1      37.395  33.940  31.265  1.00  0.00     0.412 C 
ATOM     20  N   UNL A   1      36.743  34.276  30.109  1.00  0.00    -0.321 N 
ATOM     21  H   UNL A   1      37.166  34.971  29.554  1.00  0.00     0.167 HD
ATOM     22  O   UNL A   1      38.447  34.488  31.568  1.00  0.00    -0.224 OA
BRANCH  20  23
ATOM     23  C   UNL A   1      35.500  33.720  29.613  1.00  0.00     0.119 C 
BRANCH  23  24
ATOM     24  C   UNL A   1      35.693  32.968  28.295  1.00  0.00     0.021 C 
BRANCH  24  25
ATOM     25  C   UNL A   1      34.554  32.010  27.921  1.00  0.00     0.002 C 
BRANCH  25  26
ATOM     26  C   UNL A   1      34.859  30.518  28.089  1.00  0.00    -0.000 C 
BRANCH  26  27
ATOM     27  C   UNL A   1      36.296  30.178  28.489  1.00  0.00    -0.003 C 
ATOM     28  C   UNL A   1      37.150  29.701  27.324  1.00  0.00     0.004 C 
ENDBRANCH  26  27
ENDBRANCH  25  26
ENDBRANCH  24  25
ENDBRANCH  23  24
ENDBRANCH  20  23
ENDBRANCH  18  19
ENDBRANCH  13  18
ENDBRANCH   6  12
ENDBRANCH   4   5
ENDBRANCH   2   4
ENDBRANCH   1   2
BRANCH   1  29
ATOM     29  C   UNL A   1      41.083  22.964  26.598  1.00  0.00     0.261 C 
BRANCH  29  30
ATOM     30  C   UNL A   1      42.398  22.212  26.366  1.00  0.00     0.202 C 
BRANCH  30  31
ATOM     31  O   UNL A   1      42.869  22.173  25.017  1.00  0.00    -0.374 OA
BRANCH  31  32
ATOM     32  C   UNL A   1      43.729  23.236  24.610  1.00  0.00     0.202 C 
BRANCH  32  33
ATOM     33  C   UNL A   1      45.226  23.052  24.883  1.00  0.00     0.261 C 
BRANCH  33  34
ATOM     34  O   UNL A   1      45.719  23.981  25.863  1.00  0.00    -0.460 OA
BRANCH  34  35
ATOM     35  C   UNL A   1      46.086  25.186  25.357  1.00  0.00     0.338 C 
ATOM     36  O   UNL A   1      46.652  25.389  24.296  1.00  0.00    -0.246 OA
BRANCH  35  37
ATOM     37  C   UNL A   1      45.542  26.280  26.189  1.00  0.00     0.060 A 
ATOM     38  C   UNL A   1      46.446  26.960  27.015  1.00  0.00     0.016 A 
ATOM     39  C   UNL A   1      44.182  26.600  26.214  1.00  0.00     0.016 A 
ATOM     40  C   UNL A   1      45.987  27.918  27.916  1.00  0.00     0.010 A 
ATOM     41  C   UNL A   1      43.721  27.560  27.124  1.00  0.00     0.010 A 
ATOM     42  C   UNL A   1      44.617  28.193  28.006  1.00  0.00    -0.014 A 
BRANCH  42  43
ATOM     43  C   UNL A   1      44.118  29.018  29.134  1.00  0.00     0.031 A 
ATOM     44  C   UNL A   1      43.966  30.501  28.936  1.00  0.00     0.074 A 
ATOM     45  C   UNL A   1      43.770  28.451  30.303  1.00  0.00     0.049 A 
ATOM     46  N   UNL A   1      43.552  31.416  29.774  1.00  0.00    -0.248 NA
ATOM     47  C   UNL A   1      44.344  31.019  27.614  1.00  0.00     0.031 C 
ATOM     48  C   UNL A   1      43.851  27.023  30.600  1.00  0.00     0.029 A 
ATOM     49  N   UNL A   1      43.290  29.012  31.458  1.00  0.00    -0.354 N 
ATOM     50  C   UNL A   1      43.622  32.622  29.083  1.00  0.00     0.074 A 
ATOM     51  C   UNL A   1      44.163  32.321  27.773  1.00  0.00     0.031 C 
ATOM     52  C   UNL A   1      43.454  26.821  31.869  1.00  0.00     0.029 A 
ATOM     53  C   UNL A   1      43.118  28.107  32.478  1.00  0.00     0.049 A 
ATOM     54  H   UNL A   1      43.088  29.971  31.549  1.00  0.00     0.167 HD
ATOM     55  C   UNL A   1      43.259  33.861  29.499  1.00  0.00     0.034 A 
ATOM     56  C   UNL A   1      42.760  28.298  33.762  1.00  0.00     0.034 A 
ATOM     57  C   UNL A   1      42.739  34.142  30.816  1.00  0.00     0.049 A 
ATOM     58  C   UNL A   1      42.422  29.690  34.232  1.00  0.00     0.074 A 
ATOM     59  C   UNL A   1      42.303  35.349  31.334  1.00  0.00     0.029 A 
ATOM     60  N   UNL A   1      42.608  33.204  31.835  1.00  0.00    -0.354 N 
ATOM     61  N   UNL A   1      42.452  30.819  33.559  1.00  0.00    -0.248 NA
ATOM     62  C   UNL A   1      41.991  29.834  35.627  1.00  0.00     0.031 C 
ATOM     63  C   UNL A   1      41.982  35.157  32.683  1.00  0.00     0.029 A 
ATOM     64  C   UNL A   1      42.140  33.814  32.990  1.00  0.00     0.049 A 
ATOM     65  H   UNL A   1      42.817  32.246  31.748  1.00  0.00     0.167 HD
ATOM     66  C   UNL A   1      42.025  31.803  34.446  1.00  0.00     0.074 A 
ATOM     67  C   UNL A   1      41.733  31.132  35.698  1.00  0.00     0.031 C 
ATOM     68  C   UNL A   1      41.879  33.138  34.242  1.00  0.00     0.034 A 
BRANCH  55  69
ATOM     69  C   UNL A   1      43.479  35.002  28.531  1.00  0.00     0.023 A 
ATOM     70  C   UNL A   1      44.765  35.500  28.250  1.00  0.00     0.031 A 
ATOM     71  C   UNL A   1      42.381  35.648  27.936  1.00  0.00     0.131 A 
ATOM     72  C   UNL A   1      44.913  36.666  27.482  1.00  0.00     0.055 A 
ATOM     73  C   UNL A   1      42.543  36.755  27.098  1.00  0.00     0.041 A 
ATOM     74  F   UNL A   1      41.128  35.235  28.180  1.00  0.00    -0.206 F 
ATOM     75  C   UNL A   1      43.812  37.283  26.885  1.00  0.00     0.022 A 
BRANCH  72  76
ATOM     76  S   UNL A   1      46.540  37.467  27.431  1.00  0.00     0.124 S 
ATOM     77  O   UNL A   1      47.209  36.854  28.576  1.00  0.00    -0.237 OA
ATOM     78  O   UNL A   1      47.040  37.081  26.117  1.00  0.00    -0.237 OA
ATOM     79  O   UNL A   1      46.227  38.886  27.590  1.00  0.00    -0.744 OA
ENDBRANCH  72  76
ENDBRANCH  55  69
BRANCH  56  80
ATOM     80  C   UNL A   1      42.751  27.144  34.704  1.00  0.00     0.023 A 
ATOM     81  C   UNL A   1      43.907  26.741  35.389  1.00  0.00     0.031 A 
ATOM     82  C   UNL A   1      41.562  26.424  34.930  1.00  0.00     0.131 A 
ATOM     83  C   UNL A   1      43.855  25.636  36.253  1.00  0.00     0.055 A 
ATOM     84  C   UNL A   1      41.507  25.352  35.820  1.00  0.00     0.041 A 
ATOM     85  F   UNL A   1      40.429  26.774  34.302  1.00  0.00    -0.206 F 
ATOM     86  C   UNL A   1      42.661  24.948  36.484  1.00  0.00     0.022 A 
BRANCH  83  87
ATOM     87  S   UNL A   1      45.385  25.084  37.057  1.00  0.00     0.124 S 
ATOM     88  O   UNL A   1      44.904  24.697  38.379  1.00  0.00    -0.237 OA
ATOM     89  O   UNL A   1      45.811  23.994  36.186  1.00  0.00    -0.237 OA
ATOM     90  O   UNL A   1      46.235  26.271  37.024  1.00  0.00    -0.744 OA
ENDBRANCH  83  87
ENDBRANCH  56  80
BRANCH  68  91
ATOM     91  C   UNL A   1      41.351  33.957  35.395  1.00  0.00     0.023 A 
ATOM     92  C   UNL A   1      42.189  34.412  36.427  1.00  0.00     0.031 A 
ATOM     93  C   UNL A   1      39.984  34.286  35.459  1.00  0.00     0.131 A 
ATOM     94  C   UNL A   1      41.646  35.132  37.502  1.00  0.00     0.055 A 
ATOM     95  C   UNL A   1      39.460  35.050  36.503  1.00  0.00     0.041 A 
ATOM     96  F   UNL A   1      39.136  33.875  34.502  1.00  0.00    -0.206 F 
ATOM     97  C   UNL A   1      40.291  35.468  37.538  1.00  0.00     0.022 A 
BRANCH  94  98
ATOM     98  S   UNL A   1      42.722  35.558  38.900  1.00  0.00     0.124 S 
ATOM     99  O   UNL A   1      42.966  34.253  39.504  1.00  0.00    -0.237 OA
ATOM    100  O   UNL A   1      43.864  36.180  38.239  1.00  0.00    -0.237 OA
ATOM    101  O   UNL A   1      41.901  36.466  39.700  1.00  0.00    -0.744 OA
ENDBRANCH  94  98
ENDBRANCH  68  91
ENDBRANCH  42  43
ENDBRANCH  35  37
ENDBRANCH  34  35
ENDBRANCH  33  34
ENDBRANCH  32  33
ENDBRANCH  31  32
ENDBRANCH  30  31
ENDBRANCH  29  30
ENDBRANCH   1  29
TORSDOF 26
ENDMDL
MODEL 2
REMARK VINA RESULT:      -7.6      5.066      8.694
REMARK SMILES CCCCCCNC(=O)Oc1cccc(-c2ccc(CC(=O)OCCOCCOC(=O)c3ccc(-c4c5nc(c(-c6cc(S(=O)(=O)[O-])ccc6F)c6ccc([nH]6)c(-c6cc(S(=O)(=O)[O-])ccc6F)c6nc(c(-c7cc(S(=O)(=O)[O-])ccc7F)c7ccc4[nH]7)C=C6)C=C5)cc3)cc2F)c1
REMARK SMILES IDX 23 1 21 2 22 3 20 4 19 5 16 6 17 7 96 8 18 9 95 10 97 11
REMARK SMILES IDX 15 12 11 13 12 14 98 15 13 16 14 17 10 18 8 19 7 20 9 22
REMARK SMILES IDX 6 23 5 24 4 25 3 26 2 27 1 28 24 29 25 30 26 31 27 32 28 33
REMARK SMILES IDX 29 34 30 35 31 36 32 37 33 38 94 39 34 40 93 41 35 42 36 43
REMARK SMILES IDX 37 44 87 45 38 46 92 47 86 48 88 49 39 50 91 51 85 52 84 53
REMARK SMILES IDX 40 55 72 56 52 57 71 58 53 59 56 60 70 61 89 62 54 63 55 64
REMARK SMILES IDX 69 66 90 67 57 68 41 69 42 70 50 71 43 72 49 73 51 74 48 75
REMARK SMILES IDX 44 76 45 77 46 78 47 79 73 80 74 81 82 82 75 83 81 84 83 85
REMARK SMILES IDX 80 86 76 87 77 88 78 89 79 90 58 91 59 92 67 93 60 94 66 95
REMARK SMILES IDX 68 96 65 97 61 98 62 99 63 100 64 101
REMARK H PARENT 7 21 88 54 56 65
REMARK Flexibility Score: inf
ROOT
ATOM      1  O   UNL A   1      35.198  20.726  25.427  1.00  0.00    -0.463 OA
ENDROOT
BRANCH   1   2
ATOM      2  C   UNL A   1      34.074  20.951  26.156  1.00  0.00     0.310 C 
ATOM      3  O   UNL A   1      34.060  21.227  27.353  1.00  0.00    -0.252 OA
BRANCH   2   4
ATOM      4  C   UNL A   1      32.791  20.766  25.381  1.00  0.00     0.158 C 
BRANCH   4   5
ATOM      5  C   UNL A   1      32.030  21.989  24.923  1.00  0.00    -0.034 A 
ATOM      6  C   UNL A   1      30.786  24.427  24.160  1.00  0.00     0.018 A 
ATOM      7  C   UNL A   1      31.554  23.695  23.243  1.00  0.00     0.012 A 
ATOM      8  C   UNL A   1      30.630  23.899  25.448  1.00  0.00     0.131 A 
ATOM      9  C   UNL A   1      32.180  22.499  23.625  1.00  0.00     0.005 A 
ATOM     10  C   UNL A   1      31.226  22.696  25.826  1.00  0.00     0.044 A 
ATOM     11  F   UNL A   1      29.918  24.569  26.367  1.00  0.00    -0.206 F 
BRANCH   6  12
ATOM     12  C   UNL A   1      30.210  25.726  23.796  1.00  0.00    -0.012 A 
ATOM     13  C   UNL A   1      30.488  28.006  23.010  1.00  0.00     0.133 A 
ATOM     14  C   UNL A   1      29.124  28.249  23.158  1.00  0.00     0.047 A 
ATOM     15  C   UNL A   1      31.036  26.765  23.338  1.00  0.00     0.056 A 
ATOM     16  C   UNL A   1      28.293  27.224  23.607  1.00  0.00     0.004 A 
ATOM     17  C   UNL A   1      28.831  25.970  23.918  1.00  0.00     0.009 A 
BRANCH  13  18
ATOM     18  O   UNL A   1      31.296  29.096  22.646  1.00  0.00    -0.410 OA
BRANCH  18  19
ATOM     19  C   UNL A   1      32.571  29.179  23.189  1.00  0.00     0.412 C 
ATOM     20  N   UNL A   1      32.598  29.790  24.414  1.00  0.00    -0.321 N 
ATOM     21  H   UNL A   1      33.481  29.881  24.839  1.00  0.00     0.167 HD
ATOM     22  O   UNL A   1      33.606  28.779  22.671  1.00  0.00    -0.224 OA
BRANCH  20  23
ATOM     23  C   UNL A   1      31.468  30.317  25.152  1.00  0.00     0.119 C 
BRANCH  23  24
ATOM     24  C   UNL A   1      31.686  30.247  26.665  1.00  0.00     0.021 C 
BRANCH  24  25
ATOM     25  C   UNL A   1      32.615  29.120  27.135  1.00  0.00     0.002 C 
BRANCH  25  26
ATOM     26  C   UNL A   1      31.937  27.776  27.423  1.00  0.00    -0.000 C 
BRANCH  26  27
ATOM     27  C   UNL A   1      32.472  26.583  26.629  1.00  0.00    -0.003 C 
ATOM     28  C   UNL A   1      33.793  26.866  25.930  1.00  0.00     0.004 C 
ENDBRANCH  26  27
ENDBRANCH  25  26
ENDBRANCH  24  25
ENDBRANCH  23  24
ENDBRANCH  20  23
ENDBRANCH  18  19
ENDBRANCH  13  18
ENDBRANCH   6  12
ENDBRANCH   4   5
ENDBRANCH   2   4
ENDBRANCH   1   2
BRANCH   1  29
ATOM     29  C   UNL A   1      36.197  21.764  25.475  1.00  0.00     0.261 C 
BRANCH  29  30
ATOM     30  C   UNL A   1      37.572  21.268  25.017  1.00  0.00     0.202 C 
BRANCH  30  31
ATOM     31  O   UNL A   1      38.696  22.019  25.478  1.00  0.00    -0.374 OA
BRANCH  31  32
ATOM     32  C   UNL A   1      39.692  21.299  26.204  1.00  0.00     0.202 C 
BRANCH  32  33
ATOM     33  C   UNL A   1      40.969  22.066  26.563  1.00  0.00     0.261 C 
BRANCH  33  34
ATOM     34  O   UNL A   1      41.762  22.376  25.404  1.00  0.00    -0.460 OA
BRANCH  34  35
ATOM     35  C   UNL A   1      43.098  22.433  25.638  1.00  0.00     0.338 C 
ATOM     36  O   UNL A   1      43.916  21.559  25.404  1.00  0.00    -0.246 OA
BRANCH  35  37
ATOM     37  C   UNL A   1      43.490  23.794  26.059  1.00  0.00     0.060 A 
ATOM     38  C   UNL A   1      43.973  23.941  27.365  1.00  0.00     0.016 A 
ATOM     39  C   UNL A   1      43.338  24.910  25.231  1.00  0.00     0.016 A 
ATOM     40  C   UNL A   1      44.245  25.209  27.873  1.00  0.00     0.010 A 
ATOM     41  C   UNL A   1      43.606  26.185  25.744  1.00  0.00     0.010 A 
ATOM     42  C   UNL A   1      44.022  26.342  27.079  1.00  0.00    -0.014 A 
BRANCH  42  43
ATOM     43  C   UNL A   1      44.069  27.685  27.708  1.00  0.00     0.031 A 
ATOM     44  C   UNL A   1      42.796  28.282  28.243  1.00  0.00     0.074 A 
ATOM     45  C   UNL A   1      45.233  28.346  27.835  1.00  0.00     0.049 A 
ATOM     46  N   UNL A   1      42.597  29.434  28.829  1.00  0.00    -0.248 NA
ATOM     47  C   UNL A   1      41.583  27.468  28.082  1.00  0.00     0.031 C 
ATOM     48  C   UNL A   1      46.532  27.857  27.378  1.00  0.00     0.029 A 
ATOM     49  N   UNL A   1      45.506  29.576  28.378  1.00  0.00    -0.354 N 
ATOM     50  C   UNL A   1      41.234  29.487  29.106  1.00  0.00     0.074 A 
ATOM     51  C   UNL A   1      40.654  28.269  28.579  1.00  0.00     0.031 C 
ATOM     52  C   UNL A   1      47.464  28.790  27.639  1.00  0.00     0.029 A 
ATOM     53  C   UNL A   1      46.823  29.950  28.257  1.00  0.00     0.049 A 
ATOM     54  H   UNL A   1      44.824  30.138  28.811  1.00  0.00     0.167 HD
ATOM     55  C   UNL A   1      40.536  30.457  29.748  1.00  0.00     0.034 A 
ATOM     56  C   UNL A   1      47.435  31.105  28.581  1.00  0.00     0.034 A 
ATOM     57  C   UNL A   1      41.132  31.673  30.248  1.00  0.00     0.049 A 
ATOM     58  C   UNL A   1      46.634  32.203  29.234  1.00  0.00     0.074 A 
ATOM     59  C   UNL A   1      40.531  32.706  30.948  1.00  0.00     0.029 A 
ATOM     60  N   UNL A   1      42.464  32.032  30.080  1.00  0.00    -0.354 N 
ATOM     61  N   UNL A   1      45.353  32.227  29.529  1.00  0.00    -0.248 NA
ATOM     62  C   UNL A   1      47.361  33.422  29.610  1.00  0.00     0.031 C 
ATOM     63  C   UNL A   1      41.479  33.719  31.134  1.00  0.00     0.029 A 
ATOM     64  C   UNL A   1      42.694  33.289  30.623  1.00  0.00     0.049 A 
ATOM     65  H   UNL A   1      43.147  31.476  29.640  1.00  0.00     0.167 HD
ATOM     66  C   UNL A   1      45.127  33.457  30.142  1.00  0.00     0.074 A 
ATOM     67  C   UNL A   1      46.406  34.139  30.184  1.00  0.00     0.031 C 
ATOM     68  C   UNL A   1      43.970  33.971  30.634  1.00  0.00     0.034 A 
BRANCH  55  69
ATOM     69  C   UNL A   1      39.043  30.255  29.878  1.00  0.00     0.023 A 
ATOM     70  C   UNL A   1      38.125  30.960  29.079  1.00  0.00     0.031 A 
ATOM     71  C   UNL A   1      38.528  29.398  30.867  1.00  0.00     0.131 A 
ATOM     72  C   UNL A   1      36.750  30.873  29.346  1.00  0.00     0.055 A 
ATOM     73  C   UNL A   1      37.153  29.248  31.069  1.00  0.00     0.041 A 
ATOM     74  F   UNL A   1      39.350  28.714  31.677  1.00  0.00    -0.206 F 
ATOM     75  C   UNL A   1      36.256  30.004  30.321  1.00  0.00     0.022 A 
BRANCH  72  76
ATOM     76  S   UNL A   1      35.634  32.050  28.532  1.00  0.00     0.124 S 
ATOM     77  O   UNL A   1      36.553  33.126  28.166  1.00  0.00    -0.237 OA
ATOM     78  O   UNL A   1      35.099  31.263  27.427  1.00  0.00    -0.237 OA
ATOM     79  O   UNL A   1      34.674  32.392  29.579  1.00  0.00    -0.744 OA
ENDBRANCH  72  76
ENDBRANCH  55  69
BRANCH  56  80
ATOM     80  C   UNL A   1      48.873  31.297  28.244  1.00  0.00     0.023 A 
ATOM     81  C   UNL A   1      49.278  32.087  27.157  1.00  0.00     0.031 A 
ATOM     82  C   UNL A   1      49.871  30.680  29.022  1.00  0.00     0.131 A 
ATOM     83  C   UNL A   1      50.645  32.224  26.867  1.00  0.00     0.055 A 
ATOM     84  C   UNL A   1      51.228  30.852  28.754  1.00  0.00     0.041 A 
ATOM     85  F   UNL A   1      49.533  29.919  30.075  1.00  0.00    -0.206 F 
ATOM     86  C   UNL A   1      51.622  31.624  27.666  1.00  0.00     0.022 A 
BRANCH  83  87
ATOM     87  S   UNL A   1      51.135  33.180  25.405  1.00  0.00     0.124 S 
ATOM     88  O   UNL A   1      52.258  33.955  25.919  1.00  0.00    -0.237 OA
ATOM     89  O   UNL A   1      51.466  32.127  24.450  1.00  0.00    -0.237 OA
ATOM     90  O   UNL A   1      49.937  33.951  25.084  1.00  0.00    -0.744 OA
ENDBRANCH  83  87
ENDBRANCH  56  80
BRANCH  68  91
ATOM     91  C   UNL A   1      44.044  35.329  31.288  1.00  0.00     0.023 A 
ATOM     92  C   UNL A   1      43.917  36.517  30.547  1.00  0.00     0.031 A 
ATOM     93  C   UNL A   1      44.243  35.434  32.677  1.00  0.00     0.131 A 
ATOM     94  C   UNL A   1      44.037  37.759  31.191  1.00  0.00     0.055 A 
ATOM     95  C   UNL A   1      44.306  36.671  33.320  1.00  0.00     0.041 A 
ATOM     96  F   UNL A   1      44.373  34.332  33.434  1.00  0.00    -0.206 F 
ATOM     97  C   UNL A   1      44.214  37.843  32.574  1.00  0.00     0.022 A 
BRANCH  94  98
ATOM     98  S   UNL A   1      44.040  39.268  30.185  1.00  0.00     0.124 S 
ATOM     99  O   UNL A   1      45.438  39.679  30.256  1.00  0.00    -0.237 OA
ATOM    100  O   UNL A   1      43.583  38.781  28.888  1.00  0.00    -0.237 OA
ATOM    101  O   UNL A   1      43.100  40.146  30.881  1.00  0.00    -0.744 OA
ENDBRANCH  94  98
ENDBRANCH  68  91
ENDBRANCH  42  43
ENDBRANCH  35  37
ENDBRANCH  34  35
ENDBRANCH  33  34
ENDBRANCH  32  33
ENDBRANCH  31  32
ENDBRANCH  30  31
ENDBRANCH  29  30
ENDBRANCH   1  29
TORSDOF 26
ENDMDL
MODEL 3
REMARK VINA RESULT:      -7.5      4.782     10.325
REMARK SMILES CCCCCCNC(=O)Oc1cccc(-c2ccc(CC(=O)OCCOCCOC(=O)c3ccc(-c4c5nc(c(-c6cc(S(=O)(=O)[O-])ccc6F)c6ccc([nH]6)c(-c6cc(S(=O)(=O)[O-])ccc6F)c6nc(c(-c7cc(S(=O)(=O)[O-])ccc7F)c7ccc4[nH]7)C=C6)C=C5)cc3)cc2F)c1
REMARK SMILES IDX 23 1 21 2 22 3 20 4 19 5 16 6 17 7 96 8 18 9 95 10 97 11
REMARK SMILES IDX 15 12 11 13 12 14 98 15 13 16 14 17 10 18 8 19 7 20 9 22
REMARK SMILES IDX 6 23 5 24 4 25 3 26 2 27 1 28 24 29 25 30 26 31 27 32 28 33
REMARK SMILES IDX 29 34 30 35 31 36 32 37 33 38 94 39 34 40 93 41 35 42 36 43
REMARK SMILES IDX 37 44 87 45 38 46 92 47 86 48 88 49 39 50 91 51 85 52 84 53
REMARK SMILES IDX 40 55 72 56 52 57 71 58 53 59 56 60 70 61 89 62 54 63 55 64
REMARK SMILES IDX 69 66 90 67 57 68 41 69 42 70 50 71 43 72 49 73 51 74 48 75
REMARK SMILES IDX 44 76 45 77 46 78 47 79 73 80 74 81 82 82 75 83 81 84 83 85
REMARK SMILES IDX 80 86 76 87 77 88 78 89 79 90 58 91 59 92 67 93 60 94 66 95
REMARK SMILES IDX 68 96 65 97 61 98 62 99 63 100 64 101
REMARK H PARENT 7 21 88 54 56 65
REMARK Flexibility Score: inf
ROOT
ATOM      1  O   UNL A   1      33.805  34.705  28.215  1.00  0.00    -0.463 OA
ENDROOT
BRANCH   1   2
ATOM      2  C   UNL A   1      34.670  33.681  27.998  1.00  0.00     0.310 C 
ATOM      3  O   UNL A   1      35.646  33.735  27.254  1.00  0.00    -0.252 OA
BRANCH   2   4
ATOM      4  C   UNL A   1      34.298  32.401  28.709  1.00  0.00     0.158 C 
BRANCH   4   5
ATOM      5  C   UNL A   1      33.965  31.178  27.887  1.00  0.00    -0.034 A 
ATOM      6  C   UNL A   1      33.421  29.004  26.139  1.00  0.00     0.018 A 
ATOM      7  C   UNL A   1      34.610  29.048  26.883  1.00  0.00     0.012 A 
ATOM      8  C   UNL A   1      32.505  30.049  26.313  1.00  0.00     0.131 A 
ATOM      9  C   UNL A   1      34.884  30.128  27.734  1.00  0.00     0.005 A 
ATOM     10  C   UNL A   1      32.759  31.112  27.179  1.00  0.00     0.044 A 
ATOM     11  F   UNL A   1      31.361  30.062  25.612  1.00  0.00    -0.206 F 
BRANCH   6  12
ATOM     12  C   UNL A   1      33.172  27.927  25.175  1.00  0.00    -0.012 A 
ATOM     13  C   UNL A   1      32.099  25.828  24.594  1.00  0.00     0.133 A 
ATOM     14  C   UNL A   1      32.739  25.816  23.358  1.00  0.00     0.047 A 
ATOM     15  C   UNL A   1      32.320  26.861  25.506  1.00  0.00     0.056 A 
ATOM     16  C   UNL A   1      33.584  26.870  23.015  1.00  0.00     0.004 A 
ATOM     17  C   UNL A   1      33.795  27.921  23.915  1.00  0.00     0.009 A 
BRANCH  13  18
ATOM     18  O   UNL A   1      31.334  24.699  24.931  1.00  0.00    -0.410 OA
BRANCH  18  19
ATOM     19  C   UNL A   1      31.545  24.106  26.168  1.00  0.00     0.412 C 
ATOM     20  N   UNL A   1      32.240  22.929  26.091  1.00  0.00    -0.321 N 
ATOM     21  H   UNL A   1      32.409  22.463  26.942  1.00  0.00     0.167 HD
ATOM     22  O   UNL A   1      31.166  24.534  27.250  1.00  0.00    -0.224 OA
BRANCH  20  23
ATOM     23  C   UNL A   1      32.751  22.292  24.893  1.00  0.00     0.119 C 
BRANCH  23  24
ATOM     24  C   UNL A   1      32.164  20.894  24.690  1.00  0.00     0.021 C 
BRANCH  24  25
ATOM     25  C   UNL A   1      33.127  19.736  24.979  1.00  0.00     0.002 C 
BRANCH  25  26
ATOM     26  C   UNL A   1      32.724  18.376  24.399  1.00  0.00    -0.000 C 
BRANCH  26  27
ATOM     27  C   UNL A   1      33.800  17.289  24.457  1.00  0.00    -0.003 C 
ATOM     28  C   UNL A   1      34.018  16.584  23.127  1.00  0.00     0.004 C 
ENDBRANCH  26  27
ENDBRANCH  25  26
ENDBRANCH  24  25
ENDBRANCH  23  24
ENDBRANCH  20  23
ENDBRANCH  18  19
ENDBRANCH  13  18
ENDBRANCH   6  12
ENDBRANCH   4   5
ENDBRANCH   2   4
ENDBRANCH   1   2
BRANCH   1  29
ATOM     29  C   UNL A   1      33.115  34.689  29.481  1.00  0.00     0.261 C 
BRANCH  29  30
ATOM     30  C   UNL A   1      33.291  35.999  30.255  1.00  0.00     0.202 C 
BRANCH  30  31
ATOM     31  O   UNL A   1      32.390  36.210  31.343  1.00  0.00    -0.374 OA
BRANCH  31  32
ATOM     32  C   UNL A   1      32.975  36.492  32.614  1.00  0.00     0.202 C 
BRANCH  32  33
ATOM     33  C   UNL A   1      34.402  35.978  32.841  1.00  0.00     0.261 C 
BRANCH  33  34
ATOM     34  O   UNL A   1      34.440  34.854  33.736  1.00  0.00    -0.460 OA
BRANCH  34  35
ATOM     35  C   UNL A   1      34.296  33.649  33.129  1.00  0.00     0.338 C 
ATOM     36  O   UNL A   1      33.248  33.062  32.913  1.00  0.00    -0.246 OA
BRANCH  35  37
ATOM     37  C   UNL A   1      35.589  33.192  32.576  1.00  0.00     0.060 A 
ATOM     38  C   UNL A   1      36.365  32.354  33.386  1.00  0.00     0.016 A 
ATOM     39  C   UNL A   1      36.065  33.614  31.332  1.00  0.00     0.016 A 
ATOM     40  C   UNL A   1      37.647  31.984  32.986  1.00  0.00     0.010 A 
ATOM     41  C   UNL A   1      37.356  33.246  30.933  1.00  0.00     0.010 A 
ATOM     42  C   UNL A   1      38.166  32.464  31.777  1.00  0.00    -0.014 A 
BRANCH  42  43
ATOM     43  C   UNL A   1      39.609  32.275  31.485  1.00  0.00     0.031 A 
ATOM     44  C   UNL A   1      40.601  33.238  32.079  1.00  0.00     0.074 A 
ATOM     45  C   UNL A   1      40.032  31.243  30.735  1.00  0.00     0.049 A 
ATOM     46  N   UNL A   1      41.903  33.270  31.963  1.00  0.00    -0.248 NA
ATOM     47  C   UNL A   1      40.041  34.314  32.908  1.00  0.00     0.031 C 
ATOM     48  C   UNL A   1      39.166  30.234  30.129  1.00  0.00     0.029 A 
ATOM     49  N   UNL A   1      41.298  30.880  30.349  1.00  0.00    -0.354 N 
ATOM     50  C   UNL A   1      42.322  34.373  32.702  1.00  0.00     0.074 A 
ATOM     51  C   UNL A   1      41.127  35.005  33.221  1.00  0.00     0.031 C 
ATOM     52  C   UNL A   1      39.925  29.377  29.425  1.00  0.00     0.029 A 
ATOM     53  C   UNL A   1      41.324  29.792  29.511  1.00  0.00     0.049 A 
ATOM     54  H   UNL A   1      42.108  31.355  30.643  1.00  0.00     0.167 HD
ATOM     55  C   UNL A   1      43.585  34.810  32.933  1.00  0.00     0.034 A 
ATOM     56  C   UNL A   1      42.356  29.214  28.865  1.00  0.00     0.034 A 
ATOM     57  C   UNL A   1      44.762  34.175  32.390  1.00  0.00     0.049 A 
ATOM     58  C   UNL A   1      43.749  29.750  29.077  1.00  0.00     0.074 A 
ATOM     59  C   UNL A   1      46.092  34.506  32.587  1.00  0.00     0.029 A 
ATOM     60  N   UNL A   1      44.750  33.092  31.518  1.00  0.00    -0.354 N 
ATOM     61  N   UNL A   1      44.139  30.768  29.811  1.00  0.00    -0.248 NA
ATOM     62  C   UNL A   1      44.841  29.053  28.387  1.00  0.00     0.031 C 
ATOM     63  C   UNL A   1      46.876  33.674  31.779  1.00  0.00     0.029 A 
ATOM     64  C   UNL A   1      46.045  32.770  31.135  1.00  0.00     0.049 A 
ATOM     65  H   UNL A   1      43.940  32.621  31.216  1.00  0.00     0.167 HD
ATOM     66  C   UNL A   1      45.525  30.821  29.683  1.00  0.00     0.074 A 
ATOM     67  C   UNL A   1      45.901  29.725  28.812  1.00  0.00     0.031 C 
ATOM     68  C   UNL A   1      46.406  31.690  30.243  1.00  0.00     0.034 A 
BRANCH  55  69
ATOM     69  C   UNL A   1      43.736  36.068  33.757  1.00  0.00     0.023 A 
ATOM     70  C   UNL A   1      43.515  37.346  33.211  1.00  0.00     0.031 A 
ATOM     71  C   UNL A   1      44.176  35.993  35.091  1.00  0.00     0.131 A 
ATOM     72  C   UNL A   1      43.830  38.492  33.957  1.00  0.00     0.055 A 
ATOM     73  C   UNL A   1      44.402  37.139  35.859  1.00  0.00     0.041 A 
ATOM     74  F   UNL A   1      44.425  34.806  35.664  1.00  0.00    -0.206 F 
ATOM     75  C   UNL A   1      44.251  38.397  35.286  1.00  0.00     0.022 A 
BRANCH  72  76
ATOM     76  S   UNL A   1      43.863  40.096  33.108  1.00  0.00     0.124 S 
ATOM     77  O   UNL A   1      42.790  40.815  33.791  1.00  0.00    -0.237 OA
ATOM     78  O   UNL A   1      45.218  40.565  33.375  1.00  0.00    -0.237 OA
ATOM     79  O   UNL A   1      43.583  39.751  31.716  1.00  0.00    -0.744 OA
ENDBRANCH  72  76
ENDBRANCH  55  69
BRANCH  56  80
ATOM     80  C   UNL A   1      42.098  28.093  27.918  1.00  0.00     0.023 A 
ATOM     81  C   UNL A   1      42.138  26.753  28.331  1.00  0.00     0.031 A 
ATOM     82  C   UNL A   1      41.802  28.361  26.568  1.00  0.00     0.131 A 
ATOM     83  C   UNL A   1      41.906  25.729  27.399  1.00  0.00     0.055 A 
ATOM     84  C   UNL A   1      41.533  27.343  25.654  1.00  0.00     0.041 A 
ATOM     85  F   UNL A   1      41.747  29.628  26.125  1.00  0.00    -0.206 F 
ATOM     86  C   UNL A   1      41.590  26.015  26.068  1.00  0.00     0.022 A 
BRANCH  83  87
ATOM     87  S   UNL A   1      42.051  24.004  27.941  1.00  0.00     0.124 S 
ATOM     88  O   UNL A   1      42.867  23.426  26.880  1.00  0.00    -0.237 OA
ATOM     89  O   UNL A   1      42.696  24.148  29.242  1.00  0.00    -0.237 OA
ATOM     90  O   UNL A   1      40.665  23.543  27.986  1.00  0.00    -0.744 OA
ENDBRANCH  83  87
ENDBRANCH  56  80
BRANCH  68  91
ATOM     91  C   UNL A   1      47.870  31.469  29.951  1.00  0.00     0.023 A 
ATOM     92  C   UNL A   1      48.523  32.125  28.894  1.00  0.00     0.031 A 
ATOM     93  C   UNL A   1      48.623  30.586  30.746  1.00  0.00     0.131 A 
ATOM     94  C   UNL A   1      49.875  31.855  28.631  1.00  0.00     0.055 A 
ATOM     95  C   UNL A   1      49.981  30.363  30.515  1.00  0.00     0.041 A 
ATOM     96  F   UNL A   1      48.050  29.929  31.768  1.00  0.00    -0.206 F 
ATOM     97  C   UNL A   1      50.612  30.991  29.445  1.00  0.00     0.022 A 
BRANCH  94  98
ATOM     98  S   UNL A   1      50.643  32.587  27.159  1.00  0.00     0.124 S 
ATOM     99  O   UNL A   1      51.886  31.830  27.057  1.00  0.00    -0.237 OA
ATOM    100  O   UNL A   1      49.649  32.324  26.124  1.00  0.00    -0.237 OA
ATOM    101  O   UNL A   1      50.803  33.995  27.520  1.00  0.00    -0.744 OA
ENDBRANCH  94  98
ENDBRANCH  68  91
ENDBRANCH  42  43
ENDBRANCH  35  37
ENDBRANCH  34  35
ENDBRANCH  33  34
ENDBRANCH  32  33
ENDBRANCH  31  32
ENDBRANCH  30  31
ENDBRANCH  29  30
ENDBRANCH   1  29
TORSDOF 26
ENDMDL
