MODEL 1
REMARK VINA RESULT:     -11.7      0.000      0.000
REMARK SMILES Cc1ccc(OCC(=O)NNC(=O)[C@H]2CCCC[C@@H]2C(=O)OCCOCCOC(=O)c2ccc(-c3c4nc(c(-c5cc(S(=O)(=O)[O-])ccc5F)c5ccc([nH]5)c(-c5cc(S(=O)(=O)[O-])ccc5F)c5nc(c(-c6cc(S(=O)(=O)[O-])ccc6F)c6ccc3[nH]6)C=C5)C=C4)cc2)cc1
REMARK SMILES IDX 24 1 23 2 22 3 20 4 21 5 19 6 14 7 15 8 16 9 18 10 17 11
REMARK SMILES IDX 12 12 11 13 13 15 10 16 8 17 9 18 7 20 6 21 5 22 1 23 2 24
REMARK SMILES IDX 3 25 95 26 4 27 94 28 25 29 26 30 27 31 28 32 29 33 30 34
REMARK SMILES IDX 31 35 32 36 93 37 33 38 92 39 34 40 35 41 36 42 86 43 37 44
REMARK SMILES IDX 91 45 85 46 87 47 38 48 90 49 84 50 83 51 39 53 71 54 51 55
REMARK SMILES IDX 70 56 52 57 55 58 69 59 88 60 53 61 54 62 68 64 89 65 56 66
REMARK SMILES IDX 40 67 41 68 49 69 42 70 48 71 50 72 47 73 43 74 44 75 45 76
REMARK SMILES IDX 46 77 72 78 73 79 81 80 74 81 80 82 82 83 79 84 75 85 76 86
REMARK SMILES IDX 77 87 78 88 57 89 58 90 66 91 59 92 65 93 67 94 64 95 60 96
REMARK SMILES IDX 61 97 62 98 63 99
REMARK H PARENT 11 14 10 19 87 52 55 63
REMARK Flexibility Score: inf
ROOT
ATOM      1  C   UNL A   1      35.548  23.682  25.862  1.00  0.00     0.202 C 
ENDROOT
BRANCH   1   2
ATOM      2  C   UNL A   1      34.921  24.740  25.009  1.00  0.00     0.261 C 
BRANCH   2   3
ATOM      3  O   UNL A   1      34.164  25.647  25.813  1.00  0.00    -0.463 OA
BRANCH   3   4
ATOM      4  C   UNL A   1      33.706  26.797  25.252  1.00  0.00     0.309 C 
ATOM      5  O   UNL A   1      34.355  27.607  24.626  1.00  0.00    -0.252 OA
BRANCH   4   6
ATOM      6  C   UNL A   1      32.195  26.882  25.429  1.00  0.00     0.111 C 
ATOM      7  C   UNL A   1      31.474  26.097  24.323  1.00  0.00     0.094 C 
ATOM      8  C   UNL A   1      31.473  26.875  23.001  1.00  0.00     0.014 C 
ATOM      9  C   UNL A   1      31.030  28.332  23.110  1.00  0.00     0.001 C 
ATOM     10  C   UNL A   1      31.648  28.307  25.566  1.00  0.00     0.016 C 
ATOM     11  C   UNL A   1      31.691  29.085  24.255  1.00  0.00     0.001 C 
BRANCH   7  12
ATOM     12  C   UNL A   1      30.056  25.713  24.738  1.00  0.00     0.242 C 
ATOM     13  N   UNL A   1      29.868  25.005  25.898  1.00  0.00    -0.267 N 
ATOM     14  H   UNL A   1      28.945  24.750  26.128  1.00  0.00     0.191 HD
ATOM     15  O   UNL A   1      29.059  25.987  24.069  1.00  0.00    -0.273 OA
BRANCH  13  16
ATOM     16  N   UNL A   1      30.873  24.616  26.774  1.00  0.00    -0.265 N 
ATOM     17  C   UNL A   1      31.430  23.356  26.764  1.00  0.00     0.276 C 
ATOM     18  O   UNL A   1      32.288  23.041  27.590  1.00  0.00    -0.269 OA
ATOM     19  H   UNL A   1      31.203  25.270  27.432  1.00  0.00     0.191 HD
BRANCH  17  20
ATOM     20  C   UNL A   1      31.007  22.391  25.652  1.00  0.00     0.331 C 
BRANCH  20  21
ATOM     21  O   UNL A   1      31.960  22.173  24.628  1.00  0.00    -0.484 OA
BRANCH  21  22
ATOM     22  C   UNL A   1      32.394  20.894  24.415  1.00  0.00     0.120 A 
ATOM     23  C   UNL A   1      33.594  16.896  23.314  1.00  0.00     0.044 C 
ATOM     24  C   UNL A   1      33.180  18.283  23.703  1.00  0.00    -0.051 A 
ATOM     25  C   UNL A   1      32.443  19.070  22.812  1.00  0.00     0.007 A 
ATOM     26  C   UNL A   1      33.511  18.812  24.954  1.00  0.00     0.007 A 
ATOM     27  C   UNL A   1      32.052  20.363  23.168  1.00  0.00     0.047 A 
ATOM     28  C   UNL A   1      33.117  20.107  25.310  1.00  0.00     0.047 A 
ENDBRANCH  21  22
ENDBRANCH  20  21
ENDBRANCH  17  20
ENDBRANCH  13  16
ENDBRANCH   7  12
ENDBRANCH   4   6
ENDBRANCH   3   4
ENDBRANCH   2   3
ENDBRANCH   1   2
BRANCH   1  29
ATOM     29  O   UNL A   1      36.758  23.333  25.191  1.00  0.00    -0.374 OA
BRANCH  29  30
ATOM     30  C   UNL A   1      37.208  22.015  25.418  1.00  0.00     0.202 C 
BRANCH  30  31
ATOM     31  C   UNL A   1      38.711  21.940  25.723  1.00  0.00     0.261 C 
BRANCH  31  32
ATOM     32  O   UNL A   1      39.001  22.701  26.915  1.00  0.00    -0.460 OA
BRANCH  32  33
ATOM     33  C   UNL A   1      40.150  23.428  26.889  1.00  0.00     0.338 C 
ATOM     34  O   UNL A   1      41.280  22.957  26.830  1.00  0.00    -0.246 OA
BRANCH  33  35
ATOM     35  C   UNL A   1      39.847  24.870  27.112  1.00  0.00     0.060 A 
ATOM     36  C   UNL A   1      40.438  25.856  26.296  1.00  0.00     0.016 A 
ATOM     37  C   UNL A   1      39.197  25.242  28.287  1.00  0.00     0.016 A 
ATOM     38  C   UNL A   1      40.503  27.190  26.734  1.00  0.00     0.010 A 
ATOM     39  C   UNL A   1      39.327  26.536  28.745  1.00  0.00     0.010 A 
ATOM     40  C   UNL A   1      40.013  27.510  27.999  1.00  0.00    -0.014 A 
BRANCH  40  41
ATOM     41  C   UNL A   1      40.265  28.750  28.743  1.00  0.00     0.031 A 
ATOM     42  C   UNL A   1      39.237  29.816  28.698  1.00  0.00     0.074 A 
ATOM     43  C   UNL A   1      41.213  28.796  29.714  1.00  0.00     0.049 A 
ATOM     44  N   UNL A   1      39.350  30.930  29.325  1.00  0.00    -0.248 NA
ATOM     45  C   UNL A   1      37.995  29.740  27.929  1.00  0.00     0.031 C 
ATOM     46  C   UNL A   1      41.268  29.672  30.884  1.00  0.00     0.029 A 
ATOM     47  N   UNL A   1      42.423  28.097  29.801  1.00  0.00    -0.354 N 
ATOM     48  C   UNL A   1      38.112  31.513  29.378  1.00  0.00     0.074 A 
ATOM     49  C   UNL A   1      37.346  30.823  28.374  1.00  0.00     0.031 C 
ATOM     50  C   UNL A   1      42.523  29.701  31.362  1.00  0.00     0.029 A 
ATOM     51  C   UNL A   1      43.347  28.937  30.451  1.00  0.00     0.049 A 
ATOM     52  H   UNL A   1      42.597  27.188  29.468  1.00  0.00     0.167 HD
ATOM     53  C   UNL A   1      37.883  32.422  30.366  1.00  0.00     0.034 A 
ATOM     54  C   UNL A   1      44.475  29.347  29.813  1.00  0.00     0.034 A 
ATOM     55  C   UNL A   1      39.147  32.829  31.016  1.00  0.00     0.049 A 
ATOM     56  C   UNL A   1      44.391  30.844  29.593  1.00  0.00     0.074 A 
ATOM     57  C   UNL A   1      39.687  32.763  32.288  1.00  0.00     0.029 A 
ATOM     58  N   UNL A   1      40.204  33.213  30.191  1.00  0.00    -0.354 N 
ATOM     59  N   UNL A   1      43.322  31.534  29.904  1.00  0.00    -0.248 NA
ATOM     60  C   UNL A   1      45.433  31.700  29.047  1.00  0.00     0.031 C 
ATOM     61  C   UNL A   1      41.094  33.048  32.189  1.00  0.00     0.029 A 
ATOM     62  C   UNL A   1      41.400  33.338  30.868  1.00  0.00     0.049 A 
ATOM     63  H   UNL A   1      40.108  33.378  29.226  1.00  0.00     0.167 HD
ATOM     64  C   UNL A   1      43.516  32.862  29.722  1.00  0.00     0.074 A 
ATOM     65  C   UNL A   1      44.833  32.908  29.089  1.00  0.00     0.031 C 
ATOM     66  C   UNL A   1      42.585  33.786  30.131  1.00  0.00     0.034 A 
BRANCH  53  67
ATOM     67  C   UNL A   1      36.507  32.882  30.813  1.00  0.00     0.023 A 
ATOM     68  C   UNL A   1      35.738  33.694  29.954  1.00  0.00     0.031 A 
ATOM     69  C   UNL A   1      35.928  32.640  32.082  1.00  0.00     0.131 A 
ATOM     70  C   UNL A   1      34.475  34.188  30.345  1.00  0.00     0.055 A 
ATOM     71  C   UNL A   1      34.644  33.073  32.442  1.00  0.00     0.041 A 
ATOM     72  F   UNL A   1      36.592  32.036  33.074  1.00  0.00    -0.206 F 
ATOM     73  C   UNL A   1      33.908  33.852  31.571  1.00  0.00     0.022 A 
BRANCH  70  74
ATOM     74  S   UNL A   1      33.590  35.336  29.254  1.00  0.00     0.124 S 
ATOM     75  O   UNL A   1      33.042  36.297  30.204  1.00  0.00    -0.237 OA
ATOM     76  O   UNL A   1      34.652  35.819  28.380  1.00  0.00    -0.237 OA
ATOM     77  O   UNL A   1      32.596  34.484  28.599  1.00  0.00    -0.744 OA
ENDBRANCH  70  74
ENDBRANCH  53  67
BRANCH  54  78
ATOM     78  C   UNL A   1      45.036  28.223  28.988  1.00  0.00     0.023 A 
ATOM     79  C   UNL A   1      45.216  28.492  27.597  1.00  0.00     0.031 A 
ATOM     80  C   UNL A   1      45.849  27.233  29.556  1.00  0.00     0.131 A 
ATOM     81  C   UNL A   1      46.276  27.907  26.878  1.00  0.00     0.055 A 
ATOM     82  C   UNL A   1      46.883  26.625  28.821  1.00  0.00     0.041 A 
ATOM     83  F   UNL A   1      45.771  26.956  30.866  1.00  0.00    -0.206 F 
ATOM     84  C   UNL A   1      47.128  26.991  27.496  1.00  0.00     0.022 A 
BRANCH  81  85
ATOM     85  S   UNL A   1      46.763  28.561  25.235  1.00  0.00     0.124 S 
ATOM     86  O   UNL A   1      46.449  29.979  25.363  1.00  0.00    -0.237 OA
ATOM     87  O   UNL A   1      48.180  28.231  25.143  1.00  0.00    -0.237 OA
ATOM     88  O   UNL A   1      45.906  27.810  24.317  1.00  0.00    -0.744 OA
ENDBRANCH  81  85
ENDBRANCH  54  78
BRANCH  66  89
ATOM     89  C   UNL A   1      42.714  35.243  29.796  1.00  0.00     0.023 A 
ATOM     90  C   UNL A   1      43.480  36.103  30.581  1.00  0.00     0.031 A 
ATOM     91  C   UNL A   1      42.119  35.804  28.644  1.00  0.00     0.131 A 
ATOM     92  C   UNL A   1      43.825  37.371  30.104  1.00  0.00     0.055 A 
ATOM     93  C   UNL A   1      42.356  37.117  28.239  1.00  0.00     0.041 A 
ATOM     94  F   UNL A   1      41.331  35.096  27.823  1.00  0.00    -0.206 F 
ATOM     95  C   UNL A   1      43.258  37.895  28.944  1.00  0.00     0.022 A 
BRANCH  92  96
ATOM     96  S   UNL A   1      45.178  38.228  30.937  1.00  0.00     0.124 S 
ATOM     97  O   UNL A   1      44.526  39.425  31.456  1.00  0.00    -0.237 OA
ATOM     98  O   UNL A   1      45.574  37.241  31.941  1.00  0.00    -0.237 OA
ATOM     99  O   UNL A   1      46.149  38.454  29.871  1.00  0.00    -0.744 OA
ENDBRANCH  92  96
ENDBRANCH  66  89
ENDBRANCH  40  41
ENDBRANCH  33  35
ENDBRANCH  32  33
ENDBRANCH  31  32
ENDBRANCH  30  31
ENDBRANCH  29  30
ENDBRANCH   1  29
TORSDOF 22
ENDMDL
MODEL 2
REMARK VINA RESULT:     -11.5      1.600      3.647
REMARK SMILES Cc1ccc(OCC(=O)NNC(=O)[C@H]2CCCC[C@@H]2C(=O)OCCOCCOC(=O)c2ccc(-c3c4nc(c(-c5cc(S(=O)(=O)[O-])ccc5F)c5ccc([nH]5)c(-c5cc(S(=O)(=O)[O-])ccc5F)c5nc(c(-c6cc(S(=O)(=O)[O-])ccc6F)c6ccc3[nH]6)C=C5)C=C4)cc2)cc1
REMARK SMILES IDX 24 1 23 2 22 3 20 4 21 5 19 6 14 7 15 8 16 9 18 10 17 11
REMARK SMILES IDX 12 12 11 13 13 15 10 16 8 17 9 18 7 20 6 21 5 22 1 23 2 24
REMARK SMILES IDX 3 25 95 26 4 27 94 28 25 29 26 30 27 31 28 32 29 33 30 34
REMARK SMILES IDX 31 35 32 36 93 37 33 38 92 39 34 40 35 41 36 42 86 43 37 44
REMARK SMILES IDX 91 45 85 46 87 47 38 48 90 49 84 50 83 51 39 53 71 54 51 55
REMARK SMILES IDX 70 56 52 57 55 58 69 59 88 60 53 61 54 62 68 64 89 65 56 66
REMARK SMILES IDX 40 67 41 68 49 69 42 70 48 71 50 72 47 73 43 74 44 75 45 76
REMARK SMILES IDX 46 77 72 78 73 79 81 80 74 81 80 82 82 83 79 84 75 85 76 86
REMARK SMILES IDX 77 87 78 88 57 89 58 90 66 91 59 92 65 93 67 94 64 95 60 96
REMARK SMILES IDX 61 97 62 98 63 99
REMARK H PARENT 11 14 10 19 87 52 55 63
REMARK Flexibility Score: inf
ROOT
ATOM      1  C   UNL A   1      37.071  21.304  24.761  1.00  0.00     0.202 C 
ENDROOT
BRANCH   1   2
ATOM      2  C   UNL A   1      35.996  20.346  25.174  1.00  0.00     0.261 C 
BRANCH   2   3
ATOM      3  O   UNL A   1      34.707  20.925  24.974  1.00  0.00    -0.463 OA
BRANCH   3   4
ATOM      4  C   UNL A   1      34.151  21.656  25.976  1.00  0.00     0.309 C 
ATOM      5  O   UNL A   1      34.329  21.508  27.166  1.00  0.00    -0.252 OA
BRANCH   4   6
ATOM      6  C   UNL A   1      33.330  22.793  25.382  1.00  0.00     0.111 C 
ATOM      7  C   UNL A   1      33.088  22.562  23.883  1.00  0.00     0.094 C 
ATOM      8  C   UNL A   1      34.340  22.892  23.062  1.00  0.00     0.014 C 
ATOM      9  C   UNL A   1      34.986  24.238  23.381  1.00  0.00     0.001 C 
ATOM     10  C   UNL A   1      33.885  24.195  25.661  1.00  0.00     0.016 C 
ATOM     11  C   UNL A   1      35.154  24.495  24.871  1.00  0.00     0.001 C 
BRANCH   7  12
ATOM     12  C   UNL A   1      31.877  23.345  23.381  1.00  0.00     0.242 C 
ATOM     13  N   UNL A   1      30.755  23.417  24.166  1.00  0.00    -0.267 N 
ATOM     14  H   UNL A   1      29.981  23.909  23.806  1.00  0.00     0.191 HD
ATOM     15  O   UNL A   1      31.843  23.905  22.284  1.00  0.00    -0.273 OA
BRANCH  13  16
ATOM     16  N   UNL A   1      30.620  22.852  25.428  1.00  0.00    -0.265 N 
ATOM     17  C   UNL A   1      30.299  23.588  26.547  1.00  0.00     0.276 C 
ATOM     18  O   UNL A   1      30.235  23.053  27.655  1.00  0.00    -0.269 OA
ATOM     19  H   UNL A   1      30.759  21.883  25.526  1.00  0.00     0.191 HD
BRANCH  17  20
ATOM     20  C   UNL A   1      29.954  25.069  26.361  1.00  0.00     0.331 C 
BRANCH  20  21
ATOM     21  O   UNL A   1      30.835  25.809  25.535  1.00  0.00    -0.484 OA
BRANCH  21  22
ATOM     22  C   UNL A   1      31.160  27.081  25.919  1.00  0.00     0.120 A 
ATOM     23  C   UNL A   1      32.099  31.223  26.692  1.00  0.00     0.044 C 
ATOM     24  C   UNL A   1      31.775  29.783  26.431  1.00  0.00    -0.051 A 
ATOM     25  C   UNL A   1      31.472  29.358  25.133  1.00  0.00     0.007 A 
ATOM     26  C   UNL A   1      31.775  28.843  27.465  1.00  0.00     0.007 A 
ATOM     27  C   UNL A   1      31.170  28.017  24.882  1.00  0.00     0.047 A 
ATOM     28  C   UNL A   1      31.474  27.499  27.211  1.00  0.00     0.047 A 
ENDBRANCH  21  22
ENDBRANCH  20  21
ENDBRANCH  17  20
ENDBRANCH  13  16
ENDBRANCH   7  12
ENDBRANCH   4   6
ENDBRANCH   3   4
ENDBRANCH   2   3
ENDBRANCH   1   2
BRANCH   1  29
ATOM     29  O   UNL A   1      37.799  21.584  25.957  1.00  0.00    -0.374 OA
BRANCH  29  30
ATOM     30  C   UNL A   1      39.203  21.552  25.822  1.00  0.00     0.202 C 
BRANCH  30  31
ATOM     31  C   UNL A   1      39.924  22.406  26.873  1.00  0.00     0.261 C 
BRANCH  31  32
ATOM     32  O   UNL A   1      40.062  23.758  26.387  1.00  0.00    -0.460 OA
BRANCH  32  33
ATOM     33  C   UNL A   1      39.142  24.650  26.844  1.00  0.00     0.338 C 
ATOM     34  O   UNL A   1      37.977  24.714  26.467  1.00  0.00    -0.246 OA
BRANCH  33  35
ATOM     35  C   UNL A   1      39.794  25.642  27.743  1.00  0.00     0.060 A 
ATOM     36  C   UNL A   1      39.289  25.870  29.039  1.00  0.00     0.016 A 
ATOM     37  C   UNL A   1      40.729  26.522  27.200  1.00  0.00     0.016 A 
ATOM     38  C   UNL A   1      39.608  27.055  29.725  1.00  0.00     0.010 A 
ATOM     39  C   UNL A   1      40.981  27.715  27.844  1.00  0.00     0.010 A 
ATOM     40  C   UNL A   1      40.395  28.012  29.087  1.00  0.00    -0.014 A 
BRANCH  40  41
ATOM     41  C   UNL A   1      40.576  29.408  29.502  1.00  0.00     0.031 A 
ATOM     42  C   UNL A   1      39.455  30.353  29.293  1.00  0.00     0.074 A 
ATOM     43  C   UNL A   1      41.574  29.754  30.357  1.00  0.00     0.049 A 
ATOM     44  N   UNL A   1      39.503  31.590  29.633  1.00  0.00    -0.248 NA
ATOM     45  C   UNL A   1      38.182  30.005  28.663  1.00  0.00     0.031 C 
ATOM     46  C   UNL A   1      41.618  30.885  31.284  1.00  0.00     0.029 A 
ATOM     47  N   UNL A   1      42.845  29.189  30.506  1.00  0.00    -0.354 N 
ATOM     48  C   UNL A   1      38.223  32.075  29.648  1.00  0.00     0.074 A 
ATOM     49  C   UNL A   1      37.464  31.110  28.896  1.00  0.00     0.031 C 
ATOM     50  C   UNL A   1      42.891  31.120  31.640  1.00  0.00     0.029 A 
ATOM     51  C   UNL A   1      43.725  30.225  30.869  1.00  0.00     0.049 A 
ATOM     52  H   UNL A   1      43.081  28.242  30.381  1.00  0.00     0.167 HD
ATOM     53  C   UNL A   1      37.971  33.173  30.414  1.00  0.00     0.034 A 
ATOM     54  C   UNL A   1      44.771  30.555  30.066  1.00  0.00     0.034 A 
ATOM     55  C   UNL A   1      39.230  33.816  30.848  1.00  0.00     0.049 A 
ATOM     56  C   UNL A   1      44.538  31.946  29.511  1.00  0.00     0.074 A 
ATOM     57  C   UNL A   1      39.849  34.094  32.054  1.00  0.00     0.029 A 
ATOM     58  N   UNL A   1      40.196  34.070  29.876  1.00  0.00    -0.354 N 
ATOM     59  N   UNL A   1      43.432  32.609  29.738  1.00  0.00    -0.248 NA
ATOM     60  C   UNL A   1      45.463  32.723  28.701  1.00  0.00     0.031 C 
ATOM     61  C   UNL A   1      41.215  34.452  31.780  1.00  0.00     0.029 A 
ATOM     62  C   UNL A   1      41.413  34.441  30.408  1.00  0.00     0.049 A 
ATOM     63  H   UNL A   1      40.028  33.994  28.909  1.00  0.00     0.167 HD
ATOM     64  C   UNL A   1      43.492  33.866  29.239  1.00  0.00     0.074 A 
ATOM     65  C   UNL A   1      44.758  33.858  28.509  1.00  0.00     0.031 C 
ATOM     66  C   UNL A   1      42.507  34.788  29.495  1.00  0.00     0.034 A 
BRANCH  53  67
ATOM     67  C   UNL A   1      36.589  33.622  30.850  1.00  0.00     0.023 A 
ATOM     68  C   UNL A   1      35.720  34.202  29.903  1.00  0.00     0.031 A 
ATOM     69  C   UNL A   1      36.091  33.594  32.175  1.00  0.00     0.131 A 
ATOM     70  C   UNL A   1      34.444  34.681  30.270  1.00  0.00     0.055 A 
ATOM     71  C   UNL A   1      34.798  34.005  32.525  1.00  0.00     0.041 A 
ATOM     72  F   UNL A   1      36.846  33.236  33.221  1.00  0.00    -0.206 F 
ATOM     73  C   UNL A   1      33.964  34.553  31.570  1.00  0.00     0.022 A 
BRANCH  70  74
ATOM     74  S   UNL A   1      33.424  35.538  29.038  1.00  0.00     0.124 S 
ATOM     75  O   UNL A   1      34.429  36.035  28.105  1.00  0.00    -0.237 OA
ATOM     76  O   UNL A   1      32.557  34.471  28.553  1.00  0.00    -0.237 OA
ATOM     77  O   UNL A   1      32.746  36.573  29.820  1.00  0.00    -0.744 OA
ENDBRANCH  70  74
ENDBRANCH  53  67
BRANCH  54  78
ATOM     78  C   UNL A   1      45.382  29.313  29.481  1.00  0.00     0.023 A 
ATOM     79  C   UNL A   1      45.314  29.186  28.060  1.00  0.00     0.031 A 
ATOM     80  C   UNL A   1      46.418  28.630  30.133  1.00  0.00     0.131 A 
ATOM     81  C   UNL A   1      46.341  28.543  27.341  1.00  0.00     0.055 A 
ATOM     82  C   UNL A   1      47.420  27.957  29.411  1.00  0.00     0.041 A 
ATOM     83  F   UNL A   1      46.574  28.737  31.461  1.00  0.00    -0.206 F 
ATOM     84  C   UNL A   1      47.409  27.949  28.014  1.00  0.00     0.022 A 
BRANCH  81  85
ATOM     85  S   UNL A   1      46.474  28.744  25.524  1.00  0.00     0.124 S 
ATOM     86  O   UNL A   1      46.412  30.192  25.368  1.00  0.00    -0.237 OA
ATOM     87  O   UNL A   1      47.757  28.127  25.206  1.00  0.00    -0.237 OA
ATOM     88  O   UNL A   1      45.310  28.010  25.027  1.00  0.00    -0.744 OA
ENDBRANCH  81  85
ENDBRANCH  54  78
BRANCH  66  89
ATOM     89  C   UNL A   1      42.482  36.130  28.822  1.00  0.00     0.023 A 
ATOM     90  C   UNL A   1      43.072  37.248  29.410  1.00  0.00     0.031 A 
ATOM     91  C   UNL A   1      41.915  36.317  27.541  1.00  0.00     0.131 A 
ATOM     92  C   UNL A   1      43.295  38.404  28.656  1.00  0.00     0.055 A 
ATOM     93  C   UNL A   1      42.021  37.518  26.841  1.00  0.00     0.041 A 
ATOM     94  F   UNL A   1      41.288  35.334  26.881  1.00  0.00    -0.206 F 
ATOM     95  C   UNL A   1      42.762  38.557  27.378  1.00  0.00     0.022 A 
BRANCH  92  96
ATOM     96  S   UNL A   1      44.462  39.610  29.319  1.00  0.00     0.124 S 
ATOM     97  O   UNL A   1      44.475  39.293  30.743  1.00  0.00    -0.237 OA
ATOM     98  O   UNL A   1      45.681  39.270  28.587  1.00  0.00    -0.237 OA
ATOM     99  O   UNL A   1      43.864  40.895  28.968  1.00  0.00    -0.744 OA
ENDBRANCH  92  96
ENDBRANCH  66  89
ENDBRANCH  40  41
ENDBRANCH  33  35
ENDBRANCH  32  33
ENDBRANCH  31  32
ENDBRANCH  30  31
ENDBRANCH  29  30
ENDBRANCH   1  29
TORSDOF 22
ENDMDL
MODEL 3
REMARK VINA RESULT:     -10.7      2.590      4.970
REMARK SMILES Cc1ccc(OCC(=O)NNC(=O)[C@H]2CCCC[C@@H]2C(=O)OCCOCCOC(=O)c2ccc(-c3c4nc(c(-c5cc(S(=O)(=O)[O-])ccc5F)c5ccc([nH]5)c(-c5cc(S(=O)(=O)[O-])ccc5F)c5nc(c(-c6cc(S(=O)(=O)[O-])ccc6F)c6ccc3[nH]6)C=C5)C=C4)cc2)cc1
REMARK SMILES IDX 24 1 23 2 22 3 20 4 21 5 19 6 14 7 15 8 16 9 18 10 17 11
REMARK SMILES IDX 12 12 11 13 13 15 10 16 8 17 9 18 7 20 6 21 5 22 1 23 2 24
REMARK SMILES IDX 3 25 95 26 4 27 94 28 25 29 26 30 27 31 28 32 29 33 30 34
REMARK SMILES IDX 31 35 32 36 93 37 33 38 92 39 34 40 35 41 36 42 86 43 37 44
REMARK SMILES IDX 91 45 85 46 87 47 38 48 90 49 84 50 83 51 39 53 71 54 51 55
REMARK SMILES IDX 70 56 52 57 55 58 69 59 88 60 53 61 54 62 68 64 89 65 56 66
REMARK SMILES IDX 40 67 41 68 49 69 42 70 48 71 50 72 47 73 43 74 44 75 45 76
REMARK SMILES IDX 46 77 72 78 73 79 81 80 74 81 80 82 82 83 79 84 75 85 76 86
REMARK SMILES IDX 77 87 78 88 57 89 58 90 66 91 59 92 65 93 67 94 64 95 60 96
REMARK SMILES IDX 61 97 62 98 63 99
REMARK H PARENT 11 14 10 19 87 52 55 63
REMARK Flexibility Score: inf
ROOT
ATOM      1  C   UNL A   1      38.122  23.364  25.487  1.00  0.00     0.202 C 
ENDROOT
BRANCH   1   2
ATOM      2  C   UNL A   1      36.772  23.857  25.907  1.00  0.00     0.261 C 
BRANCH   2   3
ATOM      3  O   UNL A   1      35.767  22.893  25.592  1.00  0.00    -0.463 OA
BRANCH   3   4
ATOM      4  C   UNL A   1      34.499  23.096  26.038  1.00  0.00     0.309 C 
ATOM      5  O   UNL A   1      34.161  23.330  27.179  1.00  0.00    -0.252 OA
BRANCH   4   6
ATOM      6  C   UNL A   1      33.538  23.096  24.856  1.00  0.00     0.111 C 
ATOM      7  C   UNL A   1      32.085  22.975  25.339  1.00  0.00     0.094 C 
ATOM      8  C   UNL A   1      31.755  21.535  25.748  1.00  0.00     0.014 C 
ATOM      9  C   UNL A   1      32.157  20.467  24.733  1.00  0.00     0.001 C 
ATOM     10  C   UNL A   1      33.865  22.068  23.768  1.00  0.00     0.016 C 
ATOM     11  C   UNL A   1      33.572  20.636  24.201  1.00  0.00     0.001 C 
BRANCH   7  12
ATOM     12  C   UNL A   1      31.100  23.492  24.294  1.00  0.00     0.242 C 
ATOM     13  N   UNL A   1      30.287  24.551  24.608  1.00  0.00    -0.267 N 
ATOM     14  H   UNL A   1      29.644  24.848  23.922  1.00  0.00     0.191 HD
ATOM     15  O   UNL A   1      30.975  22.990  23.176  1.00  0.00    -0.273 OA
BRANCH  13  16
ATOM     16  N   UNL A   1      30.294  25.240  25.814  1.00  0.00    -0.265 N 
ATOM     17  C   UNL A   1      30.995  26.411  26.004  1.00  0.00     0.276 C 
ATOM     18  O   UNL A   1      31.010  26.963  27.105  1.00  0.00    -0.269 OA
ATOM     19  H   UNL A   1      29.776  24.875  26.567  1.00  0.00     0.191 HD
BRANCH  17  20
ATOM     20  C   UNL A   1      31.688  27.040  24.791  1.00  0.00     0.331 C 
BRANCH  20  21
ATOM     21  O   UNL A   1      31.035  26.864  23.547  1.00  0.00    -0.484 OA
BRANCH  21  22
ATOM     22  C   UNL A   1      30.222  27.869  23.100  1.00  0.00     0.120 A 
ATOM     23  C   UNL A   1      28.034  31.222  21.484  1.00  0.00     0.044 C 
ATOM     24  C   UNL A   1      28.788  30.056  22.049  1.00  0.00    -0.051 A 
ATOM     25  C   UNL A   1      30.175  29.972  21.886  1.00  0.00     0.007 A 
ATOM     26  C   UNL A   1      28.130  29.040  22.748  1.00  0.00     0.007 A 
ATOM     27  C   UNL A   1      30.884  28.889  22.410  1.00  0.00     0.047 A 
ATOM     28  C   UNL A   1      28.842  27.955  23.274  1.00  0.00     0.047 A 
ENDBRANCH  21  22
ENDBRANCH  20  21
ENDBRANCH  17  20
ENDBRANCH  13  16
ENDBRANCH   7  12
ENDBRANCH   4   6
ENDBRANCH   3   4
ENDBRANCH   2   3
ENDBRANCH   1   2
BRANCH   1  29
ATOM     29  O   UNL A   1      38.452  22.340  26.424  1.00  0.00    -0.374 OA
BRANCH  29  30
ATOM     30  C   UNL A   1      39.821  22.250  26.753  1.00  0.00     0.202 C 
BRANCH  30  31
ATOM     31  C   UNL A   1      40.509  21.030  26.125  1.00  0.00     0.261 C 
BRANCH  31  32
ATOM     32  O   UNL A   1      41.780  20.805  26.771  1.00  0.00    -0.460 OA
BRANCH  32  33
ATOM     33  C   UNL A   1      42.872  21.281  26.114  1.00  0.00     0.338 C 
ATOM     34  O   UNL A   1      43.380  20.761  25.127  1.00  0.00    -0.246 OA
BRANCH  33  35
ATOM     35  C   UNL A   1      43.460  22.426  26.863  1.00  0.00     0.060 A 
ATOM     36  C   UNL A   1      43.207  22.582  28.240  1.00  0.00     0.016 A 
ATOM     37  C   UNL A   1      44.033  23.472  26.142  1.00  0.00     0.016 A 
ATOM     38  C   UNL A   1      43.389  23.832  28.857  1.00  0.00     0.010 A 
ATOM     39  C   UNL A   1      44.142  24.714  26.732  1.00  0.00     0.010 A 
ATOM     40  C   UNL A   1      43.784  24.917  28.077  1.00  0.00    -0.014 A 
BRANCH  40  41
ATOM     41  C   UNL A   1      43.729  26.333  28.461  1.00  0.00     0.031 A 
ATOM     42  C   UNL A   1      42.417  27.018  28.429  1.00  0.00     0.074 A 
ATOM     43  C   UNL A   1      44.750  26.904  29.153  1.00  0.00     0.049 A 
ATOM     44  N   UNL A   1      42.256  28.248  28.759  1.00  0.00    -0.248 NA
ATOM     45  C   UNL A   1      41.164  26.395  28.002  1.00  0.00     0.031 C 
ATOM     46  C   UNL A   1      44.696  28.047  30.063  1.00  0.00     0.029 A 
ATOM     47  N   UNL A   1      46.119  26.618  29.103  1.00  0.00    -0.354 N 
ATOM     48  C   UNL A   1      40.920  28.458  28.972  1.00  0.00     0.074 A 
ATOM     49  C   UNL A   1      40.275  27.334  28.344  1.00  0.00     0.031 C 
ATOM     50  C   UNL A   1      45.930  28.551  30.220  1.00  0.00     0.029 A 
ATOM     51  C   UNL A   1      46.807  27.825  29.328  1.00  0.00     0.049 A 
ATOM     52  H   UNL A   1      46.526  25.738  28.941  1.00  0.00     0.167 HD
ATOM     53  C   UNL A   1      40.562  29.503  29.769  1.00  0.00     0.034 A 
ATOM     54  C   UNL A   1      47.627  28.339  28.374  1.00  0.00     0.034 A 
ATOM     55  C   UNL A   1      41.709  30.405  30.006  1.00  0.00     0.049 A 
ATOM     56  C   UNL A   1      47.027  29.635  27.864  1.00  0.00     0.074 A 
ATOM     57  C   UNL A   1      42.431  30.842  31.103  1.00  0.00     0.029 A 
ATOM     58  N   UNL A   1      42.443  30.824  28.897  1.00  0.00    -0.354 N 
ATOM     59  N   UNL A   1      45.854  30.061  28.260  1.00  0.00    -0.248 NA
ATOM     60  C   UNL A   1      47.636  30.561  26.923  1.00  0.00     0.031 C 
ATOM     61  C   UNL A   1      43.634  31.467  30.622  1.00  0.00     0.029 A 
ATOM     62  C   UNL A   1      43.621  31.455  29.236  1.00  0.00     0.049 A 
ATOM     63  H   UNL A   1      42.150  30.685  27.968  1.00  0.00     0.167 HD
ATOM     64  C   UNL A   1      45.574  31.287  27.760  1.00  0.00     0.074 A 
ATOM     65  C   UNL A   1      46.689  31.520  26.844  1.00  0.00     0.031 C 
ATOM     66  C   UNL A   1      44.468  31.993  28.166  1.00  0.00     0.034 A 
BRANCH  53  67
ATOM     67  C   UNL A   1      39.198  29.669  30.414  1.00  0.00     0.023 A 
ATOM     68  C   UNL A   1      38.526  30.902  30.298  1.00  0.00     0.031 A 
ATOM     69  C   UNL A   1      38.543  28.706  31.220  1.00  0.00     0.131 A 
ATOM     70  C   UNL A   1      37.278  31.123  30.923  1.00  0.00     0.055 A 
ATOM     71  C   UNL A   1      37.274  28.901  31.781  1.00  0.00     0.041 A 
ATOM     72  F   UNL A   1      39.119  27.551  31.573  1.00  0.00    -0.206 F 
ATOM     73  C   UNL A   1      36.632  30.116  31.634  1.00  0.00     0.022 A 
BRANCH  70  74
ATOM     74  S   UNL A   1      36.523  32.770  30.851  1.00  0.00     0.124 S 
ATOM     75  O   UNL A   1      36.611  33.206  32.240  1.00  0.00    -0.237 OA
ATOM     76  O   UNL A   1      37.378  33.465  29.896  1.00  0.00    -0.237 OA
ATOM     77  O   UNL A   1      35.165  32.500  30.376  1.00  0.00    -0.744 OA
ENDBRANCH  70  74
ENDBRANCH  53  67
BRANCH  54  78
ATOM     78  C   UNL A   1      48.389  27.233  27.700  1.00  0.00     0.023 A 
ATOM     79  C   UNL A   1      48.025  26.949  26.349  1.00  0.00     0.031 A 
ATOM     80  C   UNL A   1      49.692  26.897  28.093  1.00  0.00     0.131 A 
ATOM     81  C   UNL A   1      48.986  26.510  25.417  1.00  0.00     0.055 A 
ATOM     82  C   UNL A   1      50.637  26.423  27.165  1.00  0.00     0.041 A 
ATOM     83  F   UNL A   1      50.122  27.174  29.333  1.00  0.00    -0.206 F 
ATOM     84  C   UNL A   1      50.300  26.270  25.818  1.00  0.00     0.022 A 
BRANCH  81  85
ATOM     85  S   UNL A   1      48.629  26.551  23.619  1.00  0.00     0.124 S 
ATOM     86  O   UNL A   1      49.960  26.710  23.045  1.00  0.00    -0.237 OA
ATOM     87  O   UNL A   1      47.981  25.269  23.370  1.00  0.00    -0.237 OA
ATOM     88  O   UNL A   1      47.747  27.711  23.487  1.00  0.00    -0.744 OA
ENDBRANCH  81  85
ENDBRANCH  54  78
BRANCH  66  89
ATOM     89  C   UNL A   1      44.062  33.279  27.507  1.00  0.00     0.023 A 
ATOM     90  C   UNL A   1      44.000  34.473  28.223  1.00  0.00     0.031 A 
ATOM     91  C   UNL A   1      43.778  33.358  26.125  1.00  0.00     0.131 A 
ATOM     92  C   UNL A   1      43.907  35.694  27.548  1.00  0.00     0.055 A 
ATOM     93  C   UNL A   1      43.550  34.568  25.473  1.00  0.00     0.041 A 
ATOM     94  F   UNL A   1      43.769  32.279  25.330  1.00  0.00    -0.206 F 
ATOM     95  C   UNL A   1      43.666  35.755  26.177  1.00  0.00     0.022 A 
BRANCH  92  96
ATOM     96  S   UNL A   1      44.304  37.187  28.482  1.00  0.00     0.124 S 
ATOM     97  O   UNL A   1      44.020  38.249  27.522  1.00  0.00    -0.237 OA
ATOM     98  O   UNL A   1      43.371  37.087  29.603  1.00  0.00    -0.237 OA
ATOM     99  O   UNL A   1      45.712  37.012  28.826  1.00  0.00    -0.744 OA
ENDBRANCH  92  96
ENDBRANCH  66  89
ENDBRANCH  40  41
ENDBRANCH  33  35
ENDBRANCH  32  33
ENDBRANCH  31  32
ENDBRANCH  30  31
ENDBRANCH  29  30
ENDBRANCH   1  29
TORSDOF 22
ENDMDL
