MODEL 1
REMARK VINA RESULT:     -11.2      0.000      0.000
REMARK SMILES COc1ccc(C(=O)c2ccccc2)cc1[C@@H](C)C(=O)OCCOCCOC(=O)c1ccc(-c2c3nc(c(-c4cc(S(=O)(=O)[O-])ccc4F)c4ccc([nH]4)c(-c4cc(S(=O)(=O)[O-])ccc4F)c4nc(c(-c5cc(S(=O)(=O)[O-])ccc5F)c5ccc2[nH]5)C=C4)C=C3)cc1
REMARK SMILES IDX 24 1 23 2 22 3 21 4 19 5 20 6 17 7 18 8 16 9 3 10 4 11 5 12
REMARK SMILES IDX 15 13 6 14 2 15 1 16 7 17 8 18 9 19 10 20 14 21 11 22 13 23
REMARK SMILES IDX 12 24 25 25 26 26 27 27 28 28 29 29 30 30 31 31 92 32 32 33
REMARK SMILES IDX 91 34 33 35 34 36 35 37 85 38 36 39 90 40 84 41 86 42 37 43
REMARK SMILES IDX 89 44 83 45 82 46 38 48 70 49 50 50 69 51 51 52 54 53 68 54
REMARK SMILES IDX 87 55 52 56 53 57 67 59 88 60 55 61 39 62 40 63 48 64 41 65
REMARK SMILES IDX 47 66 49 67 46 68 42 69 43 70 44 71 45 72 71 73 72 74 80 75
REMARK SMILES IDX 73 76 79 77 81 78 78 79 74 80 75 81 76 82 77 83 56 84 57 85
REMARK SMILES IDX 65 86 58 87 64 88 66 89 63 90 59 91 60 92 61 93 62 94
REMARK H PARENT 86 47 54 58
REMARK Flexibility Score: inf
ROOT
ATOM      1  O   UNL A   1      35.545  21.310  26.046  1.00  0.00    -0.374 OA
ENDROOT
BRANCH   1   2
ATOM      2  C   UNL A   1      34.176  21.233  26.448  1.00  0.00     0.202 C 
BRANCH   2   3
ATOM      3  C   UNL A   1      33.160  21.340  25.309  1.00  0.00     0.261 C 
BRANCH   3   4
ATOM      4  O   UNL A   1      33.655  22.197  24.262  1.00  0.00    -0.463 OA
BRANCH   4   5
ATOM      5  C   UNL A   1      33.120  23.443  24.184  1.00  0.00     0.313 C 
ATOM      6  O   UNL A   1      31.923  23.694  24.272  1.00  0.00    -0.252 OA
BRANCH   5   7
ATOM      7  C   UNL A   1      34.157  24.527  23.923  1.00  0.00     0.130 C 
ATOM      8  C   UNL A   1      35.416  24.253  24.743  1.00  0.00     0.025 C 
BRANCH   7   9
ATOM      9  C   UNL A   1      33.702  25.977  24.069  1.00  0.00     0.009 A 
ATOM     10  C   UNL A   1      33.562  26.820  22.954  1.00  0.00     0.122 A 
ATOM     11  C   UNL A   1      33.296  28.182  23.109  1.00  0.00     0.047 A 
ATOM     12  C   UNL A   1      33.186  28.734  24.386  1.00  0.00     0.016 A 
ATOM     13  C   UNL A   1      33.519  26.548  25.347  1.00  0.00     0.020 A 
ATOM     14  C   UNL A   1      33.329  27.928  25.522  1.00  0.00     0.023 A 
BRANCH  10  15
ATOM     15  O   UNL A   1      33.821  26.385  21.682  1.00  0.00    -0.496 OA
ATOM     16  C   UNL A   1      32.636  25.976  20.999  1.00  0.00     0.278 C 
ENDBRANCH  10  15
BRANCH  14  17
ATOM     17  C   UNL A   1      33.289  28.590  26.864  1.00  0.00     0.193 C 
ATOM     18  O   UNL A   1      32.396  28.270  27.648  1.00  0.00    -0.289 OA
BRANCH  17  19
ATOM     19  C   UNL A   1      34.291  29.599  27.310  1.00  0.00     0.022 A 
ATOM     20  C   UNL A   1      35.580  29.144  27.606  1.00  0.00     0.012 A 
ATOM     21  C   UNL A   1      34.006  30.961  27.450  1.00  0.00     0.012 A 
ATOM     22  C   UNL A   1      36.603  30.048  27.898  1.00  0.00     0.001 A 
ATOM     23  C   UNL A   1      35.032  31.868  27.734  1.00  0.00     0.001 A 
ATOM     24  C   UNL A   1      36.335  31.413  27.933  1.00  0.00     0.000 A 
ENDBRANCH  17  19
ENDBRANCH  14  17
ENDBRANCH   7   9
ENDBRANCH   5   7
ENDBRANCH   4   5
ENDBRANCH   3   4
ENDBRANCH   2   3
ENDBRANCH   1   2
BRANCH   1  25
ATOM     25  C   UNL A   1      35.963  20.391  25.040  1.00  0.00     0.202 C 
BRANCH  25  26
ATOM     26  C   UNL A   1      37.474  20.255  24.819  1.00  0.00     0.261 C 
BRANCH  26  27
ATOM     27  O   UNL A   1      38.195  21.425  25.233  1.00  0.00    -0.460 OA
BRANCH  27  28
ATOM     28  C   UNL A   1      39.277  21.168  26.007  1.00  0.00     0.338 C 
ATOM     29  O   UNL A   1      39.928  20.131  26.031  1.00  0.00    -0.246 OA
BRANCH  28  30
ATOM     30  C   UNL A   1      39.701  22.389  26.717  1.00  0.00     0.060 A 
ATOM     31  C   UNL A   1      39.082  23.595  26.365  1.00  0.00     0.016 A 
ATOM     32  C   UNL A   1      40.734  22.375  27.653  1.00  0.00     0.016 A 
ATOM     33  C   UNL A   1      39.534  24.802  26.900  1.00  0.00     0.010 A 
ATOM     34  C   UNL A   1      41.186  23.589  28.182  1.00  0.00     0.010 A 
ATOM     35  C   UNL A   1      40.618  24.815  27.785  1.00  0.00    -0.014 A 
BRANCH  35  36
ATOM     36  C   UNL A   1      41.281  26.101  28.140  1.00  0.00     0.031 A 
ATOM     37  C   UNL A   1      42.672  26.361  27.617  1.00  0.00     0.074 A 
ATOM     38  C   UNL A   1      40.661  27.033  28.889  1.00  0.00     0.049 A 
ATOM     39  N   UNL A   1      43.460  27.388  27.813  1.00  0.00    -0.248 NA
ATOM     40  C   UNL A   1      43.265  25.302  26.787  1.00  0.00     0.031 C 
ATOM     41  C   UNL A   1      39.320  26.910  29.462  1.00  0.00     0.029 A 
ATOM     42  N   UNL A   1      41.085  28.274  29.299  1.00  0.00    -0.354 N 
ATOM     43  C   UNL A   1      44.644  27.087  27.144  1.00  0.00     0.074 A 
ATOM     44  C   UNL A   1      44.496  25.751  26.611  1.00  0.00     0.031 C 
ATOM     45  C   UNL A   1      39.029  28.034  30.142  1.00  0.00     0.029 A 
ATOM     46  C   UNL A   1      40.167  28.949  30.070  1.00  0.00     0.049 A 
ATOM     47  H   UNL A   1      41.964  28.647  29.062  1.00  0.00     0.167 HD
ATOM     48  C   UNL A   1      45.742  27.861  26.956  1.00  0.00     0.034 A 
ATOM     49  C   UNL A   1      40.238  30.165  30.651  1.00  0.00     0.034 A 
ATOM     50  C   UNL A   1      45.873  29.203  27.466  1.00  0.00     0.049 A 
ATOM     51  C   UNL A   1      41.472  31.011  30.439  1.00  0.00     0.074 A 
ATOM     52  C   UNL A   1      46.925  30.089  27.313  1.00  0.00     0.029 A 
ATOM     53  N   UNL A   1      44.913  29.857  28.228  1.00  0.00    -0.354 N 
ATOM     54  N   UNL A   1      42.570  30.726  29.776  1.00  0.00    -0.248 NA
ATOM     55  C   UNL A   1      41.463  32.355  31.032  1.00  0.00     0.031 C 
ATOM     56  C   UNL A   1      46.624  31.257  28.024  1.00  0.00     0.029 A 
ATOM     57  C   UNL A   1      45.353  31.130  28.560  1.00  0.00     0.049 A 
ATOM     58  H   UNL A   1      44.045  29.474  28.494  1.00  0.00     0.167 HD
ATOM     59  C   UNL A   1      43.358  31.875  29.834  1.00  0.00     0.074 A 
ATOM     60  C   UNL A   1      42.605  32.855  30.587  1.00  0.00     0.031 C 
ATOM     61  C   UNL A   1      44.588  32.103  29.304  1.00  0.00     0.034 A 
BRANCH  48  62
ATOM     62  C   UNL A   1      46.888  27.251  26.182  1.00  0.00     0.023 A 
ATOM     63  C   UNL A   1      47.911  26.532  26.826  1.00  0.00     0.031 A 
ATOM     64  C   UNL A   1      46.998  27.448  24.794  1.00  0.00     0.131 A 
ATOM     65  C   UNL A   1      49.045  26.128  26.106  1.00  0.00     0.055 A 
ATOM     66  C   UNL A   1      48.085  26.958  24.066  1.00  0.00     0.041 A 
ATOM     67  F   UNL A   1      46.064  28.141  24.125  1.00  0.00    -0.206 F 
ATOM     68  C   UNL A   1      49.128  26.312  24.725  1.00  0.00     0.022 A 
BRANCH  65  69
ATOM     69  S   UNL A   1      50.483  25.520  27.030  1.00  0.00     0.124 S 
ATOM     70  O   UNL A   1      51.433  25.254  25.951  1.00  0.00    -0.237 OA
ATOM     71  O   UNL A   1      50.801  26.648  27.897  1.00  0.00    -0.237 OA
ATOM     72  O   UNL A   1      49.975  24.331  27.710  1.00  0.00    -0.744 OA
ENDBRANCH  65  69
ENDBRANCH  48  62
BRANCH  49  73
ATOM     73  C   UNL A   1      39.114  30.675  31.491  1.00  0.00     0.023 A 
ATOM     74  C   UNL A   1      38.210  31.628  30.994  1.00  0.00     0.031 A 
ATOM     75  C   UNL A   1      38.972  30.267  32.829  1.00  0.00     0.131 A 
ATOM     76  C   UNL A   1      37.243  32.186  31.844  1.00  0.00     0.055 A 
ATOM     77  C   UNL A   1      37.976  30.790  33.657  1.00  0.00     0.041 A 
ATOM     78  F   UNL A   1      39.803  29.351  33.351  1.00  0.00    -0.206 F 
ATOM     79  C   UNL A   1      37.114  31.767  33.169  1.00  0.00     0.022 A 
BRANCH  76  80
ATOM     80  S   UNL A   1      36.208  33.538  31.215  1.00  0.00     0.124 S 
ATOM     81  O   UNL A   1      36.213  34.464  32.341  1.00  0.00    -0.237 OA
ATOM     82  O   UNL A   1      36.951  33.960  30.032  1.00  0.00    -0.237 OA
ATOM     83  O   UNL A   1      34.928  32.888  30.944  1.00  0.00    -0.744 OA
ENDBRANCH  76  80
ENDBRANCH  49  73
BRANCH  61  84
ATOM     84  C   UNL A   1      45.158  33.493  29.458  1.00  0.00     0.023 A 
ATOM     85  C   UNL A   1      44.813  34.544  28.591  1.00  0.00     0.031 A 
ATOM     86  C   UNL A   1      46.087  33.761  30.480  1.00  0.00     0.131 A 
ATOM     87  C   UNL A   1      45.443  35.792  28.717  1.00  0.00     0.055 A 
ATOM     88  C   UNL A   1      46.661  35.023  30.643  1.00  0.00     0.041 A 
ATOM     89  F   UNL A   1      46.455  32.796  31.339  1.00  0.00    -0.206 F 
ATOM     90  C   UNL A   1      46.353  36.042  29.748  1.00  0.00     0.022 A 
BRANCH  87  91
ATOM     91  S   UNL A   1      45.147  37.050  27.444  1.00  0.00     0.124 S 
ATOM     92  O   UNL A   1      45.170  38.283  28.223  1.00  0.00    -0.237 OA
ATOM     93  O   UNL A   1      46.273  36.846  26.538  1.00  0.00    -0.237 OA
ATOM     94  O   UNL A   1      43.839  36.685  26.900  1.00  0.00    -0.744 OA
ENDBRANCH  87  91
ENDBRANCH  61  84
ENDBRANCH  35  36
ENDBRANCH  28  30
ENDBRANCH  27  28
ENDBRANCH  26  27
ENDBRANCH  25  26
ENDBRANCH   1  25
TORSDOF 21
ENDMDL
MODEL 2
REMARK VINA RESULT:     -10.9      4.645      9.881
REMARK SMILES COc1ccc(C(=O)c2ccccc2)cc1[C@@H](C)C(=O)OCCOCCOC(=O)c1ccc(-c2c3nc(c(-c4cc(S(=O)(=O)[O-])ccc4F)c4ccc([nH]4)c(-c4cc(S(=O)(=O)[O-])ccc4F)c4nc(c(-c5cc(S(=O)(=O)[O-])ccc5F)c5ccc2[nH]5)C=C4)C=C3)cc1
REMARK SMILES IDX 24 1 23 2 22 3 21 4 19 5 20 6 17 7 18 8 16 9 3 10 4 11 5 12
REMARK SMILES IDX 15 13 6 14 2 15 1 16 7 17 8 18 9 19 10 20 14 21 11 22 13 23
REMARK SMILES IDX 12 24 25 25 26 26 27 27 28 28 29 29 30 30 31 31 92 32 32 33
REMARK SMILES IDX 91 34 33 35 34 36 35 37 85 38 36 39 90 40 84 41 86 42 37 43
REMARK SMILES IDX 89 44 83 45 82 46 38 48 70 49 50 50 69 51 51 52 54 53 68 54
REMARK SMILES IDX 87 55 52 56 53 57 67 59 88 60 55 61 39 62 40 63 48 64 41 65
REMARK SMILES IDX 47 66 49 67 46 68 42 69 43 70 44 71 45 72 71 73 72 74 80 75
REMARK SMILES IDX 73 76 79 77 81 78 78 79 74 80 75 81 76 82 77 83 56 84 57 85
REMARK SMILES IDX 65 86 58 87 64 88 66 89 63 90 59 91 60 92 61 93 62 94
REMARK H PARENT 86 47 54 58
REMARK Flexibility Score: inf
ROOT
ATOM      1  O   UNL A   1      31.246  27.793  27.465  1.00  0.00    -0.374 OA
ENDROOT
BRANCH   1   2
ATOM      2  C   UNL A   1      31.011  27.136  26.217  1.00  0.00     0.202 C 
BRANCH   2   3
ATOM      3  C   UNL A   1      30.311  25.779  26.323  1.00  0.00     0.261 C 
BRANCH   3   4
ATOM      4  O   UNL A   1      31.144  24.826  27.010  1.00  0.00    -0.463 OA
BRANCH   4   5
ATOM      5  C   UNL A   1      30.713  23.538  27.032  1.00  0.00     0.313 C 
ATOM      6  O   UNL A   1      29.625  23.175  27.467  1.00  0.00    -0.252 OA
BRANCH   5   7
ATOM      7  C   UNL A   1      31.744  22.550  26.504  1.00  0.00     0.130 C 
ATOM      8  C   UNL A   1      33.073  22.744  27.232  1.00  0.00     0.025 C 
BRANCH   7   9
ATOM      9  C   UNL A   1      31.940  22.490  24.991  1.00  0.00     0.009 A 
ATOM     10  C   UNL A   1      32.067  21.266  24.313  1.00  0.00     0.122 A 
ATOM     11  C   UNL A   1      32.400  21.224  22.958  1.00  0.00     0.047 A 
ATOM     12  C   UNL A   1      32.635  22.407  22.257  1.00  0.00     0.016 A 
ATOM     13  C   UNL A   1      32.118  23.673  24.241  1.00  0.00     0.020 A 
ATOM     14  C   UNL A   1      32.529  23.646  22.900  1.00  0.00     0.023 A 
BRANCH  10  15
ATOM     15  O   UNL A   1      32.016  20.067  24.972  1.00  0.00    -0.496 OA
ATOM     16  C   UNL A   1      33.126  19.228  24.652  1.00  0.00     0.278 C 
ENDBRANCH  10  15
BRANCH  14  17
ATOM     17  C   UNL A   1      32.878  24.875  22.120  1.00  0.00     0.193 C 
ATOM     18  O   UNL A   1      33.226  24.744  20.947  1.00  0.00    -0.289 OA
BRANCH  17  19
ATOM     19  C   UNL A   1      32.799  26.252  22.683  1.00  0.00     0.022 A 
ATOM     20  C   UNL A   1      33.802  26.646  23.574  1.00  0.00     0.012 A 
ATOM     21  C   UNL A   1      31.780  27.158  22.369  1.00  0.00     0.012 A 
ATOM     22  C   UNL A   1      33.867  27.963  24.034  1.00  0.00     0.001 A 
ATOM     23  C   UNL A   1      31.849  28.479  22.822  1.00  0.00     0.001 A 
ATOM     24  C   UNL A   1      32.907  28.887  23.634  1.00  0.00     0.000 A 
ENDBRANCH  17  19
ENDBRANCH  14  17
ENDBRANCH   7   9
ENDBRANCH   5   7
ENDBRANCH   4   5
ENDBRANCH   3   4
ENDBRANCH   2   3
ENDBRANCH   1   2
BRANCH   1  25
ATOM     25  C   UNL A   1      32.429  28.584  27.552  1.00  0.00     0.202 C 
BRANCH  25  26
ATOM     26  C   UNL A   1      32.294  30.064  27.179  1.00  0.00     0.261 C 
BRANCH  26  27
ATOM     27  O   UNL A   1      33.526  30.621  26.696  1.00  0.00    -0.460 OA
BRANCH  27  28
ATOM     28  C   UNL A   1      34.127  31.478  27.557  1.00  0.00     0.338 C 
ATOM     29  O   UNL A   1      33.594  32.406  28.154  1.00  0.00    -0.246 OA
BRANCH  28  30
ATOM     30  C   UNL A   1      35.507  31.041  27.836  1.00  0.00     0.060 A 
ATOM     31  C   UNL A   1      35.811  29.686  27.648  1.00  0.00     0.016 A 
ATOM     32  C   UNL A   1      36.468  31.914  28.343  1.00  0.00     0.016 A 
ATOM     33  C   UNL A   1      37.058  29.185  28.026  1.00  0.00     0.010 A 
ATOM     34  C   UNL A   1      37.714  31.405  28.725  1.00  0.00     0.010 A 
ATOM     35  C   UNL A   1      38.009  30.033  28.604  1.00  0.00    -0.014 A 
BRANCH  35  36
ATOM     36  C   UNL A   1      39.219  29.464  29.260  1.00  0.00     0.031 A 
ATOM     37  C   UNL A   1      39.596  29.964  30.633  1.00  0.00     0.074 A 
ATOM     38  C   UNL A   1      39.961  28.508  28.668  1.00  0.00     0.049 A 
ATOM     39  N   UNL A   1      40.616  29.643  31.389  1.00  0.00    -0.248 NA
ATOM     40  C   UNL A   1      38.719  30.990  31.216  1.00  0.00     0.031 C 
ATOM     41  C   UNL A   1      39.713  27.938  27.344  1.00  0.00     0.029 A 
ATOM     42  N   UNL A   1      41.081  27.846  29.111  1.00  0.00    -0.354 N 
ATOM     43  C   UNL A   1      40.508  30.440  32.525  1.00  0.00     0.074 A 
ATOM     44  C   UNL A   1      39.373  31.313  32.319  1.00  0.00     0.031 C 
ATOM     45  C   UNL A   1      40.649  27.007  27.085  1.00  0.00     0.029 A 
ATOM     46  C   UNL A   1      41.574  26.926  28.215  1.00  0.00     0.049 A 
ATOM     47  H   UNL A   1      41.493  28.016  29.988  1.00  0.00     0.167 HD
ATOM     48  C   UNL A   1      41.258  30.426  33.656  1.00  0.00     0.034 A 
ATOM     49  C   UNL A   1      42.647  26.113  28.297  1.00  0.00     0.034 A 
ATOM     50  C   UNL A   1      42.370  29.535  33.868  1.00  0.00     0.049 A 
ATOM     51  C   UNL A   1      43.478  26.116  29.560  1.00  0.00     0.074 A 
ATOM     52  C   UNL A   1      43.181  29.412  34.983  1.00  0.00     0.029 A 
ATOM     53  N   UNL A   1      42.826  28.604  32.943  1.00  0.00    -0.354 N 
ATOM     54  N   UNL A   1      43.343  26.852  30.640  1.00  0.00    -0.248 NA
ATOM     55  C   UNL A   1      44.589  25.158  29.624  1.00  0.00     0.031 C 
ATOM     56  C   UNL A   1      44.158  28.446  34.712  1.00  0.00     0.029 A 
ATOM     57  C   UNL A   1      43.912  27.913  33.458  1.00  0.00     0.049 A 
ATOM     58  H   UNL A   1      42.435  28.456  32.051  1.00  0.00     0.167 HD
ATOM     59  C   UNL A   1      44.323  26.408  31.527  1.00  0.00     0.074 A 
ATOM     60  C   UNL A   1      45.032  25.338  30.859  1.00  0.00     0.031 C 
ATOM     61  C   UNL A   1      44.605  26.839  32.784  1.00  0.00     0.034 A 
BRANCH  48  62
ATOM     62  C   UNL A   1      40.898  31.427  34.731  1.00  0.00     0.023 A 
ATOM     63  C   UNL A   1      39.882  31.167  35.668  1.00  0.00     0.031 A 
ATOM     64  C   UNL A   1      41.527  32.683  34.777  1.00  0.00     0.131 A 
ATOM     65  C   UNL A   1      39.455  32.180  36.540  1.00  0.00     0.055 A 
ATOM     66  C   UNL A   1      41.163  33.654  35.713  1.00  0.00     0.041 A 
ATOM     67  F   UNL A   1      42.491  32.998  33.899  1.00  0.00    -0.206 F 
ATOM     68  C   UNL A   1      40.106  33.413  36.588  1.00  0.00     0.022 A 
BRANCH  65  69
ATOM     69  S   UNL A   1      37.926  31.920  37.481  1.00  0.00     0.124 S 
ATOM     70  O   UNL A   1      37.692  30.492  37.272  1.00  0.00    -0.237 OA
ATOM     71  O   UNL A   1      38.315  32.312  38.830  1.00  0.00    -0.237 OA
ATOM     72  O   UNL A   1      36.965  32.804  36.826  1.00  0.00    -0.744 OA
ENDBRANCH  65  69
ENDBRANCH  48  62
BRANCH  49  73
ATOM     73  C   UNL A   1      43.014  25.217  27.161  1.00  0.00     0.023 A 
ATOM     74  C   UNL A   1      42.512  23.908  27.076  1.00  0.00     0.031 A 
ATOM     75  C   UNL A   1      43.930  25.636  26.180  1.00  0.00     0.131 A 
ATOM     76  C   UNL A   1      42.972  23.044  26.071  1.00  0.00     0.055 A 
ATOM     77  C   UNL A   1      44.348  24.788  25.152  1.00  0.00     0.041 A 
ATOM     78  F   UNL A   1      44.434  26.880  26.208  1.00  0.00    -0.206 F 
ATOM     79  C   UNL A   1      43.881  23.479  25.103  1.00  0.00     0.022 A 
BRANCH  76  80
ATOM     80  S   UNL A   1      42.433  21.312  26.097  1.00  0.00     0.124 S 
ATOM     81  O   UNL A   1      41.101  21.407  25.513  1.00  0.00    -0.237 OA
ATOM     82  O   UNL A   1      43.452  20.668  25.275  1.00  0.00    -0.237 OA
ATOM     83  O   UNL A   1      42.472  20.966  27.516  1.00  0.00    -0.744 OA
ENDBRANCH  76  80
ENDBRANCH  49  73
BRANCH  61  84
ATOM     84  C   UNL A   1      45.679  26.096  33.543  1.00  0.00     0.023 A 
ATOM     85  C   UNL A   1      45.408  24.923  34.269  1.00  0.00     0.031 A 
ATOM     86  C   UNL A   1      46.997  26.590  33.558  1.00  0.00     0.131 A 
ATOM     87  C   UNL A   1      46.420  24.324  35.036  1.00  0.00     0.055 A 
ATOM     88  C   UNL A   1      48.016  25.952  34.268  1.00  0.00     0.041 A 
ATOM     89  F   UNL A   1      47.316  27.706  32.883  1.00  0.00    -0.206 F 
ATOM     90  C   UNL A   1      47.725  24.822  35.027  1.00  0.00     0.022 A 
BRANCH  87  91
ATOM     91  S   UNL A   1      45.979  22.954  36.139  1.00  0.00     0.124 S 
ATOM     92  O   UNL A   1      46.538  23.397  37.413  1.00  0.00    -0.237 OA
ATOM     93  O   UNL A   1      44.523  22.939  36.051  1.00  0.00    -0.237 OA
ATOM     94  O   UNL A   1      46.649  21.801  35.538  1.00  0.00    -0.744 OA
ENDBRANCH  87  91
ENDBRANCH  61  84
ENDBRANCH  35  36
ENDBRANCH  28  30
ENDBRANCH  27  28
ENDBRANCH  26  27
ENDBRANCH  25  26
ENDBRANCH   1  25
TORSDOF 21
ENDMDL
MODEL 3
REMARK VINA RESULT:     -10.7      4.608     10.557
REMARK SMILES COc1ccc(C(=O)c2ccccc2)cc1[C@@H](C)C(=O)OCCOCCOC(=O)c1ccc(-c2c3nc(c(-c4cc(S(=O)(=O)[O-])ccc4F)c4ccc([nH]4)c(-c4cc(S(=O)(=O)[O-])ccc4F)c4nc(c(-c5cc(S(=O)(=O)[O-])ccc5F)c5ccc2[nH]5)C=C4)C=C3)cc1
REMARK SMILES IDX 24 1 23 2 22 3 21 4 19 5 20 6 17 7 18 8 16 9 3 10 4 11 5 12
REMARK SMILES IDX 15 13 6 14 2 15 1 16 7 17 8 18 9 19 10 20 14 21 11 22 13 23
REMARK SMILES IDX 12 24 25 25 26 26 27 27 28 28 29 29 30 30 31 31 92 32 32 33
REMARK SMILES IDX 91 34 33 35 34 36 35 37 85 38 36 39 90 40 84 41 86 42 37 43
REMARK SMILES IDX 89 44 83 45 82 46 38 48 70 49 50 50 69 51 51 52 54 53 68 54
REMARK SMILES IDX 87 55 52 56 53 57 67 59 88 60 55 61 39 62 40 63 48 64 41 65
REMARK SMILES IDX 47 66 49 67 46 68 42 69 43 70 44 71 45 72 71 73 72 74 80 75
REMARK SMILES IDX 73 76 79 77 81 78 78 79 74 80 75 81 76 82 77 83 56 84 57 85
REMARK SMILES IDX 65 86 58 87 64 88 66 89 63 90 59 91 60 92 61 93 62 94
REMARK H PARENT 86 47 54 58
REMARK Flexibility Score: inf
ROOT
ATOM      1  O   UNL A   1      31.508  30.614  26.590  1.00  0.00    -0.374 OA
ENDROOT
BRANCH   1   2
ATOM      2  C   UNL A   1      32.176  29.889  25.555  1.00  0.00     0.202 C 
BRANCH   2   3
ATOM      3  C   UNL A   1      31.402  28.689  25.004  1.00  0.00     0.261 C 
BRANCH   3   4
ATOM      4  O   UNL A   1      32.223  27.505  25.011  1.00  0.00    -0.463 OA
BRANCH   4   5
ATOM      5  C   UNL A   1      31.866  26.516  25.870  1.00  0.00     0.313 C 
ATOM      6  O   UNL A   1      32.075  26.533  27.079  1.00  0.00    -0.252 OA
BRANCH   5   7
ATOM      7  C   UNL A   1      31.209  25.328  25.180  1.00  0.00     0.130 C 
ATOM      8  C   UNL A   1      30.264  24.619  26.149  1.00  0.00     0.025 C 
BRANCH   7   9
ATOM      9  C   UNL A   1      32.130  24.336  24.473  1.00  0.00     0.009 A 
ATOM     10  C   UNL A   1      32.355  24.400  23.088  1.00  0.00     0.122 A 
ATOM     11  C   UNL A   1      33.073  23.401  22.428  1.00  0.00     0.047 A 
ATOM     12  C   UNL A   1      33.560  22.303  23.137  1.00  0.00     0.016 A 
ATOM     13  C   UNL A   1      32.692  23.249  25.177  1.00  0.00     0.020 A 
ATOM     14  C   UNL A   1      33.347  22.198  24.517  1.00  0.00     0.023 A 
BRANCH  10  15
ATOM     15  O   UNL A   1      31.767  25.356  22.303  1.00  0.00    -0.496 OA
ATOM     16  C   UNL A   1      32.592  25.732  21.201  1.00  0.00     0.278 C 
ENDBRANCH  10  15
BRANCH  14  17
ATOM     17  C   UNL A   1      33.818  20.957  25.208  1.00  0.00     0.193 C 
ATOM     18  O   UNL A   1      34.283  21.060  26.343  1.00  0.00    -0.289 OA
BRANCH  17  19
ATOM     19  C   UNL A   1      33.726  19.598  24.604  1.00  0.00     0.022 A 
ATOM     20  C   UNL A   1      32.532  19.253  23.963  1.00  0.00     0.012 A 
ATOM     21  C   UNL A   1      34.763  18.660  24.650  1.00  0.00     0.012 A 
ATOM     22  C   UNL A   1      32.424  18.051  23.260  1.00  0.00     0.001 A 
ATOM     23  C   UNL A   1      34.659  17.461  23.939  1.00  0.00     0.001 A 
ATOM     24  C   UNL A   1      33.499  17.169  23.223  1.00  0.00     0.000 A 
ENDBRANCH  17  19
ENDBRANCH  14  17
ENDBRANCH   7   9
ENDBRANCH   5   7
ENDBRANCH   4   5
ENDBRANCH   3   4
ENDBRANCH   2   3
ENDBRANCH   1   2
BRANCH   1  25
ATOM     25  C   UNL A   1      31.224  31.985  26.323  1.00  0.00     0.202 C 
BRANCH  25  26
ATOM     26  C   UNL A   1      32.105  33.020  27.032  1.00  0.00     0.261 C 
BRANCH  26  27
ATOM     27  O   UNL A   1      33.176  32.412  27.771  1.00  0.00    -0.460 OA
BRANCH  27  28
ATOM     28  C   UNL A   1      34.141  33.277  28.167  1.00  0.00     0.338 C 
ATOM     29  O   UNL A   1      33.989  34.457  28.460  1.00  0.00    -0.246 OA
BRANCH  28  30
ATOM     30  C   UNL A   1      35.413  32.563  28.380  1.00  0.00     0.060 A 
ATOM     31  C   UNL A   1      35.353  31.186  28.633  1.00  0.00     0.016 A 
ATOM     32  C   UNL A   1      36.637  33.230  28.408  1.00  0.00     0.016 A 
ATOM     33  C   UNL A   1      36.507  30.482  28.978  1.00  0.00     0.010 A 
ATOM     34  C   UNL A   1      37.790  32.519  28.759  1.00  0.00     0.010 A 
ATOM     35  C   UNL A   1      37.732  31.150  29.083  1.00  0.00    -0.014 A 
BRANCH  35  36
ATOM     36  C   UNL A   1      38.901  30.477  29.714  1.00  0.00     0.031 A 
ATOM     37  C   UNL A   1      39.276  30.859  31.125  1.00  0.00     0.074 A 
ATOM     38  C   UNL A   1      39.606  29.529  29.066  1.00  0.00     0.049 A 
ATOM     39  N   UNL A   1      40.264  30.435  31.872  1.00  0.00    -0.248 NA
ATOM     40  C   UNL A   1      38.438  31.883  31.767  1.00  0.00     0.031 C 
ATOM     41  C   UNL A   1      39.356  29.067  27.701  1.00  0.00     0.029 A 
ATOM     42  N   UNL A   1      40.685  28.784  29.477  1.00  0.00    -0.354 N 
ATOM     43  C   UNL A   1      40.174  31.154  33.060  1.00  0.00     0.074 A 
ATOM     44  C   UNL A   1      39.087  32.094  32.899  1.00  0.00     0.031 C 
ATOM     45  C   UNL A   1      40.251  28.112  27.390  1.00  0.00     0.029 A 
ATOM     46  C   UNL A   1      41.149  27.906  28.526  1.00  0.00     0.049 A 
ATOM     47  H   UNL A   1      41.089  28.870  30.370  1.00  0.00     0.167 HD
ATOM     48  C   UNL A   1      40.901  31.023  34.199  1.00  0.00     0.034 A 
ATOM     49  C   UNL A   1      42.181  27.037  28.565  1.00  0.00     0.034 A 
ATOM     50  C   UNL A   1      41.965  30.065  34.363  1.00  0.00     0.049 A 
ATOM     51  C   UNL A   1      42.987  26.910  29.838  1.00  0.00     0.074 A 
ATOM     52  C   UNL A   1      42.748  29.823  35.478  1.00  0.00     0.029 A 
ATOM     53  N   UNL A   1      42.393  29.181  33.380  1.00  0.00    -0.354 N 
ATOM     54  N   UNL A   1      42.868  27.573  30.966  1.00  0.00    -0.248 NA
ATOM     55  C   UNL A   1      44.049  25.895  29.850  1.00  0.00     0.031 C 
ATOM     56  C   UNL A   1      43.682  28.832  35.154  1.00  0.00     0.029 A 
ATOM     57  C   UNL A   1      43.434  28.401  33.860  1.00  0.00     0.049 A 
ATOM     58  H   UNL A   1      42.012  29.116  32.474  1.00  0.00     0.167 HD
ATOM     59  C   UNL A   1      43.808  27.019  31.833  1.00  0.00     0.074 A 
ATOM     60  C   UNL A   1      44.477  25.965  31.101  1.00  0.00     0.031 C 
ATOM     61  C   UNL A   1      44.087  27.345  33.123  1.00  0.00     0.034 A 
BRANCH  48  62
ATOM     62  C   UNL A   1      40.570  31.961  35.336  1.00  0.00     0.023 A 
ATOM     63  C   UNL A   1      39.532  31.681  36.244  1.00  0.00     0.031 A 
ATOM     64  C   UNL A   1      41.251  33.183  35.476  1.00  0.00     0.131 A 
ATOM     65  C   UNL A   1      39.136  32.648  37.179  1.00  0.00     0.055 A 
ATOM     66  C   UNL A   1      40.915  34.102  36.474  1.00  0.00     0.041 A 
ATOM     67  F   UNL A   1      42.238  33.517  34.632  1.00  0.00    -0.206 F 
ATOM     68  C   UNL A   1      39.838  33.847  37.319  1.00  0.00     0.022 A 
BRANCH  65  69
ATOM     69  S   UNL A   1      37.587  32.390  38.085  1.00  0.00     0.124 S 
ATOM     70  O   UNL A   1      37.402  30.947  37.944  1.00  0.00    -0.237 OA
ATOM     71  O   UNL A   1      37.920  32.862  39.424  1.00  0.00    -0.237 OA
ATOM     72  O   UNL A   1      36.622  33.209  37.355  1.00  0.00    -0.744 OA
ENDBRANCH  65  69
ENDBRANCH  48  62
BRANCH  49  73
ATOM     73  C   UNL A   1      42.525  26.207  27.373  1.00  0.00     0.023 A 
ATOM     74  C   UNL A   1      42.097  24.873  27.269  1.00  0.00     0.031 A 
ATOM     75  C   UNL A   1      43.348  26.717  26.354  1.00  0.00     0.131 A 
ATOM     76  C   UNL A   1      42.542  24.076  26.203  1.00  0.00     0.055 A 
ATOM     77  C   UNL A   1      43.748  25.934  25.269  1.00  0.00     0.041 A 
ATOM     78  F   UNL A   1      43.777  27.988  26.399  1.00  0.00    -0.206 F 
ATOM     79  C   UNL A   1      43.357  24.601  25.197  1.00  0.00     0.022 A 
BRANCH  76  80
ATOM     80  S   UNL A   1      42.111  22.313  26.195  1.00  0.00     0.124 S 
ATOM     81  O   UNL A   1      42.795  21.846  24.995  1.00  0.00    -0.237 OA
ATOM     82  O   UNL A   1      42.664  21.863  27.468  1.00  0.00    -0.237 OA
ATOM     83  O   UNL A   1      40.651  22.321  26.121  1.00  0.00    -0.744 OA
ENDBRANCH  76  80
ENDBRANCH  49  73
BRANCH  61  84
ATOM     84  C   UNL A   1      45.110  26.498  33.842  1.00  0.00     0.023 A 
ATOM     85  C   UNL A   1      44.770  25.288  34.470  1.00  0.00     0.031 A 
ATOM     86  C   UNL A   1      46.447  26.928  33.920  1.00  0.00     0.131 A 
ATOM     87  C   UNL A   1      45.737  24.586  35.208  1.00  0.00     0.055 A 
ATOM     88  C   UNL A   1      47.420  26.192  34.599  1.00  0.00     0.041 A 
ATOM     89  F   UNL A   1      46.831  28.077  33.339  1.00  0.00    -0.206 F 
ATOM     90  C   UNL A   1      47.063  25.022  35.262  1.00  0.00     0.022 A 
BRANCH  87  91
ATOM     91  S   UNL A   1      45.211  23.157  36.194  1.00  0.00     0.124 S 
ATOM     92  O   UNL A   1      44.038  22.695  35.460  1.00  0.00    -0.237 OA
ATOM     93  O   UNL A   1      46.383  22.290  36.135  1.00  0.00    -0.237 OA
ATOM     94  O   UNL A   1      44.931  23.733  37.509  1.00  0.00    -0.744 OA
ENDBRANCH  87  91
ENDBRANCH  61  84
ENDBRANCH  35  36
ENDBRANCH  28  30
ENDBRANCH  27  28
ENDBRANCH  26  27
ENDBRANCH  25  26
ENDBRANCH   1  25
TORSDOF 21
ENDMDL
