MODEL 1
REMARK VINA RESULT:     -10.3      0.000      0.000
REMARK SMILES CC(C)[C@H](NC(=O)[C@H](C)NC(=O)CNC(=O)OCc1ccccc1)C(=O)OCCOCCOC(=O)c1ccc(-c2c3nc(c(-c4cc(S(=O)(=O)[O-])ccc4F)c4ccc([nH]4)c(-c4cc(S(=O)(=O)[O-])ccc4F)c4nc(c(-c5cc(S(=O)(=O)[O-])ccc5F)c5ccc2[nH]5)C=C4)C=C3)cc1
REMARK SMILES IDX 28 1 27 2 25 3 26 4 4 5 2 6 1 7 3 8 5 9 6 10 7 12 8 13 9 14
REMARK SMILES IDX 10 15 11 16 12 18 13 19 14 20 15 21 16 23 17 24 18 25 19 26
REMARK SMILES IDX 20 27 24 28 21 29 23 30 22 31 29 32 30 33 31 34 32 35 33 36
REMARK SMILES IDX 34 37 35 38 36 39 37 40 98 41 38 42 97 43 39 44 40 45 41 46
REMARK SMILES IDX 91 47 42 48 96 49 90 50 92 51 43 52 95 53 89 54 88 55 44 57
REMARK SMILES IDX 76 58 56 59 75 60 57 61 60 62 74 63 93 64 58 65 59 66 73 68
REMARK SMILES IDX 94 69 61 70 45 71 46 72 54 73 47 74 53 75 55 76 52 77 48 78
REMARK SMILES IDX 49 79 50 80 51 81 77 82 78 83 86 84 79 85 85 86 87 87 84 88
REMARK SMILES IDX 80 89 81 90 82 91 83 92 62 93 63 94 71 95 64 96 70 97 72 98
REMARK SMILES IDX 69 99 65 100 66 101 67 102 68 103
REMARK H PARENT 5 11 10 17 14 22 92 56 60 67
REMARK Flexibility Score: inf
ROOT
ATOM      1  C   UNL A   1      36.861  22.753  25.859  1.00  0.00     0.261 C 
ENDROOT
BRANCH   1   2
ATOM      2  O   UNL A   1      35.945  23.857  25.921  1.00  0.00    -0.462 OA
BRANCH   2   3
ATOM      3  C   UNL A   1      34.999  23.808  24.948  1.00  0.00     0.328 C 
ATOM      4  O   UNL A   1      35.149  24.270  23.818  1.00  0.00    -0.250 OA
BRANCH   3   5
ATOM      5  C   UNL A   1      33.699  23.090  25.355  1.00  0.00     0.194 C 
BRANCH   5   6
ATOM      6  C   UNL A   1      33.356  23.309  26.834  1.00  0.00     0.017 C 
ATOM      7  C   UNL A   1      31.979  23.884  27.169  1.00  0.00     0.010 C 
ATOM      8  C   UNL A   1      33.621  22.053  27.661  1.00  0.00     0.010 C 
ENDBRANCH   5   6
BRANCH   5   9
ATOM      9  N   UNL A   1      33.450  21.697  24.879  1.00  0.00    -0.341 N 
ATOM     10  C   UNL A   1      32.941  21.041  23.802  1.00  0.00     0.242 C 
ATOM     11  H   UNL A   1      33.749  21.050  25.558  1.00  0.00     0.164 HD
ATOM     12  O   UNL A   1      33.058  19.809  23.855  1.00  0.00    -0.273 OA
BRANCH  10  13
ATOM     13  C   UNL A   1      32.188  21.707  22.623  1.00  0.00     0.168 C 
ATOM     14  C   UNL A   1      31.795  20.655  21.576  1.00  0.00     0.041 C 
BRANCH  13  15
ATOM     15  N   UNL A   1      32.875  22.781  21.904  1.00  0.00    -0.343 N 
ATOM     16  C   UNL A   1      32.564  24.119  21.874  1.00  0.00     0.240 C 
ATOM     17  H   UNL A   1      33.659  22.511  21.373  1.00  0.00     0.164 HD
ATOM     18  O   UNL A   1      33.237  24.866  21.160  1.00  0.00    -0.273 OA
BRANCH  16  19
ATOM     19  C   UNL A   1      31.452  24.674  22.782  1.00  0.00     0.219 C 
BRANCH  19  20
ATOM     20  N   UNL A   1      32.060  25.354  23.898  1.00  0.00    -0.312 N 
ATOM     21  C   UNL A   1      31.876  26.654  24.249  1.00  0.00     0.407 C 
ATOM     22  H   UNL A   1      32.668  24.823  24.461  1.00  0.00     0.167 HD
ATOM     23  O   UNL A   1      32.659  27.208  25.002  1.00  0.00    -0.225 OA
BRANCH  21  24
ATOM     24  O   UNL A   1      30.792  27.221  23.660  1.00  0.00    -0.445 OA
BRANCH  24  25
ATOM     25  C   UNL A   1      31.040  28.469  22.996  1.00  0.00     0.270 C 
BRANCH  25  26
ATOM     26  C   UNL A   1      29.770  29.269  23.092  1.00  0.00    -0.011 A 
ATOM     27  C   UNL A   1      29.841  30.607  23.506  1.00  0.00     0.007 A 
ATOM     28  C   UNL A   1      28.512  28.701  22.871  1.00  0.00     0.007 A 
ATOM     29  C   UNL A   1      28.686  31.344  23.740  1.00  0.00     0.000 A 
ATOM     30  C   UNL A   1      27.354  29.457  23.060  1.00  0.00     0.000 A 
ATOM     31  C   UNL A   1      27.442  30.776  23.501  1.00  0.00     0.000 A 
ENDBRANCH  25  26
ENDBRANCH  24  25
ENDBRANCH  21  24
ENDBRANCH  19  20
ENDBRANCH  16  19
ENDBRANCH  13  15
ENDBRANCH  10  13
ENDBRANCH   5   9
ENDBRANCH   3   5
ENDBRANCH   2   3
ENDBRANCH   1   2
BRANCH   1  32
ATOM     32  C   UNL A   1      37.130  22.233  24.444  1.00  0.00     0.202 C 
BRANCH  32  33
ATOM     33  O   UNL A   1      37.543  20.881  24.289  1.00  0.00    -0.374 OA
BRANCH  33  34
ATOM     34  C   UNL A   1      37.731  20.084  25.453  1.00  0.00     0.202 C 
BRANCH  34  35
ATOM     35  C   UNL A   1      39.056  19.337  25.654  1.00  0.00     0.261 C 
BRANCH  35  36
ATOM     36  O   UNL A   1      40.214  20.189  25.652  1.00  0.00    -0.460 OA
BRANCH  36  37
ATOM     37  C   UNL A   1      40.825  20.288  26.862  1.00  0.00     0.338 C 
ATOM     38  O   UNL A   1      41.386  19.388  27.466  1.00  0.00    -0.246 OA
BRANCH  37  39
ATOM     39  C   UNL A   1      40.895  21.692  27.307  1.00  0.00     0.060 A 
ATOM     40  C   UNL A   1      40.340  22.668  26.470  1.00  0.00     0.016 A 
ATOM     41  C   UNL A   1      41.621  22.061  28.440  1.00  0.00     0.016 A 
ATOM     42  C   UNL A   1      40.573  24.019  26.720  1.00  0.00     0.010 A 
ATOM     43  C   UNL A   1      41.851  23.420  28.689  1.00  0.00     0.010 A 
ATOM     44  C   UNL A   1      41.369  24.407  27.806  1.00  0.00    -0.014 A 
BRANCH  44  45
ATOM     45  C   UNL A   1      41.811  25.821  27.948  1.00  0.00     0.031 A 
ATOM     46  C   UNL A   1      43.164  26.233  27.448  1.00  0.00     0.074 A 
ATOM     47  C   UNL A   1      41.007  26.764  28.470  1.00  0.00     0.049 A 
ATOM     48  N   UNL A   1      43.750  27.400  27.526  1.00  0.00    -0.248 NA
ATOM     49  C   UNL A   1      43.944  25.207  26.742  1.00  0.00     0.031 C 
ATOM     50  C   UNL A   1      39.619  26.551  28.841  1.00  0.00     0.029 A 
ATOM     51  N   UNL A   1      41.238  28.085  28.778  1.00  0.00    -0.354 N 
ATOM     52  C   UNL A   1      44.955  27.262  26.855  1.00  0.00     0.074 A 
ATOM     53  C   UNL A   1      45.045  25.875  26.439  1.00  0.00     0.031 C 
ATOM     54  C   UNL A   1      39.137  27.684  29.374  1.00  0.00     0.029 A 
ATOM     55  C   UNL A   1      40.187  28.678  29.435  1.00  0.00     0.049 A 
ATOM     56  H   UNL A   1      42.072  28.557  28.552  1.00  0.00     0.167 HD
ATOM     57  C   UNL A   1      45.882  28.213  26.584  1.00  0.00     0.034 A 
ATOM     58  C   UNL A   1      40.062  29.871  30.048  1.00  0.00     0.034 A 
ATOM     59  C   UNL A   1      45.788  29.587  27.022  1.00  0.00     0.049 A 
ATOM     60  C   UNL A   1      41.186  30.851  29.926  1.00  0.00     0.074 A 
ATOM     61  C   UNL A   1      46.677  30.623  26.795  1.00  0.00     0.029 A 
ATOM     62  N   UNL A   1      44.759  30.116  27.793  1.00  0.00    -0.354 N 
ATOM     63  N   UNL A   1      42.325  30.708  29.294  1.00  0.00    -0.248 NA
ATOM     64  C   UNL A   1      40.992  32.166  30.545  1.00  0.00     0.031 C 
ATOM     65  C   UNL A   1      46.232  31.750  27.497  1.00  0.00     0.029 A 
ATOM     66  C   UNL A   1      45.018  31.448  28.090  1.00  0.00     0.049 A 
ATOM     67  H   UNL A   1      43.962  29.618  28.086  1.00  0.00     0.167 HD
ATOM     68  C   UNL A   1      42.962  31.938  29.386  1.00  0.00     0.074 A 
ATOM     69  C   UNL A   1      42.079  32.807  30.140  1.00  0.00     0.031 C 
ATOM     70  C   UNL A   1      44.156  32.313  28.864  1.00  0.00     0.034 A 
BRANCH  57  71
ATOM     71  C   UNL A   1      47.103  27.771  25.817  1.00  0.00     0.023 A 
ATOM     72  C   UNL A   1      47.276  28.087  24.457  1.00  0.00     0.031 A 
ATOM     73  C   UNL A   1      48.083  26.979  26.440  1.00  0.00     0.131 A 
ATOM     74  C   UNL A   1      48.357  27.546  23.747  1.00  0.00     0.055 A 
ATOM     75  C   UNL A   1      49.203  26.517  25.749  1.00  0.00     0.041 A 
ATOM     76  F   UNL A   1      47.956  26.624  27.728  1.00  0.00    -0.206 F 
ATOM     77  C   UNL A   1      49.337  26.786  24.390  1.00  0.00     0.022 A 
BRANCH  74  78
ATOM     78  S   UNL A   1      48.376  27.711  21.940  1.00  0.00     0.124 S 
ATOM     79  O   UNL A   1      49.429  28.706  21.746  1.00  0.00    -0.237 OA
ATOM     80  O   UNL A   1      48.688  26.356  21.501  1.00  0.00    -0.237 OA
ATOM     81  O   UNL A   1      47.026  28.174  21.625  1.00  0.00    -0.744 OA
ENDBRANCH  74  78
ENDBRANCH  57  71
BRANCH  58  82
ATOM     82  C   UNL A   1      38.841  30.187  30.845  1.00  0.00     0.023 A 
ATOM     83  C   UNL A   1      37.792  30.950  30.312  1.00  0.00     0.031 A 
ATOM     84  C   UNL A   1      38.726  29.752  32.179  1.00  0.00     0.131 A 
ATOM     85  C   UNL A   1      36.693  31.291  31.118  1.00  0.00     0.055 A 
ATOM     86  C   UNL A   1      37.611  30.055  32.963  1.00  0.00     0.041 A 
ATOM     87  F   UNL A   1      39.698  29.014  32.739  1.00  0.00    -0.206 F 
ATOM     88  C   UNL A   1      36.591  30.840  32.437  1.00  0.00     0.022 A 
BRANCH  85  89
ATOM     89  S   UNL A   1      35.432  32.405  30.440  1.00  0.00     0.124 S 
ATOM     90  O   UNL A   1      34.451  32.436  31.518  1.00  0.00    -0.237 OA
ATOM     91  O   UNL A   1      36.197  33.629  30.229  1.00  0.00    -0.237 OA
ATOM     92  O   UNL A   1      34.999  31.725  29.221  1.00  0.00    -0.744 OA
ENDBRANCH  85  89
ENDBRANCH  58  82
BRANCH  70  93
ATOM     93  C   UNL A   1      44.552  33.755  29.055  1.00  0.00     0.023 A 
ATOM     94  C   UNL A   1      45.151  34.205  30.244  1.00  0.00     0.031 A 
ATOM     95  C   UNL A   1      44.281  34.701  28.051  1.00  0.00     0.131 A 
ATOM     96  C   UNL A   1      45.391  35.575  30.428  1.00  0.00     0.055 A 
ATOM     97  C   UNL A   1      44.593  36.051  28.211  1.00  0.00     0.041 A 
ATOM     98  F   UNL A   1      43.698  34.330  26.899  1.00  0.00    -0.206 F 
ATOM     99  C   UNL A   1      45.136  36.498  29.411  1.00  0.00     0.022 A 
BRANCH  96 100
ATOM    100  S   UNL A   1      45.930  36.148  32.063  1.00  0.00     0.124 S 
ATOM    101  O   UNL A   1      45.517  35.040  32.920  1.00  0.00    -0.237 OA
ATOM    102  O   UNL A   1      47.368  36.309  31.879  1.00  0.00    -0.237 OA
ATOM    103  O   UNL A   1      45.185  37.390  32.253  1.00  0.00    -0.744 OA
ENDBRANCH  96 100
ENDBRANCH  70  93
ENDBRANCH  44  45
ENDBRANCH  37  39
ENDBRANCH  36  37
ENDBRANCH  35  36
ENDBRANCH  34  35
ENDBRANCH  33  34
ENDBRANCH  32  33
ENDBRANCH   1  32
TORSDOF 26
ENDMDL
MODEL 2
REMARK VINA RESULT:     -10.1      1.860      2.072
REMARK SMILES CC(C)[C@H](NC(=O)[C@H](C)NC(=O)CNC(=O)OCc1ccccc1)C(=O)OCCOCCOC(=O)c1ccc(-c2c3nc(c(-c4cc(S(=O)(=O)[O-])ccc4F)c4ccc([nH]4)c(-c4cc(S(=O)(=O)[O-])ccc4F)c4nc(c(-c5cc(S(=O)(=O)[O-])ccc5F)c5ccc2[nH]5)C=C4)C=C3)cc1
REMARK SMILES IDX 28 1 27 2 25 3 26 4 4 5 2 6 1 7 3 8 5 9 6 10 7 12 8 13 9 14
REMARK SMILES IDX 10 15 11 16 12 18 13 19 14 20 15 21 16 23 17 24 18 25 19 26
REMARK SMILES IDX 20 27 24 28 21 29 23 30 22 31 29 32 30 33 31 34 32 35 33 36
REMARK SMILES IDX 34 37 35 38 36 39 37 40 98 41 38 42 97 43 39 44 40 45 41 46
REMARK SMILES IDX 91 47 42 48 96 49 90 50 92 51 43 52 95 53 89 54 88 55 44 57
REMARK SMILES IDX 76 58 56 59 75 60 57 61 60 62 74 63 93 64 58 65 59 66 73 68
REMARK SMILES IDX 94 69 61 70 45 71 46 72 54 73 47 74 53 75 55 76 52 77 48 78
REMARK SMILES IDX 49 79 50 80 51 81 77 82 78 83 86 84 79 85 85 86 87 87 84 88
REMARK SMILES IDX 80 89 81 90 82 91 83 92 62 93 63 94 71 95 64 96 70 97 72 98
REMARK SMILES IDX 69 99 65 100 66 101 67 102 68 103
REMARK H PARENT 5 11 10 17 14 22 92 56 60 67
REMARK Flexibility Score: inf
ROOT
ATOM      1  C   UNL A   1      36.797  22.667  25.920  1.00  0.00     0.261 C 
ENDROOT
BRANCH   1   2
ATOM      2  O   UNL A   1      35.997  23.852  26.044  1.00  0.00    -0.462 OA
BRANCH   2   3
ATOM      3  C   UNL A   1      35.054  23.952  25.071  1.00  0.00     0.328 C 
ATOM      4  O   UNL A   1      35.239  24.500  23.987  1.00  0.00    -0.250 OA
BRANCH   3   5
ATOM      5  C   UNL A   1      33.708  23.290  25.416  1.00  0.00     0.194 C 
BRANCH   5   6
ATOM      6  C   UNL A   1      33.319  23.498  26.885  1.00  0.00     0.017 C 
ATOM      7  C   UNL A   1      31.939  24.086  27.181  1.00  0.00     0.010 C 
ATOM      8  C   UNL A   1      33.542  22.231  27.707  1.00  0.00     0.010 C 
ENDBRANCH   5   6
BRANCH   5   9
ATOM      9  N   UNL A   1      33.412  21.919  24.903  1.00  0.00    -0.341 N 
ATOM     10  C   UNL A   1      32.884  21.309  23.809  1.00  0.00     0.242 C 
ATOM     11  H   UNL A   1      33.687  21.245  25.566  1.00  0.00     0.164 HD
ATOM     12  O   UNL A   1      32.958  20.072  23.830  1.00  0.00    -0.273 OA
BRANCH  10  13
ATOM     13  C   UNL A   1      32.158  22.031  22.646  1.00  0.00     0.168 C 
ATOM     14  C   UNL A   1      31.784  21.029  21.544  1.00  0.00     0.041 C 
BRANCH  13  15
ATOM     15  N   UNL A   1      32.863  23.133  21.991  1.00  0.00    -0.343 N 
ATOM     16  C   UNL A   1      32.521  24.464  21.963  1.00  0.00     0.240 C 
ATOM     17  H   UNL A   1      33.686  22.892  21.507  1.00  0.00     0.164 HD
ATOM     18  O   UNL A   1      33.220  25.240  21.308  1.00  0.00    -0.273 OA
BRANCH  16  19
ATOM     19  C   UNL A   1      31.341  24.976  22.807  1.00  0.00     0.219 C 
BRANCH  19  20
ATOM     20  N   UNL A   1      31.857  25.737  23.917  1.00  0.00    -0.312 N 
ATOM     21  C   UNL A   1      31.546  27.022  24.229  1.00  0.00     0.407 C 
ATOM     22  H   UNL A   1      32.500  25.279  24.506  1.00  0.00     0.167 HD
ATOM     23  O   UNL A   1      32.257  27.665  24.983  1.00  0.00    -0.225 OA
BRANCH  21  24
ATOM     24  O   UNL A   1      30.428  27.471  23.604  1.00  0.00    -0.445 OA
BRANCH  24  25
ATOM     25  C   UNL A   1      30.658  28.236  22.412  1.00  0.00     0.270 C 
BRANCH  25  26
ATOM     26  C   UNL A   1      29.820  29.478  22.526  1.00  0.00    -0.011 A 
ATOM     27  C   UNL A   1      29.758  30.146  23.758  1.00  0.00     0.007 A 
ATOM     28  C   UNL A   1      29.028  29.942  21.471  1.00  0.00     0.007 A 
ATOM     29  C   UNL A   1      28.894  31.216  23.948  1.00  0.00     0.000 A 
ATOM     30  C   UNL A   1      28.194  31.048  21.650  1.00  0.00     0.000 A 
ATOM     31  C   UNL A   1      28.124  31.680  22.889  1.00  0.00     0.000 A 
ENDBRANCH  25  26
ENDBRANCH  24  25
ENDBRANCH  21  24
ENDBRANCH  19  20
ENDBRANCH  16  19
ENDBRANCH  13  15
ENDBRANCH  10  13
ENDBRANCH   5   9
ENDBRANCH   3   5
ENDBRANCH   2   3
ENDBRANCH   1   2
BRANCH   1  32
ATOM     32  C   UNL A   1      37.087  22.247  24.476  1.00  0.00     0.202 C 
BRANCH  32  33
ATOM     33  O   UNL A   1      37.419  20.888  24.222  1.00  0.00    -0.374 OA
BRANCH  33  34
ATOM     34  C   UNL A   1      37.585  20.004  25.325  1.00  0.00     0.202 C 
BRANCH  34  35
ATOM     35  C   UNL A   1      38.909  19.249  25.498  1.00  0.00     0.261 C 
BRANCH  35  36
ATOM     36  O   UNL A   1      40.072  20.095  25.488  1.00  0.00    -0.460 OA
BRANCH  36  37
ATOM     37  C   UNL A   1      40.731  20.137  26.675  1.00  0.00     0.338 C 
ATOM     38  O   UNL A   1      41.307  19.208  27.218  1.00  0.00    -0.246 OA
BRANCH  37  39
ATOM     39  C   UNL A   1      40.829  21.520  27.178  1.00  0.00     0.060 A 
ATOM     40  C   UNL A   1      40.231  22.532  26.418  1.00  0.00     0.016 A 
ATOM     41  C   UNL A   1      41.619  21.838  28.283  1.00  0.00     0.016 A 
ATOM     42  C   UNL A   1      40.481  23.871  26.715  1.00  0.00     0.010 A 
ATOM     43  C   UNL A   1      41.866  23.184  28.580  1.00  0.00     0.010 A 
ATOM     44  C   UNL A   1      41.338  24.210  27.770  1.00  0.00    -0.014 A 
BRANCH  44  45
ATOM     45  C   UNL A   1      41.791  25.616  27.950  1.00  0.00     0.031 A 
ATOM     46  C   UNL A   1      43.179  26.010  27.539  1.00  0.00     0.074 A 
ATOM     47  C   UNL A   1      40.970  26.568  28.426  1.00  0.00     0.049 A 
ATOM     48  N   UNL A   1      43.776  27.167  27.663  1.00  0.00    -0.248 NA
ATOM     49  C   UNL A   1      43.987  24.977  26.877  1.00  0.00     0.031 C 
ATOM     50  C   UNL A   1      39.558  26.374  28.707  1.00  0.00     0.029 A 
ATOM     51  N   UNL A   1      41.200  27.883  28.758  1.00  0.00    -0.354 N 
ATOM     52  C   UNL A   1      45.019  27.015  27.069  1.00  0.00     0.074 A 
ATOM     53  C   UNL A   1      45.115  25.630  26.650  1.00  0.00     0.031 C 
ATOM     54  C   UNL A   1      39.060  27.511  29.216  1.00  0.00     0.029 A 
ATOM     55  C   UNL A   1      40.119  28.489  29.350  1.00  0.00     0.049 A 
ATOM     56  H   UNL A   1      42.054  28.344  28.588  1.00  0.00     0.167 HD
ATOM     57  C   UNL A   1      45.976  27.954  26.864  1.00  0.00     0.034 A 
ATOM     58  C   UNL A   1      39.972  29.680  29.963  1.00  0.00     0.034 A 
ATOM     59  C   UNL A   1      45.875  29.326  27.305  1.00  0.00     0.049 A 
ATOM     60  C   UNL A   1      41.116  30.643  29.919  1.00  0.00     0.074 A 
ATOM     61  C   UNL A   1      46.792  30.350  27.142  1.00  0.00     0.029 A 
ATOM     62  N   UNL A   1      44.806  29.866  28.013  1.00  0.00    -0.354 N 
ATOM     63  N   UNL A   1      42.292  30.486  29.360  1.00  0.00    -0.248 NA
ATOM     64  C   UNL A   1      40.903  31.957  30.534  1.00  0.00     0.031 C 
ATOM     65  C   UNL A   1      46.320  31.479  27.822  1.00  0.00     0.029 A 
ATOM     66  C   UNL A   1      45.066  31.192  28.335  1.00  0.00     0.049 A 
ATOM     67  H   UNL A   1      43.985  29.379  28.251  1.00  0.00     0.167 HD
ATOM     68  C   UNL A   1      42.939  31.706  29.500  1.00  0.00     0.074 A 
ATOM     69  C   UNL A   1      42.023  32.584  30.204  1.00  0.00     0.031 C 
ATOM     70  C   UNL A   1      44.169  32.066  29.058  1.00  0.00     0.034 A 
BRANCH  57  71
ATOM     71  C   UNL A   1      47.236  27.498  26.173  1.00  0.00     0.023 A 
ATOM     72  C   UNL A   1      48.336  26.998  26.894  1.00  0.00     0.031 A 
ATOM     73  C   UNL A   1      47.360  27.611  24.777  1.00  0.00     0.131 A 
ATOM     74  C   UNL A   1      49.535  26.710  26.227  1.00  0.00     0.055 A 
ATOM     75  C   UNL A   1      48.527  27.238  24.110  1.00  0.00     0.041 A 
ATOM     76  F   UNL A   1      46.353  28.107  24.041  1.00  0.00    -0.206 F 
ATOM     77  C   UNL A   1      49.629  26.800  24.837  1.00  0.00     0.022 A 
BRANCH  74  78
ATOM     78  S   UNL A   1      51.017  26.374  27.219  1.00  0.00     0.124 S 
ATOM     79  O   UNL A   1      50.602  26.846  28.538  1.00  0.00    -0.237 OA
ATOM     80  O   UNL A   1      51.174  24.931  27.076  1.00  0.00    -0.237 OA
ATOM     81  O   UNL A   1      52.050  27.182  26.574  1.00  0.00    -0.744 OA
ENDBRANCH  74  78
ENDBRANCH  57  71
BRANCH  58  82
ATOM     82  C   UNL A   1      38.708  30.010  30.683  1.00  0.00     0.023 A 
ATOM     83  C   UNL A   1      37.709  30.796  30.091  1.00  0.00     0.031 A 
ATOM     84  C   UNL A   1      38.500  29.564  32.002  1.00  0.00     0.131 A 
ATOM     85  C   UNL A   1      36.566  31.148  30.828  1.00  0.00     0.055 A 
ATOM     86  C   UNL A   1      37.341  29.879  32.716  1.00  0.00     0.041 A 
ATOM     87  F   UNL A   1      39.420  28.804  32.616  1.00  0.00    -0.206 F 
ATOM     88  C   UNL A   1      36.371  30.686  32.133  1.00  0.00     0.022 A 
BRANCH  85  89
ATOM     89  S   UNL A   1      35.371  32.290  30.083  1.00  0.00     0.124 S 
ATOM     90  O   UNL A   1      34.459  32.535  31.194  1.00  0.00    -0.237 OA
ATOM     91  O   UNL A   1      36.226  33.406  29.693  1.00  0.00    -0.237 OA
ATOM     92  O   UNL A   1      34.812  31.520  28.974  1.00  0.00    -0.744 OA
ENDBRANCH  85  89
ENDBRANCH  58  82
BRANCH  70  93
ATOM     93  C   UNL A   1      44.574  33.500  29.284  1.00  0.00     0.023 A 
ATOM     94  C   UNL A   1      44.341  34.495  28.318  1.00  0.00     0.031 A 
ATOM     95  C   UNL A   1      45.249  33.867  30.462  1.00  0.00     0.131 A 
ATOM     96  C   UNL A   1      44.844  35.790  28.516  1.00  0.00     0.055 A 
ATOM     97  C   UNL A   1      45.678  35.175  30.686  1.00  0.00     0.041 A 
ATOM     98  F   UNL A   1      45.510  32.955  31.414  1.00  0.00    -0.206 F 
ATOM     99  C   UNL A   1      45.491  36.141  29.703  1.00  0.00     0.022 A 
BRANCH  96 100
ATOM    100  S   UNL A   1      44.744  36.975  27.148  1.00  0.00     0.124 S 
ATOM    101  O   UNL A   1      45.150  38.218  27.797  1.00  0.00    -0.237 OA
ATOM    102  O   UNL A   1      45.690  36.422  26.184  1.00  0.00    -0.237 OA
ATOM    103  O   UNL A   1      43.341  36.916  26.744  1.00  0.00    -0.744 OA
ENDBRANCH  96 100
ENDBRANCH  70  93
ENDBRANCH  44  45
ENDBRANCH  37  39
ENDBRANCH  36  37
ENDBRANCH  35  36
ENDBRANCH  34  35
ENDBRANCH  33  34
ENDBRANCH  32  33
ENDBRANCH   1  32
TORSDOF 26
ENDMDL
MODEL 3
REMARK VINA RESULT:      -9.8      2.793      3.636
REMARK SMILES CC(C)[C@H](NC(=O)[C@H](C)NC(=O)CNC(=O)OCc1ccccc1)C(=O)OCCOCCOC(=O)c1ccc(-c2c3nc(c(-c4cc(S(=O)(=O)[O-])ccc4F)c4ccc([nH]4)c(-c4cc(S(=O)(=O)[O-])ccc4F)c4nc(c(-c5cc(S(=O)(=O)[O-])ccc5F)c5ccc2[nH]5)C=C4)C=C3)cc1
REMARK SMILES IDX 28 1 27 2 25 3 26 4 4 5 2 6 1 7 3 8 5 9 6 10 7 12 8 13 9 14
REMARK SMILES IDX 10 15 11 16 12 18 13 19 14 20 15 21 16 23 17 24 18 25 19 26
REMARK SMILES IDX 20 27 24 28 21 29 23 30 22 31 29 32 30 33 31 34 32 35 33 36
REMARK SMILES IDX 34 37 35 38 36 39 37 40 98 41 38 42 97 43 39 44 40 45 41 46
REMARK SMILES IDX 91 47 42 48 96 49 90 50 92 51 43 52 95 53 89 54 88 55 44 57
REMARK SMILES IDX 76 58 56 59 75 60 57 61 60 62 74 63 93 64 58 65 59 66 73 68
REMARK SMILES IDX 94 69 61 70 45 71 46 72 54 73 47 74 53 75 55 76 52 77 48 78
REMARK SMILES IDX 49 79 50 80 51 81 77 82 78 83 86 84 79 85 85 86 87 87 84 88
REMARK SMILES IDX 80 89 81 90 82 91 83 92 62 93 63 94 71 95 64 96 70 97 72 98
REMARK SMILES IDX 69 99 65 100 66 101 67 102 68 103
REMARK H PARENT 5 11 10 17 14 22 92 56 60 67
REMARK Flexibility Score: inf
ROOT
ATOM      1  C   UNL A   1      34.943  23.075  26.761  1.00  0.00     0.261 C 
ENDROOT
BRANCH   1   2
ATOM      2  O   UNL A   1      33.548  22.833  26.524  1.00  0.00    -0.462 OA
BRANCH   2   3
ATOM      3  C   UNL A   1      33.277  21.525  26.280  1.00  0.00     0.328 C 
ATOM      4  O   UNL A   1      33.372  20.634  27.121  1.00  0.00    -0.250 OA
BRANCH   3   5
ATOM      5  C   UNL A   1      32.803  21.227  24.846  1.00  0.00     0.194 C 
BRANCH   5   6
ATOM      6  C   UNL A   1      32.900  19.735  24.503  1.00  0.00     0.017 C 
ATOM      7  C   UNL A   1      32.213  19.251  23.225  1.00  0.00     0.010 C 
ATOM      8  C   UNL A   1      34.345  19.244  24.545  1.00  0.00     0.010 C 
ENDBRANCH   5   6
BRANCH   5   9
ATOM      9  N   UNL A   1      33.221  22.129  23.733  1.00  0.00    -0.341 N 
ATOM     10  C   UNL A   1      32.767  23.210  23.044  1.00  0.00     0.242 C 
ATOM     11  H   UNL A   1      34.102  21.856  23.390  1.00  0.00     0.164 HD
ATOM     12  O   UNL A   1      33.580  23.674  22.232  1.00  0.00    -0.273 OA
BRANCH  10  13
ATOM     13  C   UNL A   1      31.340  23.804  23.151  1.00  0.00     0.168 C 
ATOM     14  C   UNL A   1      31.309  25.229  22.580  1.00  0.00     0.041 C 
BRANCH  13  15
ATOM     15  N   UNL A   1      30.734  23.871  24.482  1.00  0.00    -0.343 N 
ATOM     16  C   UNL A   1      31.080  24.684  25.534  1.00  0.00     0.240 C 
ATOM     17  H   UNL A   1      29.984  23.255  24.645  1.00  0.00     0.164 HD
ATOM     18  O   UNL A   1      30.479  24.555  26.603  1.00  0.00    -0.273 OA
BRANCH  16  19
ATOM     19  C   UNL A   1      32.136  25.787  25.343  1.00  0.00     0.219 C 
BRANCH  19  20
ATOM     20  N   UNL A   1      32.018  26.736  26.421  1.00  0.00    -0.312 N 
ATOM     21  C   UNL A   1      31.738  28.060  26.304  1.00  0.00     0.407 C 
ATOM     22  H   UNL A   1      32.152  26.390  27.333  1.00  0.00     0.167 HD
ATOM     23  O   UNL A   1      31.966  28.826  27.226  1.00  0.00    -0.225 OA
BRANCH  21  24
ATOM     24  O   UNL A   1      31.234  28.397  25.088  1.00  0.00    -0.445 OA
BRANCH  24  25
ATOM     25  C   UNL A   1      31.142  29.806  24.833  1.00  0.00     0.270 C 
BRANCH  25  26
ATOM     26  C   UNL A   1      29.959  30.005  23.926  1.00  0.00    -0.011 A 
ATOM     27  C   UNL A   1      29.296  31.240  23.936  1.00  0.00     0.007 A 
ATOM     28  C   UNL A   1      29.442  28.971  23.139  1.00  0.00     0.007 A 
ATOM     29  C   UNL A   1      28.120  31.425  23.218  1.00  0.00     0.000 A 
ATOM     30  C   UNL A   1      28.286  29.173  22.381  1.00  0.00     0.000 A 
ATOM     31  C   UNL A   1      27.624  30.398  22.427  1.00  0.00     0.000 A 
ENDBRANCH  25  26
ENDBRANCH  24  25
ENDBRANCH  21  24
ENDBRANCH  19  20
ENDBRANCH  16  19
ENDBRANCH  13  15
ENDBRANCH  10  13
ENDBRANCH   5   9
ENDBRANCH   3   5
ENDBRANCH   2   3
ENDBRANCH   1   2
BRANCH   1  32
ATOM     32  C   UNL A   1      35.661  23.808  25.624  1.00  0.00     0.202 C 
BRANCH  32  33
ATOM     33  O   UNL A   1      36.140  23.043  24.526  1.00  0.00    -0.374 OA
BRANCH  33  34
ATOM     34  C   UNL A   1      36.701  21.759  24.776  1.00  0.00     0.202 C 
BRANCH  34  35
ATOM     35  C   UNL A   1      38.193  21.638  25.114  1.00  0.00     0.261 C 
BRANCH  35  36
ATOM     36  O   UNL A   1      38.535  22.112  26.428  1.00  0.00    -0.460 OA
BRANCH  36  37
ATOM     37  C   UNL A   1      39.798  22.604  26.523  1.00  0.00     0.338 C 
ATOM     38  O   UNL A   1      40.825  22.035  26.188  1.00  0.00    -0.246 OA
BRANCH  37  39
ATOM     39  C   UNL A   1      39.786  24.022  26.926  1.00  0.00     0.060 A 
ATOM     40  C   UNL A   1      40.256  24.965  26.003  1.00  0.00     0.016 A 
ATOM     41  C   UNL A   1      39.469  24.406  28.229  1.00  0.00     0.016 A 
ATOM     42  C   UNL A   1      40.482  26.282  26.401  1.00  0.00     0.010 A 
ATOM     43  C   UNL A   1      39.696  25.730  28.624  1.00  0.00     0.010 A 
ATOM     44  C   UNL A   1      40.248  26.667  27.727  1.00  0.00    -0.014 A 
BRANCH  44  45
ATOM     45  C   UNL A   1      40.701  27.998  28.215  1.00  0.00     0.031 A 
ATOM     46  C   UNL A   1      42.167  28.292  28.324  1.00  0.00     0.074 A 
ATOM     47  C   UNL A   1      39.827  28.974  28.517  1.00  0.00     0.049 A 
ATOM     48  N   UNL A   1      42.759  29.368  28.776  1.00  0.00    -0.248 NA
ATOM     49  C   UNL A   1      43.084  27.254  27.834  1.00  0.00     0.031 C 
ATOM     50  C   UNL A   1      38.393  28.893  28.304  1.00  0.00     0.029 A 
ATOM     51  N   UNL A   1      40.014  30.222  29.066  1.00  0.00    -0.354 N 
ATOM     52  C   UNL A   1      44.117  29.154  28.598  1.00  0.00     0.074 A 
ATOM     53  C   UNL A   1      44.262  27.813  28.064  1.00  0.00     0.031 C 
ATOM     54  C   UNL A   1      37.824  30.017  28.763  1.00  0.00     0.029 A 
ATOM     55  C   UNL A   1      38.837  30.869  29.350  1.00  0.00     0.049 A 
ATOM     56  H   UNL A   1      40.902  30.611  29.238  1.00  0.00     0.167 HD
ATOM     57  C   UNL A   1      45.143  30.010  28.830  1.00  0.00     0.034 A 
ATOM     58  C   UNL A   1      38.568  32.003  30.026  1.00  0.00     0.034 A 
ATOM     59  C   UNL A   1      44.984  31.336  29.382  1.00  0.00     0.049 A 
ATOM     60  C   UNL A   1      39.719  32.850  30.472  1.00  0.00     0.074 A 
ATOM     61  C   UNL A   1      45.964  32.277  29.650  1.00  0.00     0.029 A 
ATOM     62  N   UNL A   1      43.777  31.906  29.770  1.00  0.00    -0.354 N 
ATOM     63  N   UNL A   1      41.001  32.635  30.305  1.00  0.00    -0.248 NA
ATOM     64  C   UNL A   1      39.394  34.112  31.144  1.00  0.00     0.031 C 
ATOM     65  C   UNL A   1      45.363  33.374  30.277  1.00  0.00     0.029 A 
ATOM     66  C   UNL A   1      43.995  33.163  30.320  1.00  0.00     0.049 A 
ATOM     67  H   UNL A   1      42.896  31.480  29.669  1.00  0.00     0.167 HD
ATOM     68  C   UNL A   1      41.638  33.766  30.796  1.00  0.00     0.074 A 
ATOM     69  C   UNL A   1      40.596  34.656  31.271  1.00  0.00     0.031 C 
ATOM     70  C   UNL A   1      42.965  34.045  30.820  1.00  0.00     0.034 A 
BRANCH  57  71
ATOM     71  C   UNL A   1      46.530  29.503  28.528  1.00  0.00     0.023 A 
ATOM     72  C   UNL A   1      47.347  28.945  29.529  1.00  0.00     0.031 A 
ATOM     73  C   UNL A   1      47.064  29.625  27.233  1.00  0.00     0.131 A 
ATOM     74  C   UNL A   1      48.676  28.607  29.237  1.00  0.00     0.055 A 
ATOM     75  C   UNL A   1      48.359  29.205  26.930  1.00  0.00     0.041 A 
ATOM     76  F   UNL A   1      46.341  30.175  26.246  1.00  0.00    -0.206 F 
ATOM     77  C   UNL A   1      49.180  28.707  27.938  1.00  0.00     0.022 A 
BRANCH  74  78
ATOM     78  S   UNL A   1      49.785  28.192  30.612  1.00  0.00     0.124 S 
ATOM     79  O   UNL A   1      49.309  29.096  31.657  1.00  0.00    -0.237 OA
ATOM     80  O   UNL A   1      49.515  26.775  30.820  1.00  0.00    -0.237 OA
ATOM     81  O   UNL A   1      51.113  28.504  30.086  1.00  0.00    -0.744 OA
ENDBRANCH  74  78
ENDBRANCH  57  71
BRANCH  58  82
ATOM     82  C   UNL A   1      37.160  32.384  30.337  1.00  0.00     0.023 A 
ATOM     83  C   UNL A   1      36.370  33.093  29.421  1.00  0.00     0.031 A 
ATOM     84  C   UNL A   1      36.593  32.065  31.587  1.00  0.00     0.131 A 
ATOM     85  C   UNL A   1      35.074  33.499  29.780  1.00  0.00     0.055 A 
ATOM     86  C   UNL A   1      35.288  32.432  31.922  1.00  0.00     0.041 A 
ATOM     87  F   UNL A   1      37.301  31.382  32.500  1.00  0.00    -0.206 F 
ATOM     88  C   UNL A   1      34.524  33.164  31.020  1.00  0.00     0.022 A 
BRANCH  85  89
ATOM     89  S   UNL A   1      34.142  34.545  28.628  1.00  0.00     0.124 S 
ATOM     90  O   UNL A   1      34.644  35.874  28.958  1.00  0.00    -0.237 OA
ATOM     91  O   UNL A   1      34.551  34.005  27.336  1.00  0.00    -0.237 OA
ATOM     92  O   UNL A   1      32.750  34.295  28.993  1.00  0.00    -0.744 OA
ENDBRANCH  85  89
ENDBRANCH  58  82
BRANCH  70  93
ATOM     93  C   UNL A   1      43.358  35.404  31.340  1.00  0.00     0.023 A 
ATOM     94  C   UNL A   1      43.431  35.676  32.717  1.00  0.00     0.031 A 
ATOM     95  C   UNL A   1      43.615  36.457  30.444  1.00  0.00     0.131 A 
ATOM     96  C   UNL A   1      43.681  36.984  33.158  1.00  0.00     0.055 A 
ATOM     97  C   UNL A   1      43.938  37.738  30.889  1.00  0.00     0.041 A 
ATOM     98  F   UNL A   1      43.547  36.258  29.117  1.00  0.00    -0.206 F 
ATOM     99  C   UNL A   1      43.956  38.012  32.253  1.00  0.00     0.022 A 
BRANCH  96 100
ATOM    100  S   UNL A   1      43.521  37.347  34.927  1.00  0.00     0.124 S 
ATOM    101  O   UNL A   1      42.116  37.035  35.172  1.00  0.00    -0.237 OA
ATOM    102  O   UNL A   1      44.489  36.433  35.523  1.00  0.00    -0.237 OA
ATOM    103  O   UNL A   1      43.867  38.764  35.019  1.00  0.00    -0.744 OA
ENDBRANCH  96 100
ENDBRANCH  70  93
ENDBRANCH  44  45
ENDBRANCH  37  39
ENDBRANCH  36  37
ENDBRANCH  35  36
ENDBRANCH  34  35
ENDBRANCH  33  34
ENDBRANCH  32  33
ENDBRANCH   1  32
TORSDOF 26
ENDMDL
