MODEL 1
REMARK VINA RESULT:     -10.8      0.000      0.000
REMARK SMILES COC[C@H]1CCN(C(=O)N2CC[C@H](C(=O)OCCOCCOC(=O)c3ccc(-c4c5nc(c(-c6cc(S(=O)(=O)[O-])ccc6F)c6ccc([nH]6)c(-c6cc(S(=O)(=O)[O-])ccc6F)c6nc(c(-c7cc(S(=O)(=O)[O-])ccc7F)c7ccc4[nH]7)C=C6)C=C5)cc3)[C@@H]2C)C1
REMARK SMILES IDX 18 1 17 2 16 3 14 4 15 5 13 6 10 7 11 8 88 9 12 10 89 11
REMARK SMILES IDX 8 12 9 13 7 14 4 15 5 16 90 17 6 18 3 19 2 20 1 21 19 22
REMARK SMILES IDX 20 23 21 24 22 25 23 26 24 27 25 28 26 29 87 30 27 31 86 32
REMARK SMILES IDX 28 33 29 34 30 35 80 36 31 37 85 38 79 39 81 40 32 41 84 42
REMARK SMILES IDX 78 43 77 44 33 46 65 47 45 48 64 49 46 50 49 51 63 52 82 53
REMARK SMILES IDX 47 54 48 55 62 57 83 58 50 59 34 60 35 61 43 62 36 63 42 64
REMARK SMILES IDX 44 65 41 66 37 67 38 68 39 69 40 70 66 71 67 72 75 73 68 74
REMARK SMILES IDX 74 75 76 76 73 77 69 78 70 79 71 80 72 81 51 82 52 83 60 84
REMARK SMILES IDX 53 85 59 86 61 87 58 88 54 89 55 90 56 91 57 92
REMARK H PARENT 81 45 49 56
REMARK Flexibility Score: inf
ROOT
ATOM      1  C   UNL A   1      31.579  28.680  26.307  1.00  0.00     0.202 C 
ENDROOT
BRANCH   1   2
ATOM      2  C   UNL A   1      31.371  28.936  24.813  1.00  0.00     0.261 C 
BRANCH   2   3
ATOM      3  O   UNL A   1      32.406  28.316  24.031  1.00  0.00    -0.463 OA
BRANCH   3   4
ATOM      4  C   UNL A   1      32.066  27.179  23.371  1.00  0.00     0.311 C 
ATOM      5  O   UNL A   1      31.181  27.083  22.530  1.00  0.00    -0.252 OA
BRANCH   4   6
ATOM      6  C   UNL A   1      32.894  25.996  23.811  1.00  0.00     0.123 C 
ATOM      7  N   UNL A   1      32.894  24.421  25.576  1.00  0.00    -0.321 N 
ATOM      8  C   UNL A   1      34.243  24.928  25.441  1.00  0.00     0.122 C 
ATOM      9  C   UNL A   1      32.070  24.866  24.453  1.00  0.00     0.098 C 
ATOM     10  C   UNL A   1      34.017  26.287  24.818  1.00  0.00     0.039 C 
ATOM     11  C   UNL A   1      30.664  25.235  24.925  1.00  0.00     0.032 C 
BRANCH   7  12
ATOM     12  C   UNL A   1      32.573  23.287  26.270  1.00  0.00     0.320 C 
ATOM     13  O   UNL A   1      31.963  23.350  27.339  1.00  0.00    -0.248 OA
BRANCH  12  14
ATOM     14  N   UNL A   1      33.057  22.101  25.779  1.00  0.00    -0.324 N 
ATOM     15  C   UNL A   1      32.896  19.837  25.081  1.00  0.00     0.036 C 
ATOM     16  C   UNL A   1      34.356  20.291  25.062  1.00  0.00     0.029 C 
ATOM     17  C   UNL A   1      32.116  21.143  25.228  1.00  0.00     0.127 C 
ATOM     18  C   UNL A   1      34.342  21.465  26.030  1.00  0.00     0.122 C 
BRANCH  15  19
ATOM     19  C   UNL A   1      32.481  19.036  23.853  1.00  0.00     0.165 C 
BRANCH  19  20
ATOM     20  O   UNL A   1      32.593  17.627  24.056  1.00  0.00    -0.384 OA
ATOM     21  C   UNL A   1      32.479  17.230  25.416  1.00  0.00     0.194 C 
ENDBRANCH  19  20
ENDBRANCH  15  19
ENDBRANCH  12  14
ENDBRANCH   7  12
ENDBRANCH   4   6
ENDBRANCH   3   4
ENDBRANCH   2   3
ENDBRANCH   1   2
BRANCH   1  22
ATOM     22  O   UNL A   1      31.851  29.829  27.110  1.00  0.00    -0.374 OA
BRANCH  22  23
ATOM     23  C   UNL A   1      32.071  31.064  26.434  1.00  0.00     0.202 C 
BRANCH  23  24
ATOM     24  C   UNL A   1      31.737  32.351  27.201  1.00  0.00     0.261 C 
BRANCH  24  25
ATOM     25  O   UNL A   1      32.735  33.375  27.049  1.00  0.00    -0.460 OA
BRANCH  25  26
ATOM     26  C   UNL A   1      33.314  33.760  28.214  1.00  0.00     0.338 C 
ATOM     27  O   UNL A   1      32.827  34.499  29.060  1.00  0.00    -0.246 OA
BRANCH  26  28
ATOM     28  C   UNL A   1      34.582  33.040  28.441  1.00  0.00     0.060 A 
ATOM     29  C   UNL A   1      34.497  31.768  29.018  1.00  0.00     0.016 A 
ATOM     30  C   UNL A   1      35.828  33.626  28.201  1.00  0.00     0.016 A 
ATOM     31  C   UNL A   1      35.653  31.102  29.416  1.00  0.00     0.010 A 
ATOM     32  C   UNL A   1      36.991  32.955  28.606  1.00  0.00     0.010 A 
ATOM     33  C   UNL A   1      36.906  31.708  29.251  1.00  0.00    -0.014 A 
BRANCH  33  34
ATOM     34  C   UNL A   1      38.092  31.084  29.894  1.00  0.00     0.031 A 
ATOM     35  C   UNL A   1      38.400  31.401  31.335  1.00  0.00     0.074 A 
ATOM     36  C   UNL A   1      38.838  30.184  29.227  1.00  0.00     0.049 A 
ATOM     37  N   UNL A   1      39.346  30.931  32.106  1.00  0.00    -0.248 NA
ATOM     38  C   UNL A   1      37.519  32.380  31.990  1.00  0.00     0.031 C 
ATOM     39  C   UNL A   1      38.615  29.769  27.841  1.00  0.00     0.029 A 
ATOM     40  N   UNL A   1      39.925  29.449  29.627  1.00  0.00    -0.354 N 
ATOM     41  C   UNL A   1      39.172  31.548  33.341  1.00  0.00     0.074 A 
ATOM     42  C   UNL A   1      38.058  32.461  33.199  1.00  0.00     0.031 C 
ATOM     43  C   UNL A   1      39.536  28.847  27.510  1.00  0.00     0.029 A 
ATOM     44  C   UNL A   1      40.428  28.627  28.647  1.00  0.00     0.049 A 
ATOM     45  H   UNL A   1      40.310  29.506  30.532  1.00  0.00     0.167 HD
ATOM     46  C   UNL A   1      39.867  31.359  34.492  1.00  0.00     0.034 A 
ATOM     47  C   UNL A   1      41.491  27.796  28.663  1.00  0.00     0.034 A 
ATOM     48  C   UNL A   1      40.984  30.454  34.619  1.00  0.00     0.049 A 
ATOM     49  C   UNL A   1      42.288  27.652  29.937  1.00  0.00     0.074 A 
ATOM     50  C   UNL A   1      41.760  30.190  35.735  1.00  0.00     0.029 A 
ATOM     51  N   UNL A   1      41.493  29.670  33.592  1.00  0.00    -0.354 N 
ATOM     52  N   UNL A   1      42.104  28.236  31.100  1.00  0.00    -0.248 NA
ATOM     53  C   UNL A   1      43.424  26.723  29.904  1.00  0.00     0.031 C 
ATOM     54  C   UNL A   1      42.772  29.297  35.368  1.00  0.00     0.029 A 
ATOM     55  C   UNL A   1      42.587  28.943  34.041  1.00  0.00     0.049 A 
ATOM     56  H   UNL A   1      41.131  29.633  32.677  1.00  0.00     0.167 HD
ATOM     57  C   UNL A   1      43.085  27.717  31.943  1.00  0.00     0.074 A 
ATOM     58  C   UNL A   1      43.839  26.760  31.161  1.00  0.00     0.031 C 
ATOM     59  C   UNL A   1      43.340  28.002  33.247  1.00  0.00     0.034 A 
BRANCH  46  60
ATOM     60  C   UNL A   1      39.460  32.185  35.689  1.00  0.00     0.023 A 
ATOM     61  C   UNL A   1      38.695  31.642  36.737  1.00  0.00     0.031 A 
ATOM     62  C   UNL A   1      39.825  33.540  35.773  1.00  0.00     0.131 A 
ATOM     63  C   UNL A   1      38.267  32.466  37.790  1.00  0.00     0.055 A 
ATOM     64  C   UNL A   1      39.458  34.336  36.861  1.00  0.00     0.041 A 
ATOM     65  F   UNL A   1      40.533  34.119  34.791  1.00  0.00    -0.206 F 
ATOM     66  C   UNL A   1      38.665  33.804  37.871  1.00  0.00     0.022 A 
BRANCH  63  67
ATOM     67  S   UNL A   1      37.078  31.800  38.987  1.00  0.00     0.124 S 
ATOM     68  O   UNL A   1      37.812  31.941  40.242  1.00  0.00    -0.237 OA
ATOM     69  O   UNL A   1      35.929  32.681  38.815  1.00  0.00    -0.237 OA
ATOM     70  O   UNL A   1      36.879  30.422  38.542  1.00  0.00    -0.744 OA
ENDBRANCH  63  67
ENDBRANCH  46  60
BRANCH  47  71
ATOM     71  C   UNL A   1      41.891  27.051  27.434  1.00  0.00     0.023 A 
ATOM     72  C   UNL A   1      41.706  25.664  27.329  1.00  0.00     0.031 A 
ATOM     73  C   UNL A   1      42.534  27.713  26.372  1.00  0.00     0.131 A 
ATOM     74  C   UNL A   1      42.206  24.974  26.215  1.00  0.00     0.055 A 
ATOM     75  C   UNL A   1      42.982  27.029  25.240  1.00  0.00     0.041 A 
ATOM     76  F   UNL A   1      42.737  29.039  26.420  1.00  0.00    -0.206 F 
ATOM     77  C   UNL A   1      42.832  25.649  25.165  1.00  0.00     0.022 A 
BRANCH  74  78
ATOM     78  S   UNL A   1      42.114  23.162  26.202  1.00  0.00     0.124 S 
ATOM     79  O   UNL A   1      42.612  22.848  24.868  1.00  0.00    -0.237 OA
ATOM     80  O   UNL A   1      42.989  22.808  27.315  1.00  0.00    -0.237 OA
ATOM     81  O   UNL A   1      40.693  22.892  26.418  1.00  0.00    -0.744 OA
ENDBRANCH  74  78
ENDBRANCH  47  71
BRANCH  59  82
ATOM     82  C   UNL A   1      44.459  27.232  33.907  1.00  0.00     0.023 A 
ATOM     83  C   UNL A   1      44.214  26.063  34.650  1.00  0.00     0.031 A 
ATOM     84  C   UNL A   1      45.783  27.699  33.830  1.00  0.00     0.131 A 
ATOM     85  C   UNL A   1      45.263  25.443  35.346  1.00  0.00     0.055 A 
ATOM     86  C   UNL A   1      46.834  27.041  34.471  1.00  0.00     0.041 A 
ATOM     87  F   UNL A   1      46.077  28.810  33.135  1.00  0.00    -0.206 F 
ATOM     88  C   UNL A   1      46.574  25.917  35.250  1.00  0.00     0.022 A 
BRANCH  85  89
ATOM     89  S   UNL A   1      44.870  24.083  36.480  1.00  0.00     0.124 S 
ATOM     90  O   UNL A   1      44.003  23.244  35.660  1.00  0.00    -0.237 OA
ATOM     91  O   UNL A   1      46.191  23.535  36.776  1.00  0.00    -0.237 OA
ATOM     92  O   UNL A   1      44.210  24.750  37.601  1.00  0.00    -0.744 OA
ENDBRANCH  85  89
ENDBRANCH  59  82
ENDBRANCH  33  34
ENDBRANCH  26  28
ENDBRANCH  25  26
ENDBRANCH  24  25
ENDBRANCH  23  24
ENDBRANCH  22  23
ENDBRANCH   1  22
TORSDOF 21
ENDMDL
MODEL 2
REMARK VINA RESULT:     -10.7      1.625      1.949
REMARK SMILES COC[C@H]1CCN(C(=O)N2CC[C@H](C(=O)OCCOCCOC(=O)c3ccc(-c4c5nc(c(-c6cc(S(=O)(=O)[O-])ccc6F)c6ccc([nH]6)c(-c6cc(S(=O)(=O)[O-])ccc6F)c6nc(c(-c7cc(S(=O)(=O)[O-])ccc7F)c7ccc4[nH]7)C=C6)C=C5)cc3)[C@@H]2C)C1
REMARK SMILES IDX 18 1 17 2 16 3 14 4 15 5 13 6 10 7 11 8 88 9 12 10 89 11
REMARK SMILES IDX 8 12 9 13 7 14 4 15 5 16 90 17 6 18 3 19 2 20 1 21 19 22
REMARK SMILES IDX 20 23 21 24 22 25 23 26 24 27 25 28 26 29 87 30 27 31 86 32
REMARK SMILES IDX 28 33 29 34 30 35 80 36 31 37 85 38 79 39 81 40 32 41 84 42
REMARK SMILES IDX 78 43 77 44 33 46 65 47 45 48 64 49 46 50 49 51 63 52 82 53
REMARK SMILES IDX 47 54 48 55 62 57 83 58 50 59 34 60 35 61 43 62 36 63 42 64
REMARK SMILES IDX 44 65 41 66 37 67 38 68 39 69 40 70 66 71 67 72 75 73 68 74
REMARK SMILES IDX 74 75 76 76 73 77 69 78 70 79 71 80 72 81 51 82 52 83 60 84
REMARK SMILES IDX 53 85 59 86 61 87 58 88 54 89 55 90 56 91 57 92
REMARK H PARENT 81 45 49 56
REMARK Flexibility Score: inf
ROOT
ATOM      1  C   UNL A   1      32.529  29.355  24.764  1.00  0.00     0.202 C 
ENDROOT
BRANCH   1   2
ATOM      2  C   UNL A   1      32.186  28.738  23.406  1.00  0.00     0.261 C 
BRANCH   2   3
ATOM      3  O   UNL A   1      33.078  27.656  23.089  1.00  0.00    -0.463 OA
BRANCH   3   4
ATOM      4  C   UNL A   1      32.635  26.404  23.370  1.00  0.00     0.311 C 
ATOM      5  O   UNL A   1      31.575  25.922  22.989  1.00  0.00    -0.252 OA
BRANCH   4   6
ATOM      6  C   UNL A   1      33.593  25.646  24.256  1.00  0.00     0.123 C 
ATOM      7  N   UNL A   1      34.143  23.390  24.714  1.00  0.00    -0.321 N 
ATOM      8  C   UNL A   1      33.983  24.068  25.982  1.00  0.00     0.122 C 
ATOM      9  C   UNL A   1      34.144  24.359  23.617  1.00  0.00     0.098 C 
ATOM     10  C   UNL A   1      33.054  25.207  25.626  1.00  0.00     0.039 C 
ATOM     11  C   UNL A   1      33.375  23.816  22.414  1.00  0.00     0.032 C 
BRANCH   7  12
ATOM     12  C   UNL A   1      34.754  22.175  24.572  1.00  0.00     0.320 C 
ATOM     13  O   UNL A   1      35.945  22.097  24.269  1.00  0.00    -0.248 OA
BRANCH  12  14
ATOM     14  N   UNL A   1      33.956  21.064  24.671  1.00  0.00    -0.324 N 
ATOM     15  C   UNL A   1      33.450  18.754  24.461  1.00  0.00     0.036 C 
ATOM     16  C   UNL A   1      32.204  19.528  24.888  1.00  0.00     0.029 C 
ATOM     17  C   UNL A   1      34.585  19.756  24.670  1.00  0.00     0.127 C 
ATOM     18  C   UNL A   1      32.526  20.941  24.426  1.00  0.00     0.122 C 
BRANCH  15  19
ATOM     19  C   UNL A   1      33.663  17.452  25.226  1.00  0.00     0.165 C 
BRANCH  19  20
ATOM     20  O   UNL A   1      33.240  16.308  24.484  1.00  0.00    -0.384 OA
ATOM     21  C   UNL A   1      32.898  15.191  25.294  1.00  0.00     0.194 C 
ENDBRANCH  19  20
ENDBRANCH  15  19
ENDBRANCH  12  14
ENDBRANCH   7  12
ENDBRANCH   4   6
ENDBRANCH   3   4
ENDBRANCH   2   3
ENDBRANCH   1   2
BRANCH   1  22
ATOM     22  O   UNL A   1      31.523  30.183  25.349  1.00  0.00    -0.374 OA
BRANCH  22  23
ATOM     23  C   UNL A   1      31.781  30.713  26.646  1.00  0.00     0.202 C 
BRANCH  23  24
ATOM     24  C   UNL A   1      31.468  32.198  26.872  1.00  0.00     0.261 C 
BRANCH  24  25
ATOM     25  O   UNL A   1      32.618  33.048  26.718  1.00  0.00    -0.460 OA
BRANCH  25  26
ATOM     26  C   UNL A   1      33.135  33.496  27.890  1.00  0.00     0.338 C 
ATOM     27  O   UNL A   1      32.571  34.209  28.710  1.00  0.00    -0.246 OA
BRANCH  26  28
ATOM     28  C   UNL A   1      34.447  32.879  28.161  1.00  0.00     0.060 A 
ATOM     29  C   UNL A   1      34.451  31.534  28.551  1.00  0.00     0.016 A 
ATOM     30  C   UNL A   1      35.637  33.613  28.145  1.00  0.00     0.016 A 
ATOM     31  C   UNL A   1      35.629  30.935  28.985  1.00  0.00     0.010 A 
ATOM     32  C   UNL A   1      36.822  33.007  28.586  1.00  0.00     0.010 A 
ATOM     33  C   UNL A   1      36.816  31.678  29.046  1.00  0.00    -0.014 A 
BRANCH  33  34
ATOM     34  C   UNL A   1      37.996  31.088  29.731  1.00  0.00     0.031 A 
ATOM     35  C   UNL A   1      38.277  31.460  31.164  1.00  0.00     0.074 A 
ATOM     36  C   UNL A   1      38.758  30.169  29.110  1.00  0.00     0.049 A 
ATOM     37  N   UNL A   1      39.214  31.026  31.967  1.00  0.00    -0.248 NA
ATOM     38  C   UNL A   1      37.380  32.456  31.768  1.00  0.00     0.031 C 
ATOM     39  C   UNL A   1      38.561  29.700  27.737  1.00  0.00     0.029 A 
ATOM     40  N   UNL A   1      39.844  29.458  29.555  1.00  0.00    -0.354 N 
ATOM     41  C   UNL A   1      39.016  31.687  33.175  1.00  0.00     0.074 A 
ATOM     42  C   UNL A   1      37.898  32.586  32.981  1.00  0.00     0.031 C 
ATOM     43  C   UNL A   1      39.493  28.774  27.456  1.00  0.00     0.029 A 
ATOM     44  C   UNL A   1      40.369  28.603  28.614  1.00  0.00     0.049 A 
ATOM     45  H   UNL A   1      40.213  29.550  30.463  1.00  0.00     0.167 HD
ATOM     46  C   UNL A   1      39.692  31.546  34.343  1.00  0.00     0.034 A 
ATOM     47  C   UNL A   1      41.436  27.782  28.678  1.00  0.00     0.034 A 
ATOM     48  C   UNL A   1      40.813  30.656  34.522  1.00  0.00     0.049 A 
ATOM     49  C   UNL A   1      42.214  27.691  29.970  1.00  0.00     0.074 A 
ATOM     50  C   UNL A   1      41.573  30.439  35.660  1.00  0.00     0.029 A 
ATOM     51  N   UNL A   1      41.345  29.837  33.534  1.00  0.00    -0.354 N 
ATOM     52  N   UNL A   1      42.007  28.316  31.106  1.00  0.00    -0.248 NA
ATOM     53  C   UNL A   1      43.357  26.770  29.989  1.00  0.00     0.031 C 
ATOM     54  C   UNL A   1      42.598  29.540  35.343  1.00  0.00     0.029 A 
ATOM     55  C   UNL A   1      42.436  29.136  34.027  1.00  0.00     0.049 A 
ATOM     56  H   UNL A   1      40.998  29.764  32.615  1.00  0.00     0.167 HD
ATOM     57  C   UNL A   1      42.977  27.836  31.984  1.00  0.00     0.074 A 
ATOM     58  C   UNL A   1      43.750  26.856  31.251  1.00  0.00     0.031 C 
ATOM     59  C   UNL A   1      43.208  28.172  33.280  1.00  0.00     0.034 A 
BRANCH  46  60
ATOM     60  C   UNL A   1      39.261  32.413  35.502  1.00  0.00     0.023 A 
ATOM     61  C   UNL A   1      39.706  33.740  35.639  1.00  0.00     0.031 A 
ATOM     62  C   UNL A   1      38.409  31.898  36.495  1.00  0.00     0.131 A 
ATOM     63  C   UNL A   1      39.349  34.485  36.775  1.00  0.00     0.055 A 
ATOM     64  C   UNL A   1      37.998  32.669  37.585  1.00  0.00     0.041 A 
ATOM     65  F   UNL A   1      37.973  30.631  36.431  1.00  0.00    -0.206 F 
ATOM     66  C   UNL A   1      38.478  33.965  37.737  1.00  0.00     0.022 A 
BRANCH  63  67
ATOM     67  S   UNL A   1      40.141  36.094  37.044  1.00  0.00     0.124 S 
ATOM     68  O   UNL A   1      39.942  36.740  35.750  1.00  0.00    -0.237 OA
ATOM     69  O   UNL A   1      39.375  36.641  38.157  1.00  0.00    -0.237 OA
ATOM     70  O   UNL A   1      41.527  35.747  37.351  1.00  0.00    -0.744 OA
ENDBRANCH  63  67
ENDBRANCH  46  60
BRANCH  47  71
ATOM     71  C   UNL A   1      41.862  26.995  27.485  1.00  0.00     0.023 A 
ATOM     72  C   UNL A   1      41.616  25.616  27.395  1.00  0.00     0.031 A 
ATOM     73  C   UNL A   1      42.588  27.604  26.446  1.00  0.00     0.131 A 
ATOM     74  C   UNL A   1      42.138  24.880  26.319  1.00  0.00     0.055 A 
ATOM     75  C   UNL A   1      43.059  26.878  25.350  1.00  0.00     0.041 A 
ATOM     76  F   UNL A   1      42.852  28.920  26.481  1.00  0.00    -0.206 F 
ATOM     77  C   UNL A   1      42.848  25.504  25.291  1.00  0.00     0.022 A 
BRANCH  74  78
ATOM     78  S   UNL A   1      41.960  23.075  26.334  1.00  0.00     0.124 S 
ATOM     79  O   UNL A   1      42.540  22.709  25.047  1.00  0.00    -0.237 OA
ATOM     80  O   UNL A   1      42.733  22.706  27.515  1.00  0.00    -0.237 OA
ATOM     81  O   UNL A   1      40.516  22.877  26.448  1.00  0.00    -0.744 OA
ENDBRANCH  74  78
ENDBRANCH  47  71
BRANCH  59  82
ATOM     82  C   UNL A   1      44.322  27.435  33.987  1.00  0.00     0.023 A 
ATOM     83  C   UNL A   1      44.092  26.229  34.673  1.00  0.00     0.031 A 
ATOM     84  C   UNL A   1      45.622  27.970  34.012  1.00  0.00     0.131 A 
ATOM     85  C   UNL A   1      45.125  25.637  35.416  1.00  0.00     0.055 A 
ATOM     86  C   UNL A   1      46.663  27.343  34.699  1.00  0.00     0.041 A 
ATOM     87  F   UNL A   1      45.901  29.119  33.376  1.00  0.00    -0.206 F 
ATOM     88  C   UNL A   1      46.412  26.180  35.422  1.00  0.00     0.022 A 
BRANCH  85  89
ATOM     89  S   UNL A   1      44.732  24.219  36.476  1.00  0.00     0.124 S 
ATOM     90  O   UNL A   1      46.043  23.608  36.666  1.00  0.00    -0.237 OA
ATOM     91  O   UNL A   1      44.153  24.862  37.652  1.00  0.00    -0.237 OA
ATOM     92  O   UNL A   1      43.794  23.438  35.671  1.00  0.00    -0.744 OA
ENDBRANCH  85  89
ENDBRANCH  59  82
ENDBRANCH  33  34
ENDBRANCH  26  28
ENDBRANCH  25  26
ENDBRANCH  24  25
ENDBRANCH  23  24
ENDBRANCH  22  23
ENDBRANCH   1  22
TORSDOF 21
ENDMDL
MODEL 3
REMARK VINA RESULT:     -10.7      2.241      2.571
REMARK SMILES COC[C@H]1CCN(C(=O)N2CC[C@H](C(=O)OCCOCCOC(=O)c3ccc(-c4c5nc(c(-c6cc(S(=O)(=O)[O-])ccc6F)c6ccc([nH]6)c(-c6cc(S(=O)(=O)[O-])ccc6F)c6nc(c(-c7cc(S(=O)(=O)[O-])ccc7F)c7ccc4[nH]7)C=C6)C=C5)cc3)[C@@H]2C)C1
REMARK SMILES IDX 18 1 17 2 16 3 14 4 15 5 13 6 10 7 11 8 88 9 12 10 89 11
REMARK SMILES IDX 8 12 9 13 7 14 4 15 5 16 90 17 6 18 3 19 2 20 1 21 19 22
REMARK SMILES IDX 20 23 21 24 22 25 23 26 24 27 25 28 26 29 87 30 27 31 86 32
REMARK SMILES IDX 28 33 29 34 30 35 80 36 31 37 85 38 79 39 81 40 32 41 84 42
REMARK SMILES IDX 78 43 77 44 33 46 65 47 45 48 64 49 46 50 49 51 63 52 82 53
REMARK SMILES IDX 47 54 48 55 62 57 83 58 50 59 34 60 35 61 43 62 36 63 42 64
REMARK SMILES IDX 44 65 41 66 37 67 38 68 39 69 40 70 66 71 67 72 75 73 68 74
REMARK SMILES IDX 74 75 76 76 73 77 69 78 70 79 71 80 72 81 51 82 52 83 60 84
REMARK SMILES IDX 53 85 59 86 61 87 58 88 54 89 55 90 56 91 57 92
REMARK H PARENT 81 45 49 56
REMARK Flexibility Score: inf
ROOT
ATOM      1  C   UNL A   1      30.308  29.397  23.269  1.00  0.00     0.202 C 
ENDROOT
BRANCH   1   2
ATOM      2  C   UNL A   1      29.142  28.412  23.163  1.00  0.00     0.261 C 
BRANCH   2   3
ATOM      3  O   UNL A   1      29.603  27.052  23.235  1.00  0.00    -0.463 OA
BRANCH   3   4
ATOM      4  C   UNL A   1      30.484  26.764  24.228  1.00  0.00     0.311 C 
ATOM      5  O   UNL A   1      30.247  26.823  25.428  1.00  0.00    -0.252 OA
BRANCH   4   6
ATOM      6  C   UNL A   1      31.841  26.380  23.690  1.00  0.00     0.123 C 
ATOM      7  N   UNL A   1      33.151  24.419  23.484  1.00  0.00    -0.321 N 
ATOM      8  C   UNL A   1      33.998  25.457  24.032  1.00  0.00     0.122 C 
ATOM      9  C   UNL A   1      31.878  24.987  23.036  1.00  0.00     0.098 C 
ATOM     10  C   UNL A   1      32.997  26.372  24.701  1.00  0.00     0.039 C 
ATOM     11  C   UNL A   1      30.719  24.050  23.369  1.00  0.00     0.032 C 
BRANCH   7  12
ATOM     12  C   UNL A   1      33.624  23.257  22.942  1.00  0.00     0.320 C 
ATOM     13  O   UNL A   1      34.001  23.212  21.770  1.00  0.00    -0.248 OA
BRANCH  12  14
ATOM     14  N   UNL A   1      33.552  22.132  23.725  1.00  0.00    -0.324 N 
ATOM     15  C   UNL A   1      32.623  20.070  24.446  1.00  0.00     0.036 C 
ATOM     16  C   UNL A   1      33.761  20.488  25.376  1.00  0.00     0.029 C 
ATOM     17  C   UNL A   1      32.782  21.000  23.244  1.00  0.00     0.127 C 
ATOM     18  C   UNL A   1      33.832  21.990  25.146  1.00  0.00     0.122 C 
BRANCH  15  19
ATOM     19  C   UNL A   1      32.649  18.596  24.059  1.00  0.00     0.165 C 
BRANCH  19  20
ATOM     20  O   UNL A   1      31.898  17.781  24.960  1.00  0.00    -0.384 OA
ATOM     21  C   UNL A   1      32.678  16.814  25.649  1.00  0.00     0.194 C 
ENDBRANCH  19  20
ENDBRANCH  15  19
ENDBRANCH  12  14
ENDBRANCH   7  12
ENDBRANCH   4   6
ENDBRANCH   3   4
ENDBRANCH   2   3
ENDBRANCH   1   2
BRANCH   1  22
ATOM     22  O   UNL A   1      30.297  30.264  24.404  1.00  0.00    -0.374 OA
BRANCH  22  23
ATOM     23  C   UNL A   1      31.395  30.175  25.308  1.00  0.00     0.202 C 
BRANCH  23  24
ATOM     24  C   UNL A   1      31.506  31.264  26.384  1.00  0.00     0.261 C 
BRANCH  24  25
ATOM     25  O   UNL A   1      32.548  31.007  27.342  1.00  0.00    -0.460 OA
BRANCH  25  26
ATOM     26  C   UNL A   1      33.373  32.062  27.559  1.00  0.00     0.338 C 
ATOM     27  O   UNL A   1      33.047  33.240  27.623  1.00  0.00    -0.246 OA
BRANCH  26  28
ATOM     28  C   UNL A   1      34.740  31.610  27.879  1.00  0.00     0.060 A 
ATOM     29  C   UNL A   1      34.921  30.242  28.111  1.00  0.00     0.016 A 
ATOM     30  C   UNL A   1      35.800  32.503  28.058  1.00  0.00     0.016 A 
ATOM     31  C   UNL A   1      36.142  29.767  28.582  1.00  0.00     0.010 A 
ATOM     32  C   UNL A   1      37.028  32.023  28.536  1.00  0.00     0.010 A 
ATOM     33  C   UNL A   1      37.192  30.659  28.838  1.00  0.00    -0.014 A 
BRANCH  33  34
ATOM     34  C   UNL A   1      38.393  30.161  29.558  1.00  0.00     0.031 A 
ATOM     35  C   UNL A   1      38.647  30.622  30.970  1.00  0.00     0.074 A 
ATOM     36  C   UNL A   1      39.202  29.248  28.989  1.00  0.00     0.049 A 
ATOM     37  N   UNL A   1      39.598  30.275  31.800  1.00  0.00    -0.248 NA
ATOM     38  C   UNL A   1      37.700  31.605  31.517  1.00  0.00     0.031 C 
ATOM     39  C   UNL A   1      39.036  28.700  27.643  1.00  0.00     0.029 A 
ATOM     40  N   UNL A   1      40.316  28.613  29.476  1.00  0.00    -0.354 N 
ATOM     41  C   UNL A   1      39.361  30.988  32.970  1.00  0.00     0.074 A 
ATOM     42  C   UNL A   1      38.204  31.823  32.724  1.00  0.00     0.031 C 
ATOM     43  C   UNL A   1      40.013  27.805  27.415  1.00  0.00     0.029 A 
ATOM     44  C   UNL A   1      40.887  27.736  28.584  1.00  0.00     0.049 A 
ATOM     45  H   UNL A   1      40.675  28.771  30.379  1.00  0.00     0.167 HD
ATOM     46  C   UNL A   1      40.036  30.941  34.147  1.00  0.00     0.034 A 
ATOM     47  C   UNL A   1      41.992  26.971  28.696  1.00  0.00     0.034 A 
ATOM     48  C   UNL A   1      41.196  30.115  34.377  1.00  0.00     0.049 A 
ATOM     49  C   UNL A   1      42.764  26.985  29.994  1.00  0.00     0.074 A 
ATOM     50  C   UNL A   1      41.957  29.994  35.528  1.00  0.00     0.029 A 
ATOM     51  N   UNL A   1      41.772  29.272  33.436  1.00  0.00    -0.354 N 
ATOM     52  N   UNL A   1      42.520  27.658  31.095  1.00  0.00    -0.248 NA
ATOM     53  C   UNL A   1      43.948  26.121  30.067  1.00  0.00     0.031 C 
ATOM     54  C   UNL A   1      43.025  29.130  35.263  1.00  0.00     0.029 A 
ATOM     55  C   UNL A   1      42.891  28.650  33.970  1.00  0.00     0.049 A 
ATOM     56  H   UNL A   1      41.435  29.134  32.520  1.00  0.00     0.167 HD
ATOM     57  C   UNL A   1      43.506  27.271  32.001  1.00  0.00     0.074 A 
ATOM     58  C   UNL A   1      44.329  26.291  31.324  1.00  0.00     0.031 C 
ATOM     59  C   UNL A   1      43.713  27.685  33.278  1.00  0.00     0.034 A 
BRANCH  46  60
ATOM     60  C   UNL A   1      39.556  31.847  35.257  1.00  0.00     0.023 A 
ATOM     61  C   UNL A   1      40.024  33.167  35.389  1.00  0.00     0.031 A 
ATOM     62  C   UNL A   1      38.634  31.376  36.208  1.00  0.00     0.131 A 
ATOM     63  C   UNL A   1      39.618  33.947  36.483  1.00  0.00     0.055 A 
ATOM     64  C   UNL A   1      38.177  32.183  37.252  1.00  0.00     0.041 A 
ATOM     65  F   UNL A   1      38.172  30.118  36.147  1.00  0.00    -0.206 F 
ATOM     66  C   UNL A   1      38.678  33.472  37.402  1.00  0.00     0.022 A 
BRANCH  63  67
ATOM     67  S   UNL A   1      40.431  35.544  36.761  1.00  0.00     0.124 S 
ATOM     68  O   UNL A   1      41.800  35.255  36.344  1.00  0.00    -0.237 OA
ATOM     69  O   UNL A   1      39.673  36.440  35.895  1.00  0.00    -0.237 OA
ATOM     70  O   UNL A   1      40.260  35.770  38.195  1.00  0.00    -0.744 OA
ENDBRANCH  63  67
ENDBRANCH  46  60
BRANCH  47  71
ATOM     71  C   UNL A   1      42.461  26.143  27.547  1.00  0.00     0.023 A 
ATOM     72  C   UNL A   1      42.015  24.824  27.367  1.00  0.00     0.031 A 
ATOM     73  C   UNL A   1      43.424  26.640  26.651  1.00  0.00     0.131 A 
ATOM     74  C   UNL A   1      42.569  24.030  26.352  1.00  0.00     0.055 A 
ATOM     75  C   UNL A   1      43.934  25.864  25.609  1.00  0.00     0.041 A 
ATOM     76  F   UNL A   1      43.887  27.895  26.777  1.00  0.00    -0.206 F 
ATOM     77  C   UNL A   1      43.517  24.545  25.465  1.00  0.00     0.022 A 
BRANCH  74  78
ATOM     78  S   UNL A   1      42.105  22.278  26.269  1.00  0.00     0.124 S 
ATOM     79  O   UNL A   1      42.830  21.835  25.084  1.00  0.00    -0.237 OA
ATOM     80  O   UNL A   1      42.595  21.776  27.548  1.00  0.00    -0.237 OA
ATOM     81  O   UNL A   1      40.650  22.319  26.131  1.00  0.00    -0.744 OA
ENDBRANCH  74  78
ENDBRANCH  47  71
BRANCH  59  82
ATOM     82  C   UNL A   1      44.854  27.039  34.028  1.00  0.00     0.023 A 
ATOM     83  C   UNL A   1      46.151  27.582  34.011  1.00  0.00     0.031 A 
ATOM     84  C   UNL A   1      44.651  25.838  34.731  1.00  0.00     0.131 A 
ATOM     85  C   UNL A   1      47.209  26.889  34.620  1.00  0.00     0.055 A 
ATOM     86  C   UNL A   1      45.694  25.187  35.392  1.00  0.00     0.041 A 
ATOM     87  F   UNL A   1      43.435  25.273  34.782  1.00  0.00    -0.206 F 
ATOM     88  C   UNL A   1      46.986  25.702  35.322  1.00  0.00     0.022 A 
BRANCH  85  89
ATOM     89  S   UNL A   1      48.901  27.495  34.375  1.00  0.00     0.124 S 
ATOM     90  O   UNL A   1      48.709  28.537  33.373  1.00  0.00    -0.237 OA
ATOM     91  O   UNL A   1      49.261  27.958  35.713  1.00  0.00    -0.237 OA
ATOM     92  O   UNL A   1      49.626  26.314  33.912  1.00  0.00    -0.744 OA
ENDBRANCH  85  89
ENDBRANCH  59  82
ENDBRANCH  33  34
ENDBRANCH  26  28
ENDBRANCH  25  26
ENDBRANCH  24  25
ENDBRANCH  23  24
ENDBRANCH  22  23
ENDBRANCH   1  22
TORSDOF 21
ENDMDL
