MODEL 1
REMARK VINA RESULT:     -10.8      0.000      0.000
REMARK SMILES Nc1nonc1C(=O)N1[C@@H]2CC[C@H]1C[C@H](CC(=O)OCCOCCOC(=O)c1ccc(-c3c4nc(c(-c5cc(S(=O)(=O)[O-])ccc5F)c5ccc([nH]5)c(-c5cc(S(=O)(=O)[O-])ccc5F)c5nc(c(-c6cc(S(=O)(=O)[O-])ccc6F)c6ccc3[nH]6)C=C5)C=C4)cc1)C2
REMARK SMILES IDX 21 1 20 2 19 3 17 4 18 5 16 6 15 7 9 8 10 9 13 10 11 11
REMARK SMILES IDX 91 12 12 13 14 14 7 15 8 16 6 17 2 18 3 19 4 20 5 21 1 22
REMARK SMILES IDX 22 25 23 26 24 27 25 28 26 29 27 30 28 31 29 32 90 33 30 34
REMARK SMILES IDX 89 35 31 36 32 37 33 38 83 39 34 40 88 41 82 42 84 43 35 44
REMARK SMILES IDX 87 45 81 46 80 47 36 49 68 50 48 51 67 52 49 53 52 54 66 55
REMARK SMILES IDX 85 56 50 57 51 58 65 60 86 61 53 62 37 63 38 64 46 65 39 66
REMARK SMILES IDX 45 67 47 68 44 69 40 70 41 71 42 72 43 73 69 74 70 75 78 76
REMARK SMILES IDX 71 77 77 78 79 79 76 80 72 81 73 82 74 83 75 84 54 85 55 86
REMARK SMILES IDX 63 87 56 88 62 89 64 90 61 91 57 92 58 93 59 94 60 95
REMARK H PARENT 1 23 1 24 84 48 52 59
REMARK Flexibility Score: inf
ROOT
ATOM      1  C   UNL A   1      33.470  29.496  26.761  1.00  0.00     0.202 C 
ENDROOT
BRANCH   1   2
ATOM      2  C   UNL A   1      33.515  27.971  26.630  1.00  0.00     0.261 C 
BRANCH   2   3
ATOM      3  O   UNL A   1      34.015  27.588  25.335  1.00  0.00    -0.463 OA
BRANCH   3   4
ATOM      4  C   UNL A   1      33.113  27.061  24.474  1.00  0.00     0.306 C 
ATOM      5  O   UNL A   1      32.221  27.683  23.912  1.00  0.00    -0.252 OA
BRANCH   4   6
ATOM      6  C   UNL A   1      33.283  25.568  24.312  1.00  0.00     0.126 C 
BRANCH   6   7
ATOM      7  C   UNL A   1      33.322  24.662  25.570  1.00  0.00     0.004 C 
ATOM      8  N   UNL A   1      34.061  21.932  25.528  1.00  0.00    -0.331 N 
ATOM      9  C   UNL A   1      34.911  22.772  26.347  1.00  0.00     0.086 C 
ATOM     10  C   UNL A   1      32.711  22.151  26.023  1.00  0.00     0.086 C 
ATOM     11  C   UNL A   1      34.315  22.689  27.757  1.00  0.00     0.027 C 
ATOM     12  C   UNL A   1      34.788  24.163  25.737  1.00  0.00     0.029 C 
ATOM     13  C   UNL A   1      32.902  22.143  27.547  1.00  0.00     0.027 C 
ATOM     14  C   UNL A   1      32.235  23.540  25.557  1.00  0.00     0.029 C 
BRANCH   8  15
ATOM     15  C   UNL A   1      34.531  20.694  25.097  1.00  0.00     0.280 C 
ATOM     16  O   UNL A   1      35.744  20.498  24.990  1.00  0.00    -0.267 OA
BRANCH  15  17
ATOM     17  C   UNL A   1      33.538  19.717  24.636  1.00  0.00     0.216 A 
ATOM     18  C   UNL A   1      32.827  18.687  25.309  1.00  0.00     0.201 A 
ATOM     19  N   UNL A   1      31.984  18.096  24.468  1.00  0.00    -0.032 NA
ATOM     20  O   UNL A   1      32.124  18.779  23.273  1.00  0.00    -0.242 OA
ATOM     21  N   UNL A   1      33.076  19.779  23.376  1.00  0.00    -0.042 NA
BRANCH  18  22
ATOM     22  N   UNL A   1      32.911  18.346  26.603  1.00  0.00    -0.379 N 
ATOM     23  H   UNL A   1      32.133  17.952  27.059  1.00  0.00     0.158 HD
ATOM     24  H   UNL A   1      33.751  18.491  27.096  1.00  0.00     0.158 HD
ENDBRANCH  18  22
ENDBRANCH  15  17
ENDBRANCH   8  15
ENDBRANCH   6   7
ENDBRANCH   4   6
ENDBRANCH   3   4
ENDBRANCH   2   3
ENDBRANCH   1   2
BRANCH   1  25
ATOM     25  O   UNL A   1      32.188  30.061  27.048  1.00  0.00    -0.374 OA
BRANCH  25  26
ATOM     26  C   UNL A   1      31.774  31.162  26.245  1.00  0.00     0.202 C 
BRANCH  26  27
ATOM     27  C   UNL A   1      31.491  32.486  26.965  1.00  0.00     0.261 C 
BRANCH  27  28
ATOM     28  O   UNL A   1      32.546  33.446  26.777  1.00  0.00    -0.460 OA
BRANCH  28  29
ATOM     29  C   UNL A   1      33.064  33.926  27.934  1.00  0.00     0.338 C 
ATOM     30  O   UNL A   1      32.552  34.766  28.664  1.00  0.00    -0.246 OA
BRANCH  29  31
ATOM     31  C   UNL A   1      34.257  33.153  28.334  1.00  0.00     0.060 A 
ATOM     32  C   UNL A   1      34.029  31.976  29.058  1.00  0.00     0.016 A 
ATOM     33  C   UNL A   1      35.563  33.582  28.079  1.00  0.00     0.016 A 
ATOM     34  C   UNL A   1      35.097  31.271  29.602  1.00  0.00     0.010 A 
ATOM     35  C   UNL A   1      36.638  32.866  28.625  1.00  0.00     0.010 A 
ATOM     36  C   UNL A   1      36.407  31.736  29.432  1.00  0.00    -0.014 A 
BRANCH  36  37
ATOM     37  C   UNL A   1      37.486  31.128  30.256  1.00  0.00     0.031 A 
ATOM     38  C   UNL A   1      38.413  30.122  29.624  1.00  0.00     0.074 A 
ATOM     39  C   UNL A   1      37.710  31.545  31.517  1.00  0.00     0.049 A 
ATOM     40  N   UNL A   1      39.468  29.530  30.123  1.00  0.00    -0.248 NA
ATOM     41  C   UNL A   1      38.104  29.733  28.241  1.00  0.00     0.031 C 
ATOM     42  C   UNL A   1      36.919  32.553  32.222  1.00  0.00     0.029 A 
ATOM     43  N   UNL A   1      38.683  31.190  32.416  1.00  0.00    -0.354 N 
ATOM     44  C   UNL A   1      39.954  28.703  29.114  1.00  0.00     0.074 A 
ATOM     45  C   UNL A   1      39.037  28.826  28.000  1.00  0.00     0.031 C 
ATOM     46  C   UNL A   1      37.457  32.754  33.437  1.00  0.00     0.029 A 
ATOM     47  C   UNL A   1      38.604  31.865  33.611  1.00  0.00     0.049 A 
ATOM     48  H   UNL A   1      39.373  30.515  32.224  1.00  0.00     0.167 HD
ATOM     49  C   UNL A   1      41.071  27.932  29.105  1.00  0.00     0.034 A 
ATOM     50  C   UNL A   1      39.369  31.775  34.719  1.00  0.00     0.034 A 
ATOM     51  C   UNL A   1      41.967  27.802  30.231  1.00  0.00     0.049 A 
ATOM     52  C   UNL A   1      40.542  30.826  34.728  1.00  0.00     0.074 A 
ATOM     53  C   UNL A   1      43.122  27.047  30.332  1.00  0.00     0.029 A 
ATOM     54  N   UNL A   1      41.802  28.433  31.459  1.00  0.00    -0.354 N 
ATOM     55  N   UNL A   1      40.994  30.055  33.765  1.00  0.00    -0.248 NA
ATOM     56  C   UNL A   1      41.314  30.748  35.974  1.00  0.00     0.031 C 
ATOM     57  C   UNL A   1      43.608  27.156  31.640  1.00  0.00     0.029 A 
ATOM     58  C   UNL A   1      42.811  28.054  32.332  1.00  0.00     0.049 A 
ATOM     59  H   UNL A   1      41.073  29.058  31.677  1.00  0.00     0.167 HD
ATOM     60  C   UNL A   1      42.131  29.433  34.280  1.00  0.00     0.074 A 
ATOM     61  C   UNL A   1      42.297  29.930  35.630  1.00  0.00     0.031 C 
ATOM     62  C   UNL A   1      42.964  28.539  33.686  1.00  0.00     0.034 A 
BRANCH  49  63
ATOM     63  C   UNL A   1      41.342  27.129  27.852  1.00  0.00     0.023 A 
ATOM     64  C   UNL A   1      41.021  25.761  27.765  1.00  0.00     0.031 A 
ATOM     65  C   UNL A   1      41.987  27.720  26.752  1.00  0.00     0.131 A 
ATOM     66  C   UNL A   1      41.434  25.013  26.651  1.00  0.00     0.055 A 
ATOM     67  C   UNL A   1      42.308  26.991  25.603  1.00  0.00     0.041 A 
ATOM     68  F   UNL A   1      42.343  29.014  26.781  1.00  0.00    -0.206 F 
ATOM     69  C   UNL A   1      42.050  25.624  25.558  1.00  0.00     0.022 A 
BRANCH  66  70
ATOM     70  S   UNL A   1      41.327  23.204  26.738  1.00  0.00     0.124 S 
ATOM     71  O   UNL A   1      42.214  22.804  25.647  1.00  0.00    -0.237 OA
ATOM     72  O   UNL A   1      41.806  22.924  28.086  1.00  0.00    -0.237 OA
ATOM     73  O   UNL A   1      39.909  22.933  26.508  1.00  0.00    -0.744 OA
ENDBRANCH  66  70
ENDBRANCH  49  63
BRANCH  50  74
ATOM     74  C   UNL A   1      39.053  32.598  35.922  1.00  0.00     0.023 A 
ATOM     75  C   UNL A   1      39.537  33.910  36.051  1.00  0.00     0.031 A 
ATOM     76  C   UNL A   1      38.307  32.064  36.989  1.00  0.00     0.131 A 
ATOM     77  C   UNL A   1      39.309  34.627  37.236  1.00  0.00     0.055 A 
ATOM     78  C   UNL A   1      38.035  32.801  38.142  1.00  0.00     0.041 A 
ATOM     79  F   UNL A   1      37.822  30.814  36.919  1.00  0.00    -0.206 F 
ATOM     80  C   UNL A   1      38.549  34.087  38.276  1.00  0.00     0.022 A 
BRANCH  77  81
ATOM     81  S   UNL A   1      40.090  36.253  37.432  1.00  0.00     0.124 S 
ATOM     82  O   UNL A   1      39.924  36.823  36.099  1.00  0.00    -0.237 OA
ATOM     83  O   UNL A   1      39.285  36.850  38.492  1.00  0.00    -0.237 OA
ATOM     84  O   UNL A   1      41.464  35.926  37.805  1.00  0.00    -0.744 OA
ENDBRANCH  77  81
ENDBRANCH  50  74
BRANCH  62  85
ATOM     85  C   UNL A   1      44.168  28.085  34.483  1.00  0.00     0.023 A 
ATOM     86  C   UNL A   1      44.204  26.838  35.134  1.00  0.00     0.031 A 
ATOM     87  C   UNL A   1      45.284  28.931  34.623  1.00  0.00     0.131 A 
ATOM     88  C   UNL A   1      45.295  26.507  35.954  1.00  0.00     0.055 A 
ATOM     89  C   UNL A   1      46.399  28.564  35.380  1.00  0.00     0.041 A 
ATOM     90  F   UNL A   1      45.308  30.135  34.029  1.00  0.00    -0.206 F 
ATOM     91  C   UNL A   1      46.400  27.353  36.066  1.00  0.00     0.022 A 
BRANCH  88  92
ATOM     92  S   UNL A   1      45.193  25.011  36.975  1.00  0.00     0.124 S 
ATOM     93  O   UNL A   1      44.996  25.568  38.311  1.00  0.00    -0.237 OA
ATOM     94  O   UNL A   1      44.047  24.317  36.399  1.00  0.00    -0.237 OA
ATOM     95  O   UNL A   1      46.484  24.360  36.760  1.00  0.00    -0.744 OA
ENDBRANCH  88  92
ENDBRANCH  62  85
ENDBRANCH  36  37
ENDBRANCH  29  31
ENDBRANCH  28  29
ENDBRANCH  27  28
ENDBRANCH  26  27
ENDBRANCH  25  26
ENDBRANCH   1  25
TORSDOF 21
ENDMDL
MODEL 2
REMARK VINA RESULT:     -10.7      2.551      8.136
REMARK SMILES Nc1nonc1C(=O)N1[C@@H]2CC[C@H]1C[C@H](CC(=O)OCCOCCOC(=O)c1ccc(-c3c4nc(c(-c5cc(S(=O)(=O)[O-])ccc5F)c5ccc([nH]5)c(-c5cc(S(=O)(=O)[O-])ccc5F)c5nc(c(-c6cc(S(=O)(=O)[O-])ccc6F)c6ccc3[nH]6)C=C5)C=C4)cc1)C2
REMARK SMILES IDX 21 1 20 2 19 3 17 4 18 5 16 6 15 7 9 8 10 9 13 10 11 11
REMARK SMILES IDX 91 12 12 13 14 14 7 15 8 16 6 17 2 18 3 19 4 20 5 21 1 22
REMARK SMILES IDX 22 25 23 26 24 27 25 28 26 29 27 30 28 31 29 32 90 33 30 34
REMARK SMILES IDX 89 35 31 36 32 37 33 38 83 39 34 40 88 41 82 42 84 43 35 44
REMARK SMILES IDX 87 45 81 46 80 47 36 49 68 50 48 51 67 52 49 53 52 54 66 55
REMARK SMILES IDX 85 56 50 57 51 58 65 60 86 61 53 62 37 63 38 64 46 65 39 66
REMARK SMILES IDX 45 67 47 68 44 69 40 70 41 71 42 72 43 73 69 74 70 75 78 76
REMARK SMILES IDX 71 77 77 78 79 79 76 80 72 81 73 82 74 83 75 84 54 85 55 86
REMARK SMILES IDX 63 87 56 88 62 89 64 90 61 91 57 92 58 93 59 94 60 95
REMARK H PARENT 1 23 1 24 84 48 52 59
REMARK Flexibility Score: inf
ROOT
ATOM      1  C   UNL A   1      32.193  27.852  26.837  1.00  0.00     0.202 C 
ENDROOT
BRANCH   1   2
ATOM      2  C   UNL A   1      31.794  26.610  26.035  1.00  0.00     0.261 C 
BRANCH   2   3
ATOM      3  O   UNL A   1      31.169  25.634  26.889  1.00  0.00    -0.463 OA
BRANCH   3   4
ATOM      4  C   UNL A   1      31.295  24.339  26.515  1.00  0.00     0.306 C 
ATOM      5  O   UNL A   1      31.042  23.370  27.218  1.00  0.00    -0.252 OA
BRANCH   4   6
ATOM      6  C   UNL A   1      31.853  24.201  25.117  1.00  0.00     0.126 C 
BRANCH   6   7
ATOM      7  C   UNL A   1      33.387  24.114  24.911  1.00  0.00     0.004 C 
ATOM      8  N   UNL A   1      34.854  21.696  24.968  1.00  0.00    -0.331 N 
ATOM      9  C   UNL A   1      34.923  22.411  23.710  1.00  0.00     0.086 C 
ATOM     10  C   UNL A   1      35.286  22.650  25.978  1.00  0.00     0.086 C 
ATOM     11  C   UNL A   1      36.176  23.286  23.816  1.00  0.00     0.027 C 
ATOM     12  C   UNL A   1      33.636  23.227  23.655  1.00  0.00     0.029 C 
ATOM     13  C   UNL A   1      36.493  23.326  25.312  1.00  0.00     0.027 C 
ATOM     14  C   UNL A   1      34.159  23.678  26.197  1.00  0.00     0.029 C 
BRANCH   8  15
ATOM     15  C   UNL A   1      35.171  20.340  25.006  1.00  0.00     0.280 C 
ATOM     16  O   UNL A   1      36.350  19.982  24.946  1.00  0.00    -0.267 OA
BRANCH  15  17
ATOM     17  C   UNL A   1      34.060  19.384  24.959  1.00  0.00     0.216 A 
ATOM     18  C   UNL A   1      33.979  18.032  24.529  1.00  0.00     0.201 A 
ATOM     19  N   UNL A   1      32.752  17.564  24.734  1.00  0.00    -0.032 NA
ATOM     20  O   UNL A   1      32.064  18.602  25.337  1.00  0.00    -0.242 OA
ATOM     21  N   UNL A   1      32.868  19.720  25.479  1.00  0.00    -0.042 NA
BRANCH  18  22
ATOM     22  N   UNL A   1      34.965  17.273  24.031  1.00  0.00    -0.379 N 
ATOM     23  H   UNL A   1      34.807  16.319  23.846  1.00  0.00     0.158 HD
ATOM     24  H   UNL A   1      35.848  17.669  23.850  1.00  0.00     0.158 HD
ENDBRANCH  18  22
ENDBRANCH  15  17
ENDBRANCH   8  15
ENDBRANCH   6   7
ENDBRANCH   4   6
ENDBRANCH   3   4
ENDBRANCH   2   3
ENDBRANCH   1   2
BRANCH   1  25
ATOM     25  O   UNL A   1      31.383  29.013  26.637  1.00  0.00    -0.374 OA
BRANCH  25  26
ATOM     26  C   UNL A   1      31.990  30.115  25.970  1.00  0.00     0.202 C 
BRANCH  26  27
ATOM     27  C   UNL A   1      33.407  30.505  26.408  1.00  0.00     0.261 C 
BRANCH  27  28
ATOM     28  O   UNL A   1      33.451  30.961  27.772  1.00  0.00    -0.460 OA
BRANCH  28  29
ATOM     29  C   UNL A   1      34.376  31.925  28.000  1.00  0.00     0.338 C 
ATOM     30  O   UNL A   1      34.151  33.110  28.212  1.00  0.00    -0.246 OA
BRANCH  29  31
ATOM     31  C   UNL A   1      35.719  31.333  28.168  1.00  0.00     0.060 A 
ATOM     32  C   UNL A   1      35.773  29.950  28.379  1.00  0.00     0.016 A 
ATOM     33  C   UNL A   1      36.890  32.096  28.192  1.00  0.00     0.016 A 
ATOM     34  C   UNL A   1      36.980  29.337  28.697  1.00  0.00     0.010 A 
ATOM     35  C   UNL A   1      38.107  31.475  28.508  1.00  0.00     0.010 A 
ATOM     36  C   UNL A   1      38.148  30.101  28.812  1.00  0.00    -0.014 A 
BRANCH  36  37
ATOM     37  C   UNL A   1      39.348  29.471  29.427  1.00  0.00     0.031 A 
ATOM     38  C   UNL A   1      39.763  29.885  30.816  1.00  0.00     0.074 A 
ATOM     39  C   UNL A   1      39.994  28.466  28.807  1.00  0.00     0.049 A 
ATOM     40  N   UNL A   1      40.717  29.413  31.577  1.00  0.00    -0.248 NA
ATOM     41  C   UNL A   1      38.993  30.980  31.424  1.00  0.00     0.031 C 
ATOM     42  C   UNL A   1      39.655  27.936  27.487  1.00  0.00     0.029 A 
ATOM     43  N   UNL A   1      41.054  27.698  29.217  1.00  0.00    -0.354 N 
ATOM     44  C   UNL A   1      40.660  30.149  32.757  1.00  0.00     0.074 A 
ATOM     45  C   UNL A   1      39.618  31.138  32.580  1.00  0.00     0.031 C 
ATOM     46  C   UNL A   1      40.477  26.910  27.207  1.00  0.00     0.029 A 
ATOM     47  C   UNL A   1      41.421  26.733  28.308  1.00  0.00     0.049 A 
ATOM     48  H   UNL A   1      41.509  27.824  30.080  1.00  0.00     0.167 HD
ATOM     49  C   UNL A   1      41.390  30.001  33.892  1.00  0.00     0.034 A 
ATOM     50  C   UNL A   1      42.408  25.814  28.359  1.00  0.00     0.034 A 
ATOM     51  C   UNL A   1      42.441  29.022  34.050  1.00  0.00     0.049 A 
ATOM     52  C   UNL A   1      43.282  25.741  29.586  1.00  0.00     0.074 A 
ATOM     53  C   UNL A   1      43.245  28.788  35.152  1.00  0.00     0.029 A 
ATOM     54  N   UNL A   1      42.846  28.122  33.071  1.00  0.00    -0.354 N 
ATOM     55  N   UNL A   1      43.214  26.437  30.698  1.00  0.00    -0.248 NA
ATOM     56  C   UNL A   1      44.360  24.744  29.567  1.00  0.00     0.031 C 
ATOM     57  C   UNL A   1      44.185  27.808  34.813  1.00  0.00     0.029 A 
ATOM     58  C   UNL A   1      43.910  27.360  33.530  1.00  0.00     0.049 A 
ATOM     59  H   UNL A   1      42.436  28.038  32.179  1.00  0.00     0.167 HD
ATOM     60  C   UNL A   1      44.215  25.930  31.525  1.00  0.00     0.074 A 
ATOM     61  C   UNL A   1      44.861  24.864  30.787  1.00  0.00     0.031 C 
ATOM     62  C   UNL A   1      44.563  26.308  32.784  1.00  0.00     0.034 A 
BRANCH  49  63
ATOM     63  C   UNL A   1      41.105  30.963  35.024  1.00  0.00     0.023 A 
ATOM     64  C   UNL A   1      39.894  30.926  35.741  1.00  0.00     0.031 A 
ATOM     65  C   UNL A   1      42.027  31.974  35.350  1.00  0.00     0.131 A 
ATOM     66  C   UNL A   1      39.599  31.934  36.672  1.00  0.00     0.055 A 
ATOM     67  C   UNL A   1      41.767  32.917  36.349  1.00  0.00     0.041 A 
ATOM     68  F   UNL A   1      43.190  32.080  34.687  1.00  0.00    -0.206 F 
ATOM     69  C   UNL A   1      40.539  32.913  37.001  1.00  0.00     0.022 A 
BRANCH  66  70
ATOM     70  S   UNL A   1      37.901  32.058  37.300  1.00  0.00     0.124 S 
ATOM     71  O   UNL A   1      38.072  32.973  38.428  1.00  0.00    -0.237 OA
ATOM     72  O   UNL A   1      37.177  32.587  36.151  1.00  0.00    -0.237 OA
ATOM     73  O   UNL A   1      37.572  30.683  37.670  1.00  0.00    -0.744 OA
ENDBRANCH  66  70
ENDBRANCH  49  63
BRANCH  50  74
ATOM     74  C   UNL A   1      42.636  24.888  27.212  1.00  0.00     0.023 A 
ATOM     75  C   UNL A   1      42.124  23.581  27.222  1.00  0.00     0.031 A 
ATOM     76  C   UNL A   1      43.417  25.281  26.110  1.00  0.00     0.131 A 
ATOM     77  C   UNL A   1      42.437  22.698  26.176  1.00  0.00     0.055 A 
ATOM     78  C   UNL A   1      43.679  24.418  25.045  1.00  0.00     0.041 A 
ATOM     79  F   UNL A   1      43.933  26.519  26.050  1.00  0.00    -0.206 F 
ATOM     80  C   UNL A   1      43.198  23.113  25.081  1.00  0.00     0.022 A 
BRANCH  77  81
ATOM     81  S   UNL A   1      41.898  20.971  26.307  1.00  0.00     0.124 S 
ATOM     82  O   UNL A   1      40.469  21.086  26.035  1.00  0.00    -0.237 OA
ATOM     83  O   UNL A   1      42.699  20.325  25.273  1.00  0.00    -0.237 OA
ATOM     84  O   UNL A   1      42.247  20.610  27.679  1.00  0.00    -0.744 OA
ENDBRANCH  77  81
ENDBRANCH  50  74
BRANCH  62  85
ATOM     85  C   UNL A   1      45.662  25.517  33.461  1.00  0.00     0.023 A 
ATOM     86  C   UNL A   1      47.023  25.797  33.246  1.00  0.00     0.031 A 
ATOM     87  C   UNL A   1      45.339  24.441  34.309  1.00  0.00     0.131 A 
ATOM     88  C   UNL A   1      48.007  24.966  33.806  1.00  0.00     0.055 A 
ATOM     89  C   UNL A   1      46.323  23.664  34.923  1.00  0.00     0.041 A 
ATOM     90  F   UNL A   1      44.057  24.121  34.550  1.00  0.00    -0.206 F 
ATOM     91  C   UNL A   1      47.666  23.914  34.659  1.00  0.00     0.022 A 
BRANCH  88  92
ATOM     92  S   UNL A   1      49.734  25.201  33.304  1.00  0.00     0.124 S 
ATOM     93  O   UNL A   1      49.595  26.057  32.130  1.00  0.00    -0.237 OA
ATOM     94  O   UNL A   1      50.320  25.828  34.484  1.00  0.00    -0.237 OA
ATOM     95  O   UNL A   1      50.200  23.843  33.028  1.00  0.00    -0.744 OA
ENDBRANCH  88  92
ENDBRANCH  62  85
ENDBRANCH  36  37
ENDBRANCH  29  31
ENDBRANCH  28  29
ENDBRANCH  27  28
ENDBRANCH  26  27
ENDBRANCH  25  26
ENDBRANCH   1  25
TORSDOF 21
ENDMDL
MODEL 3
REMARK VINA RESULT:     -10.7      1.637      7.628
REMARK SMILES Nc1nonc1C(=O)N1[C@@H]2CC[C@H]1C[C@H](CC(=O)OCCOCCOC(=O)c1ccc(-c3c4nc(c(-c5cc(S(=O)(=O)[O-])ccc5F)c5ccc([nH]5)c(-c5cc(S(=O)(=O)[O-])ccc5F)c5nc(c(-c6cc(S(=O)(=O)[O-])ccc6F)c6ccc3[nH]6)C=C5)C=C4)cc1)C2
REMARK SMILES IDX 21 1 20 2 19 3 17 4 18 5 16 6 15 7 9 8 10 9 13 10 11 11
REMARK SMILES IDX 91 12 12 13 14 14 7 15 8 16 6 17 2 18 3 19 4 20 5 21 1 22
REMARK SMILES IDX 22 25 23 26 24 27 25 28 26 29 27 30 28 31 29 32 90 33 30 34
REMARK SMILES IDX 89 35 31 36 32 37 33 38 83 39 34 40 88 41 82 42 84 43 35 44
REMARK SMILES IDX 87 45 81 46 80 47 36 49 68 50 48 51 67 52 49 53 52 54 66 55
REMARK SMILES IDX 85 56 50 57 51 58 65 60 86 61 53 62 37 63 38 64 46 65 39 66
REMARK SMILES IDX 45 67 47 68 44 69 40 70 41 71 42 72 43 73 69 74 70 75 78 76
REMARK SMILES IDX 71 77 77 78 79 79 76 80 72 81 73 82 74 83 75 84 54 85 55 86
REMARK SMILES IDX 63 87 56 88 62 89 64 90 61 91 57 92 58 93 59 94 60 95
REMARK H PARENT 1 23 1 24 84 48 52 59
REMARK Flexibility Score: inf
ROOT
ATOM      1  C   UNL A   1      31.679  28.965  24.899  1.00  0.00     0.202 C 
ENDROOT
BRANCH   1   2
ATOM      2  C   UNL A   1      31.955  27.467  24.738  1.00  0.00     0.261 C 
BRANCH   2   3
ATOM      3  O   UNL A   1      33.275  27.250  24.206  1.00  0.00    -0.463 OA
BRANCH   3   4
ATOM      4  C   UNL A   1      33.352  26.527  23.064  1.00  0.00     0.306 C 
ATOM      5  O   UNL A   1      32.947  26.888  21.967  1.00  0.00    -0.252 OA
BRANCH   4   6
ATOM      6  C   UNL A   1      33.954  25.159  23.294  1.00  0.00     0.126 C 
BRANCH   6   7
ATOM      7  C   UNL A   1      33.785  24.472  24.673  1.00  0.00     0.004 C 
ATOM      8  N   UNL A   1      34.264  21.723  25.137  1.00  0.00    -0.331 N 
ATOM      9  C   UNL A   1      35.106  22.617  25.905  1.00  0.00     0.086 C 
ATOM     10  C   UNL A   1      32.898  22.124  25.439  1.00  0.00     0.086 C 
ATOM     11  C   UNL A   1      34.371  22.812  27.235  1.00  0.00     0.027 C 
ATOM     12  C   UNL A   1      35.175  23.894  25.076  1.00  0.00     0.029 C 
ATOM     13  C   UNL A   1      32.939  22.351  26.957  1.00  0.00     0.027 C 
ATOM     14  C   UNL A   1      32.604  23.450  24.714  1.00  0.00     0.029 C 
BRANCH   8  15
ATOM     15  C   UNL A   1      34.654  20.397  24.957  1.00  0.00     0.280 C 
ATOM     16  O   UNL A   1      35.852  20.105  24.936  1.00  0.00    -0.267 OA
BRANCH  15  17
ATOM     17  C   UNL A   1      33.605  19.421  24.643  1.00  0.00     0.216 A 
ATOM     18  C   UNL A   1      32.806  18.579  25.462  1.00  0.00     0.201 A 
ATOM     19  N   UNL A   1      31.944  17.901  24.711  1.00  0.00    -0.032 NA
ATOM     20  O   UNL A   1      32.162  18.345  23.419  1.00  0.00    -0.242 OA
ATOM     21  N   UNL A   1      33.180  19.282  23.376  1.00  0.00    -0.042 NA
BRANCH  18  22
ATOM     22  N   UNL A   1      32.833  18.474  26.799  1.00  0.00    -0.379 N 
ATOM     23  H   UNL A   1      32.412  19.168  27.355  1.00  0.00     0.158 HD
ATOM     24  H   UNL A   1      33.275  17.704  27.223  1.00  0.00     0.158 HD
ENDBRANCH  18  22
ENDBRANCH  15  17
ENDBRANCH   8  15
ENDBRANCH   6   7
ENDBRANCH   4   6
ENDBRANCH   3   4
ENDBRANCH   2   3
ENDBRANCH   1   2
BRANCH   1  25
ATOM     25  O   UNL A   1      31.751  29.474  26.232  1.00  0.00    -0.374 OA
BRANCH  25  26
ATOM     26  C   UNL A   1      31.840  30.888  26.379  1.00  0.00     0.202 C 
BRANCH  26  27
ATOM     27  C   UNL A   1      32.975  31.431  27.257  1.00  0.00     0.261 C 
BRANCH  27  28
ATOM     28  O   UNL A   1      32.972  32.868  27.325  1.00  0.00    -0.460 OA
BRANCH  28  29
ATOM     29  C   UNL A   1      33.659  33.369  28.381  1.00  0.00     0.338 C 
ATOM     30  O   UNL A   1      33.235  34.168  29.207  1.00  0.00    -0.246 OA
BRANCH  29  31
ATOM     31  C   UNL A   1      34.949  32.670  28.547  1.00  0.00     0.060 A 
ATOM     32  C   UNL A   1      34.905  31.406  29.148  1.00  0.00     0.016 A 
ATOM     33  C   UNL A   1      36.176  33.242  28.197  1.00  0.00     0.016 A 
ATOM     34  C   UNL A   1      36.084  30.746  29.478  1.00  0.00     0.010 A 
ATOM     35  C   UNL A   1      37.363  32.573  28.527  1.00  0.00     0.010 A 
ATOM     36  C   UNL A   1      37.323  31.345  29.215  1.00  0.00    -0.014 A 
BRANCH  36  37
ATOM     37  C   UNL A   1      38.540  30.753  29.833  1.00  0.00     0.031 A 
ATOM     38  C   UNL A   1      38.905  31.134  31.245  1.00  0.00     0.074 A 
ATOM     39  C   UNL A   1      39.250  29.808  29.190  1.00  0.00     0.049 A 
ATOM     40  N   UNL A   1      39.866  30.682  32.009  1.00  0.00    -0.248 NA
ATOM     41  C   UNL A   1      38.068  32.164  31.876  1.00  0.00     0.031 C 
ATOM     42  C   UNL A   1      38.966  29.313  27.843  1.00  0.00     0.029 A 
ATOM     43  N   UNL A   1      40.339  29.078  29.595  1.00  0.00    -0.354 N 
ATOM     44  C   UNL A   1      39.747  31.368  33.215  1.00  0.00     0.074 A 
ATOM     45  C   UNL A   1      38.660  32.309  33.051  1.00  0.00     0.031 C 
ATOM     46  C   UNL A   1      39.845  28.341  27.544  1.00  0.00     0.029 A 
ATOM     47  C   UNL A   1      40.774  28.169  28.659  1.00  0.00     0.049 A 
ATOM     48  H   UNL A   1      40.769  29.194  30.472  1.00  0.00     0.167 HD
ATOM     49  C   UNL A   1      40.460  31.213  34.360  1.00  0.00     0.034 A 
ATOM     50  C   UNL A   1      41.805  27.300  28.697  1.00  0.00     0.034 A 
ATOM     51  C   UNL A   1      41.557  30.283  34.504  1.00  0.00     0.049 A 
ATOM     52  C   UNL A   1      42.657  27.224  29.940  1.00  0.00     0.074 A 
ATOM     53  C   UNL A   1      42.348  30.048  35.614  1.00  0.00     0.029 A 
ATOM     54  N   UNL A   1      42.027  29.443  33.501  1.00  0.00    -0.354 N 
ATOM     55  N   UNL A   1      42.530  27.873  31.076  1.00  0.00    -0.248 NA
ATOM     56  C   UNL A   1      43.785  26.284  29.907  1.00  0.00     0.031 C 
ATOM     57  C   UNL A   1      43.345  29.130  35.260  1.00  0.00     0.029 A 
ATOM     58  C   UNL A   1      43.120  28.719  33.955  1.00  0.00     0.049 A 
ATOM     59  H   UNL A   1      41.641  29.374  32.598  1.00  0.00     0.167 HD
ATOM     60  C   UNL A   1      43.539  27.385  31.906  1.00  0.00     0.074 A 
ATOM     61  C   UNL A   1      44.253  26.382  31.142  1.00  0.00     0.031 C 
ATOM     62  C   UNL A   1      43.841  27.731  33.185  1.00  0.00     0.034 A 
BRANCH  49  63
ATOM     63  C   UNL A   1      40.103  32.115  35.520  1.00  0.00     0.023 A 
ATOM     64  C   UNL A   1      39.166  31.730  36.497  1.00  0.00     0.031 A 
ATOM     65  C   UNL A   1      40.656  33.404  35.618  1.00  0.00     0.131 A 
ATOM     66  C   UNL A   1      38.741  32.654  37.464  1.00  0.00     0.055 A 
ATOM     67  C   UNL A   1      40.301  34.285  36.643  1.00  0.00     0.041 A 
ATOM     68  F   UNL A   1      41.537  33.843  34.704  1.00  0.00    -0.206 F 
ATOM     69  C   UNL A   1      39.322  33.919  37.561  1.00  0.00     0.022 A 
BRANCH  66  70
ATOM     70  S   UNL A   1      37.284  32.245  38.466  1.00  0.00     0.124 S 
ATOM     71  O   UNL A   1      37.698  32.709  39.789  1.00  0.00    -0.237 OA
ATOM     72  O   UNL A   1      36.229  33.016  37.819  1.00  0.00    -0.237 OA
ATOM     73  O   UNL A   1      37.172  30.794  38.332  1.00  0.00    -0.744 OA
ENDBRANCH  66  70
ENDBRANCH  49  63
BRANCH  50  74
ATOM     74  C   UNL A   1      42.104  26.432  27.521  1.00  0.00     0.023 A 
ATOM     75  C   UNL A   1      41.691  25.091  27.486  1.00  0.00     0.031 A 
ATOM     76  C   UNL A   1      42.857  26.918  26.437  1.00  0.00     0.131 A 
ATOM     77  C   UNL A   1      42.070  24.269  26.414  1.00  0.00     0.055 A 
ATOM     78  C   UNL A   1      43.184  26.112  25.345  1.00  0.00     0.041 A 
ATOM     79  F   UNL A   1      43.280  28.192  26.420  1.00  0.00    -0.206 F 
ATOM     80  C   UNL A   1      42.801  24.775  25.336  1.00  0.00     0.022 A 
BRANCH  77  81
ATOM     81  S   UNL A   1      41.660  22.503  26.485  1.00  0.00     0.124 S 
ATOM     82  O   UNL A   1      42.313  22.000  25.281  1.00  0.00    -0.237 OA
ATOM     83  O   UNL A   1      42.257  22.105  27.755  1.00  0.00    -0.237 OA
ATOM     84  O   UNL A   1      40.200  22.493  26.455  1.00  0.00    -0.744 OA
ENDBRANCH  77  81
ENDBRANCH  50  74
BRANCH  62  85
ATOM     85  C   UNL A   1      44.965  26.970  33.856  1.00  0.00     0.023 A 
ATOM     86  C   UNL A   1      44.735  25.785  34.578  1.00  0.00     0.031 A 
ATOM     87  C   UNL A   1      46.282  27.461  33.801  1.00  0.00     0.131 A 
ATOM     88  C   UNL A   1      45.790  25.176  35.278  1.00  0.00     0.055 A 
ATOM     89  C   UNL A   1      47.340  26.809  34.438  1.00  0.00     0.041 A 
ATOM     90  F   UNL A   1      46.564  28.590  33.130  1.00  0.00    -0.206 F 
ATOM     91  C   UNL A   1      47.094  25.669  35.196  1.00  0.00     0.022 A 
BRANCH  88  92
ATOM     92  S   UNL A   1      45.410  23.802  36.400  1.00  0.00     0.124 S 
ATOM     93  O   UNL A   1      46.738  23.269  36.688  1.00  0.00    -0.237 OA
ATOM     94  O   UNL A   1      44.742  24.479  37.507  1.00  0.00    -0.237 OA
ATOM     95  O   UNL A   1      44.553  22.930  35.599  1.00  0.00    -0.744 OA
ENDBRANCH  88  92
ENDBRANCH  62  85
ENDBRANCH  36  37
ENDBRANCH  29  31
ENDBRANCH  28  29
ENDBRANCH  27  28
ENDBRANCH  26  27
ENDBRANCH  25  26
ENDBRANCH   1  25
TORSDOF 21
ENDMDL
