MODEL 1
REMARK VINA RESULT:     -11.8      0.000      0.000
REMARK SMILES O=C(CCN1C(=O)/C(=C\c2ccc(-c3cccc(Cl)c3)o2)SC1=S)OCCOCCOC(=O)c1ccc(-c2c3nc(c(-c4cc(S(=O)(=O)[O-])ccc4F)c4ccc([nH]4)c(-c4cc(S(=O)(=O)[O-])ccc4F)c4nc(c(-c5cc(S(=O)(=O)[O-])ccc5F)c5ccc2[nH]5)C=C4)C=C3)cc1
REMARK SMILES IDX 27 1 26 2 25 3 2 4 1 5 3 6 4 7 5 8 6 9 23 10 7 11 8 12 22 13
REMARK SMILES IDX 24 14 9 15 10 16 11 17 21 18 12 19 13 20 14 21 15 22 20 23
REMARK SMILES IDX 16 24 18 25 17 26 19 27 28 28 29 29 30 30 31 31 32 32 33 33
REMARK SMILES IDX 34 34 35 35 96 36 36 37 95 38 37 39 38 40 39 41 89 42 40 43
REMARK SMILES IDX 94 44 88 45 90 46 41 47 93 48 87 49 86 50 42 52 74 53 54 54
REMARK SMILES IDX 73 55 55 56 58 57 72 58 91 59 56 60 57 61 71 63 92 64 59 65
REMARK SMILES IDX 43 66 44 67 52 68 45 69 51 70 53 71 50 72 46 73 47 74 48 75
REMARK SMILES IDX 49 76 75 77 76 78 84 79 77 80 83 81 85 82 82 83 78 84 79 85
REMARK SMILES IDX 80 86 81 87 60 88 61 89 69 90 62 91 68 92 70 93 67 94 63 95
REMARK SMILES IDX 64 96 65 97 66 98
REMARK H PARENT 90 51 58 62
REMARK Flexibility Score: inf
ROOT
ATOM      1  C   UNL A   1      41.023  20.250  26.820  1.00  0.00     0.202 C 
ENDROOT
BRANCH   1   2
ATOM      2  C   UNL A   1      40.024  21.407  26.706  1.00  0.00     0.261 C 
BRANCH   2   3
ATOM      3  O   UNL A   1      39.430  21.574  25.420  1.00  0.00    -0.463 OA
BRANCH   3   4
ATOM      4  C   UNL A   1      38.172  22.083  25.427  1.00  0.00     0.307 C 
ATOM      5  O   UNL A   1      37.887  23.092  26.062  1.00  0.00    -0.252 OA
BRANCH   4   6
ATOM      6  C   UNL A   1      37.133  21.210  24.769  1.00  0.00     0.144 C 
BRANCH   6   7
ATOM      7  C   UNL A   1      35.825  21.111  25.562  1.00  0.00     0.139 C 
BRANCH   7   8
ATOM      8  N   UNL A   1      34.549  20.910  24.843  1.00  0.00    -0.292 N 
ATOM      9  C   UNL A   1      33.885  21.930  24.198  1.00  0.00     0.266 C 
ATOM     10  C   UNL A   1      34.069  19.654  24.512  1.00  0.00     0.148 C 
ATOM     11  O   UNL A   1      34.396  22.982  23.844  1.00  0.00    -0.268 OA
ATOM     12  C   UNL A   1      32.486  21.510  23.876  1.00  0.00     0.084 C 
ATOM     13  S   UNL A   1      32.528  19.795  23.662  1.00  0.00    -0.054 SA
ATOM     14  S   UNL A   1      34.780  18.172  24.804  1.00  0.00    -0.052 S 
ATOM     15  C   UNL A   1      31.332  22.201  23.906  1.00  0.00     0.068 C 
BRANCH  15  16
ATOM     16  C   UNL A   1      31.211  23.580  24.238  1.00  0.00     0.128 A 
ATOM     17  C   UNL A   1      31.601  24.215  25.400  1.00  0.00     0.051 A 
ATOM     18  O   UNL A   1      30.712  24.572  23.383  1.00  0.00    -0.457 OA
ATOM     19  C   UNL A   1      31.231  25.558  25.311  1.00  0.00     0.051 A 
ATOM     20  C   UNL A   1      30.770  25.770  24.043  1.00  0.00     0.134 A 
BRANCH  20  21
ATOM     21  C   UNL A   1      30.365  27.028  23.427  1.00  0.00     0.019 A 
ATOM     22  C   UNL A   1      31.377  27.923  23.016  1.00  0.00     0.012 A 
ATOM     23  C   UNL A   1      29.045  27.467  23.388  1.00  0.00     0.032 A 
ATOM     24  C   UNL A   1      31.100  29.224  22.602  1.00  0.00     0.002 A 
ATOM     25  C   UNL A   1      28.767  28.781  22.986  1.00  0.00     0.041 A 
ATOM     26  C   UNL A   1      29.784  29.659  22.601  1.00  0.00     0.020 A 
ATOM     27  Cl  UNL A   1      27.144  29.356  23.025  1.00  0.00    -0.084 Cl
ENDBRANCH  20  21
ENDBRANCH  15  16
ENDBRANCH   7   8
ENDBRANCH   6   7
ENDBRANCH   4   6
ENDBRANCH   3   4
ENDBRANCH   2   3
ENDBRANCH   1   2
BRANCH   1  28
ATOM     28  O   UNL A   1      41.869  20.032  25.702  1.00  0.00    -0.374 OA
BRANCH  28  29
ATOM     29  C   UNL A   1      43.217  20.416  25.996  1.00  0.00     0.202 C 
BRANCH  29  30
ATOM     30  C   UNL A   1      43.924  21.391  25.017  1.00  0.00     0.261 C 
BRANCH  30  31
ATOM     31  O   UNL A   1      43.256  22.655  24.769  1.00  0.00    -0.460 OA
BRANCH  31  32
ATOM     32  C   UNL A   1      44.048  23.781  24.824  1.00  0.00     0.338 C 
ATOM     33  O   UNL A   1      44.988  24.024  24.101  1.00  0.00    -0.246 OA
BRANCH  32  34
ATOM     34  C   UNL A   1      43.549  24.740  25.863  1.00  0.00     0.060 A 
ATOM     35  C   UNL A   1      43.939  26.091  25.816  1.00  0.00     0.016 A 
ATOM     36  C   UNL A   1      42.646  24.340  26.847  1.00  0.00     0.016 A 
ATOM     37  C   UNL A   1      43.336  27.055  26.661  1.00  0.00     0.010 A 
ATOM     38  C   UNL A   1      42.046  25.303  27.679  1.00  0.00     0.010 A 
ATOM     39  C   UNL A   1      42.352  26.679  27.585  1.00  0.00    -0.014 A 
BRANCH  39  40
ATOM     40  C   UNL A   1      41.786  27.603  28.630  1.00  0.00     0.031 A 
ATOM     41  C   UNL A   1      42.488  27.618  29.963  1.00  0.00     0.074 A 
ATOM     42  C   UNL A   1      40.642  28.317  28.515  1.00  0.00     0.049 A 
ATOM     43  N   UNL A   1      42.097  28.088  31.120  1.00  0.00    -0.248 NA
ATOM     44  C   UNL A   1      43.780  26.921  29.993  1.00  0.00     0.031 C 
ATOM     45  C   UNL A   1      39.809  28.414  27.324  1.00  0.00     0.029 A 
ATOM     46  N   UNL A   1      39.959  29.076  29.449  1.00  0.00    -0.354 N 
ATOM     47  C   UNL A   1      43.073  27.690  32.024  1.00  0.00     0.074 A 
ATOM     48  C   UNL A   1      44.001  26.854  31.291  1.00  0.00     0.031 C 
ATOM     49  C   UNL A   1      38.720  29.160  27.598  1.00  0.00     0.029 A 
ATOM     50  C   UNL A   1      38.758  29.586  28.998  1.00  0.00     0.049 A 
ATOM     51  H   UNL A   1      40.300  29.238  30.358  1.00  0.00     0.167 HD
ATOM     52  C   UNL A   1      43.220  28.013  33.334  1.00  0.00     0.034 A 
ATOM     53  C   UNL A   1      37.796  30.295  29.636  1.00  0.00     0.034 A 
ATOM     54  C   UNL A   1      42.323  28.866  34.063  1.00  0.00     0.049 A 
ATOM     55  C   UNL A   1      37.955  30.644  31.105  1.00  0.00     0.074 A 
ATOM     56  C   UNL A   1      42.418  29.297  35.374  1.00  0.00     0.029 A 
ATOM     57  N   UNL A   1      41.158  29.416  33.547  1.00  0.00    -0.354 N 
ATOM     58  N   UNL A   1      38.914  30.309  31.936  1.00  0.00    -0.248 NA
ATOM     59  C   UNL A   1      36.902  31.472  31.720  1.00  0.00     0.031 C 
ATOM     60  C   UNL A   1      41.284  30.060  35.669  1.00  0.00     0.029 A 
ATOM     61  C   UNL A   1      40.517  30.166  34.520  1.00  0.00     0.049 A 
ATOM     62  H   UNL A   1      40.834  29.292  32.627  1.00  0.00     0.167 HD
ATOM     63  C   UNL A   1      38.601  30.924  33.152  1.00  0.00     0.074 A 
ATOM     64  C   UNL A   1      37.362  31.640  32.952  1.00  0.00     0.031 C 
ATOM     65  C   UNL A   1      39.291  30.903  34.320  1.00  0.00     0.034 A 
BRANCH  52  66
ATOM     66  C   UNL A   1      44.404  27.394  34.038  1.00  0.00     0.023 A 
ATOM     67  C   UNL A   1      44.261  26.213  34.788  1.00  0.00     0.031 A 
ATOM     68  C   UNL A   1      45.633  28.069  34.094  1.00  0.00     0.131 A 
ATOM     69  C   UNL A   1      45.260  25.848  35.698  1.00  0.00     0.055 A 
ATOM     70  C   UNL A   1      46.677  27.619  34.904  1.00  0.00     0.041 A 
ATOM     71  F   UNL A   1      45.822  29.209  33.409  1.00  0.00    -0.206 F 
ATOM     72  C   UNL A   1      46.481  26.523  35.741  1.00  0.00     0.022 A 
BRANCH  69  73
ATOM     73  S   UNL A   1      44.824  24.668  37.007  1.00  0.00     0.124 S 
ATOM     74  O   UNL A   1      44.606  23.445  36.236  1.00  0.00    -0.237 OA
ATOM     75  O   UNL A   1      46.009  24.684  37.855  1.00  0.00    -0.237 OA
ATOM     76  O   UNL A   1      43.619  25.243  37.600  1.00  0.00    -0.744 OA
ENDBRANCH  69  73
ENDBRANCH  52  66
BRANCH  53  77
ATOM     77  C   UNL A   1      36.547  30.719  28.924  1.00  0.00     0.023 A 
ATOM     78  C   UNL A   1      35.632  29.772  28.426  1.00  0.00     0.031 A 
ATOM     79  C   UNL A   1      36.304  32.074  28.642  1.00  0.00     0.131 A 
ATOM     80  C   UNL A   1      34.549  30.190  27.632  1.00  0.00     0.055 A 
ATOM     81  C   UNL A   1      35.200  32.488  27.891  1.00  0.00     0.041 A 
ATOM     82  F   UNL A   1      37.148  33.020  29.084  1.00  0.00    -0.206 F 
ATOM     83  C   UNL A   1      34.320  31.542  27.371  1.00  0.00     0.022 A 
BRANCH  80  84
ATOM     84  S   UNL A   1      33.474  28.933  26.881  1.00  0.00     0.124 S 
ATOM     85  O   UNL A   1      34.431  27.882  26.553  1.00  0.00    -0.237 OA
ATOM     86  O   UNL A   1      32.544  28.639  27.966  1.00  0.00    -0.237 OA
ATOM     87  O   UNL A   1      32.888  29.625  25.734  1.00  0.00    -0.744 OA
ENDBRANCH  80  84
ENDBRANCH  53  77
BRANCH  65  88
ATOM     88  C   UNL A   1      38.790  31.751  35.468  1.00  0.00     0.023 A 
ATOM     89  C   UNL A   1      38.157  31.203  36.596  1.00  0.00     0.031 A 
ATOM     90  C   UNL A   1      39.027  33.140  35.453  1.00  0.00     0.131 A 
ATOM     91  C   UNL A   1      37.769  32.041  37.655  1.00  0.00     0.055 A 
ATOM     92  C   UNL A   1      38.681  33.961  36.526  1.00  0.00     0.041 A 
ATOM     93  F   UNL A   1      39.631  33.717  34.401  1.00  0.00    -0.206 F 
ATOM     94  C   UNL A   1      38.045  33.413  37.635  1.00  0.00     0.022 A 
BRANCH  91  95
ATOM     95  S   UNL A   1      36.869  31.329  39.063  1.00  0.00     0.124 S 
ATOM     96  O   UNL A   1      35.729  32.233  39.183  1.00  0.00    -0.237 OA
ATOM     97  O   UNL A   1      36.569  29.981  38.592  1.00  0.00    -0.237 OA
ATOM     98  O   UNL A   1      37.834  31.400  40.160  1.00  0.00    -0.744 OA
ENDBRANCH  91  95
ENDBRANCH  65  88
ENDBRANCH  39  40
ENDBRANCH  32  34
ENDBRANCH  31  32
ENDBRANCH  30  31
ENDBRANCH  29  30
ENDBRANCH  28  29
ENDBRANCH   1  28
TORSDOF 21
ENDMDL
MODEL 2
REMARK VINA RESULT:     -11.1      2.082      2.415
REMARK SMILES O=C(CCN1C(=O)/C(=C\c2ccc(-c3cccc(Cl)c3)o2)SC1=S)OCCOCCOC(=O)c1ccc(-c2c3nc(c(-c4cc(S(=O)(=O)[O-])ccc4F)c4ccc([nH]4)c(-c4cc(S(=O)(=O)[O-])ccc4F)c4nc(c(-c5cc(S(=O)(=O)[O-])ccc5F)c5ccc2[nH]5)C=C4)C=C3)cc1
REMARK SMILES IDX 27 1 26 2 25 3 2 4 1 5 3 6 4 7 5 8 6 9 23 10 7 11 8 12 22 13
REMARK SMILES IDX 24 14 9 15 10 16 11 17 21 18 12 19 13 20 14 21 15 22 20 23
REMARK SMILES IDX 16 24 18 25 17 26 19 27 28 28 29 29 30 30 31 31 32 32 33 33
REMARK SMILES IDX 34 34 35 35 96 36 36 37 95 38 37 39 38 40 39 41 89 42 40 43
REMARK SMILES IDX 94 44 88 45 90 46 41 47 93 48 87 49 86 50 42 52 74 53 54 54
REMARK SMILES IDX 73 55 55 56 58 57 72 58 91 59 56 60 57 61 71 63 92 64 59 65
REMARK SMILES IDX 43 66 44 67 52 68 45 69 51 70 53 71 50 72 46 73 47 74 48 75
REMARK SMILES IDX 49 76 75 77 76 78 84 79 77 80 83 81 85 82 82 83 78 84 79 85
REMARK SMILES IDX 80 86 81 87 60 88 61 89 69 90 62 91 68 92 70 93 67 94 63 95
REMARK SMILES IDX 64 96 65 97 66 98
REMARK H PARENT 90 51 58 62
REMARK Flexibility Score: inf
ROOT
ATOM      1  C   UNL A   1      40.441  20.143  26.806  1.00  0.00     0.202 C 
ENDROOT
BRANCH   1   2
ATOM      2  C   UNL A   1      39.789  21.484  26.450  1.00  0.00     0.261 C 
BRANCH   2   3
ATOM      3  O   UNL A   1      38.873  21.444  25.357  1.00  0.00    -0.463 OA
BRANCH   3   4
ATOM      4  C   UNL A   1      37.704  22.103  25.560  1.00  0.00     0.307 C 
ATOM      5  O   UNL A   1      37.676  23.270  25.935  1.00  0.00    -0.252 OA
BRANCH   4   6
ATOM      6  C   UNL A   1      36.469  21.239  25.483  1.00  0.00     0.144 C 
BRANCH   6   7
ATOM      7  C   UNL A   1      35.162  22.024  25.633  1.00  0.00     0.139 C 
BRANCH   7   8
ATOM      8  N   UNL A   1      34.170  22.006  24.538  1.00  0.00    -0.292 N 
ATOM      9  C   UNL A   1      34.091  22.998  23.585  1.00  0.00     0.266 C 
ATOM     10  C   UNL A   1      33.442  20.875  24.207  1.00  0.00     0.148 C 
ATOM     11  O   UNL A   1      34.989  23.779  23.314  1.00  0.00    -0.268 OA
ATOM     12  C   UNL A   1      32.799  22.892  22.839  1.00  0.00     0.084 C 
ATOM     13  S   UNL A   1      32.360  21.220  22.856  1.00  0.00    -0.054 SA
ATOM     14  S   UNL A   1      33.525  19.360  24.904  1.00  0.00    -0.052 S 
ATOM     15  C   UNL A   1      31.970  23.846  22.376  1.00  0.00     0.068 C 
BRANCH  15  16
ATOM     16  C   UNL A   1      32.196  25.248  22.480  1.00  0.00     0.128 A 
ATOM     17  C   UNL A   1      33.383  25.934  22.319  1.00  0.00     0.051 A 
ATOM     18  O   UNL A   1      31.201  26.207  22.710  1.00  0.00    -0.457 OA
ATOM     19  C   UNL A   1      33.144  27.287  22.572  1.00  0.00     0.051 A 
ATOM     20  C   UNL A   1      31.796  27.440  22.724  1.00  0.00     0.134 A 
BRANCH  20  21
ATOM     21  C   UNL A   1      31.041  28.676  22.899  1.00  0.00     0.019 A 
ATOM     22  C   UNL A   1      31.104  29.323  24.152  1.00  0.00     0.012 A 
ATOM     23  C   UNL A   1      30.130  29.150  21.960  1.00  0.00     0.032 A 
ATOM     24  C   UNL A   1      30.273  30.391  24.484  1.00  0.00     0.002 A 
ATOM     25  C   UNL A   1      29.283  30.215  22.299  1.00  0.00     0.041 A 
ATOM     26  C   UNL A   1      29.346  30.831  23.553  1.00  0.00     0.020 A 
ATOM     27  Cl  UNL A   1      28.090  30.744  21.174  1.00  0.00    -0.084 Cl
ENDBRANCH  20  21
ENDBRANCH  15  16
ENDBRANCH   7   8
ENDBRANCH   6   7
ENDBRANCH   4   6
ENDBRANCH   3   4
ENDBRANCH   2   3
ENDBRANCH   1   2
BRANCH   1  28
ATOM     28  O   UNL A   1      41.532  19.736  25.996  1.00  0.00    -0.374 OA
BRANCH  28  29
ATOM     29  C   UNL A   1      42.726  20.443  26.350  1.00  0.00     0.202 C 
BRANCH  29  30
ATOM     30  C   UNL A   1      43.426  21.286  25.250  1.00  0.00     0.261 C 
BRANCH  30  31
ATOM     31  O   UNL A   1      42.841  22.581  24.958  1.00  0.00    -0.460 OA
BRANCH  31  32
ATOM     32  C   UNL A   1      43.708  23.651  24.956  1.00  0.00     0.338 C 
ATOM     33  O   UNL A   1      44.635  23.812  24.195  1.00  0.00    -0.246 OA
BRANCH  32  34
ATOM     34  C   UNL A   1      43.312  24.668  25.985  1.00  0.00     0.060 A 
ATOM     35  C   UNL A   1      43.657  26.020  25.807  1.00  0.00     0.016 A 
ATOM     36  C   UNL A   1      42.545  24.316  27.096  1.00  0.00     0.016 A 
ATOM     37  C   UNL A   1      43.134  27.025  26.657  1.00  0.00     0.010 A 
ATOM     38  C   UNL A   1      42.025  25.319  27.933  1.00  0.00     0.010 A 
ATOM     39  C   UNL A   1      42.280  26.692  27.715  1.00  0.00    -0.014 A 
BRANCH  39  40
ATOM     40  C   UNL A   1      41.819  27.672  28.762  1.00  0.00     0.031 A 
ATOM     41  C   UNL A   1      42.531  27.621  30.088  1.00  0.00     0.074 A 
ATOM     42  C   UNL A   1      40.753  28.498  28.653  1.00  0.00     0.049 A 
ATOM     43  N   UNL A   1      42.200  28.131  31.246  1.00  0.00    -0.248 NA
ATOM     44  C   UNL A   1      43.746  26.796  30.110  1.00  0.00     0.031 C 
ATOM     45  C   UNL A   1      39.923  28.675  27.469  1.00  0.00     0.029 A 
ATOM     46  N   UNL A   1      40.158  29.325  29.590  1.00  0.00    -0.354 N 
ATOM     47  C   UNL A   1      43.138  27.639  32.144  1.00  0.00     0.074 A 
ATOM     48  C   UNL A   1      43.970  26.711  31.407  1.00  0.00     0.031 C 
ATOM     49  C   UNL A   1      38.918  29.529  27.749  1.00  0.00     0.029 A 
ATOM     50  C   UNL A   1      39.011  29.953  29.147  1.00  0.00     0.049 A 
ATOM     51  H   UNL A   1      40.522  29.454  30.496  1.00  0.00     0.167 HD
ATOM     52  C   UNL A   1      43.329  27.949  33.451  1.00  0.00     0.034 A 
ATOM     53  C   UNL A   1      38.131  30.758  29.790  1.00  0.00     0.034 A 
ATOM     54  C   UNL A   1      42.529  28.891  34.184  1.00  0.00     0.049 A 
ATOM     55  C   UNL A   1      38.338  31.093  31.257  1.00  0.00     0.074 A 
ATOM     56  C   UNL A   1      42.679  29.314  35.493  1.00  0.00     0.029 A 
ATOM     57  N   UNL A   1      41.421  29.555  33.676  1.00  0.00    -0.354 N 
ATOM     58  N   UNL A   1      39.265  30.666  32.081  1.00  0.00    -0.248 NA
ATOM     59  C   UNL A   1      37.379  32.026  31.877  1.00  0.00     0.031 C 
ATOM     60  C   UNL A   1      41.630  30.189  35.795  1.00  0.00     0.029 A 
ATOM     61  C   UNL A   1      40.868  30.369  34.652  1.00  0.00     0.049 A 
ATOM     62  H   UNL A   1      41.079  29.461  32.759  1.00  0.00     0.167 HD
ATOM     63  C   UNL A   1      39.027  31.313  33.296  1.00  0.00     0.074 A 
ATOM     64  C   UNL A   1      37.865  32.151  33.104  1.00  0.00     0.031 C 
ATOM     65  C   UNL A   1      39.722  31.226  34.459  1.00  0.00     0.034 A 
BRANCH  52  66
ATOM     66  C   UNL A   1      44.450  27.216  34.148  1.00  0.00     0.023 A 
ATOM     67  C   UNL A   1      45.773  27.689  34.083  1.00  0.00     0.031 A 
ATOM     68  C   UNL A   1      44.224  25.963  34.737  1.00  0.00     0.131 A 
ATOM     69  C   UNL A   1      46.828  26.838  34.429  1.00  0.00     0.055 A 
ATOM     70  C   UNL A   1      45.276  25.175  35.207  1.00  0.00     0.041 A 
ATOM     71  F   UNL A   1      42.983  25.454  34.815  1.00  0.00    -0.206 F 
ATOM     72  C   UNL A   1      46.592  25.595  35.020  1.00  0.00     0.022 A 
BRANCH  69  73
ATOM     73  S   UNL A   1      48.490  27.263  33.834  1.00  0.00     0.124 S 
ATOM     74  O   UNL A   1      49.121  27.756  35.058  1.00  0.00    -0.237 OA
ATOM     75  O   UNL A   1      48.983  25.985  33.333  1.00  0.00    -0.237 OA
ATOM     76  O   UNL A   1      48.241  28.282  32.817  1.00  0.00    -0.744 OA
ENDBRANCH  69  73
ENDBRANCH  52  66
BRANCH  53  77
ATOM     77  C   UNL A   1      36.926  31.303  29.087  1.00  0.00     0.023 A 
ATOM     78  C   UNL A   1      35.893  30.457  28.642  1.00  0.00     0.031 A 
ATOM     79  C   UNL A   1      36.840  32.668  28.759  1.00  0.00     0.131 A 
ATOM     80  C   UNL A   1      34.849  30.974  27.854  1.00  0.00     0.055 A 
ATOM     81  C   UNL A   1      35.776  33.185  28.014  1.00  0.00     0.041 A 
ATOM     82  F   UNL A   1      37.801  33.519  29.148  1.00  0.00    -0.206 F 
ATOM     83  C   UNL A   1      34.778  32.334  27.547  1.00  0.00     0.022 A 
BRANCH  80  84
ATOM     84  S   UNL A   1      33.614  29.830  27.172  1.00  0.00     0.124 S 
ATOM     85  O   UNL A   1      32.444  30.694  27.052  1.00  0.00    -0.237 OA
ATOM     86  O   UNL A   1      34.239  29.417  25.920  1.00  0.00    -0.237 OA
ATOM     87  O   UNL A   1      33.517  28.785  28.190  1.00  0.00    -0.744 OA
ENDBRANCH  80  84
ENDBRANCH  53  77
BRANCH  65  88
ATOM     88  C   UNL A   1      39.319  32.123  35.607  1.00  0.00     0.023 A 
ATOM     89  C   UNL A   1      39.766  33.450  35.726  1.00  0.00     0.031 A 
ATOM     90  C   UNL A   1      38.401  31.647  36.564  1.00  0.00     0.131 A 
ATOM     91  C   UNL A   1      39.306  34.250  36.787  1.00  0.00     0.055 A 
ATOM     92  C   UNL A   1      37.913  32.460  37.589  1.00  0.00     0.041 A 
ATOM     93  F   UNL A   1      37.939  30.388  36.498  1.00  0.00    -0.206 F 
ATOM     94  C   UNL A   1      38.368  33.768  37.706  1.00  0.00     0.022 A 
BRANCH  91  95
ATOM     95  S   UNL A   1      39.965  35.931  36.977  1.00  0.00     0.124 S 
ATOM     96  O   UNL A   1      39.045  36.510  37.951  1.00  0.00    -0.237 OA
ATOM     97  O   UNL A   1      41.323  35.683  37.450  1.00  0.00    -0.237 OA
ATOM     98  O   UNL A   1      39.874  36.492  35.629  1.00  0.00    -0.744 OA
ENDBRANCH  91  95
ENDBRANCH  65  88
ENDBRANCH  39  40
ENDBRANCH  32  34
ENDBRANCH  31  32
ENDBRANCH  30  31
ENDBRANCH  29  30
ENDBRANCH  28  29
ENDBRANCH   1  28
TORSDOF 21
ENDMDL
MODEL 3
REMARK VINA RESULT:     -10.9      5.246      7.373
REMARK SMILES O=C(CCN1C(=O)/C(=C\c2ccc(-c3cccc(Cl)c3)o2)SC1=S)OCCOCCOC(=O)c1ccc(-c2c3nc(c(-c4cc(S(=O)(=O)[O-])ccc4F)c4ccc([nH]4)c(-c4cc(S(=O)(=O)[O-])ccc4F)c4nc(c(-c5cc(S(=O)(=O)[O-])ccc5F)c5ccc2[nH]5)C=C4)C=C3)cc1
REMARK SMILES IDX 27 1 26 2 25 3 2 4 1 5 3 6 4 7 5 8 6 9 23 10 7 11 8 12 22 13
REMARK SMILES IDX 24 14 9 15 10 16 11 17 21 18 12 19 13 20 14 21 15 22 20 23
REMARK SMILES IDX 16 24 18 25 17 26 19 27 28 28 29 29 30 30 31 31 32 32 33 33
REMARK SMILES IDX 34 34 35 35 96 36 36 37 95 38 37 39 38 40 39 41 89 42 40 43
REMARK SMILES IDX 94 44 88 45 90 46 41 47 93 48 87 49 86 50 42 52 74 53 54 54
REMARK SMILES IDX 73 55 55 56 58 57 72 58 91 59 56 60 57 61 71 63 92 64 59 65
REMARK SMILES IDX 43 66 44 67 52 68 45 69 51 70 53 71 50 72 46 73 47 74 48 75
REMARK SMILES IDX 49 76 75 77 76 78 84 79 77 80 83 81 85 82 82 83 78 84 79 85
REMARK SMILES IDX 80 86 81 87 60 88 61 89 69 90 62 91 68 92 70 93 67 94 63 95
REMARK SMILES IDX 64 96 65 97 66 98
REMARK H PARENT 90 51 58 62
REMARK Flexibility Score: inf
ROOT
ATOM      1  C   UNL A   1      41.308  21.936  26.863  1.00  0.00     0.202 C 
ENDROOT
BRANCH   1   2
ATOM      2  C   UNL A   1      39.931  22.533  27.172  1.00  0.00     0.261 C 
BRANCH   2   3
ATOM      3  O   UNL A   1      39.138  22.858  26.032  1.00  0.00    -0.463 OA
BRANCH   3   4
ATOM      4  C   UNL A   1      38.181  21.949  25.716  1.00  0.00     0.307 C 
ATOM      5  O   UNL A   1      38.463  20.796  25.407  1.00  0.00    -0.252 OA
BRANCH   4   6
ATOM      6  C   UNL A   1      36.790  22.515  25.581  1.00  0.00     0.144 C 
BRANCH   6   7
ATOM      7  C   UNL A   1      36.038  22.006  24.347  1.00  0.00     0.139 C 
BRANCH   7   8
ATOM      8  N   UNL A   1      34.672  21.463  24.496  1.00  0.00    -0.292 N 
ATOM      9  C   UNL A   1      33.543  22.173  24.146  1.00  0.00     0.266 C 
ATOM     10  C   UNL A   1      34.422  20.120  24.719  1.00  0.00     0.148 C 
ATOM     11  O   UNL A   1      33.526  23.127  23.385  1.00  0.00    -0.268 OA
ATOM     12  C   UNL A   1      32.328  21.523  24.727  1.00  0.00     0.084 C 
ATOM     13  S   UNL A   1      32.685  19.835  24.844  1.00  0.00    -0.054 SA
ATOM     14  S   UNL A   1      35.528  18.875  24.840  1.00  0.00    -0.052 S 
ATOM     15  C   UNL A   1      31.213  22.058  25.257  1.00  0.00     0.068 C 
BRANCH  15  16
ATOM     16  C   UNL A   1      30.933  23.451  25.341  1.00  0.00     0.128 A 
ATOM     17  C   UNL A   1      30.909  24.249  26.468  1.00  0.00     0.051 A 
ATOM     18  O   UNL A   1      30.686  24.289  24.247  1.00  0.00    -0.457 OA
ATOM     19  C   UNL A   1      30.529  25.537  26.084  1.00  0.00     0.051 A 
ATOM     20  C   UNL A   1      30.481  25.558  24.720  1.00  0.00     0.134 A 
BRANCH  20  21
ATOM     21  C   UNL A   1      30.237  26.696  23.842  1.00  0.00     0.019 A 
ATOM     22  C   UNL A   1      31.353  27.367  23.296  1.00  0.00     0.012 A 
ATOM     23  C   UNL A   1      28.978  27.260  23.660  1.00  0.00     0.032 A 
ATOM     24  C   UNL A   1      31.237  28.575  22.612  1.00  0.00     0.002 A 
ATOM     25  C   UNL A   1      28.862  28.483  22.984  1.00  0.00     0.041 A 
ATOM     26  C   UNL A   1      29.981  29.143  22.467  1.00  0.00     0.020 A 
ATOM     27  Cl  UNL A   1      27.317  29.231  22.838  1.00  0.00    -0.084 Cl
ENDBRANCH  20  21
ENDBRANCH  15  16
ENDBRANCH   7   8
ENDBRANCH   6   7
ENDBRANCH   4   6
ENDBRANCH   3   4
ENDBRANCH   2   3
ENDBRANCH   1   2
BRANCH   1  28
ATOM     28  O   UNL A   1      41.489  20.565  27.180  1.00  0.00    -0.374 OA
BRANCH  28  29
ATOM     29  C   UNL A   1      41.668  19.784  25.992  1.00  0.00     0.202 C 
BRANCH  29  30
ATOM     30  C   UNL A   1      43.021  19.047  25.804  1.00  0.00     0.261 C 
BRANCH  30  31
ATOM     31  O   UNL A   1      43.656  19.183  24.507  1.00  0.00    -0.460 OA
BRANCH  31  32
ATOM     32  C   UNL A   1      44.953  19.648  24.513  1.00  0.00     0.338 C 
ATOM     33  O   UNL A   1      45.939  19.006  24.229  1.00  0.00    -0.246 OA
BRANCH  32  34
ATOM     34  C   UNL A   1      44.999  21.110  24.843  1.00  0.00     0.060 A 
ATOM     35  C   UNL A   1      44.472  22.052  23.941  1.00  0.00     0.016 A 
ATOM     36  C   UNL A   1      45.498  21.564  26.065  1.00  0.00     0.016 A 
ATOM     37  C   UNL A   1      44.327  23.412  24.306  1.00  0.00     0.010 A 
ATOM     38  C   UNL A   1      45.345  22.915  26.424  1.00  0.00     0.010 A 
ATOM     39  C   UNL A   1      44.731  23.859  25.571  1.00  0.00    -0.014 A 
BRANCH  39  40
ATOM     40  C   UNL A   1      44.769  25.309  25.976  1.00  0.00     0.031 A 
ATOM     41  C   UNL A   1      46.124  25.969  25.979  1.00  0.00     0.074 A 
ATOM     42  C   UNL A   1      43.723  26.023  26.449  1.00  0.00     0.049 A 
ATOM     43  N   UNL A   1      46.515  27.093  26.521  1.00  0.00    -0.248 NA
ATOM     44  C   UNL A   1      47.197  25.189  25.349  1.00  0.00     0.031 C 
ATOM     45  C   UNL A   1      42.345  25.560  26.549  1.00  0.00     0.029 A 
ATOM     46  N   UNL A   1      43.672  27.300  26.980  1.00  0.00    -0.354 N 
ATOM     47  C   UNL A   1      47.893  27.124  26.344  1.00  0.00     0.074 A 
ATOM     48  C   UNL A   1      48.262  25.857  25.747  1.00  0.00     0.031 C 
ATOM     49  C   UNL A   1      41.590  26.518  27.125  1.00  0.00     0.029 A 
ATOM     50  C   UNL A   1      42.431  27.668  27.460  1.00  0.00     0.049 A 
ATOM     51  H   UNL A   1      44.456  27.896  27.012  1.00  0.00     0.167 HD
ATOM     52  C   UNL A   1      48.776  28.119  26.609  1.00  0.00     0.034 A 
ATOM     53  C   UNL A   1      42.021  28.786  28.107  1.00  0.00     0.034 A 
ATOM     54  C   UNL A   1      48.417  29.391  27.173  1.00  0.00     0.049 A 
ATOM     55  C   UNL A   1      43.014  29.893  28.416  1.00  0.00     0.074 A 
ATOM     56  C   UNL A   1      49.229  30.482  27.425  1.00  0.00     0.029 A 
ATOM     57  N   UNL A   1      47.138  29.745  27.579  1.00  0.00    -0.354 N 
ATOM     58  N   UNL A   1      44.306  29.933  28.190  1.00  0.00    -0.248 NA
ATOM     59  C   UNL A   1      42.489  31.108  29.064  1.00  0.00     0.031 C 
ATOM     60  C   UNL A   1      48.455  31.474  28.036  1.00  0.00     0.029 A 
ATOM     61  C   UNL A   1      47.145  31.030  28.098  1.00  0.00     0.049 A 
ATOM     62  H   UNL A   1      46.344  29.169  27.510  1.00  0.00     0.167 HD
ATOM     63  C   UNL A   1      44.733  31.191  28.624  1.00  0.00     0.074 A 
ATOM     64  C   UNL A   1      43.568  31.876  29.135  1.00  0.00     0.031 C 
ATOM     65  C   UNL A   1      45.979  31.728  28.588  1.00  0.00     0.034 A 
BRANCH  52  66
ATOM     66  C   UNL A   1      50.223  27.818  26.300  1.00  0.00     0.023 A 
ATOM     67  C   UNL A   1      50.791  28.190  25.069  1.00  0.00     0.031 A 
ATOM     68  C   UNL A   1      50.985  27.020  27.166  1.00  0.00     0.131 A 
ATOM     69  C   UNL A   1      52.001  27.614  24.664  1.00  0.00     0.055 A 
ATOM     70  C   UNL A   1      52.255  26.560  26.810  1.00  0.00     0.041 A 
ATOM     71  F   UNL A   1      50.490  26.623  28.350  1.00  0.00    -0.206 F 
ATOM     72  C   UNL A   1      52.754  26.826  25.536  1.00  0.00     0.022 A 
BRANCH  69  73
ATOM     73  S   UNL A   1      52.423  27.680  22.899  1.00  0.00     0.124 S 
ATOM     74  O   UNL A   1      52.265  29.106  22.616  1.00  0.00    -0.237 OA
ATOM     75  O   UNL A   1      53.790  27.174  22.882  1.00  0.00    -0.237 OA
ATOM     76  O   UNL A   1      51.425  26.815  22.275  1.00  0.00    -0.744 OA
ENDBRANCH  69  73
ENDBRANCH  52  66
BRANCH  53  77
ATOM     77  C   UNL A   1      40.602  28.941  28.559  1.00  0.00     0.023 A 
ATOM     78  C   UNL A   1      40.240  28.771  29.909  1.00  0.00     0.031 A 
ATOM     79  C   UNL A   1      39.570  29.160  27.629  1.00  0.00     0.131 A 
ATOM     80  C   UNL A   1      38.884  28.772  30.281  1.00  0.00     0.055 A 
ATOM     81  C   UNL A   1      38.226  29.207  28.012  1.00  0.00     0.041 A 
ATOM     82  F   UNL A   1      39.854  29.320  26.328  1.00  0.00    -0.206 F 
ATOM     83  C   UNL A   1      37.876  29.000  29.343  1.00  0.00     0.022 A 
BRANCH  80  84
ATOM     84  S   UNL A   1      38.446  28.401  32.004  1.00  0.00     0.124 S 
ATOM     85  O   UNL A   1      37.124  29.008  32.111  1.00  0.00    -0.237 OA
ATOM     86  O   UNL A   1      38.486  26.942  32.021  1.00  0.00    -0.237 OA
ATOM     87  O   UNL A   1      39.500  29.058  32.775  1.00  0.00    -0.744 OA
ENDBRANCH  80  84
ENDBRANCH  53  77
BRANCH  65  88
ATOM     88  C   UNL A   1      46.157  33.165  29.022  1.00  0.00     0.023 A 
ATOM     89  C   UNL A   1      46.519  33.522  30.332  1.00  0.00     0.031 A 
ATOM     90  C   UNL A   1      46.029  34.194  28.068  1.00  0.00     0.131 A 
ATOM     91  C   UNL A   1      46.727  34.875  30.655  1.00  0.00     0.055 A 
ATOM     92  C   UNL A   1      46.280  35.530  28.383  1.00  0.00     0.041 A 
ATOM     93  F   UNL A   1      45.686  33.910  26.801  1.00  0.00    -0.206 F 
ATOM     94  C   UNL A   1      46.628  35.877  29.684  1.00  0.00     0.022 A 
BRANCH  91  95
ATOM     95  S   UNL A   1      47.104  35.326  32.373  1.00  0.00     0.124 S 
ATOM     96  O   UNL A   1      46.177  36.428  32.608  1.00  0.00    -0.237 OA
ATOM     97  O   UNL A   1      46.819  34.088  33.091  1.00  0.00    -0.237 OA
ATOM     98  O   UNL A   1      48.516  35.703  32.328  1.00  0.00    -0.744 OA
ENDBRANCH  91  95
ENDBRANCH  65  88
ENDBRANCH  39  40
ENDBRANCH  32  34
ENDBRANCH  31  32
ENDBRANCH  30  31
ENDBRANCH  29  30
ENDBRANCH  28  29
ENDBRANCH   1  28
TORSDOF 21
ENDMDL
