MODEL 1
REMARK VINA RESULT:     -11.6      0.000      0.000
REMARK SMILES COc1ccc2c(c1)c(CC(=O)OCCOCCOC(=O)c1ccc(-c3c4nc(c(-c5cc(S(=O)(=O)[O-])ccc5F)c5ccc([nH]5)c(-c5cc(S(=O)(=O)[O-])ccc5F)c5nc(c(-c6cc(S(=O)(=O)[O-])ccc6F)c6ccc3[nH]6)C=C5)C=C4)cc1)c(C)n2Cc1ccc(Br)cc1
REMARK SMILES IDX 16 1 15 2 14 3 13 4 11 5 12 6 10 7 9 8 3 9 4 10 8 11 5 12
REMARK SMILES IDX 7 13 6 14 87 15 85 16 86 17 2 18 1 19 88 20 89 21 90 22
REMARK SMILES IDX 95 23 91 24 94 25 92 26 93 27 17 28 18 29 19 30 20 31 21 32
REMARK SMILES IDX 22 33 23 34 84 35 24 36 83 37 25 38 26 39 27 40 77 41 28 42
REMARK SMILES IDX 82 43 76 44 78 45 29 46 81 47 75 48 74 49 30 51 62 52 42 53
REMARK SMILES IDX 61 54 43 55 46 56 60 57 79 58 44 59 45 60 59 62 80 63 47 64
REMARK SMILES IDX 31 65 32 66 40 67 33 68 39 69 41 70 38 71 34 72 35 73 36 74
REMARK SMILES IDX 37 75 63 76 64 77 72 78 65 79 71 80 73 81 70 82 66 83 67 84
REMARK SMILES IDX 68 85 69 86 48 87 49 88 57 89 50 90 56 91 58 92 55 93 51 94
REMARK SMILES IDX 52 95 53 96 54 97
REMARK H PARENT 78 50 46 61
REMARK Flexibility Score: inf
ROOT
ATOM      1  O   UNL A   1      36.177  20.675  24.742  1.00  0.00    -0.374 OA
ENDROOT
BRANCH   1   2
ATOM      2  C   UNL A   1      34.780  20.798  24.977  1.00  0.00     0.202 C 
BRANCH   2   3
ATOM      3  C   UNL A   1      33.989  21.989  24.403  1.00  0.00     0.261 C 
BRANCH   3   4
ATOM      4  O   UNL A   1      33.953  23.164  25.232  1.00  0.00    -0.463 OA
BRANCH   4   5
ATOM      5  C   UNL A   1      34.810  24.148  24.856  1.00  0.00     0.310 C 
ATOM      6  O   UNL A   1      35.970  24.242  25.257  1.00  0.00    -0.252 OA
BRANCH   5   7
ATOM      7  C   UNL A   1      34.276  25.156  23.859  1.00  0.00     0.160 C 
BRANCH   7   8
ATOM      8  C   UNL A   1      33.068  25.985  24.202  1.00  0.00    -0.008 A 
ATOM      9  C   UNL A   1      33.556  28.500  27.046  1.00  0.00     0.119 A 
ATOM     10  C   UNL A   1      32.301  29.088  26.948  1.00  0.00     0.048 A 
ATOM     11  C   UNL A   1      33.871  27.421  26.218  1.00  0.00     0.057 A 
ATOM     12  C   UNL A   1      31.347  28.605  26.028  1.00  0.00     0.031 A 
ATOM     13  C   UNL A   1      32.968  26.967  25.232  1.00  0.00     0.007 A 
ATOM     14  C   UNL A   1      31.693  27.535  25.174  1.00  0.00     0.049 A 
ATOM     15  N   UNL A   1      30.979  26.829  24.206  1.00  0.00    -0.340 N 
ATOM     16  C   UNL A   1      31.771  25.780  23.752  1.00  0.00     0.020 A 
ATOM     17  C   UNL A   1      31.292  24.616  22.956  1.00  0.00     0.065 C 
BRANCH   9  18
ATOM     18  O   UNL A   1      34.617  28.938  27.789  1.00  0.00    -0.497 OA
ATOM     19  C   UNL A   1      35.573  29.789  27.179  1.00  0.00     0.278 C 
ENDBRANCH   9  18
BRANCH  15  20
ATOM     20  C   UNL A   1      29.541  27.009  23.936  1.00  0.00     0.157 C 
BRANCH  20  21
ATOM     21  C   UNL A   1      29.170  28.235  23.120  1.00  0.00    -0.028 A 
ATOM     22  C   UNL A   1      27.861  28.740  23.093  1.00  0.00     0.007 A 
ATOM     23  C   UNL A   1      30.152  28.962  22.428  1.00  0.00     0.007 A 
ATOM     24  C   UNL A   1      27.515  29.867  22.345  1.00  0.00     0.016 A 
ATOM     25  C   UNL A   1      29.819  30.117  21.703  1.00  0.00     0.016 A 
ATOM     26  C   UNL A   1      28.498  30.551  21.648  1.00  0.00     0.017 A 
ATOM     27  Br  UNL A   1      28.034  32.081  20.644  1.00  0.00    -0.051 Br
ENDBRANCH  20  21
ENDBRANCH  15  20
ENDBRANCH   7   8
ENDBRANCH   5   7
ENDBRANCH   4   5
ENDBRANCH   3   4
ENDBRANCH   2   3
ENDBRANCH   1   2
BRANCH   1  28
ATOM     28  C   UNL A   1      37.060  21.133  25.762  1.00  0.00     0.202 C 
BRANCH  28  29
ATOM     29  C   UNL A   1      38.424  21.743  25.390  1.00  0.00     0.261 C 
BRANCH  29  30
ATOM     30  O   UNL A   1      38.775  22.859  26.203  1.00  0.00    -0.460 OA
BRANCH  30  31
ATOM     31  C   UNL A   1      40.067  22.862  26.622  1.00  0.00     0.338 C 
ATOM     32  O   UNL A   1      41.034  22.350  26.081  1.00  0.00    -0.246 OA
BRANCH  31  33
ATOM     33  C   UNL A   1      40.108  23.947  27.609  1.00  0.00     0.060 A 
ATOM     34  C   UNL A   1      39.054  24.863  27.674  1.00  0.00     0.016 A 
ATOM     35  C   UNL A   1      41.368  24.228  28.161  1.00  0.00     0.016 A 
ATOM     36  C   UNL A   1      39.299  26.110  28.227  1.00  0.00     0.010 A 
ATOM     37  C   UNL A   1      41.617  25.491  28.675  1.00  0.00     0.010 A 
ATOM     38  C   UNL A   1      40.591  26.439  28.679  1.00  0.00    -0.014 A 
BRANCH  38  39
ATOM     39  C   UNL A   1      40.740  27.688  29.422  1.00  0.00     0.031 A 
ATOM     40  C   UNL A   1      41.659  28.621  28.709  1.00  0.00     0.074 A 
ATOM     41  C   UNL A   1      40.051  28.067  30.516  1.00  0.00     0.049 A 
ATOM     42  N   UNL A   1      42.821  29.035  29.090  1.00  0.00    -0.248 NA
ATOM     43  C   UNL A   1      41.329  28.955  27.312  1.00  0.00     0.031 C 
ATOM     44  C   UNL A   1      38.889  27.423  31.129  1.00  0.00     0.029 A 
ATOM     45  N   UNL A   1      40.184  29.207  31.257  1.00  0.00    -0.354 N 
ATOM     46  C   UNL A   1      43.291  29.840  28.053  1.00  0.00     0.074 A 
ATOM     47  C   UNL A   1      42.436  29.582  26.925  1.00  0.00     0.031 C 
ATOM     48  C   UNL A   1      38.281  28.303  31.961  1.00  0.00     0.029 A 
ATOM     49  C   UNL A   1      39.076  29.520  32.036  1.00  0.00     0.049 A 
ATOM     50  H   UNL A   1      40.999  29.760  31.241  1.00  0.00     0.167 HD
ATOM     51  C   UNL A   1      44.212  30.820  28.263  1.00  0.00     0.034 A 
ATOM     52  C   UNL A   1      38.787  30.728  32.595  1.00  0.00     0.034 A 
ATOM     53  C   UNL A   1      44.857  30.656  29.536  1.00  0.00     0.049 A 
ATOM     54  C   UNL A   1      40.026  31.546  32.604  1.00  0.00     0.074 A 
ATOM     55  C   UNL A   1      45.641  29.670  30.101  1.00  0.00     0.029 A 
ATOM     56  N   UNL A   1      44.410  31.431  30.579  1.00  0.00    -0.354 N 
ATOM     57  N   UNL A   1      41.051  31.312  33.371  1.00  0.00    -0.248 NA
ATOM     58  C   UNL A   1      40.294  32.354  31.422  1.00  0.00     0.031 C 
ATOM     59  C   UNL A   1      45.230  29.612  31.461  1.00  0.00     0.029 A 
ATOM     60  C   UNL A   1      44.282  30.615  31.671  1.00  0.00     0.049 A 
ATOM     61  H   UNL A   1      44.218  32.396  30.548  1.00  0.00     0.167 HD
ATOM     62  C   UNL A   1      42.143  31.509  32.540  1.00  0.00     0.074 A 
ATOM     63  C   UNL A   1      41.622  32.232  31.381  1.00  0.00     0.031 C 
ATOM     64  C   UNL A   1      43.302  30.813  32.716  1.00  0.00     0.034 A 
BRANCH  51  65
ATOM     65  C   UNL A   1      44.261  32.110  27.478  1.00  0.00     0.023 A 
ATOM     66  C   UNL A   1      43.596  33.284  27.878  1.00  0.00     0.031 A 
ATOM     67  C   UNL A   1      45.175  32.258  26.415  1.00  0.00     0.131 A 
ATOM     68  C   UNL A   1      43.830  34.515  27.255  1.00  0.00     0.055 A 
ATOM     69  C   UNL A   1      45.463  33.500  25.837  1.00  0.00     0.041 A 
ATOM     70  F   UNL A   1      45.866  31.208  25.946  1.00  0.00    -0.206 F 
ATOM     71  C   UNL A   1      44.790  34.640  26.259  1.00  0.00     0.022 A 
BRANCH  68  72
ATOM     72  S   UNL A   1      42.890  35.985  27.752  1.00  0.00     0.124 S 
ATOM     73  O   UNL A   1      43.843  36.675  28.615  1.00  0.00    -0.237 OA
ATOM     74  O   UNL A   1      42.629  36.617  26.462  1.00  0.00    -0.237 OA
ATOM     75  O   UNL A   1      41.714  35.431  28.419  1.00  0.00    -0.744 OA
ENDBRANCH  68  72
ENDBRANCH  51  65
BRANCH  52  76
ATOM     76  C   UNL A   1      37.459  31.399  32.620  1.00  0.00     0.023 A 
ATOM     77  C   UNL A   1      36.855  31.773  31.407  1.00  0.00     0.031 A 
ATOM     78  C   UNL A   1      36.963  31.996  33.795  1.00  0.00     0.131 A 
ATOM     79  C   UNL A   1      35.862  32.761  31.379  1.00  0.00     0.055 A 
ATOM     80  C   UNL A   1      35.950  32.963  33.768  1.00  0.00     0.041 A 
ATOM     81  F   UNL A   1      37.515  31.715  34.987  1.00  0.00    -0.206 F 
ATOM     82  C   UNL A   1      35.408  33.366  32.551  1.00  0.00     0.022 A 
BRANCH  79  83
ATOM     83  S   UNL A   1      35.235  33.360  29.787  1.00  0.00     0.124 S 
ATOM     84  O   UNL A   1      34.496  32.205  29.287  1.00  0.00    -0.237 OA
ATOM     85  O   UNL A   1      34.424  34.499  30.201  1.00  0.00    -0.237 OA
ATOM     86  O   UNL A   1      36.450  33.683  29.043  1.00  0.00    -0.744 OA
ENDBRANCH  79  83
ENDBRANCH  52  76
BRANCH  64  87
ATOM     87  C   UNL A   1      43.499  29.995  33.971  1.00  0.00     0.023 A 
ATOM     88  C   UNL A   1      42.840  28.756  34.014  1.00  0.00     0.031 A 
ATOM     89  C   UNL A   1      44.074  30.468  35.166  1.00  0.00     0.131 A 
ATOM     90  C   UNL A   1      42.711  28.060  35.218  1.00  0.00     0.055 A 
ATOM     91  C   UNL A   1      44.014  29.728  36.354  1.00  0.00     0.041 A 
ATOM     92  F   UNL A   1      44.624  31.688  35.252  1.00  0.00    -0.206 F 
ATOM     93  C   UNL A   1      43.310  28.529  36.388  1.00  0.00     0.022 A 
BRANCH  90  94
ATOM     94  S   UNL A   1      41.598  26.635  35.319  1.00  0.00     0.124 S 
ATOM     95  O   UNL A   1      40.630  26.925  34.267  1.00  0.00    -0.237 OA
ATOM     96  O   UNL A   1      42.500  25.515  35.052  1.00  0.00    -0.237 OA
ATOM     97  O   UNL A   1      41.077  26.689  36.682  1.00  0.00    -0.744 OA
ENDBRANCH  90  94
ENDBRANCH  64  87
ENDBRANCH  38  39
ENDBRANCH  31  33
ENDBRANCH  30  31
ENDBRANCH  29  30
ENDBRANCH  28  29
ENDBRANCH   1  28
TORSDOF 21
ENDMDL
MODEL 2
REMARK VINA RESULT:     -11.2      2.017      2.468
REMARK SMILES COc1ccc2c(c1)c(CC(=O)OCCOCCOC(=O)c1ccc(-c3c4nc(c(-c5cc(S(=O)(=O)[O-])ccc5F)c5ccc([nH]5)c(-c5cc(S(=O)(=O)[O-])ccc5F)c5nc(c(-c6cc(S(=O)(=O)[O-])ccc6F)c6ccc3[nH]6)C=C5)C=C4)cc1)c(C)n2Cc1ccc(Br)cc1
REMARK SMILES IDX 16 1 15 2 14 3 13 4 11 5 12 6 10 7 9 8 3 9 4 10 8 11 5 12
REMARK SMILES IDX 7 13 6 14 87 15 85 16 86 17 2 18 1 19 88 20 89 21 90 22
REMARK SMILES IDX 95 23 91 24 94 25 92 26 93 27 17 28 18 29 19 30 20 31 21 32
REMARK SMILES IDX 22 33 23 34 84 35 24 36 83 37 25 38 26 39 27 40 77 41 28 42
REMARK SMILES IDX 82 43 76 44 78 45 29 46 81 47 75 48 74 49 30 51 62 52 42 53
REMARK SMILES IDX 61 54 43 55 46 56 60 57 79 58 44 59 45 60 59 62 80 63 47 64
REMARK SMILES IDX 31 65 32 66 40 67 33 68 39 69 41 70 38 71 34 72 35 73 36 74
REMARK SMILES IDX 37 75 63 76 64 77 72 78 65 79 71 80 73 81 70 82 66 83 67 84
REMARK SMILES IDX 68 85 69 86 48 87 49 88 57 89 50 90 56 91 58 92 55 93 51 94
REMARK SMILES IDX 52 95 53 96 54 97
REMARK H PARENT 78 50 46 61
REMARK Flexibility Score: inf
ROOT
ATOM      1  O   UNL A   1      35.795  20.381  24.997  1.00  0.00    -0.374 OA
ENDROOT
BRANCH   1   2
ATOM      2  C   UNL A   1      34.536  20.900  25.409  1.00  0.00     0.202 C 
BRANCH   2   3
ATOM      3  C   UNL A   1      34.458  22.157  26.295  1.00  0.00     0.261 C 
BRANCH   3   4
ATOM      4  O   UNL A   1      33.883  23.319  25.669  1.00  0.00    -0.463 OA
BRANCH   4   5
ATOM      5  C   UNL A   1      34.774  24.297  25.366  1.00  0.00     0.310 C 
ATOM      6  O   UNL A   1      35.858  24.441  25.932  1.00  0.00    -0.252 OA
BRANCH   5   7
ATOM      7  C   UNL A   1      34.387  25.230  24.237  1.00  0.00     0.160 C 
BRANCH   7   8
ATOM      8  C   UNL A   1      33.185  26.125  24.382  1.00  0.00    -0.008 A 
ATOM      9  C   UNL A   1      33.706  29.236  26.550  1.00  0.00     0.119 A 
ATOM     10  C   UNL A   1      32.453  29.793  26.322  1.00  0.00     0.048 A 
ATOM     11  C   UNL A   1      34.009  27.990  25.998  1.00  0.00     0.057 A 
ATOM     12  C   UNL A   1      31.490  29.114  25.546  1.00  0.00     0.031 A 
ATOM     13  C   UNL A   1      33.098  27.323  25.151  1.00  0.00     0.007 A 
ATOM     14  C   UNL A   1      31.825  27.870  24.968  1.00  0.00     0.049 A 
ATOM     15  N   UNL A   1      31.101  26.961  24.196  1.00  0.00    -0.340 N 
ATOM     16  C   UNL A   1      31.885  25.828  23.998  1.00  0.00     0.020 A 
ATOM     17  C   UNL A   1      31.394  24.513  23.501  1.00  0.00     0.065 C 
BRANCH   9  18
ATOM     18  O   UNL A   1      34.773  29.830  27.163  1.00  0.00    -0.497 OA
ATOM     19  C   UNL A   1      35.804  29.009  27.686  1.00  0.00     0.278 C 
ENDBRANCH   9  18
BRANCH  15  20
ATOM     20  C   UNL A   1      29.662  27.082  23.899  1.00  0.00     0.157 C 
BRANCH  20  21
ATOM     21  C   UNL A   1      29.253  28.312  23.107  1.00  0.00    -0.028 A 
ATOM     22  C   UNL A   1      30.161  29.001  22.287  1.00  0.00     0.007 A 
ATOM     23  C   UNL A   1      27.921  28.753  23.100  1.00  0.00     0.007 A 
ATOM     24  C   UNL A   1      29.790  30.131  21.555  1.00  0.00     0.016 A 
ATOM     25  C   UNL A   1      27.532  29.866  22.340  1.00  0.00     0.016 A 
ATOM     26  C   UNL A   1      28.474  30.563  21.588  1.00  0.00     0.017 A 
ATOM     27  Br  UNL A   1      27.968  32.085  20.592  1.00  0.00    -0.051 Br
ENDBRANCH  20  21
ENDBRANCH  15  20
ENDBRANCH   7   8
ENDBRANCH   5   7
ENDBRANCH   4   5
ENDBRANCH   3   4
ENDBRANCH   2   3
ENDBRANCH   1   2
BRANCH   1  28
ATOM     28  C   UNL A   1      36.844  21.313  24.749  1.00  0.00     0.202 C 
BRANCH  28  29
ATOM     29  C   UNL A   1      38.237  21.095  25.367  1.00  0.00     0.261 C 
BRANCH  29  30
ATOM     30  O   UNL A   1      38.772  22.273  25.964  1.00  0.00    -0.460 OA
BRANCH  30  31
ATOM     31  C   UNL A   1      39.936  22.081  26.637  1.00  0.00     0.338 C 
ATOM     32  O   UNL A   1      40.639  21.083  26.654  1.00  0.00    -0.246 OA
BRANCH  31  33
ATOM     33  C   UNL A   1      40.365  23.441  26.983  1.00  0.00     0.060 A 
ATOM     34  C   UNL A   1      41.501  23.626  27.776  1.00  0.00     0.016 A 
ATOM     35  C   UNL A   1      39.400  24.448  26.824  1.00  0.00     0.016 A 
ATOM     36  C   UNL A   1      41.623  24.811  28.484  1.00  0.00     0.010 A 
ATOM     37  C   UNL A   1      39.508  25.614  27.567  1.00  0.00     0.010 A 
ATOM     38  C   UNL A   1      40.603  25.780  28.418  1.00  0.00    -0.014 A 
BRANCH  38  39
ATOM     39  C   UNL A   1      40.876  27.079  29.028  1.00  0.00     0.031 A 
ATOM     40  C   UNL A   1      42.160  27.641  28.522  1.00  0.00     0.074 A 
ATOM     41  C   UNL A   1      40.049  27.792  29.818  1.00  0.00     0.049 A 
ATOM     42  N   UNL A   1      43.249  27.852  29.184  1.00  0.00    -0.248 NA
ATOM     43  C   UNL A   1      42.307  27.780  27.062  1.00  0.00     0.031 C 
ATOM     44  C   UNL A   1      38.641  27.542  30.125  1.00  0.00     0.029 A 
ATOM     45  N   UNL A   1      40.279  28.989  30.434  1.00  0.00    -0.354 N 
ATOM     46  C   UNL A   1      44.168  28.331  28.252  1.00  0.00     0.074 A 
ATOM     47  C   UNL A   1      43.601  28.068  26.956  1.00  0.00     0.031 C 
ATOM     48  C   UNL A   1      38.090  28.670  30.635  1.00  0.00     0.029 A 
ATOM     49  C   UNL A   1      39.129  29.675  30.807  1.00  0.00     0.049 A 
ATOM     50  H   UNL A   1      41.186  29.337  30.600  1.00  0.00     0.167 HD
ATOM     51  C   UNL A   1      45.226  29.107  28.617  1.00  0.00     0.034 A 
ATOM     52  C   UNL A   1      39.032  30.997  31.117  1.00  0.00     0.034 A 
ATOM     53  C   UNL A   1      45.450  29.038  30.034  1.00  0.00     0.049 A 
ATOM     54  C   UNL A   1      40.395  31.511  31.405  1.00  0.00     0.074 A 
ATOM     55  C   UNL A   1      45.771  28.022  30.912  1.00  0.00     0.029 A 
ATOM     56  N   UNL A   1      44.966  30.068  30.803  1.00  0.00    -0.354 N 
ATOM     57  N   UNL A   1      41.086  31.200  32.463  1.00  0.00    -0.248 NA
ATOM     58  C   UNL A   1      41.164  32.012  30.274  1.00  0.00     0.031 C 
ATOM     59  C   UNL A   1      45.019  28.303  32.086  1.00  0.00     0.029 A 
ATOM     60  C   UNL A   1      44.347  29.512  31.892  1.00  0.00     0.049 A 
ATOM     61  H   UNL A   1      45.049  31.030  30.609  1.00  0.00     0.167 HD
ATOM     62  C   UNL A   1      42.368  30.997  31.979  1.00  0.00     0.074 A 
ATOM     63  C   UNL A   1      42.377  31.595  30.645  1.00  0.00     0.031 C 
ATOM     64  C   UNL A   1      43.216  30.107  32.568  1.00  0.00     0.034 A 
BRANCH  51  65
ATOM     65  C   UNL A   1      45.815  30.189  27.744  1.00  0.00     0.023 A 
ATOM     66  C   UNL A   1      45.054  31.236  27.191  1.00  0.00     0.031 A 
ATOM     67  C   UNL A   1      47.214  30.326  27.632  1.00  0.00     0.131 A 
ATOM     68  C   UNL A   1      45.653  32.338  26.570  1.00  0.00     0.055 A 
ATOM     69  C   UNL A   1      47.817  31.460  27.075  1.00  0.00     0.041 A 
ATOM     70  F   UNL A   1      48.042  29.390  28.120  1.00  0.00    -0.206 F 
ATOM     71  C   UNL A   1      47.035  32.477  26.542  1.00  0.00     0.022 A 
BRANCH  68  72
ATOM     72  S   UNL A   1      44.629  33.623  25.801  1.00  0.00     0.124 S 
ATOM     73  O   UNL A   1      43.732  33.986  26.892  1.00  0.00    -0.237 OA
ATOM     74  O   UNL A   1      45.631  34.623  25.445  1.00  0.00    -0.237 OA
ATOM     75  O   UNL A   1      44.010  32.937  24.670  1.00  0.00    -0.744 OA
ENDBRANCH  68  72
ENDBRANCH  51  65
BRANCH  52  76
ATOM     76  C   UNL A   1      37.968  31.937  30.671  1.00  0.00     0.023 A 
ATOM     77  C   UNL A   1      37.169  32.577  31.633  1.00  0.00     0.031 A 
ATOM     78  C   UNL A   1      37.493  31.928  29.345  1.00  0.00     0.131 A 
ATOM     79  C   UNL A   1      35.917  33.104  31.287  1.00  0.00     0.055 A 
ATOM     80  C   UNL A   1      36.254  32.481  28.994  1.00  0.00     0.041 A 
ATOM     81  F   UNL A   1      38.184  31.304  28.378  1.00  0.00    -0.206 F 
ATOM     82  C   UNL A   1      35.448  33.055  29.973  1.00  0.00     0.022 A 
BRANCH  79  83
ATOM     83  S   UNL A   1      34.825  33.752  32.580  1.00  0.00     0.124 S 
ATOM     84  O   UNL A   1      34.455  35.061  32.049  1.00  0.00    -0.237 OA
ATOM     85  O   UNL A   1      33.763  32.754  32.596  1.00  0.00    -0.237 OA
ATOM     86  O   UNL A   1      35.682  33.788  33.762  1.00  0.00    -0.744 OA
ENDBRANCH  79  83
ENDBRANCH  52  76
BRANCH  64  87
ATOM     87  C   UNL A   1      42.856  29.507  33.908  1.00  0.00     0.023 A 
ATOM     88  C   UNL A   1      43.581  29.982  35.014  1.00  0.00     0.031 A 
ATOM     89  C   UNL A   1      42.049  28.370  34.098  1.00  0.00     0.131 A 
ATOM     90  C   UNL A   1      43.543  29.303  36.233  1.00  0.00     0.055 A 
ATOM     91  C   UNL A   1      41.949  27.740  35.344  1.00  0.00     0.041 A 
ATOM     92  F   UNL A   1      41.411  27.778  33.079  1.00  0.00    -0.206 F 
ATOM     93  C   UNL A   1      42.715  28.192  36.413  1.00  0.00     0.022 A 
BRANCH  90  94
ATOM     94  S   UNL A   1      44.714  29.739  37.543  1.00  0.00     0.124 S 
ATOM     95  O   UNL A   1      45.964  29.880  36.803  1.00  0.00    -0.237 OA
ATOM     96  O   UNL A   1      44.150  30.982  38.066  1.00  0.00    -0.237 OA
ATOM     97  O   UNL A   1      44.655  28.605  38.462  1.00  0.00    -0.744 OA
ENDBRANCH  90  94
ENDBRANCH  64  87
ENDBRANCH  38  39
ENDBRANCH  31  33
ENDBRANCH  30  31
ENDBRANCH  29  30
ENDBRANCH  28  29
ENDBRANCH   1  28
TORSDOF 21
ENDMDL
MODEL 3
REMARK VINA RESULT:     -11.2      3.391      9.308
REMARK SMILES COc1ccc2c(c1)c(CC(=O)OCCOCCOC(=O)c1ccc(-c3c4nc(c(-c5cc(S(=O)(=O)[O-])ccc5F)c5ccc([nH]5)c(-c5cc(S(=O)(=O)[O-])ccc5F)c5nc(c(-c6cc(S(=O)(=O)[O-])ccc6F)c6ccc3[nH]6)C=C5)C=C4)cc1)c(C)n2Cc1ccc(Br)cc1
REMARK SMILES IDX 16 1 15 2 14 3 13 4 11 5 12 6 10 7 9 8 3 9 4 10 8 11 5 12
REMARK SMILES IDX 7 13 6 14 87 15 85 16 86 17 2 18 1 19 88 20 89 21 90 22
REMARK SMILES IDX 95 23 91 24 94 25 92 26 93 27 17 28 18 29 19 30 20 31 21 32
REMARK SMILES IDX 22 33 23 34 84 35 24 36 83 37 25 38 26 39 27 40 77 41 28 42
REMARK SMILES IDX 82 43 76 44 78 45 29 46 81 47 75 48 74 49 30 51 62 52 42 53
REMARK SMILES IDX 61 54 43 55 46 56 60 57 79 58 44 59 45 60 59 62 80 63 47 64
REMARK SMILES IDX 31 65 32 66 40 67 33 68 39 69 41 70 38 71 34 72 35 73 36 74
REMARK SMILES IDX 37 75 63 76 64 77 72 78 65 79 71 80 73 81 70 82 66 83 67 84
REMARK SMILES IDX 68 85 69 86 48 87 49 88 57 89 50 90 56 91 58 92 55 93 51 94
REMARK SMILES IDX 52 95 53 96 54 97
REMARK H PARENT 78 50 46 61
REMARK Flexibility Score: inf
ROOT
ATOM      1  O   UNL A   1      31.874  30.404  25.654  1.00  0.00    -0.374 OA
ENDROOT
BRANCH   1   2
ATOM      2  C   UNL A   1      31.146  29.350  25.035  1.00  0.00     0.202 C 
BRANCH   2   3
ATOM      3  C   UNL A   1      31.818  27.994  24.749  1.00  0.00     0.261 C 
BRANCH   3   4
ATOM      4  O   UNL A   1      31.025  26.834  25.056  1.00  0.00    -0.463 OA
BRANCH   4   5
ATOM      5  C   UNL A   1      31.613  25.958  25.911  1.00  0.00     0.310 C 
ATOM      6  O   UNL A   1      31.044  25.452  26.879  1.00  0.00    -0.252 OA
BRANCH   5   7
ATOM      7  C   UNL A   1      33.049  25.585  25.605  1.00  0.00     0.160 C 
BRANCH   7   8
ATOM      8  C   UNL A   1      33.371  24.216  25.068  1.00  0.00    -0.008 A 
ATOM      9  C   UNL A   1      36.893  22.935  25.844  1.00  0.00     0.119 A 
ATOM     10  C   UNL A   1      36.721  21.671  25.294  1.00  0.00     0.048 A 
ATOM     11  C   UNL A   1      35.856  23.865  25.755  1.00  0.00     0.057 A 
ATOM     12  C   UNL A   1      35.517  21.321  24.648  1.00  0.00     0.031 A 
ATOM     13  C   UNL A   1      34.611  23.520  25.187  1.00  0.00     0.007 A 
ATOM     14  C   UNL A   1      34.465  22.262  24.596  1.00  0.00     0.049 A 
ATOM     15  N   UNL A   1      33.197  22.231  24.016  1.00  0.00    -0.340 N 
ATOM     16  C   UNL A   1      32.616  23.487  24.160  1.00  0.00     0.020 A 
ATOM     17  C   UNL A   1      31.414  23.973  23.428  1.00  0.00     0.065 C 
BRANCH   9  18
ATOM     18  O   UNL A   1      37.942  23.367  26.607  1.00  0.00    -0.497 OA
ATOM     19  C   UNL A   1      38.739  24.437  26.129  1.00  0.00     0.278 C 
ENDBRANCH   9  18
BRANCH  15  20
ATOM     20  C   UNL A   1      32.700  21.139  23.159  1.00  0.00     0.157 C 
BRANCH  20  21
ATOM     21  C   UNL A   1      32.708  19.755  23.784  1.00  0.00    -0.028 A 
ATOM     22  C   UNL A   1      32.529  19.562  25.163  1.00  0.00     0.007 A 
ATOM     23  C   UNL A   1      32.808  18.605  22.984  1.00  0.00     0.007 A 
ATOM     24  C   UNL A   1      32.534  18.292  25.742  1.00  0.00     0.016 A 
ATOM     25  C   UNL A   1      32.778  17.324  23.554  1.00  0.00     0.016 A 
ATOM     26  C   UNL A   1      32.663  17.174  24.934  1.00  0.00     0.017 A 
ATOM     27  Br  UNL A   1      32.660  15.455  25.714  1.00  0.00    -0.051 Br
ENDBRANCH  20  21
ENDBRANCH  15  20
ENDBRANCH   7   8
ENDBRANCH   5   7
ENDBRANCH   4   5
ENDBRANCH   3   4
ENDBRANCH   2   3
ENDBRANCH   1   2
BRANCH   1  28
ATOM     28  C   UNL A   1      32.617  30.091  26.828  1.00  0.00     0.202 C 
BRANCH  28  29
ATOM     29  C   UNL A   1      33.337  31.205  27.610  1.00  0.00     0.261 C 
BRANCH  29  30
ATOM     30  O   UNL A   1      34.745  31.006  27.693  1.00  0.00    -0.460 OA
BRANCH  30  31
ATOM     31  C   UNL A   1      35.372  31.804  28.595  1.00  0.00     0.338 C 
ATOM     32  O   UNL A   1      34.918  32.773  29.185  1.00  0.00    -0.246 OA
BRANCH  31  33
ATOM     33  C   UNL A   1      36.535  31.012  29.010  1.00  0.00     0.060 A 
ATOM     34  C   UNL A   1      37.647  31.655  29.564  1.00  0.00     0.016 A 
ATOM     35  C   UNL A   1      36.619  29.717  28.476  1.00  0.00     0.016 A 
ATOM     36  C   UNL A   1      38.875  31.016  29.501  1.00  0.00     0.010 A 
ATOM     37  C   UNL A   1      37.857  29.101  28.380  1.00  0.00     0.010 A 
ATOM     38  C   UNL A   1      38.987  29.765  28.865  1.00  0.00    -0.014 A 
BRANCH  38  39
ATOM     39  C   UNL A   1      40.259  29.059  28.999  1.00  0.00     0.031 A 
ATOM     40  C   UNL A   1      40.517  28.701  30.424  1.00  0.00     0.074 A 
ATOM     41  C   UNL A   1      41.052  28.622  28.001  1.00  0.00     0.049 A 
ATOM     42  N   UNL A   1      41.450  29.149  31.197  1.00  0.00    -0.248 NA
ATOM     43  C   UNL A   1      39.481  27.918  31.120  1.00  0.00     0.031 C 
ATOM     44  C   UNL A   1      40.775  28.590  26.565  1.00  0.00     0.029 A 
ATOM     45  N   UNL A   1      42.260  27.992  28.086  1.00  0.00    -0.354 N 
ATOM     46  C   UNL A   1      41.227  28.552  32.437  1.00  0.00     0.074 A 
ATOM     47  C   UNL A   1      39.906  27.985  32.379  1.00  0.00     0.031 C 
ATOM     48  C   UNL A   1      41.651  27.749  25.963  1.00  0.00     0.029 A 
ATOM     49  C   UNL A   1      42.623  27.287  26.944  1.00  0.00     0.049 A 
ATOM     50  H   UNL A   1      42.829  28.034  28.889  1.00  0.00     0.167 HD
ATOM     51  C   UNL A   1      42.228  28.378  33.343  1.00  0.00     0.034 A 
ATOM     52  C   UNL A   1      43.571  26.313  26.852  1.00  0.00     0.034 A 
ATOM     53  C   UNL A   1      43.369  29.185  33.010  1.00  0.00     0.049 A 
ATOM     54  C   UNL A   1      44.449  26.404  28.046  1.00  0.00     0.074 A 
ATOM     55  C   UNL A   1      43.588  30.543  32.887  1.00  0.00     0.029 A 
ATOM     56  N   UNL A   1      44.414  28.570  32.363  1.00  0.00    -0.354 N 
ATOM     57  N   UNL A   1      45.299  27.366  28.257  1.00  0.00    -0.248 NA
ATOM     58  C   UNL A   1      44.042  25.652  29.224  1.00  0.00     0.031 C 
ATOM     59  C   UNL A   1      44.466  30.672  31.776  1.00  0.00     0.029 A 
ATOM     60  C   UNL A   1      44.798  29.390  31.334  1.00  0.00     0.049 A 
ATOM     61  H   UNL A   1      44.814  27.701  32.596  1.00  0.00     0.167 HD
ATOM     62  C   UNL A   1      45.152  27.653  29.605  1.00  0.00     0.074 A 
ATOM     63  C   UNL A   1      44.432  26.512  30.168  1.00  0.00     0.031 C 
ATOM     64  C   UNL A   1      45.354  28.911  30.088  1.00  0.00     0.034 A 
BRANCH  51  65
ATOM     65  C   UNL A   1      42.296  27.220  34.309  1.00  0.00     0.023 A 
ATOM     66  C   UNL A   1      43.021  26.040  34.052  1.00  0.00     0.031 A 
ATOM     67  C   UNL A   1      41.816  27.366  35.626  1.00  0.00     0.131 A 
ATOM     68  C   UNL A   1      43.245  25.079  35.044  1.00  0.00     0.055 A 
ATOM     69  C   UNL A   1      42.098  26.440  36.637  1.00  0.00     0.041 A 
ATOM     70  F   UNL A   1      41.110  28.447  35.989  1.00  0.00    -0.206 F 
ATOM     71  C   UNL A   1      42.820  25.288  36.349  1.00  0.00     0.022 A 
BRANCH  68  72
ATOM     72  S   UNL A   1      44.115  23.538  34.644  1.00  0.00     0.124 S 
ATOM     73  O   UNL A   1      43.102  22.805  33.893  1.00  0.00    -0.237 OA
ATOM     74  O   UNL A   1      45.246  24.034  33.864  1.00  0.00    -0.237 OA
ATOM     75  O   UNL A   1      44.460  22.989  35.952  1.00  0.00    -0.744 OA
ENDBRANCH  68  72
ENDBRANCH  51  65
BRANCH  52  76
ATOM     76  C   UNL A   1      43.450  25.023  26.120  1.00  0.00     0.023 A 
ATOM     77  C   UNL A   1      42.461  24.104  26.508  1.00  0.00     0.031 A 
ATOM     78  C   UNL A   1      44.499  24.537  25.316  1.00  0.00     0.131 A 
ATOM     79  C   UNL A   1      42.574  22.748  26.171  1.00  0.00     0.055 A 
ATOM     80  C   UNL A   1      44.597  23.186  24.957  1.00  0.00     0.041 A 
ATOM     81  F   UNL A   1      45.500  25.348  24.938  1.00  0.00    -0.206 F 
ATOM     82  C   UNL A   1      43.640  22.279  25.403  1.00  0.00     0.022 A 
BRANCH  79  83
ATOM     83  S   UNL A   1      41.388  21.552  26.843  1.00  0.00     0.124 S 
ATOM     84  O   UNL A   1      42.236  20.397  27.125  1.00  0.00    -0.237 OA
ATOM     85  O   UNL A   1      40.882  22.265  28.010  1.00  0.00    -0.237 OA
ATOM     86  O   UNL A   1      40.437  21.366  25.750  1.00  0.00    -0.744 OA
ENDBRANCH  79  83
ENDBRANCH  52  76
BRANCH  64  87
ATOM     87  C   UNL A   1      45.984  29.960  29.200  1.00  0.00     0.023 A 
ATOM     88  C   UNL A   1      45.097  30.750  28.449  1.00  0.00     0.031 A 
ATOM     89  C   UNL A   1      47.354  30.044  28.888  1.00  0.00     0.131 A 
ATOM     90  C   UNL A   1      45.564  31.535  27.392  1.00  0.00     0.055 A 
ATOM     91  C   UNL A   1      47.828  30.895  27.882  1.00  0.00     0.041 A 
ATOM     92  F   UNL A   1      48.261  29.248  29.470  1.00  0.00    -0.206 F 
ATOM     93  C   UNL A   1      46.929  31.628  27.114  1.00  0.00     0.022 A 
BRANCH  90  94
ATOM     94  S   UNL A   1      44.387  32.293  26.245  1.00  0.00     0.124 S 
ATOM     95  O   UNL A   1      43.385  31.243  26.095  1.00  0.00    -0.237 OA
ATOM     96  O   UNL A   1      43.950  33.478  26.983  1.00  0.00    -0.237 OA
ATOM     97  O   UNL A   1      45.183  32.573  25.054  1.00  0.00    -0.744 OA
ENDBRANCH  90  94
ENDBRANCH  64  87
ENDBRANCH  38  39
ENDBRANCH  31  33
ENDBRANCH  30  31
ENDBRANCH  29  30
ENDBRANCH  28  29
ENDBRANCH   1  28
TORSDOF 21
ENDMDL
