MODEL 1
REMARK VINA RESULT:     -11.7      0.000      0.000
REMARK SMILES Cc1cccc2c1N=CN1C2=[NH+]NC(=O)[C@@H]1CC(=O)OCCOCCOC(=O)c1ccc(-c2c3nc(c(-c4cc(S(=O)(=O)[O-])ccc4F)c4ccc([nH]4)c(-c4cc(S(=O)(=O)[O-])ccc4F)c4nc(c(-c5cc(S(=O)(=O)[O-])ccc5F)c5ccc2[nH]5)C=C4)C=C3)cc1
REMARK SMILES IDX 24 1 23 2 22 3 21 4 20 5 18 6 19 7 17 8 16 9 1 10 2 11 3 12
REMARK SMILES IDX 7 13 4 14 6 15 8 16 5 17 11 18 9 19 10 20 12 21 13 22 14 24
REMARK SMILES IDX 15 26 25 27 26 28 27 29 28 30 29 31 30 32 91 33 31 34 90 35
REMARK SMILES IDX 32 36 33 37 34 38 84 39 35 40 89 41 83 42 85 43 36 44 88 45
REMARK SMILES IDX 82 46 81 47 37 49 69 50 49 51 68 52 50 53 53 54 67 55 86 56
REMARK SMILES IDX 51 57 52 58 66 60 87 61 54 62 38 63 39 64 47 65 40 66 46 67
REMARK SMILES IDX 48 68 45 69 41 70 42 71 43 72 44 73 70 74 71 75 79 76 72 77
REMARK SMILES IDX 78 78 80 79 77 80 73 81 74 82 75 83 76 84 55 85 56 86 64 87
REMARK SMILES IDX 57 88 63 89 65 90 62 91 58 92 59 93 60 94 61 95
REMARK H PARENT 12 23 13 25 85 48 53 59
REMARK Flexibility Score: inf
ROOT
ATOM      1  C   UNL A   1      31.063  31.906  26.679  1.00  0.00     0.202 C 
ENDROOT
BRANCH   1   2
ATOM      2  O   UNL A   1      31.229  30.913  25.663  1.00  0.00    -0.374 OA
BRANCH   2   3
ATOM      3  C   UNL A   1      32.443  30.160  25.676  1.00  0.00     0.202 C 
BRANCH   3   4
ATOM      4  C   UNL A   1      32.836  29.534  27.020  1.00  0.00     0.261 C 
BRANCH   4   5
ATOM      5  O   UNL A   1      33.044  28.112  26.925  1.00  0.00    -0.463 OA
BRANCH   5   6
ATOM      6  C   UNL A   1      31.921  27.367  27.061  1.00  0.00     0.310 C 
ATOM      7  O   UNL A   1      31.004  27.608  27.837  1.00  0.00    -0.252 OA
BRANCH   6   8
ATOM      8  C   UNL A   1      31.817  26.260  26.048  1.00  0.00     0.183 C 
BRANCH   8   9
ATOM      9  C   UNL A   1      31.676  24.822  26.545  1.00  0.00     0.286 C 
ATOM     10  C   UNL A   1      36.906  21.407  24.770  1.00  0.00     0.047 C 
ATOM     11  C   UNL A   1      35.462  21.008  24.911  1.00  0.00    -0.024 A 
ATOM     12  C   UNL A   1      35.103  19.661  24.733  1.00  0.00     0.006 A 
ATOM     13  C   UNL A   1      34.484  21.949  25.277  1.00  0.00     0.085 A 
ATOM     14  C   UNL A   1      33.788  19.241  24.917  1.00  0.00     0.001 A 
ATOM     15  C   UNL A   1      33.156  21.511  25.436  1.00  0.00     0.092 A 
ATOM     16  N   UNL A   1      34.871  23.287  25.516  1.00  0.00    -0.215 NA
ATOM     17  C   UNL A   1      32.812  20.164  25.282  1.00  0.00     0.019 A 
ATOM     18  C   UNL A   1      32.128  22.534  25.800  1.00  0.00     0.309 C 
ATOM     19  C   UNL A   1      33.943  24.111  25.866  1.00  0.00     0.317 C 
ATOM     20  N   UNL A   1      32.600  23.829  25.987  1.00  0.00    -0.202 N 
ATOM     21  N   UNL A   1      30.892  22.142  25.927  1.00  0.00    -0.169 N 
ATOM     22  N   UNL A   1      29.963  23.069  26.249  1.00  0.00    -0.193 N 
ATOM     23  H   UNL A   1      30.643  21.200  25.791  1.00  0.00     0.340 HD
ATOM     24  C   UNL A   1      30.213  24.390  26.496  1.00  0.00     0.300 C 
ATOM     25  H   UNL A   1      29.028  22.769  26.312  1.00  0.00     0.216 HD
ATOM     26  O   UNL A   1      29.283  25.157  26.755  1.00  0.00    -0.267 OA
ENDBRANCH   8   9
ENDBRANCH   6   8
ENDBRANCH   5   6
ENDBRANCH   4   5
ENDBRANCH   3   4
ENDBRANCH   2   3
ENDBRANCH   1   2
BRANCH   1  27
ATOM     27  C   UNL A   1      32.093  33.044  26.707  1.00  0.00     0.261 C 
BRANCH  27  28
ATOM     28  O   UNL A   1      32.767  33.150  27.977  1.00  0.00    -0.460 OA
BRANCH  28  29
ATOM     29  C   UNL A   1      33.952  33.810  27.932  1.00  0.00     0.338 C 
ATOM     30  O   UNL A   1      34.123  34.995  27.698  1.00  0.00    -0.246 OA
BRANCH  29  31
ATOM     31  C   UNL A   1      35.072  32.904  28.238  1.00  0.00     0.060 A 
ATOM     32  C   UNL A   1      34.832  31.613  28.725  1.00  0.00     0.016 A 
ATOM     33  C   UNL A   1      36.364  33.417  28.219  1.00  0.00     0.016 A 
ATOM     34  C   UNL A   1      35.894  30.841  29.218  1.00  0.00     0.010 A 
ATOM     35  C   UNL A   1      37.418  32.638  28.701  1.00  0.00     0.010 A 
ATOM     36  C   UNL A   1      37.199  31.354  29.231  1.00  0.00    -0.014 A 
BRANCH  36  37
ATOM     37  C   UNL A   1      38.323  30.637  29.904  1.00  0.00     0.031 A 
ATOM     38  C   UNL A   1      38.670  30.987  31.332  1.00  0.00     0.074 A 
ATOM     39  C   UNL A   1      39.073  29.724  29.256  1.00  0.00     0.049 A 
ATOM     40  N   UNL A   1      39.681  30.591  32.062  1.00  0.00    -0.248 NA
ATOM     41  C   UNL A   1      37.771  31.929  32.017  1.00  0.00     0.031 C 
ATOM     42  C   UNL A   1      38.870  29.286  27.877  1.00  0.00     0.029 A 
ATOM     43  N   UNL A   1      40.179  29.017  29.672  1.00  0.00    -0.354 N 
ATOM     44  C   UNL A   1      39.559  31.262  33.275  1.00  0.00     0.074 A 
ATOM     45  C   UNL A   1      38.408  32.128  33.162  1.00  0.00     0.031 C 
ATOM     46  C   UNL A   1      39.825  28.395  27.557  1.00  0.00     0.029 A 
ATOM     47  C   UNL A   1      40.727  28.220  28.694  1.00  0.00     0.049 A 
ATOM     48  H   UNL A   1      40.543  29.076  30.584  1.00  0.00     0.167 HD
ATOM     49  C   UNL A   1      40.311  31.147  34.394  1.00  0.00     0.034 A 
ATOM     50  C   UNL A   1      41.834  27.447  28.701  1.00  0.00     0.034 A 
ATOM     51  C   UNL A   1      41.411  30.231  34.539  1.00  0.00     0.049 A 
ATOM     52  C   UNL A   1      42.658  27.322  29.957  1.00  0.00     0.074 A 
ATOM     53  C   UNL A   1      42.165  29.978  35.672  1.00  0.00     0.029 A 
ATOM     54  N   UNL A   1      41.904  29.411  33.538  1.00  0.00    -0.354 N 
ATOM     55  N   UNL A   1      42.483  27.907  31.118  1.00  0.00    -0.248 NA
ATOM     56  C   UNL A   1      43.820  26.419  29.914  1.00  0.00     0.031 C 
ATOM     57  C   UNL A   1      43.138  29.033  35.346  1.00  0.00     0.029 A 
ATOM     58  C   UNL A   1      42.961  28.660  34.023  1.00  0.00     0.049 A 
ATOM     59  H   UNL A   1      41.554  29.369  32.619  1.00  0.00     0.167 HD
ATOM     60  C   UNL A   1      43.482  27.412  31.952  1.00  0.00     0.074 A 
ATOM     61  C   UNL A   1      44.262  26.482  31.165  1.00  0.00     0.031 C 
ATOM     62  C   UNL A   1      43.717  27.701  33.256  1.00  0.00     0.034 A 
BRANCH  49  63
ATOM     63  C   UNL A   1      39.956  32.003  35.582  1.00  0.00     0.023 A 
ATOM     64  C   UNL A   1      39.000  31.555  36.511  1.00  0.00     0.031 A 
ATOM     65  C   UNL A   1      40.493  33.293  35.742  1.00  0.00     0.131 A 
ATOM     66  C   UNL A   1      38.601  32.399  37.556  1.00  0.00     0.055 A 
ATOM     67  C   UNL A   1      40.121  34.113  36.806  1.00  0.00     0.041 A 
ATOM     68  F   UNL A   1      41.407  33.762  34.877  1.00  0.00    -0.206 F 
ATOM     69  C   UNL A   1      39.165  33.670  37.715  1.00  0.00     0.022 A 
BRANCH  66  70
ATOM     70  S   UNL A   1      37.314  31.895  38.729  1.00  0.00     0.124 S 
ATOM     71  O   UNL A   1      37.084  30.504  38.345  1.00  0.00    -0.237 OA
ATOM     72  O   UNL A   1      37.982  32.087  40.013  1.00  0.00    -0.237 OA
ATOM     73  O   UNL A   1      36.209  32.806  38.450  1.00  0.00    -0.744 OA
ENDBRANCH  66  70
ENDBRANCH  49  63
BRANCH  50  74
ATOM     74  C   UNL A   1      42.186  26.679  27.474  1.00  0.00     0.023 A 
ATOM     75  C   UNL A   1      41.901  25.307  27.372  1.00  0.00     0.031 A 
ATOM     76  C   UNL A   1      42.887  27.293  26.424  1.00  0.00     0.131 A 
ATOM     77  C   UNL A   1      42.366  24.582  26.267  1.00  0.00     0.055 A 
ATOM     78  C   UNL A   1      43.299  26.579  25.298  1.00  0.00     0.041 A 
ATOM     79  F   UNL A   1      43.178  28.602  26.483  1.00  0.00    -0.206 F 
ATOM     80  C   UNL A   1      43.049  25.212  25.221  1.00  0.00     0.022 A 
BRANCH  77  81
ATOM     81  S   UNL A   1      42.151  22.783  26.182  1.00  0.00     0.124 S 
ATOM     82  O   UNL A   1      42.902  22.323  27.345  1.00  0.00    -0.237 OA
ATOM     83  O   UNL A   1      40.699  22.659  26.278  1.00  0.00    -0.237 OA
ATOM     84  O   UNL A   1      42.728  22.432  24.888  1.00  0.00    -0.744 OA
ENDBRANCH  77  81
ENDBRANCH  50  74
BRANCH  62  85
ATOM     85  C   UNL A   1      44.835  26.992  33.978  1.00  0.00     0.023 A 
ATOM     86  C   UNL A   1      44.539  25.896  34.812  1.00  0.00     0.031 A 
ATOM     87  C   UNL A   1      46.141  27.509  33.993  1.00  0.00     0.131 A 
ATOM     88  C   UNL A   1      45.524  25.382  35.664  1.00  0.00     0.055 A 
ATOM     89  C   UNL A   1      47.131  26.966  34.815  1.00  0.00     0.041 A 
ATOM     90  F   UNL A   1      46.467  28.558  33.223  1.00  0.00    -0.206 F 
ATOM     91  C   UNL A   1      46.820  25.908  35.666  1.00  0.00     0.022 A 
BRANCH  88  92
ATOM     92  S   UNL A   1      45.140  24.067  36.853  1.00  0.00     0.124 S 
ATOM     93  O   UNL A   1      44.137  24.706  37.702  1.00  0.00    -0.237 OA
ATOM     94  O   UNL A   1      44.639  23.007  35.986  1.00  0.00    -0.237 OA
ATOM     95  O   UNL A   1      46.419  23.798  37.504  1.00  0.00    -0.744 OA
ENDBRANCH  88  92
ENDBRANCH  62  85
ENDBRANCH  36  37
ENDBRANCH  29  31
ENDBRANCH  28  29
ENDBRANCH  27  28
ENDBRANCH   1  27
TORSDOF 18
ENDMDL
MODEL 2
REMARK VINA RESULT:     -11.7      2.011      3.480
REMARK SMILES Cc1cccc2c1N=CN1C2=[NH+]NC(=O)[C@@H]1CC(=O)OCCOCCOC(=O)c1ccc(-c2c3nc(c(-c4cc(S(=O)(=O)[O-])ccc4F)c4ccc([nH]4)c(-c4cc(S(=O)(=O)[O-])ccc4F)c4nc(c(-c5cc(S(=O)(=O)[O-])ccc5F)c5ccc2[nH]5)C=C4)C=C3)cc1
REMARK SMILES IDX 24 1 23 2 22 3 21 4 20 5 18 6 19 7 17 8 16 9 1 10 2 11 3 12
REMARK SMILES IDX 7 13 4 14 6 15 8 16 5 17 11 18 9 19 10 20 12 21 13 22 14 24
REMARK SMILES IDX 15 26 25 27 26 28 27 29 28 30 29 31 30 32 91 33 31 34 90 35
REMARK SMILES IDX 32 36 33 37 34 38 84 39 35 40 89 41 83 42 85 43 36 44 88 45
REMARK SMILES IDX 82 46 81 47 37 49 69 50 49 51 68 52 50 53 53 54 67 55 86 56
REMARK SMILES IDX 51 57 52 58 66 60 87 61 54 62 38 63 39 64 47 65 40 66 46 67
REMARK SMILES IDX 48 68 45 69 41 70 42 71 43 72 44 73 70 74 71 75 79 76 72 77
REMARK SMILES IDX 78 78 80 79 77 80 73 81 74 82 75 83 76 84 55 85 56 86 64 87
REMARK SMILES IDX 57 88 63 89 65 90 62 91 58 92 59 93 60 94 61 95
REMARK H PARENT 12 23 13 25 85 48 53 59
REMARK Flexibility Score: inf
ROOT
ATOM      1  C   UNL A   1      31.405  31.004  26.522  1.00  0.00     0.202 C 
ENDROOT
BRANCH   1   2
ATOM      2  O   UNL A   1      32.520  30.458  25.813  1.00  0.00    -0.374 OA
BRANCH   2   3
ATOM      3  C   UNL A   1      32.380  29.137  25.289  1.00  0.00     0.202 C 
BRANCH   3   4
ATOM      4  C   UNL A   1      33.392  28.100  25.789  1.00  0.00     0.261 C 
BRANCH   4   5
ATOM      5  O   UNL A   1      34.105  27.462  24.711  1.00  0.00    -0.463 OA
BRANCH   5   6
ATOM      6  C   UNL A   1      34.078  26.108  24.740  1.00  0.00     0.310 C 
ATOM      7  O   UNL A   1      34.278  25.420  25.735  1.00  0.00    -0.252 OA
BRANCH   6   8
ATOM      8  C   UNL A   1      33.626  25.494  23.444  1.00  0.00     0.183 C 
BRANCH   8   9
ATOM      9  C   UNL A   1      32.137  25.212  23.246  1.00  0.00     0.286 C 
ATOM     10  C   UNL A   1      29.119  30.692  21.506  1.00  0.00     0.047 C 
ATOM     11  C   UNL A   1      28.659  29.529  22.342  1.00  0.00    -0.024 A 
ATOM     12  C   UNL A   1      27.329  29.495  22.797  1.00  0.00     0.006 A 
ATOM     13  C   UNL A   1      29.520  28.454  22.622  1.00  0.00     0.085 A 
ATOM     14  C   UNL A   1      26.847  28.407  23.520  1.00  0.00     0.001 A 
ATOM     15  C   UNL A   1      29.023  27.373  23.374  1.00  0.00     0.092 A 
ATOM     16  N   UNL A   1      30.834  28.471  22.104  1.00  0.00    -0.215 NA
ATOM     17  C   UNL A   1      27.691  27.335  23.800  1.00  0.00     0.019 A 
ATOM     18  C   UNL A   1      29.964  26.251  23.682  1.00  0.00     0.309 C 
ATOM     19  C   UNL A   1      31.582  27.455  22.372  1.00  0.00     0.317 C 
ATOM     20  N   UNL A   1      31.245  26.372  23.152  1.00  0.00    -0.202 N 
ATOM     21  N   UNL A   1      29.520  25.258  24.397  1.00  0.00    -0.169 N 
ATOM     22  N   UNL A   1      30.373  24.249  24.679  1.00  0.00    -0.193 N 
ATOM     23  H   UNL A   1      28.591  25.242  24.721  1.00  0.00     0.340 HD
ATOM     24  C   UNL A   1      31.665  24.158  24.244  1.00  0.00     0.300 C 
ATOM     25  H   UNL A   1      30.037  23.518  25.246  1.00  0.00     0.216 HD
ATOM     26  O   UNL A   1      32.367  23.203  24.586  1.00  0.00    -0.267 OA
ENDBRANCH   8   9
ENDBRANCH   6   8
ENDBRANCH   5   6
ENDBRANCH   4   5
ENDBRANCH   3   4
ENDBRANCH   2   3
ENDBRANCH   1   2
BRANCH   1  27
ATOM     27  C   UNL A   1      31.470  32.500  26.863  1.00  0.00     0.261 C 
BRANCH  27  28
ATOM     28  O   UNL A   1      32.788  33.053  26.685  1.00  0.00    -0.460 OA
BRANCH  28  29
ATOM     29  C   UNL A   1      33.377  33.485  27.828  1.00  0.00     0.338 C 
ATOM     30  O   UNL A   1      32.997  34.390  28.553  1.00  0.00    -0.246 OA
BRANCH  29  31
ATOM     31  C   UNL A   1      34.575  32.686  28.137  1.00  0.00     0.060 A 
ATOM     32  C   UNL A   1      34.463  31.329  28.465  1.00  0.00     0.016 A 
ATOM     33  C   UNL A   1      35.791  33.345  28.287  1.00  0.00     0.016 A 
ATOM     34  C   UNL A   1      35.573  30.635  28.967  1.00  0.00     0.010 A 
ATOM     35  C   UNL A   1      36.895  32.644  28.778  1.00  0.00     0.010 A 
ATOM     36  C   UNL A   1      36.798  31.291  29.150  1.00  0.00    -0.014 A 
BRANCH  36  37
ATOM     37  C   UNL A   1      37.949  30.639  29.842  1.00  0.00     0.031 A 
ATOM     38  C   UNL A   1      38.243  30.996  31.280  1.00  0.00     0.074 A 
ATOM     39  C   UNL A   1      38.768  29.778  29.204  1.00  0.00     0.049 A 
ATOM     40  N   UNL A   1      39.260  30.656  32.030  1.00  0.00    -0.248 NA
ATOM     41  C   UNL A   1      37.273  31.875  31.952  1.00  0.00     0.031 C 
ATOM     42  C   UNL A   1      38.622  29.341  27.818  1.00  0.00     0.029 A 
ATOM     43  N   UNL A   1      39.905  29.136  29.639  1.00  0.00    -0.354 N 
ATOM     44  C   UNL A   1      39.071  31.307  33.245  1.00  0.00     0.074 A 
ATOM     45  C   UNL A   1      37.872  32.103  33.112  1.00  0.00     0.031 C 
ATOM     46  C   UNL A   1      39.636  28.513  27.512  1.00  0.00     0.029 A 
ATOM     47  C   UNL A   1      40.522  28.383  28.668  1.00  0.00     0.049 A 
ATOM     48  H   UNL A   1      40.245  29.209  30.560  1.00  0.00     0.167 HD
ATOM     49  C   UNL A   1      39.804  31.227  34.379  1.00  0.00     0.034 A 
ATOM     50  C   UNL A   1      41.674  27.679  28.693  1.00  0.00     0.034 A 
ATOM     51  C   UNL A   1      40.954  30.379  34.542  1.00  0.00     0.049 A 
ATOM     52  C   UNL A   1      42.477  27.593  29.966  1.00  0.00     0.074 A 
ATOM     53  C   UNL A   1      41.698  30.163  35.689  1.00  0.00     0.029 A 
ATOM     54  N   UNL A   1      41.518  29.599  33.546  1.00  0.00    -0.354 N 
ATOM     55  N   UNL A   1      42.241  28.155  31.127  1.00  0.00    -0.248 NA
ATOM     56  C   UNL A   1      43.692  26.763  29.943  1.00  0.00     0.031 C 
ATOM     57  C   UNL A   1      42.733  29.281  35.378  1.00  0.00     0.029 A 
ATOM     58  C   UNL A   1      42.608  28.910  34.048  1.00  0.00     0.049 A 
ATOM     59  H   UNL A   1      41.192  29.544  32.618  1.00  0.00     0.167 HD
ATOM     60  C   UNL A   1      43.249  27.714  31.980  1.00  0.00     0.074 A 
ATOM     61  C   UNL A   1      44.102  26.841  31.203  1.00  0.00     0.031 C 
ATOM     62  C   UNL A   1      43.438  28.006  33.291  1.00  0.00     0.034 A 
BRANCH  49  63
ATOM     63  C   UNL A   1      39.372  32.050  35.566  1.00  0.00     0.023 A 
ATOM     64  C   UNL A   1      38.594  31.465  36.581  1.00  0.00     0.031 A 
ATOM     65  C   UNL A   1      39.649  33.426  35.644  1.00  0.00     0.131 A 
ATOM     66  C   UNL A   1      38.111  32.260  37.628  1.00  0.00     0.055 A 
ATOM     67  C   UNL A   1      39.199  34.204  36.709  1.00  0.00     0.041 A 
ATOM     68  F   UNL A   1      40.387  34.027  34.695  1.00  0.00    -0.206 F 
ATOM     69  C   UNL A   1      38.419  33.623  37.704  1.00  0.00     0.022 A 
BRANCH  66  70
ATOM     70  S   UNL A   1      37.039  31.566  38.915  1.00  0.00     0.124 S 
ATOM     71  O   UNL A   1      35.876  32.449  38.845  1.00  0.00    -0.237 OA
ATOM     72  O   UNL A   1      36.821  30.207  38.429  1.00  0.00    -0.237 OA
ATOM     73  O   UNL A   1      37.832  31.681  40.134  1.00  0.00    -0.744 OA
ENDBRANCH  66  70
ENDBRANCH  49  63
BRANCH  50  74
ATOM     74  C   UNL A   1      42.099  26.944  27.469  1.00  0.00     0.023 A 
ATOM     75  C   UNL A   1      41.900  25.559  27.350  1.00  0.00     0.031 A 
ATOM     76  C   UNL A   1      42.784  27.610  26.439  1.00  0.00     0.131 A 
ATOM     77  C   UNL A   1      42.432  24.874  26.250  1.00  0.00     0.055 A 
ATOM     78  C   UNL A   1      43.264  26.932  25.318  1.00  0.00     0.041 A 
ATOM     79  F   UNL A   1      42.994  28.933  26.515  1.00  0.00    -0.206 F 
ATOM     80  C   UNL A   1      43.099  25.553  25.225  1.00  0.00     0.022 A 
BRANCH  77  81
ATOM     81  S   UNL A   1      42.329  23.066  26.146  1.00  0.00     0.124 S 
ATOM     82  O   UNL A   1      42.857  22.798  24.812  1.00  0.00    -0.237 OA
ATOM     83  O   UNL A   1      43.186  22.662  27.257  1.00  0.00    -0.237 OA
ATOM     84  O   UNL A   1      40.906  22.795  26.320  1.00  0.00    -0.744 OA
ENDBRANCH  77  81
ENDBRANCH  50  74
BRANCH  62  85
ATOM     85  C   UNL A   1      44.581  27.360  34.033  1.00  0.00     0.023 A 
ATOM     86  C   UNL A   1      44.384  26.120  34.670  1.00  0.00     0.031 A 
ATOM     87  C   UNL A   1      45.784  28.046  34.266  1.00  0.00     0.131 A 
ATOM     88  C   UNL A   1      45.354  25.626  35.551  1.00  0.00     0.055 A 
ATOM     89  C   UNL A   1      46.766  27.530  35.114  1.00  0.00     0.041 A 
ATOM     90  F   UNL A   1      46.012  29.236  33.688  1.00  0.00    -0.206 F 
ATOM     91  C   UNL A   1      46.547  26.322  35.772  1.00  0.00     0.022 A 
BRANCH  88  92
ATOM     92  S   UNL A   1      45.071  24.105  36.499  1.00  0.00     0.124 S 
ATOM     93  O   UNL A   1      46.393  23.484  36.482  1.00  0.00    -0.237 OA
ATOM     94  O   UNL A   1      44.643  24.626  37.793  1.00  0.00    -0.237 OA
ATOM     95  O   UNL A   1      44.047  23.400  35.733  1.00  0.00    -0.744 OA
ENDBRANCH  88  92
ENDBRANCH  62  85
ENDBRANCH  36  37
ENDBRANCH  29  31
ENDBRANCH  28  29
ENDBRANCH  27  28
ENDBRANCH   1  27
TORSDOF 18
ENDMDL
MODEL 3
REMARK VINA RESULT:     -11.6      4.891     10.586
REMARK SMILES Cc1cccc2c1N=CN1C2=[NH+]NC(=O)[C@@H]1CC(=O)OCCOCCOC(=O)c1ccc(-c2c3nc(c(-c4cc(S(=O)(=O)[O-])ccc4F)c4ccc([nH]4)c(-c4cc(S(=O)(=O)[O-])ccc4F)c4nc(c(-c5cc(S(=O)(=O)[O-])ccc5F)c5ccc2[nH]5)C=C4)C=C3)cc1
REMARK SMILES IDX 24 1 23 2 22 3 21 4 20 5 18 6 19 7 17 8 16 9 1 10 2 11 3 12
REMARK SMILES IDX 7 13 4 14 6 15 8 16 5 17 11 18 9 19 10 20 12 21 13 22 14 24
REMARK SMILES IDX 15 26 25 27 26 28 27 29 28 30 29 31 30 32 91 33 31 34 90 35
REMARK SMILES IDX 32 36 33 37 34 38 84 39 35 40 89 41 83 42 85 43 36 44 88 45
REMARK SMILES IDX 82 46 81 47 37 49 69 50 49 51 68 52 50 53 53 54 67 55 86 56
REMARK SMILES IDX 51 57 52 58 66 60 87 61 54 62 38 63 39 64 47 65 40 66 46 67
REMARK SMILES IDX 48 68 45 69 41 70 42 71 43 72 44 73 70 74 71 75 79 76 72 77
REMARK SMILES IDX 78 78 80 79 77 80 73 81 74 82 75 83 76 84 55 85 56 86 64 87
REMARK SMILES IDX 57 88 63 89 65 90 62 91 58 92 59 93 60 94 61 95
REMARK H PARENT 12 23 13 25 85 48 53 59
REMARK Flexibility Score: inf
ROOT
ATOM      1  C   UNL A   1      35.911  20.666  25.020  1.00  0.00     0.202 C 
ENDROOT
BRANCH   1   2
ATOM      2  O   UNL A   1      34.811  19.774  24.825  1.00  0.00    -0.374 OA
BRANCH   2   3
ATOM      3  C   UNL A   1      33.578  20.107  25.465  1.00  0.00     0.202 C 
BRANCH   3   4
ATOM      4  C   UNL A   1      33.614  21.302  26.424  1.00  0.00     0.261 C 
BRANCH   4   5
ATOM      5  O   UNL A   1      32.341  21.970  26.520  1.00  0.00    -0.463 OA
BRANCH   5   6
ATOM      6  C   UNL A   1      32.415  23.322  26.553  1.00  0.00     0.310 C 
ATOM      7  O   UNL A   1      31.736  24.048  27.270  1.00  0.00    -0.252 OA
BRANCH   6   8
ATOM      8  C   UNL A   1      33.536  23.877  25.718  1.00  0.00     0.183 C 
BRANCH   8   9
ATOM      9  C   UNL A   1      33.190  24.640  24.440  1.00  0.00     0.286 C 
ATOM     10  C   UNL A   1      31.521  30.730  25.952  1.00  0.00     0.047 C 
ATOM     11  C   UNL A   1      31.030  29.806  24.870  1.00  0.00    -0.024 A 
ATOM     12  C   UNL A   1      30.112  30.290  23.921  1.00  0.00     0.006 A 
ATOM     13  C   UNL A   1      31.519  28.493  24.763  1.00  0.00     0.085 A 
ATOM     14  C   UNL A   1      29.682  29.486  22.868  1.00  0.00     0.001 A 
ATOM     15  C   UNL A   1      31.056  27.687  23.706  1.00  0.00     0.092 A 
ATOM     16  N   UNL A   1      32.489  28.042  25.686  1.00  0.00    -0.215 NA
ATOM     17  C   UNL A   1      30.163  28.185  22.750  1.00  0.00     0.019 A 
ATOM     18  C   UNL A   1      31.571  26.286  23.626  1.00  0.00     0.309 C 
ATOM     19  C   UNL A   1      32.922  26.837  25.537  1.00  0.00     0.317 C 
ATOM     20  N   UNL A   1      32.502  25.925  24.595  1.00  0.00    -0.202 N 
ATOM     21  N   UNL A   1      31.130  25.525  22.665  1.00  0.00    -0.169 N 
ATOM     22  N   UNL A   1      31.591  24.257  22.598  1.00  0.00    -0.193 N 
ATOM     23  H   UNL A   1      30.480  25.864  22.008  1.00  0.00     0.340 HD
ATOM     24  C   UNL A   1      32.520  23.706  23.435  1.00  0.00     0.300 C 
ATOM     25  H   UNL A   1      31.228  23.681  21.887  1.00  0.00     0.216 HD
ATOM     26  O   UNL A   1      32.850  22.525  23.301  1.00  0.00    -0.267 OA
ENDBRANCH   8   9
ENDBRANCH   6   8
ENDBRANCH   5   6
ENDBRANCH   4   5
ENDBRANCH   3   4
ENDBRANCH   2   3
ENDBRANCH   1   2
BRANCH   1  27
ATOM     27  C   UNL A   1      37.307  20.032  25.104  1.00  0.00     0.261 C 
BRANCH  27  28
ATOM     28  O   UNL A   1      38.365  21.004  24.991  1.00  0.00    -0.460 OA
BRANCH  28  29
ATOM     29  C   UNL A   1      39.323  20.907  25.947  1.00  0.00     0.338 C 
ATOM     30  O   UNL A   1      39.912  19.897  26.296  1.00  0.00    -0.246 OA
BRANCH  29  31
ATOM     31  C   UNL A   1      39.615  22.225  26.535  1.00  0.00     0.060 A 
ATOM     32  C   UNL A   1      38.876  23.354  26.160  1.00  0.00     0.016 A 
ATOM     33  C   UNL A   1      40.757  22.364  27.318  1.00  0.00     0.016 A 
ATOM     34  C   UNL A   1      39.298  24.632  26.554  1.00  0.00     0.010 A 
ATOM     35  C   UNL A   1      41.165  23.639  27.716  1.00  0.00     0.010 A 
ATOM     36  C   UNL A   1      40.461  24.791  27.320  1.00  0.00    -0.014 A 
BRANCH  36  37
ATOM     37  C   UNL A   1      41.039  26.137  27.611  1.00  0.00     0.031 A 
ATOM     38  C   UNL A   1      42.440  26.453  27.147  1.00  0.00     0.074 A 
ATOM     39  C   UNL A   1      40.363  27.062  28.322  1.00  0.00     0.049 A 
ATOM     40  N   UNL A   1      43.184  27.499  27.402  1.00  0.00    -0.248 NA
ATOM     41  C   UNL A   1      43.101  25.442  26.306  1.00  0.00     0.031 C 
ATOM     42  C   UNL A   1      39.009  26.904  28.846  1.00  0.00     0.029 A 
ATOM     43  N   UNL A   1      40.743  28.314  28.750  1.00  0.00    -0.354 N 
ATOM     44  C   UNL A   1      44.407  27.256  26.785  1.00  0.00     0.074 A 
ATOM     45  C   UNL A   1      44.323  25.941  26.190  1.00  0.00     0.031 C 
ATOM     46  C   UNL A   1      38.674  28.011  29.532  1.00  0.00     0.029 A 
ATOM     47  C   UNL A   1      39.799  28.944  29.526  1.00  0.00     0.049 A 
ATOM     48  H   UNL A   1      41.609  28.721  28.520  1.00  0.00     0.167 HD
ATOM     49  C   UNL A   1      45.491  28.061  26.690  1.00  0.00     0.034 A 
ATOM     50  C   UNL A   1      39.834  30.129  30.173  1.00  0.00     0.034 A 
ATOM     51  C   UNL A   1      45.554  29.399  27.213  1.00  0.00     0.049 A 
ATOM     52  C   UNL A   1      41.044  31.018  30.052  1.00  0.00     0.074 A 
ATOM     53  C   UNL A   1      46.577  30.320  27.076  1.00  0.00     0.029 A 
ATOM     54  N   UNL A   1      44.558  30.013  27.955  1.00  0.00    -0.354 N 
ATOM     55  N   UNL A   1      42.163  30.802  29.402  1.00  0.00    -0.248 NA
ATOM     56  C   UNL A   1      40.996  32.321  30.735  1.00  0.00     0.031 C 
ATOM     57  C   UNL A   1      46.217  31.478  27.765  1.00  0.00     0.029 A 
ATOM     58  C   UNL A   1      44.949  31.297  28.293  1.00  0.00     0.049 A 
ATOM     59  H   UNL A   1      43.701  29.597  28.204  1.00  0.00     0.167 HD
ATOM     60  C   UNL A   1      42.929  31.954  29.560  1.00  0.00     0.074 A 
ATOM     61  C   UNL A   1      42.151  32.865  30.372  1.00  0.00     0.031 C 
ATOM     62  C   UNL A   1      44.162  32.226  29.066  1.00  0.00     0.034 A 
BRANCH  49  63
ATOM     63  C   UNL A   1      46.701  27.542  25.957  1.00  0.00     0.023 A 
ATOM     64  C   UNL A   1      46.918  27.903  24.615  1.00  0.00     0.031 A 
ATOM     65  C   UNL A   1      47.581  26.623  26.554  1.00  0.00     0.131 A 
ATOM     66  C   UNL A   1      47.988  27.337  23.910  1.00  0.00     0.055 A 
ATOM     67  C   UNL A   1      48.667  26.092  25.859  1.00  0.00     0.041 A 
ATOM     68  F   UNL A   1      47.411  26.248  27.832  1.00  0.00    -0.206 F 
ATOM     69  C   UNL A   1      48.870  26.443  24.528  1.00  0.00     0.022 A 
BRANCH  66  70
ATOM     70  S   UNL A   1      48.259  27.711  22.157  1.00  0.00     0.124 S 
ATOM     71  O   UNL A   1      48.485  26.380  21.597  1.00  0.00    -0.237 OA
ATOM     72  O   UNL A   1      46.996  28.340  21.782  1.00  0.00    -0.237 OA
ATOM     73  O   UNL A   1      49.425  28.587  22.160  1.00  0.00    -0.744 OA
ENDBRANCH  66  70
ENDBRANCH  49  63
BRANCH  50  74
ATOM     74  C   UNL A   1      38.639  30.563  30.950  1.00  0.00     0.023 A 
ATOM     75  C   UNL A   1      37.577  31.240  30.327  1.00  0.00     0.031 A 
ATOM     76  C   UNL A   1      38.586  30.377  32.341  1.00  0.00     0.131 A 
ATOM     77  C   UNL A   1      36.532  31.756  31.105  1.00  0.00     0.055 A 
ATOM     78  C   UNL A   1      37.516  30.846  33.105  1.00  0.00     0.041 A 
ATOM     79  F   UNL A   1      39.581  29.736  32.974  1.00  0.00    -0.206 F 
ATOM     80  C   UNL A   1      36.487  31.550  32.488  1.00  0.00     0.022 A 
BRANCH  77  81
ATOM     81  S   UNL A   1      35.229  32.768  30.352  1.00  0.00     0.124 S 
ATOM     82  O   UNL A   1      34.695  31.878  29.326  1.00  0.00    -0.237 OA
ATOM     83  O   UNL A   1      34.354  33.012  31.495  1.00  0.00    -0.237 OA
ATOM     84  O   UNL A   1      35.950  33.935  29.853  1.00  0.00    -0.744 OA
ENDBRANCH  77  81
ENDBRANCH  50  74
BRANCH  62  85
ATOM     85  C   UNL A   1      44.778  33.577  29.326  1.00  0.00     0.023 A 
ATOM     86  C   UNL A   1      44.430  34.669  28.506  1.00  0.00     0.031 A 
ATOM     87  C   UNL A   1      45.830  33.740  30.242  1.00  0.00     0.131 A 
ATOM     88  C   UNL A   1      45.163  35.860  28.582  1.00  0.00     0.055 A 
ATOM     89  C   UNL A   1      46.531  34.943  30.343  1.00  0.00     0.041 A 
ATOM     90  F   UNL A   1      46.204  32.725  31.036  1.00  0.00    -0.206 F 
ATOM     91  C   UNL A   1      46.208  36.005  29.501  1.00  0.00     0.022 A 
BRANCH  88  92
ATOM     92  S   UNL A   1      44.837  37.234  27.444  1.00  0.00     0.124 S 
ATOM     93  O   UNL A   1      44.650  38.355  28.363  1.00  0.00    -0.237 OA
ATOM     94  O   UNL A   1      46.063  37.274  26.654  1.00  0.00    -0.237 OA
ATOM     95  O   UNL A   1      43.637  36.818  26.725  1.00  0.00    -0.744 OA
ENDBRANCH  88  92
ENDBRANCH  62  85
ENDBRANCH  36  37
ENDBRANCH  29  31
ENDBRANCH  28  29
ENDBRANCH  27  28
ENDBRANCH   1  27
TORSDOF 18
ENDMDL
