MODEL 1
REMARK VINA RESULT:     -13.2      0.000      0.000
REMARK SMILES Cc1c(C(=O)OCCOCCOC(=O)c2ccc(-c3c4nc(c(-c5cc(S(=O)(=O)[O-])ccc5F)c5ccc([nH]5)c(-c5cc(S(=O)(=O)[O-])ccc5F)c5nc(c(-c6cc(S(=O)(=O)[O-])ccc6F)c6ccc3[nH]6)C=C5)C=C4)cc2)oc2c1/C(=N/NC(=O)C(c1ccccc1)c1ccccc1)CCC2
REMARK SMILES IDX 9 1 8 2 7 3 6 4 4 5 5 6 3 7 1 8 2 9 80 10 78 11 79 12 81 13
REMARK SMILES IDX 101 14 82 15 99 16 100 17 83 18 84 19 85 21 86 22 87 23
REMARK SMILES IDX 88 24 92 25 89 26 91 27 90 28 93 29 94 30 98 31 95 32 97 33
REMARK SMILES IDX 96 34 10 35 11 36 12 37 13 38 14 39 15 40 16 41 77 42 17 43
REMARK SMILES IDX 76 44 18 45 19 46 20 47 70 48 21 49 75 50 69 51 71 52 22 53
REMARK SMILES IDX 74 54 68 55 67 56 23 58 55 59 35 60 54 61 36 62 39 63 53 64
REMARK SMILES IDX 72 65 37 66 38 67 52 69 73 70 40 71 24 72 25 73 33 74 26 75
REMARK SMILES IDX 32 76 34 77 31 78 27 79 28 80 29 81 30 82 56 83 57 84 65 85
REMARK SMILES IDX 58 86 64 87 66 88 63 89 59 90 60 91 61 92 62 93 41 94 42 95
REMARK SMILES IDX 50 96 43 97 49 98 51 99 48 100 44 101 45 102 46 103 47 104
REMARK H PARENT 83 20 71 57 39 68
REMARK Flexibility Score: inf
ROOT
ATOM      1  O   UNL A   1      35.018  31.456  27.656  1.00  0.00    -0.374 OA
ENDROOT
BRANCH   1   2
ATOM      2  C   UNL A   1      34.802  30.090  27.288  1.00  0.00     0.202 C 
BRANCH   2   3
ATOM      3  C   UNL A   1      33.342  29.644  27.223  1.00  0.00     0.261 C 
BRANCH   3   4
ATOM      4  O   UNL A   1      33.275  28.219  27.186  1.00  0.00    -0.457 OA
BRANCH   4   5
ATOM      5  C   UNL A   1      32.021  27.683  27.054  1.00  0.00     0.374 C 
ATOM      6  O   UNL A   1      31.075  27.916  27.762  1.00  0.00    -0.242 OA
BRANCH   5   7
ATOM      7  C   UNL A   1      32.023  26.891  25.839  1.00  0.00     0.215 A 
ATOM      8  C   UNL A   1      31.171  24.541  26.511  1.00  0.00     0.049 C 
ATOM      9  C   UNL A   1      31.699  25.560  25.572  1.00  0.00     0.012 A 
ATOM     10  C   UNL A   1      32.037  25.371  24.202  1.00  0.00     0.043 A 
ATOM     11  O   UNL A   1      32.320  27.548  24.681  1.00  0.00    -0.453 OA
ATOM     12  C   UNL A   1      32.311  26.634  23.709  1.00  0.00     0.114 A 
ATOM     13  C   UNL A   1      32.262  24.207  23.346  1.00  0.00     0.072 C 
ATOM     14  C   UNL A   1      32.755  27.066  22.366  1.00  0.00     0.076 C 
ATOM     15  N   UNL A   1      31.832  23.054  23.759  1.00  0.00    -0.177 NA
ATOM     16  C   UNL A   1      33.133  24.618  22.193  1.00  0.00     0.059 C 
ATOM     17  C   UNL A   1      32.685  25.865  21.442  1.00  0.00     0.014 C 
BRANCH  15  18
ATOM     18  N   UNL A   1      31.934  21.756  23.317  1.00  0.00    -0.246 N 
ATOM     19  C   UNL A   1      32.412  20.514  23.687  1.00  0.00     0.252 C 
ATOM     20  H   UNL A   1      31.523  21.688  22.424  1.00  0.00     0.193 HD
ATOM     21  O   UNL A   1      32.228  19.593  22.872  1.00  0.00    -0.272 OA
BRANCH  19  22
ATOM     22  C   UNL A   1      33.117  20.185  25.024  1.00  0.00     0.140 C 
BRANCH  22  23
ATOM     23  C   UNL A   1      33.430  18.641  25.035  1.00  0.00    -0.031 A 
ATOM     24  C   UNL A   1      34.491  18.053  24.328  1.00  0.00     0.005 A 
ATOM     25  C   UNL A   1      32.562  17.737  25.708  1.00  0.00     0.005 A 
ATOM     26  C   UNL A   1      34.565  16.654  24.165  1.00  0.00     0.000 A 
ATOM     27  C   UNL A   1      32.621  16.353  25.533  1.00  0.00     0.000 A 
ATOM     28  C   UNL A   1      33.612  15.811  24.735  1.00  0.00     0.000 A 
ENDBRANCH  22  23
BRANCH  22  29
ATOM     29  C   UNL A   1      34.188  21.321  25.270  1.00  0.00    -0.031 A 
ATOM     30  C   UNL A   1      34.102  22.093  26.460  1.00  0.00     0.005 A 
ATOM     31  C   UNL A   1      35.158  21.736  24.343  1.00  0.00     0.005 A 
ATOM     32  C   UNL A   1      34.704  23.347  26.583  1.00  0.00     0.000 A 
ATOM     33  C   UNL A   1      35.791  22.990  24.480  1.00  0.00     0.000 A 
ATOM     34  C   UNL A   1      35.514  23.819  25.566  1.00  0.00     0.000 A 
ENDBRANCH  22  29
ENDBRANCH  19  22
ENDBRANCH  15  18
ENDBRANCH   5   7
ENDBRANCH   4   5
ENDBRANCH   3   4
ENDBRANCH   2   3
ENDBRANCH   1   2
BRANCH   1  35
ATOM     35  C   UNL A   1      34.742  31.849  29.003  1.00  0.00     0.202 C 
BRANCH  35  36
ATOM     36  C   UNL A   1      35.908  31.982  29.973  1.00  0.00     0.261 C 
BRANCH  36  37
ATOM     37  O   UNL A   1      36.920  31.050  29.632  1.00  0.00    -0.460 OA
BRANCH  37  38
ATOM     38  C   UNL A   1      36.913  29.921  30.375  1.00  0.00     0.338 C 
ATOM     39  O   UNL A   1      36.487  29.779  31.507  1.00  0.00    -0.246 OA
BRANCH  38  40
ATOM     40  C   UNL A   1      37.605  28.882  29.605  1.00  0.00     0.060 A 
ATOM     41  C   UNL A   1      38.194  27.903  30.399  1.00  0.00     0.016 A 
ATOM     42  C   UNL A   1      38.030  29.162  28.295  1.00  0.00     0.016 A 
ATOM     43  C   UNL A   1      39.452  27.497  30.043  1.00  0.00     0.010 A 
ATOM     44  C   UNL A   1      39.292  28.761  27.945  1.00  0.00     0.010 A 
ATOM     45  C   UNL A   1      40.021  28.049  28.891  1.00  0.00    -0.014 A 
BRANCH  45  46
ATOM     46  C   UNL A   1      41.439  27.866  28.713  1.00  0.00     0.031 A 
ATOM     47  C   UNL A   1      41.755  26.637  27.970  1.00  0.00     0.074 A 
ATOM     48  C   UNL A   1      42.337  28.763  29.157  1.00  0.00     0.049 A 
ATOM     49  N   UNL A   1      42.255  25.546  28.439  1.00  0.00    -0.248 NA
ATOM     50  C   UNL A   1      41.237  26.531  26.599  1.00  0.00     0.031 C 
ATOM     51  C   UNL A   1      42.120  30.116  29.673  1.00  0.00     0.029 A 
ATOM     52  N   UNL A   1      43.686  28.659  29.136  1.00  0.00    -0.354 N 
ATOM     53  C   UNL A   1      42.305  24.673  27.363  1.00  0.00     0.074 A 
ATOM     54  C   UNL A   1      41.463  25.244  26.347  1.00  0.00     0.031 C 
ATOM     55  C   UNL A   1      43.301  30.780  29.675  1.00  0.00     0.029 A 
ATOM     56  C   UNL A   1      44.360  29.862  29.282  1.00  0.00     0.049 A 
ATOM     57  H   UNL A   1      44.151  27.799  29.026  1.00  0.00     0.167 HD
ATOM     58  C   UNL A   1      43.215  23.665  27.311  1.00  0.00     0.034 A 
ATOM     59  C   UNL A   1      45.670  30.077  28.981  1.00  0.00     0.034 A 
ATOM     60  C   UNL A   1      43.797  23.427  28.612  1.00  0.00     0.049 A 
ATOM     61  C   UNL A   1      46.330  28.738  28.986  1.00  0.00     0.074 A 
ATOM     62  C   UNL A   1      43.285  23.017  29.828  1.00  0.00     0.029 A 
ATOM     63  N   UNL A   1      45.011  24.016  28.897  1.00  0.00    -0.354 N 
ATOM     64  N   UNL A   1      46.453  28.011  30.067  1.00  0.00    -0.248 NA
ATOM     65  C   UNL A   1      46.366  27.981  27.738  1.00  0.00     0.031 C 
ATOM     66  C   UNL A   1      43.964  23.810  30.799  1.00  0.00     0.029 A 
ATOM     67  C   UNL A   1      44.907  24.601  30.138  1.00  0.00     0.049 A 
ATOM     68  H   UNL A   1      45.808  24.018  28.318  1.00  0.00     0.167 HD
ATOM     69  C   UNL A   1      46.159  26.711  29.674  1.00  0.00     0.074 A 
ATOM     70  C   UNL A   1      46.199  26.741  28.213  1.00  0.00     0.031 C 
ATOM     71  C   UNL A   1      45.614  25.805  30.543  1.00  0.00     0.034 A 
BRANCH  58  72
ATOM     72  C   UNL A   1      43.806  23.117  26.038  1.00  0.00     0.023 A 
ATOM     73  C   UNL A   1      43.736  21.726  25.843  1.00  0.00     0.031 A 
ATOM     74  C   UNL A   1      44.645  23.822  25.143  1.00  0.00     0.131 A 
ATOM     75  C   UNL A   1      44.523  21.095  24.865  1.00  0.00     0.055 A 
ATOM     76  C   UNL A   1      45.369  23.199  24.126  1.00  0.00     0.041 A 
ATOM     77  F   UNL A   1      44.896  25.132  25.255  1.00  0.00    -0.206 F 
ATOM     78  C   UNL A   1      45.335  21.824  24.001  1.00  0.00     0.022 A 
BRANCH  75  79
ATOM     79  S   UNL A   1      44.604  19.289  24.862  1.00  0.00     0.124 S 
ATOM     80  O   UNL A   1      45.897  19.045  25.492  1.00  0.00    -0.237 OA
ATOM     81  O   UNL A   1      43.426  18.936  25.648  1.00  0.00    -0.237 OA
ATOM     82  O   UNL A   1      44.532  18.951  23.442  1.00  0.00    -0.744 OA
ENDBRANCH  75  79
ENDBRANCH  58  72
BRANCH  59  83
ATOM     83  C   UNL A   1      46.218  31.292  28.309  1.00  0.00     0.023 A 
ATOM     84  C   UNL A   1      45.571  31.950  27.243  1.00  0.00     0.031 A 
ATOM     85  C   UNL A   1      47.336  31.956  28.870  1.00  0.00     0.131 A 
ATOM     86  C   UNL A   1      46.055  33.197  26.773  1.00  0.00     0.055 A 
ATOM     87  C   UNL A   1      47.814  33.180  28.400  1.00  0.00     0.041 A 
ATOM     88  F   UNL A   1      47.959  31.476  29.958  1.00  0.00    -0.206 F 
ATOM     89  C   UNL A   1      47.171  33.809  27.350  1.00  0.00     0.022 A 
BRANCH  86  90
ATOM     90  S   UNL A   1      45.186  34.094  25.445  1.00  0.00     0.124 S 
ATOM     91  O   UNL A   1      44.505  33.017  24.737  1.00  0.00    -0.237 OA
ATOM     92  O   UNL A   1      44.340  35.018  26.194  1.00  0.00    -0.237 OA
ATOM     93  O   UNL A   1      46.271  34.732  24.696  1.00  0.00    -0.744 OA
ENDBRANCH  86  90
ENDBRANCH  59  83
BRANCH  71  94
ATOM     94  C   UNL A   1      45.534  26.170  32.016  1.00  0.00     0.023 A 
ATOM     95  C   UNL A   1      44.407  26.756  32.639  1.00  0.00     0.031 A 
ATOM     96  C   UNL A   1      46.588  25.750  32.846  1.00  0.00     0.131 A 
ATOM     97  C   UNL A   1      44.368  26.901  34.041  1.00  0.00     0.055 A 
ATOM     98  C   UNL A   1      46.537  25.872  34.234  1.00  0.00     0.041 A 
ATOM     99  F   UNL A   1      47.674  25.160  32.319  1.00  0.00    -0.206 F 
ATOM    100  C   UNL A   1      45.427  26.452  34.837  1.00  0.00     0.022 A 
BRANCH  97 101
ATOM    101  S   UNL A   1      42.938  27.682  34.857  1.00  0.00     0.124 S 
ATOM    102  O   UNL A   1      41.796  26.965  34.300  1.00  0.00    -0.237 OA
ATOM    103  O   UNL A   1      43.214  27.446  36.271  1.00  0.00    -0.237 OA
ATOM    104  O   UNL A   1      43.035  29.084  34.446  1.00  0.00    -0.744 OA
ENDBRANCH  97 101
ENDBRANCH  71  94
ENDBRANCH  45  46
ENDBRANCH  38  40
ENDBRANCH  37  38
ENDBRANCH  36  37
ENDBRANCH  35  36
ENDBRANCH   1  35
TORSDOF 21
ENDMDL
MODEL 2
REMARK VINA RESULT:     -12.8      1.502      2.568
REMARK SMILES Cc1c(C(=O)OCCOCCOC(=O)c2ccc(-c3c4nc(c(-c5cc(S(=O)(=O)[O-])ccc5F)c5ccc([nH]5)c(-c5cc(S(=O)(=O)[O-])ccc5F)c5nc(c(-c6cc(S(=O)(=O)[O-])ccc6F)c6ccc3[nH]6)C=C5)C=C4)cc2)oc2c1/C(=N/NC(=O)C(c1ccccc1)c1ccccc1)CCC2
REMARK SMILES IDX 9 1 8 2 7 3 6 4 4 5 5 6 3 7 1 8 2 9 80 10 78 11 79 12 81 13
REMARK SMILES IDX 101 14 82 15 99 16 100 17 83 18 84 19 85 21 86 22 87 23
REMARK SMILES IDX 88 24 92 25 89 26 91 27 90 28 93 29 94 30 98 31 95 32 97 33
REMARK SMILES IDX 96 34 10 35 11 36 12 37 13 38 14 39 15 40 16 41 77 42 17 43
REMARK SMILES IDX 76 44 18 45 19 46 20 47 70 48 21 49 75 50 69 51 71 52 22 53
REMARK SMILES IDX 74 54 68 55 67 56 23 58 55 59 35 60 54 61 36 62 39 63 53 64
REMARK SMILES IDX 72 65 37 66 38 67 52 69 73 70 40 71 24 72 25 73 33 74 26 75
REMARK SMILES IDX 32 76 34 77 31 78 27 79 28 80 29 81 30 82 56 83 57 84 65 85
REMARK SMILES IDX 58 86 64 87 66 88 63 89 59 90 60 91 61 92 62 93 41 94 42 95
REMARK SMILES IDX 50 96 43 97 49 98 51 99 48 100 44 101 45 102 46 103 47 104
REMARK H PARENT 83 20 71 57 39 68
REMARK Flexibility Score: inf
ROOT
ATOM      1  O   UNL A   1      33.054  30.629  27.405  1.00  0.00    -0.374 OA
ENDROOT
BRANCH   1   2
ATOM      2  C   UNL A   1      33.375  29.616  26.447  1.00  0.00     0.202 C 
BRANCH   2   3
ATOM      3  C   UNL A   1      32.731  29.777  25.071  1.00  0.00     0.261 C 
BRANCH   3   4
ATOM      4  O   UNL A   1      31.316  29.624  25.180  1.00  0.00    -0.457 OA
BRANCH   4   5
ATOM      5  C   UNL A   1      30.680  29.136  24.070  1.00  0.00     0.374 C 
ATOM      6  O   UNL A   1      29.970  29.767  23.328  1.00  0.00    -0.242 OA
BRANCH   5   7
ATOM      7  C   UNL A   1      31.121  27.766  23.894  1.00  0.00     0.215 A 
ATOM      8  C   UNL A   1      30.647  26.563  26.135  1.00  0.00     0.049 C 
ATOM      9  C   UNL A   1      31.151  26.660  24.744  1.00  0.00     0.012 A 
ATOM     10  C   UNL A   1      31.822  25.648  24.002  1.00  0.00     0.043 A 
ATOM     11  O   UNL A   1      31.530  27.412  22.641  1.00  0.00    -0.453 OA
ATOM     12  C   UNL A   1      31.932  26.141  22.714  1.00  0.00     0.114 A 
ATOM     13  C   UNL A   1      32.472  24.382  24.338  1.00  0.00     0.072 C 
ATOM     14  C   UNL A   1      32.568  25.560  21.513  1.00  0.00     0.076 C 
ATOM     15  N   UNL A   1      32.209  23.849  25.492  1.00  0.00    -0.177 NA
ATOM     16  C   UNL A   1      33.476  24.057  23.269  1.00  0.00     0.059 C 
ATOM     17  C   UNL A   1      32.961  24.132  21.837  1.00  0.00     0.014 C 
BRANCH  15  18
ATOM     18  N   UNL A   1      32.677  22.766  26.198  1.00  0.00    -0.246 N 
ATOM     19  C   UNL A   1      33.479  21.648  26.073  1.00  0.00     0.252 C 
ATOM     20  H   UNL A   1      32.312  22.798  27.112  1.00  0.00     0.193 HD
ATOM     21  O   UNL A   1      33.593  20.942  27.090  1.00  0.00    -0.272 OA
BRANCH  19  22
ATOM     22  C   UNL A   1      34.252  21.235  24.799  1.00  0.00     0.140 C 
BRANCH  22  23
ATOM     23  C   UNL A   1      35.760  21.645  24.997  1.00  0.00    -0.031 A 
ATOM     24  C   UNL A   1      36.839  20.764  24.827  1.00  0.00     0.005 A 
ATOM     25  C   UNL A   1      36.094  22.946  25.467  1.00  0.00     0.005 A 
ATOM     26  C   UNL A   1      38.133  21.110  25.268  1.00  0.00     0.000 A 
ATOM     27  C   UNL A   1      37.370  23.285  25.922  1.00  0.00     0.000 A 
ATOM     28  C   UNL A   1      38.389  22.353  25.847  1.00  0.00     0.000 A 
ENDBRANCH  22  23
BRANCH  22  29
ATOM     29  C   UNL A   1      33.758  19.785  24.412  1.00  0.00    -0.031 A 
ATOM     30  C   UNL A   1      34.619  18.683  24.659  1.00  0.00     0.005 A 
ATOM     31  C   UNL A   1      32.575  19.490  23.713  1.00  0.00     0.005 A 
ATOM     32  C   UNL A   1      34.476  17.459  24.001  1.00  0.00     0.000 A 
ATOM     33  C   UNL A   1      32.413  18.243  23.072  1.00  0.00     0.000 A 
ATOM     34  C   UNL A   1      33.393  17.256  23.165  1.00  0.00     0.000 A 
ENDBRANCH  22  29
ENDBRANCH  19  22
ENDBRANCH  15  18
ENDBRANCH   5   7
ENDBRANCH   4   5
ENDBRANCH   3   4
ENDBRANCH   2   3
ENDBRANCH   1   2
BRANCH   1  35
ATOM     35  C   UNL A   1      34.118  31.419  27.943  1.00  0.00     0.202 C 
BRANCH  35  36
ATOM     36  C   UNL A   1      35.544  30.903  27.806  1.00  0.00     0.261 C 
BRANCH  36  37
ATOM     37  O   UNL A   1      35.904  30.184  28.974  1.00  0.00    -0.460 OA
BRANCH  37  38
ATOM     38  C   UNL A   1      37.196  30.330  29.343  1.00  0.00     0.338 C 
ATOM     39  O   UNL A   1      37.683  31.231  30.001  1.00  0.00    -0.246 OA
BRANCH  38  40
ATOM     40  C   UNL A   1      37.956  29.235  28.730  1.00  0.00     0.060 A 
ATOM     41  C   UNL A   1      38.284  28.220  29.623  1.00  0.00     0.016 A 
ATOM     42  C   UNL A   1      38.673  29.473  27.545  1.00  0.00     0.016 A 
ATOM     43  C   UNL A   1      39.554  27.717  29.543  1.00  0.00     0.010 A 
ATOM     44  C   UNL A   1      39.946  28.975  27.470  1.00  0.00     0.010 A 
ATOM     45  C   UNL A   1      40.399  28.216  28.545  1.00  0.00    -0.014 A 
BRANCH  45  46
ATOM     46  C   UNL A   1      41.803  27.924  28.674  1.00  0.00     0.031 A 
ATOM     47  C   UNL A   1      42.210  26.763  27.869  1.00  0.00     0.074 A 
ATOM     48  C   UNL A   1      42.624  28.678  29.426  1.00  0.00     0.049 A 
ATOM     49  N   UNL A   1      42.514  25.584  28.292  1.00  0.00    -0.248 NA
ATOM     50  C   UNL A   1      42.028  26.860  26.414  1.00  0.00     0.031 C 
ATOM     51  C   UNL A   1      42.375  29.978  30.052  1.00  0.00     0.029 A 
ATOM     52  N   UNL A   1      43.929  28.454  29.701  1.00  0.00    -0.354 N 
ATOM     53  C   UNL A   1      42.763  24.838  27.151  1.00  0.00     0.074 A 
ATOM     54  C   UNL A   1      42.227  25.595  26.053  1.00  0.00     0.031 C 
ATOM     55  C   UNL A   1      43.562  30.527  30.412  1.00  0.00     0.029 A 
ATOM     56  C   UNL A   1      44.624  29.564  30.155  1.00  0.00     0.049 A 
ATOM     57  H   UNL A   1      44.352  27.572  29.589  1.00  0.00     0.167 HD
ATOM     58  C   UNL A   1      43.594  23.762  27.177  1.00  0.00     0.034 A 
ATOM     59  C   UNL A   1      45.979  29.690  30.194  1.00  0.00     0.034 A 
ATOM     60  C   UNL A   1      43.832  23.327  28.535  1.00  0.00     0.049 A 
ATOM     61  C   UNL A   1      46.533  28.305  30.174  1.00  0.00     0.074 A 
ATOM     62  C   UNL A   1      43.020  22.831  29.536  1.00  0.00     0.029 A 
ATOM     63  N   UNL A   1      44.978  23.765  29.164  1.00  0.00    -0.354 N 
ATOM     64  N   UNL A   1      46.347  27.452  31.148  1.00  0.00    -0.248 NA
ATOM     65  C   UNL A   1      46.818  27.693  28.879  1.00  0.00     0.031 C 
ATOM     66  C   UNL A   1      43.496  23.443  30.732  1.00  0.00     0.029 A 
ATOM     67  C   UNL A   1      44.617  24.213  30.414  1.00  0.00     0.049 A 
ATOM     68  H   UNL A   1      45.888  23.758  28.789  1.00  0.00     0.167 HD
ATOM     69  C   UNL A   1      46.074  26.238  30.532  1.00  0.00     0.074 A 
ATOM     70  C   UNL A   1      46.465  26.428  29.136  1.00  0.00     0.031 C 
ATOM     71  C   UNL A   1      45.282  25.293  31.126  1.00  0.00     0.034 A 
BRANCH  58  72
ATOM     72  C   UNL A   1      44.436  23.309  26.013  1.00  0.00     0.023 A 
ATOM     73  C   UNL A   1      44.260  21.987  25.568  1.00  0.00     0.031 A 
ATOM     74  C   UNL A   1      45.560  23.991  25.488  1.00  0.00     0.131 A 
ATOM     75  C   UNL A   1      45.202  21.382  24.719  1.00  0.00     0.055 A 
ATOM     76  C   UNL A   1      46.453  23.408  24.588  1.00  0.00     0.041 A 
ATOM     77  F   UNL A   1      45.922  25.216  25.885  1.00  0.00    -0.206 F 
ATOM     78  C   UNL A   1      46.294  22.085  24.221  1.00  0.00     0.022 A 
BRANCH  75  79
ATOM     79  S   UNL A   1      45.070  19.603  24.421  1.00  0.00     0.124 S 
ATOM     80  O   UNL A   1      46.449  19.165  24.604  1.00  0.00    -0.237 OA
ATOM     81  O   UNL A   1      44.122  19.197  25.454  1.00  0.00    -0.237 OA
ATOM     82  O   UNL A   1      44.571  19.527  23.050  1.00  0.00    -0.744 OA
ENDBRANCH  75  79
ENDBRANCH  58  72
BRANCH  59  83
ATOM     83  C   UNL A   1      46.747  30.917  29.831  1.00  0.00     0.023 A 
ATOM     84  C   UNL A   1      46.843  31.414  28.514  1.00  0.00     0.031 A 
ATOM     85  C   UNL A   1      47.249  31.756  30.856  1.00  0.00     0.131 A 
ATOM     86  C   UNL A   1      47.436  32.679  28.270  1.00  0.00     0.055 A 
ATOM     87  C   UNL A   1      47.839  32.997  30.610  1.00  0.00     0.041 A 
ATOM     88  F   UNL A   1      47.109  31.434  32.152  1.00  0.00    -0.206 F 
ATOM     89  C   UNL A   1      47.931  33.467  29.312  1.00  0.00     0.022 A 
BRANCH  86  90
ATOM     90  S   UNL A   1      47.502  33.366  26.582  1.00  0.00     0.124 S 
ATOM     91  O   UNL A   1      46.397  32.680  25.924  1.00  0.00    -0.237 OA
ATOM     92  O   UNL A   1      47.332  34.796  26.819  1.00  0.00    -0.237 OA
ATOM     93  O   UNL A   1      48.833  32.981  26.107  1.00  0.00    -0.744 OA
ENDBRANCH  86  90
ENDBRANCH  59  83
BRANCH  71  94
ATOM     94  C   UNL A   1      44.875  25.495  32.576  1.00  0.00     0.023 A 
ATOM     95  C   UNL A   1      43.696  26.156  32.996  1.00  0.00     0.031 A 
ATOM     96  C   UNL A   1      45.638  24.843  33.560  1.00  0.00     0.131 A 
ATOM     97  C   UNL A   1      43.324  26.144  34.356  1.00  0.00     0.055 A 
ATOM     98  C   UNL A   1      45.255  24.812  34.900  1.00  0.00     0.041 A 
ATOM     99  F   UNL A   1      46.753  24.173  33.222  1.00  0.00    -0.206 F 
ATOM    100  C   UNL A   1      44.097  25.466  35.304  1.00  0.00     0.022 A 
BRANCH  97 101
ATOM    101  S   UNL A   1      41.826  27.015  34.919  1.00  0.00     0.124 S 
ATOM    102  O   UNL A   1      40.943  25.933  35.343  1.00  0.00    -0.237 OA
ATOM    103  O   UNL A   1      42.340  27.875  35.980  1.00  0.00    -0.237 OA
ATOM    104  O   UNL A   1      41.378  27.730  33.722  1.00  0.00    -0.744 OA
ENDBRANCH  97 101
ENDBRANCH  71  94
ENDBRANCH  45  46
ENDBRANCH  38  40
ENDBRANCH  37  38
ENDBRANCH  36  37
ENDBRANCH  35  36
ENDBRANCH   1  35
TORSDOF 21
ENDMDL
MODEL 3
REMARK VINA RESULT:     -12.4      3.927      5.622
REMARK SMILES Cc1c(C(=O)OCCOCCOC(=O)c2ccc(-c3c4nc(c(-c5cc(S(=O)(=O)[O-])ccc5F)c5ccc([nH]5)c(-c5cc(S(=O)(=O)[O-])ccc5F)c5nc(c(-c6cc(S(=O)(=O)[O-])ccc6F)c6ccc3[nH]6)C=C5)C=C4)cc2)oc2c1/C(=N/NC(=O)C(c1ccccc1)c1ccccc1)CCC2
REMARK SMILES IDX 9 1 8 2 7 3 6 4 4 5 5 6 3 7 1 8 2 9 80 10 78 11 79 12 81 13
REMARK SMILES IDX 101 14 82 15 99 16 100 17 83 18 84 19 85 21 86 22 87 23
REMARK SMILES IDX 88 24 92 25 89 26 91 27 90 28 93 29 94 30 98 31 95 32 97 33
REMARK SMILES IDX 96 34 10 35 11 36 12 37 13 38 14 39 15 40 16 41 77 42 17 43
REMARK SMILES IDX 76 44 18 45 19 46 20 47 70 48 21 49 75 50 69 51 71 52 22 53
REMARK SMILES IDX 74 54 68 55 67 56 23 58 55 59 35 60 54 61 36 62 39 63 53 64
REMARK SMILES IDX 72 65 37 66 38 67 52 69 73 70 40 71 24 72 25 73 33 74 26 75
REMARK SMILES IDX 32 76 34 77 31 78 27 79 28 80 29 81 30 82 56 83 57 84 65 85
REMARK SMILES IDX 58 86 64 87 66 88 63 89 59 90 60 91 61 92 62 93 41 94 42 95
REMARK SMILES IDX 50 96 43 97 49 98 51 99 48 100 44 101 45 102 46 103 47 104
REMARK H PARENT 83 20 71 57 39 68
REMARK Flexibility Score: inf
ROOT
ATOM      1  O   UNL A   1      31.349  29.711  25.069  1.00  0.00    -0.374 OA
ENDROOT
BRANCH   1   2
ATOM      2  C   UNL A   1      30.597  30.926  24.978  1.00  0.00     0.202 C 
BRANCH   2   3
ATOM      3  C   UNL A   1      29.544  30.972  23.872  1.00  0.00     0.261 C 
BRANCH   3   4
ATOM      4  O   UNL A   1      29.821  29.963  22.901  1.00  0.00    -0.457 OA
BRANCH   4   5
ATOM      5  C   UNL A   1      28.963  28.896  22.886  1.00  0.00     0.374 C 
ATOM      6  O   UNL A   1      27.762  28.956  22.804  1.00  0.00    -0.242 OA
BRANCH   5   7
ATOM      7  C   UNL A   1      29.776  27.696  22.860  1.00  0.00     0.215 A 
ATOM      8  C   UNL A   1      28.799  26.124  24.669  1.00  0.00     0.049 C 
ATOM      9  C   UNL A   1      29.759  26.519  23.610  1.00  0.00     0.012 A 
ATOM     10  C   UNL A   1      30.903  25.793  23.174  1.00  0.00     0.043 A 
ATOM     11  O   UNL A   1      30.715  27.615  21.873  1.00  0.00    -0.453 OA
ATOM     12  C   UNL A   1      31.371  26.468  22.062  1.00  0.00     0.114 A 
ATOM     13  C   UNL A   1      31.675  24.670  23.704  1.00  0.00     0.072 C 
ATOM     14  C   UNL A   1      32.550  26.212  21.207  1.00  0.00     0.076 C 
ATOM     15  N   UNL A   1      31.134  23.940  24.630  1.00  0.00    -0.177 NA
ATOM     16  C   UNL A   1      33.062  24.726  23.129  1.00  0.00     0.059 C 
ATOM     17  C   UNL A   1      33.142  24.877  21.616  1.00  0.00     0.014 C 
BRANCH  15  18
ATOM     18  N   UNL A   1      31.554  22.903  25.429  1.00  0.00    -0.246 N 
ATOM     19  C   UNL A   1      32.440  21.844  25.463  1.00  0.00     0.252 C 
ATOM     20  H   UNL A   1      31.044  22.921  26.272  1.00  0.00     0.193 HD
ATOM     21  O   UNL A   1      32.437  21.161  26.502  1.00  0.00    -0.272 OA
BRANCH  19  22
ATOM     22  C   UNL A   1      33.436  21.471  24.339  1.00  0.00     0.140 C 
BRANCH  22  23
ATOM     23  C   UNL A   1      34.774  22.260  24.602  1.00  0.00    -0.031 A 
ATOM     24  C   UNL A   1      35.914  22.159  23.789  1.00  0.00     0.005 A 
ATOM     25  C   UNL A   1      34.917  23.063  25.768  1.00  0.00     0.005 A 
ATOM     26  C   UNL A   1      37.154  22.679  24.214  1.00  0.00     0.000 A 
ATOM     27  C   UNL A   1      36.147  23.562  26.200  1.00  0.00     0.000 A 
ATOM     28  C   UNL A   1      37.277  23.346  25.433  1.00  0.00     0.000 A 
ENDBRANCH  22  23
BRANCH  22  29
ATOM     29  C   UNL A   1      33.340  19.906  24.142  1.00  0.00    -0.031 A 
ATOM     30  C   UNL A   1      34.376  19.087  24.665  1.00  0.00     0.005 A 
ATOM     31  C   UNL A   1      32.372  19.244  23.368  1.00  0.00     0.005 A 
ATOM     32  C   UNL A   1      34.608  17.789  24.205  1.00  0.00     0.000 A 
ATOM     33  C   UNL A   1      32.588  17.922  22.926  1.00  0.00     0.000 A 
ATOM     34  C   UNL A   1      33.736  17.221  23.293  1.00  0.00     0.000 A 
ENDBRANCH  22  29
ENDBRANCH  19  22
ENDBRANCH  15  18
ENDBRANCH   5   7
ENDBRANCH   4   5
ENDBRANCH   3   4
ENDBRANCH   2   3
ENDBRANCH   1   2
BRANCH   1  35
ATOM     35  C   UNL A   1      32.595  29.733  25.770  1.00  0.00     0.202 C 
BRANCH  35  36
ATOM     36  C   UNL A   1      32.617  30.279  27.191  1.00  0.00     0.261 C 
BRANCH  36  37
ATOM     37  O   UNL A   1      33.639  31.255  27.310  1.00  0.00    -0.460 OA
BRANCH  37  38
ATOM     38  C   UNL A   1      33.207  32.471  27.710  1.00  0.00     0.338 C 
ATOM     39  O   UNL A   1      32.186  33.043  27.375  1.00  0.00    -0.246 OA
BRANCH  38  40
ATOM     40  C   UNL A   1      34.244  33.045  28.575  1.00  0.00     0.060 A 
ATOM     41  C   UNL A   1      35.227  33.738  27.876  1.00  0.00     0.016 A 
ATOM     42  C   UNL A   1      34.453  32.502  29.854  1.00  0.00     0.016 A 
ATOM     43  C   UNL A   1      36.521  33.534  28.271  1.00  0.00     0.010 A 
ATOM     44  C   UNL A   1      35.749  32.293  30.243  1.00  0.00     0.010 A 
ATOM     45  C   UNL A   1      36.752  32.698  29.369  1.00  0.00    -0.014 A 
BRANCH  45  46
ATOM     46  C   UNL A   1      38.102  32.239  29.566  1.00  0.00     0.031 A 
ATOM     47  C   UNL A   1      38.261  30.813  29.244  1.00  0.00     0.074 A 
ATOM     48  C   UNL A   1      39.087  33.064  29.962  1.00  0.00     0.049 A 
ATOM     49  N   UNL A   1      38.420  29.837  30.070  1.00  0.00    -0.248 NA
ATOM     50  C   UNL A   1      37.974  30.403  27.862  1.00  0.00     0.031 C 
ATOM     51  C   UNL A   1      39.090  34.525  30.063  1.00  0.00     0.029 A 
ATOM     52  N   UNL A   1      40.363  32.736  30.272  1.00  0.00    -0.354 N 
ATOM     53  C   UNL A   1      38.458  28.695  29.285  1.00  0.00     0.074 A 
ATOM     54  C   UNL A   1      37.950  29.079  27.997  1.00  0.00     0.031 C 
ATOM     55  C   UNL A   1      40.371  34.956  30.165  1.00  0.00     0.029 A 
ATOM     56  C   UNL A   1      41.252  33.800  30.262  1.00  0.00     0.049 A 
ATOM     57  H   UNL A   1      40.638  31.816  30.488  1.00  0.00     0.167 HD
ATOM     58  C   UNL A   1      39.118  27.578  29.692  1.00  0.00     0.034 A 
ATOM     59  C   UNL A   1      42.609  33.699  30.220  1.00  0.00     0.034 A 
ATOM     60  C   UNL A   1      39.402  27.634  31.108  1.00  0.00     0.049 A 
ATOM     61  C   UNL A   1      42.946  32.329  30.707  1.00  0.00     0.074 A 
ATOM     62  C   UNL A   1      38.612  27.684  32.241  1.00  0.00     0.029 A 
ATOM     63  N   UNL A   1      40.649  28.070  31.503  1.00  0.00    -0.354 N 
ATOM     64  N   UNL A   1      42.717  31.935  31.933  1.00  0.00    -0.248 NA
ATOM     65  C   UNL A   1      43.026  31.249  29.728  1.00  0.00     0.031 C 
ATOM     66  C   UNL A   1      39.273  28.599  33.110  1.00  0.00     0.029 A 
ATOM     67  C   UNL A   1      40.466  28.997  32.502  1.00  0.00     0.049 A 
ATOM     68  H   UNL A   1      41.513  27.772  31.136  1.00  0.00     0.167 HD
ATOM     69  C   UNL A   1      42.214  30.645  31.821  1.00  0.00     0.074 A 
ATOM     70  C   UNL A   1      42.510  30.244  30.447  1.00  0.00     0.031 C 
ATOM     71  C   UNL A   1      41.343  30.132  32.743  1.00  0.00     0.034 A 
BRANCH  58  72
ATOM     72  C   UNL A   1      39.781  26.595  28.763  1.00  0.00     0.023 A 
ATOM     73  C   UNL A   1      40.842  27.071  27.974  1.00  0.00     0.031 A 
ATOM     74  C   UNL A   1      39.283  25.316  28.418  1.00  0.00     0.131 A 
ATOM     75  C   UNL A   1      41.305  26.335  26.870  1.00  0.00     0.055 A 
ATOM     76  C   UNL A   1      39.795  24.557  27.365  1.00  0.00     0.041 A 
ATOM     77  F   UNL A   1      38.215  24.765  29.006  1.00  0.00    -0.206 F 
ATOM     78  C   UNL A   1      40.792  25.078  26.563  1.00  0.00     0.022 A 
BRANCH  75  79
ATOM     79  S   UNL A   1      42.465  27.132  25.733  1.00  0.00     0.124 S 
ATOM     80  O   UNL A   1      41.683  28.265  25.251  1.00  0.00    -0.237 OA
ATOM     81  O   UNL A   1      43.581  27.447  26.619  1.00  0.00    -0.237 OA
ATOM     82  O   UNL A   1      42.729  26.093  24.740  1.00  0.00    -0.744 OA
ENDBRANCH  75  79
ENDBRANCH  58  72
BRANCH  59  83
ATOM     83  C   UNL A   1      43.518  34.559  29.407  1.00  0.00     0.023 A 
ATOM     84  C   UNL A   1      44.049  34.170  28.160  1.00  0.00     0.031 A 
ATOM     85  C   UNL A   1      43.719  35.911  29.781  1.00  0.00     0.131 A 
ATOM     86  C   UNL A   1      44.758  35.104  27.363  1.00  0.00     0.055 A 
ATOM     87  C   UNL A   1      44.424  36.825  28.996  1.00  0.00     0.041 A 
ATOM     88  F   UNL A   1      43.164  36.418  30.892  1.00  0.00    -0.206 F 
ATOM     89  C   UNL A   1      44.944  36.425  27.778  1.00  0.00     0.022 A 
BRANCH  86  90
ATOM     90  S   UNL A   1      45.387  34.635  25.716  1.00  0.00     0.124 S 
ATOM     91  O   UNL A   1      44.189  34.723  24.890  1.00  0.00    -0.237 OA
ATOM     92  O   UNL A   1      46.418  35.640  25.478  1.00  0.00    -0.237 OA
ATOM     93  O   UNL A   1      45.895  33.276  25.918  1.00  0.00    -0.744 OA
ENDBRANCH  86  90
ENDBRANCH  59  83
BRANCH  71  94
ATOM     94  C   UNL A   1      41.095  30.916  34.022  1.00  0.00     0.023 A 
ATOM     95  C   UNL A   1      39.989  31.771  34.239  1.00  0.00     0.031 A 
ATOM     96  C   UNL A   1      41.932  30.648  35.118  1.00  0.00     0.131 A 
ATOM     97  C   UNL A   1      39.759  32.320  35.517  1.00  0.00     0.055 A 
ATOM     98  C   UNL A   1      41.689  31.172  36.387  1.00  0.00     0.041 A 
ATOM     99  F   UNL A   1      42.983  29.820  34.985  1.00  0.00    -0.206 F 
ATOM    100  C   UNL A   1      40.602  32.014  36.591  1.00  0.00     0.022 A 
BRANCH  97 101
ATOM    101  S   UNL A   1      38.357  33.448  35.808  1.00  0.00     0.124 S 
ATOM    102  O   UNL A   1      38.665  34.046  37.102  1.00  0.00    -0.237 OA
ATOM    103  O   UNL A   1      38.427  34.342  34.656  1.00  0.00    -0.237 OA
ATOM    104  O   UNL A   1      37.197  32.554  35.812  1.00  0.00    -0.744 OA
ENDBRANCH  97 101
ENDBRANCH  71  94
ENDBRANCH  45  46
ENDBRANCH  38  40
ENDBRANCH  37  38
ENDBRANCH  36  37
ENDBRANCH  35  36
ENDBRANCH   1  35
TORSDOF 21
ENDMDL
