MODEL 1
REMARK VINA RESULT:     -10.0      0.000      0.000
REMARK SMILES CC(C)C[C@@H](NC(=O)Cn1nc(O)ccc1=O)C(=O)OCCOCCOC(=O)c1ccc(-c2c3nc(c(-c4cc(S(=O)(=O)[O-])ccc4F)c4ccc([nH]4)c(-c4cc(S(=O)(=O)[O-])ccc4F)c4nc(c(-c5cc(S(=O)(=O)[O-])ccc5F)c5ccc2[nH]5)C=C4)C=C3)cc1
REMARK SMILES IDX 22 1 21 2 20 3 18 4 19 5 5 6 4 7 2 8 1 9 3 10 6 11 7 12 8 14
REMARK SMILES IDX 9 15 10 16 11 17 16 18 12 19 15 20 17 21 14 22 13 23 23 25
REMARK SMILES IDX 24 26 25 27 26 28 27 29 28 30 29 31 30 32 91 33 31 34 90 35
REMARK SMILES IDX 32 36 33 37 34 38 84 39 35 40 89 41 83 42 85 43 36 44 88 45
REMARK SMILES IDX 82 46 81 47 37 49 69 50 49 51 68 52 50 53 53 54 67 55 86 56
REMARK SMILES IDX 51 57 52 58 66 60 87 61 54 62 38 63 39 64 47 65 40 66 46 67
REMARK SMILES IDX 48 68 45 69 41 70 42 71 43 72 44 73 70 74 71 75 79 76 72 77
REMARK SMILES IDX 78 78 80 79 77 80 73 81 74 82 75 83 76 84 55 85 56 86 64 87
REMARK SMILES IDX 57 88 63 89 65 90 62 91 58 92 59 93 60 94 61 95
REMARK H PARENT 6 13 13 24 85 48 53 59
REMARK Flexibility Score: inf
ROOT
ATOM      1  C   UNL A   1      33.359  28.248  26.871  1.00  0.00     0.202 C 
ENDROOT
BRANCH   1   2
ATOM      2  C   UNL A   1      33.160  26.967  26.023  1.00  0.00     0.261 C 
BRANCH   2   3
ATOM      3  O   UNL A   1      32.191  26.004  26.506  1.00  0.00    -0.462 OA
BRANCH   3   4
ATOM      4  C   UNL A   1      32.389  24.688  26.291  1.00  0.00     0.328 C 
ATOM      5  O   UNL A   1      31.587  23.811  26.600  1.00  0.00    -0.250 OA
BRANCH   4   6
ATOM      6  C   UNL A   1      33.673  24.371  25.470  1.00  0.00     0.192 C 
BRANCH   6   7
ATOM      7  C   UNL A   1      34.582  23.334  26.177  1.00  0.00     0.040 C 
BRANCH   7   8
ATOM      8  C   UNL A   1      35.839  22.872  25.406  1.00  0.00    -0.015 C 
ATOM      9  C   UNL A   1      37.078  23.693  25.760  1.00  0.00     0.007 C 
ATOM     10  C   UNL A   1      36.117  21.392  25.717  1.00  0.00     0.007 C 
ENDBRANCH   7   8
ENDBRANCH   6   7
BRANCH   6  11
ATOM     11  N   UNL A   1      33.649  24.179  24.006  1.00  0.00    -0.341 N 
ATOM     12  C   UNL A   1      33.091  23.326  23.112  1.00  0.00     0.242 C 
ATOM     13  H   UNL A   1      34.192  24.863  23.551  1.00  0.00     0.164 HD
ATOM     14  O   UNL A   1      33.638  23.318  22.000  1.00  0.00    -0.273 OA
BRANCH  12  15
ATOM     15  C   UNL A   1      31.865  22.458  23.366  1.00  0.00     0.248 C 
BRANCH  15  16
ATOM     16  N   UNL A   1      32.153  21.075  23.714  1.00  0.00    -0.217 N 
ATOM     17  N   UNL A   1      32.474  20.796  25.033  1.00  0.00    -0.131 NA
ATOM     18  C   UNL A   1      32.154  20.113  22.728  1.00  0.00     0.267 A 
ATOM     19  C   UNL A   1      32.800  19.575  25.278  1.00  0.00     0.229 A 
ATOM     20  C   UNL A   1      32.522  18.750  23.111  1.00  0.00     0.079 A 
ATOM     21  O   UNL A   1      31.852  20.298  21.557  1.00  0.00    -0.268 OA
ATOM     22  C   UNL A   1      32.885  18.458  24.356  1.00  0.00     0.075 A 
BRANCH  19  23
ATOM     23  O   UNL A   1      33.088  19.186  26.520  1.00  0.00    -0.492 OA
ATOM     24  H   UNL A   1      32.403  19.098  27.154  1.00  0.00     0.295 HD
ENDBRANCH  19  23
ENDBRANCH  15  16
ENDBRANCH  12  15
ENDBRANCH   6  11
ENDBRANCH   4   6
ENDBRANCH   3   4
ENDBRANCH   2   3
ENDBRANCH   1   2
BRANCH   1  25
ATOM     25  O   UNL A   1      32.210  29.095  26.956  1.00  0.00    -0.374 OA
BRANCH  25  26
ATOM     26  C   UNL A   1      32.146  30.111  25.957  1.00  0.00     0.202 C 
BRANCH  26  27
ATOM     27  C   UNL A   1      32.059  31.537  26.504  1.00  0.00     0.261 C 
BRANCH  27  28
ATOM     28  O   UNL A   1      32.846  31.705  27.698  1.00  0.00    -0.460 OA
BRANCH  28  29
ATOM     29  C   UNL A   1      33.812  32.656  27.644  1.00  0.00     0.338 C 
ATOM     30  O   UNL A   1      33.699  33.805  27.267  1.00  0.00    -0.246 OA
BRANCH  29  31
ATOM     31  C   UNL A   1      35.047  32.095  28.235  1.00  0.00     0.060 A 
ATOM     32  C   UNL A   1      36.228  32.841  28.292  1.00  0.00     0.016 A 
ATOM     33  C   UNL A   1      35.027  30.783  28.716  1.00  0.00     0.016 A 
ATOM     34  C   UNL A   1      37.402  32.239  28.762  1.00  0.00     0.010 A 
ATOM     35  C   UNL A   1      36.196  30.202  29.229  1.00  0.00     0.010 A 
ATOM     36  C   UNL A   1      37.406  30.914  29.245  1.00  0.00    -0.014 A 
BRANCH  36  37
ATOM     37  C   UNL A   1      38.635  30.328  29.867  1.00  0.00     0.031 A 
ATOM     38  C   UNL A   1      39.448  29.238  29.207  1.00  0.00     0.074 A 
ATOM     39  C   UNL A   1      39.012  30.770  31.086  1.00  0.00     0.049 A 
ATOM     40  N   UNL A   1      40.523  28.633  29.651  1.00  0.00    -0.248 NA
ATOM     41  C   UNL A   1      39.012  28.771  27.882  1.00  0.00     0.031 C 
ATOM     42  C   UNL A   1      38.312  31.803  31.849  1.00  0.00     0.029 A 
ATOM     43  N   UNL A   1      40.061  30.412  31.900  1.00  0.00    -0.354 N 
ATOM     44  C   UNL A   1      40.894  27.718  28.670  1.00  0.00     0.074 A 
ATOM     45  C   UNL A   1      39.913  27.831  27.611  1.00  0.00     0.031 C 
ATOM     46  C   UNL A   1      38.964  32.020  32.997  1.00  0.00     0.029 A 
ATOM     47  C   UNL A   1      40.079  31.082  33.103  1.00  0.00     0.049 A 
ATOM     48  H   UNL A   1      40.736  29.741  31.646  1.00  0.00     0.167 HD
ATOM     49  C   UNL A   1      41.953  26.868  28.654  1.00  0.00     0.034 A 
ATOM     50  C   UNL A   1      40.866  30.947  34.192  1.00  0.00     0.034 A 
ATOM     51  C   UNL A   1      42.925  26.755  29.718  1.00  0.00     0.049 A 
ATOM     52  C   UNL A   1      41.993  29.953  34.174  1.00  0.00     0.074 A 
ATOM     53  C   UNL A   1      44.057  25.955  29.753  1.00  0.00     0.029 A 
ATOM     54  N   UNL A   1      42.888  27.433  30.928  1.00  0.00    -0.354 N 
ATOM     55  N   UNL A   1      42.373  29.159  33.201  1.00  0.00    -0.248 NA
ATOM     56  C   UNL A   1      42.808  29.835  35.392  1.00  0.00     0.031 C 
ATOM     57  C   UNL A   1      44.647  26.076  31.009  1.00  0.00     0.029 A 
ATOM     58  C   UNL A   1      43.947  27.030  31.729  1.00  0.00     0.049 A 
ATOM     59  H   UNL A   1      42.210  28.099  31.181  1.00  0.00     0.167 HD
ATOM     60  C   UNL A   1      43.484  28.469  33.682  1.00  0.00     0.074 A 
ATOM     61  C   UNL A   1      43.729  28.955  35.022  1.00  0.00     0.031 C 
ATOM     62  C   UNL A   1      44.222  27.517  33.059  1.00  0.00     0.034 A 
BRANCH  49  63
ATOM     63  C   UNL A   1      42.176  25.977  27.450  1.00  0.00     0.023 A 
ATOM     64  C   UNL A   1      41.709  24.646  27.465  1.00  0.00     0.031 A 
ATOM     65  C   UNL A   1      43.030  26.367  26.404  1.00  0.00     0.131 A 
ATOM     66  C   UNL A   1      42.150  23.739  26.493  1.00  0.00     0.055 A 
ATOM     67  C   UNL A   1      43.430  25.469  25.411  1.00  0.00     0.041 A 
ATOM     68  F   UNL A   1      43.510  27.621  26.345  1.00  0.00    -0.206 F 
ATOM     69  C   UNL A   1      43.005  24.144  25.463  1.00  0.00     0.022 A 
BRANCH  66  70
ATOM     70  S   UNL A   1      41.716  21.978  26.581  1.00  0.00     0.124 S 
ATOM     71  O   UNL A   1      40.255  22.029  26.549  1.00  0.00    -0.237 OA
ATOM     72  O   UNL A   1      42.348  21.446  25.377  1.00  0.00    -0.237 OA
ATOM     73  O   UNL A   1      42.294  21.538  27.846  1.00  0.00    -0.744 OA
ENDBRANCH  66  70
ENDBRANCH  49  63
BRANCH  50  74
ATOM     74  C   UNL A   1      40.602  31.816  35.378  1.00  0.00     0.023 A 
ATOM     75  C   UNL A   1      39.532  31.534  36.248  1.00  0.00     0.031 A 
ATOM     76  C   UNL A   1      41.328  32.998  35.585  1.00  0.00     0.131 A 
ATOM     77  C   UNL A   1      39.159  32.469  37.220  1.00  0.00     0.055 A 
ATOM     78  C   UNL A   1      41.009  33.886  36.615  1.00  0.00     0.041 A 
ATOM     79  F   UNL A   1      42.350  33.315  34.776  1.00  0.00    -0.206 F 
ATOM     80  C   UNL A   1      39.905  33.634  37.422  1.00  0.00     0.022 A 
BRANCH  77  81
ATOM     81  S   UNL A   1      37.599  32.288  38.128  1.00  0.00     0.124 S 
ATOM     82  O   UNL A   1      36.680  33.078  37.316  1.00  0.00    -0.237 OA
ATOM     83  O   UNL A   1      37.398  30.840  38.085  1.00  0.00    -0.237 OA
ATOM     84  O   UNL A   1      37.904  32.829  39.448  1.00  0.00    -0.744 OA
ENDBRANCH  77  81
ENDBRANCH  50  74
BRANCH  62  85
ATOM     85  C   UNL A   1      45.404  26.911  33.784  1.00  0.00     0.023 A 
ATOM     86  C   UNL A   1      45.229  25.747  34.560  1.00  0.00     0.031 A 
ATOM     87  C   UNL A   1      46.645  27.566  33.847  1.00  0.00     0.131 A 
ATOM     88  C   UNL A   1      46.256  25.309  35.407  1.00  0.00     0.055 A 
ATOM     89  C   UNL A   1      47.686  27.093  34.650  1.00  0.00     0.041 A 
ATOM     90  F   UNL A   1      46.864  28.684  33.135  1.00  0.00    -0.206 F 
ATOM     91  C   UNL A   1      47.487  25.971  35.449  1.00  0.00     0.022 A 
BRANCH  88  92
ATOM     92  S   UNL A   1      45.998  23.928  36.556  1.00  0.00     0.124 S 
ATOM     93  O   UNL A   1      47.319  23.790  37.165  1.00  0.00    -0.237 OA
ATOM     94  O   UNL A   1      44.957  24.453  37.436  1.00  0.00    -0.237 OA
ATOM     95  O   UNL A   1      45.594  22.822  35.694  1.00  0.00    -0.744 OA
ENDBRANCH  88  92
ENDBRANCH  62  85
ENDBRANCH  36  37
ENDBRANCH  29  31
ENDBRANCH  28  29
ENDBRANCH  27  28
ENDBRANCH  26  27
ENDBRANCH  25  26
ENDBRANCH   1  25
TORSDOF 23
ENDMDL
MODEL 2
REMARK VINA RESULT:      -9.8      4.953      9.948
REMARK SMILES CC(C)C[C@@H](NC(=O)Cn1nc(O)ccc1=O)C(=O)OCCOCCOC(=O)c1ccc(-c2c3nc(c(-c4cc(S(=O)(=O)[O-])ccc4F)c4ccc([nH]4)c(-c4cc(S(=O)(=O)[O-])ccc4F)c4nc(c(-c5cc(S(=O)(=O)[O-])ccc5F)c5ccc2[nH]5)C=C4)C=C3)cc1
REMARK SMILES IDX 22 1 21 2 20 3 18 4 19 5 5 6 4 7 2 8 1 9 3 10 6 11 7 12 8 14
REMARK SMILES IDX 9 15 10 16 11 17 16 18 12 19 15 20 17 21 14 22 13 23 23 25
REMARK SMILES IDX 24 26 25 27 26 28 27 29 28 30 29 31 30 32 91 33 31 34 90 35
REMARK SMILES IDX 32 36 33 37 34 38 84 39 35 40 89 41 83 42 85 43 36 44 88 45
REMARK SMILES IDX 82 46 81 47 37 49 69 50 49 51 68 52 50 53 53 54 67 55 86 56
REMARK SMILES IDX 51 57 52 58 66 60 87 61 54 62 38 63 39 64 47 65 40 66 46 67
REMARK SMILES IDX 48 68 45 69 41 70 42 71 43 72 44 73 70 74 71 75 79 76 72 77
REMARK SMILES IDX 78 78 80 79 77 80 73 81 74 82 75 83 76 84 55 85 56 86 64 87
REMARK SMILES IDX 57 88 63 89 65 90 62 91 58 92 59 93 60 94 61 95
REMARK H PARENT 6 13 13 24 85 48 53 59
REMARK Flexibility Score: inf
ROOT
ATOM      1  C   UNL A   1      37.821  21.928  25.676  1.00  0.00     0.202 C 
ENDROOT
BRANCH   1   2
ATOM      2  C   UNL A   1      37.189  23.276  25.246  1.00  0.00     0.261 C 
BRANCH   2   3
ATOM      3  O   UNL A   1      35.986  23.687  25.943  1.00  0.00    -0.462 OA
BRANCH   3   4
ATOM      4  C   UNL A   1      34.885  24.019  25.240  1.00  0.00     0.328 C 
ATOM      5  O   UNL A   1      34.767  23.859  24.028  1.00  0.00    -0.250 OA
BRANCH   4   6
ATOM      6  C   UNL A   1      33.693  24.494  26.123  1.00  0.00     0.192 C 
BRANCH   6   7
ATOM      7  C   UNL A   1      33.329  25.978  25.870  1.00  0.00     0.040 C 
BRANCH   7   8
ATOM      8  C   UNL A   1      31.982  26.471  26.445  1.00  0.00    -0.015 C 
ATOM      9  C   UNL A   1      32.114  27.797  27.192  1.00  0.00     0.007 C 
ATOM     10  C   UNL A   1      30.967  26.642  25.303  1.00  0.00     0.007 C 
ENDBRANCH   7   8
ENDBRANCH   6   7
BRANCH   6  11
ATOM     11  N   UNL A   1      32.496  23.660  26.350  1.00  0.00    -0.341 N 
ATOM     12  C   UNL A   1      31.643  22.903  25.616  1.00  0.00     0.242 C 
ATOM     13  H   UNL A   1      32.245  23.653  27.302  1.00  0.00     0.164 HD
ATOM     14  O   UNL A   1      30.556  22.676  26.166  1.00  0.00    -0.273 OA
BRANCH  12  15
ATOM     15  C   UNL A   1      31.947  22.307  24.248  1.00  0.00     0.248 C 
BRANCH  15  16
ATOM     16  N   UNL A   1      32.160  20.867  24.239  1.00  0.00    -0.217 N 
ATOM     17  N   UNL A   1      32.419  20.247  25.451  1.00  0.00    -0.131 NA
ATOM     18  C   UNL A   1      32.154  20.187  23.041  1.00  0.00     0.267 A 
ATOM     19  C   UNL A   1      32.680  18.989  25.385  1.00  0.00     0.229 A 
ATOM     20  C   UNL A   1      32.447  18.755  23.074  1.00  0.00     0.079 A 
ATOM     21  O   UNL A   1      31.904  20.677  21.948  1.00  0.00    -0.268 OA
ATOM     22  C   UNL A   1      32.750  18.138  24.211  1.00  0.00     0.075 A 
BRANCH  19  23
ATOM     23  O   UNL A   1      32.905  18.284  26.494  1.00  0.00    -0.492 OA
ATOM     24  H   UNL A   1      32.683  17.373  26.523  1.00  0.00     0.295 HD
ENDBRANCH  19  23
ENDBRANCH  15  16
ENDBRANCH  12  15
ENDBRANCH   6  11
ENDBRANCH   4   6
ENDBRANCH   3   4
ENDBRANCH   2   3
ENDBRANCH   1   2
BRANCH   1  25
ATOM     25  O   UNL A   1      37.743  20.890  24.695  1.00  0.00    -0.374 OA
BRANCH  25  26
ATOM     26  C   UNL A   1      38.371  19.667  25.075  1.00  0.00     0.202 C 
BRANCH  26  27
ATOM     27  C   UNL A   1      39.546  19.827  26.041  1.00  0.00     0.261 C 
BRANCH  27  28
ATOM     28  O   UNL A   1      40.814  19.675  25.377  1.00  0.00    -0.460 OA
BRANCH  28  29
ATOM     29  C   UNL A   1      41.912  19.709  26.175  1.00  0.00     0.338 C 
ATOM     30  O   UNL A   1      42.637  18.783  26.474  1.00  0.00    -0.246 OA
BRANCH  29  31
ATOM     31  C   UNL A   1      42.162  21.117  26.557  1.00  0.00     0.060 A 
ATOM     32  C   UNL A   1      42.358  22.106  25.589  1.00  0.00     0.016 A 
ATOM     33  C   UNL A   1      42.228  21.444  27.913  1.00  0.00     0.016 A 
ATOM     34  C   UNL A   1      42.697  23.405  25.989  1.00  0.00     0.010 A 
ATOM     35  C   UNL A   1      42.521  22.758  28.307  1.00  0.00     0.010 A 
ATOM     36  C   UNL A   1      42.776  23.756  27.353  1.00  0.00    -0.014 A 
BRANCH  36  37
ATOM     37  C   UNL A   1      43.007  25.176  27.768  1.00  0.00     0.031 A 
ATOM     38  C   UNL A   1      41.897  26.077  28.255  1.00  0.00     0.074 A 
ATOM     39  C   UNL A   1      44.256  25.679  27.669  1.00  0.00     0.049 A 
ATOM     40  N   UNL A   1      41.964  27.334  28.627  1.00  0.00    -0.248 NA
ATOM     41  C   UNL A   1      40.545  25.506  28.349  1.00  0.00     0.031 C 
ATOM     42  C   UNL A   1      45.420  24.930  27.197  1.00  0.00     0.029 A 
ATOM     43  N   UNL A   1      44.758  26.928  27.949  1.00  0.00    -0.354 N 
ATOM     44  C   UNL A   1      40.674  27.705  28.995  1.00  0.00     0.074 A 
ATOM     45  C   UNL A   1      39.836  26.543  28.782  1.00  0.00     0.031 C 
ATOM     46  C   UNL A   1      46.501  25.716  27.251  1.00  0.00     0.029 A 
ATOM     47  C   UNL A   1      46.102  27.056  27.673  1.00  0.00     0.049 A 
ATOM     48  H   UNL A   1      44.210  27.661  28.311  1.00  0.00     0.167 HD
ATOM     49  C   UNL A   1      40.233  28.898  29.470  1.00  0.00     0.034 A 
ATOM     50  C   UNL A   1      46.927  28.124  27.713  1.00  0.00     0.034 A 
ATOM     51  C   UNL A   1      41.075  30.056  29.674  1.00  0.00     0.049 A 
ATOM     52  C   UNL A   1      46.399  29.452  28.181  1.00  0.00     0.074 A 
ATOM     53  C   UNL A   1      40.712  31.286  30.201  1.00  0.00     0.029 A 
ATOM     54  N   UNL A   1      42.421  30.148  29.357  1.00  0.00    -0.354 N 
ATOM     55  N   UNL A   1      45.195  29.755  28.604  1.00  0.00    -0.248 NA
ATOM     56  C   UNL A   1      47.336  30.586  28.187  1.00  0.00     0.031 C 
ATOM     57  C   UNL A   1      41.807  32.145  30.115  1.00  0.00     0.029 A 
ATOM     58  C   UNL A   1      42.887  31.426  29.632  1.00  0.00     0.049 A 
ATOM     59  H   UNL A   1      42.966  29.416  28.989  1.00  0.00     0.167 HD
ATOM     60  C   UNL A   1      45.238  31.103  28.950  1.00  0.00     0.074 A 
ATOM     61  C   UNL A   1      46.592  31.553  28.710  1.00  0.00     0.031 C 
ATOM     62  C   UNL A   1      44.238  31.888  29.419  1.00  0.00     0.034 A 
BRANCH  49  63
ATOM     63  C   UNL A   1      38.774  29.061  29.839  1.00  0.00     0.023 A 
ATOM     64  C   UNL A   1      37.903  29.753  28.973  1.00  0.00     0.031 A 
ATOM     65  C   UNL A   1      38.308  28.736  31.125  1.00  0.00     0.131 A 
ATOM     66  C   UNL A   1      36.638  30.154  29.425  1.00  0.00     0.055 A 
ATOM     67  C   UNL A   1      37.029  29.099  31.555  1.00  0.00     0.041 A 
ATOM     68  F   UNL A   1      39.099  28.084  31.994  1.00  0.00    -0.206 F 
ATOM     69  C   UNL A   1      36.195  29.827  30.711  1.00  0.00     0.022 A 
BRANCH  66  70
ATOM     70  S   UNL A   1      35.561  31.200  28.405  1.00  0.00     0.124 S 
ATOM     71  O   UNL A   1      34.811  30.203  27.643  1.00  0.00    -0.237 OA
ATOM     72  O   UNL A   1      34.791  31.921  29.413  1.00  0.00    -0.237 OA
ATOM     73  O   UNL A   1      36.492  32.006  27.624  1.00  0.00    -0.744 OA
ENDBRANCH  66  70
ENDBRANCH  49  63
BRANCH  50  74
ATOM     74  C   UNL A   1      48.354  27.943  27.311  1.00  0.00     0.023 A 
ATOM     75  C   UNL A   1      48.760  28.184  25.985  1.00  0.00     0.031 A 
ATOM     76  C   UNL A   1      49.296  27.409  28.203  1.00  0.00     0.131 A 
ATOM     77  C   UNL A   1      50.039  27.801  25.567  1.00  0.00     0.055 A 
ATOM     78  C   UNL A   1      50.601  27.113  27.805  1.00  0.00     0.041 A 
ATOM     79  F   UNL A   1      48.953  27.152  29.475  1.00  0.00    -0.206 F 
ATOM     80  C   UNL A   1      50.970  27.286  26.475  1.00  0.00     0.022 A 
BRANCH  77  81
ATOM     81  S   UNL A   1      50.475  27.796  23.806  1.00  0.00     0.124 S 
ATOM     82  O   UNL A   1      51.197  26.535  23.675  1.00  0.00    -0.237 OA
ATOM     83  O   UNL A   1      49.157  27.839  23.174  1.00  0.00    -0.237 OA
ATOM     84  O   UNL A   1      51.276  29.005  23.646  1.00  0.00    -0.744 OA
ENDBRANCH  77  81
ENDBRANCH  50  74
BRANCH  62  85
ATOM     85  C   UNL A   1      44.527  33.338  29.740  1.00  0.00     0.023 A 
ATOM     86  C   UNL A   1      44.424  34.315  28.728  1.00  0.00     0.031 A 
ATOM     87  C   UNL A   1      45.062  33.726  30.981  1.00  0.00     0.131 A 
ATOM     88  C   UNL A   1      44.903  35.612  28.957  1.00  0.00     0.055 A 
ATOM     89  C   UNL A   1      45.484  35.036  31.221  1.00  0.00     0.041 A 
ATOM     90  F   UNL A   1      45.190  32.835  31.977  1.00  0.00    -0.206 F 
ATOM     91  C   UNL A   1      45.424  35.980  30.201  1.00  0.00     0.022 A 
BRANCH  88  92
ATOM     92  S   UNL A   1      44.958  36.839  27.620  1.00  0.00     0.124 S 
ATOM     93  O   UNL A   1      44.446  36.075  26.486  1.00  0.00    -0.237 OA
ATOM     94  O   UNL A   1      44.067  37.881  28.124  1.00  0.00    -0.237 OA
ATOM     95  O   UNL A   1      46.369  37.205  27.535  1.00  0.00    -0.744 OA
ENDBRANCH  88  92
ENDBRANCH  62  85
ENDBRANCH  36  37
ENDBRANCH  29  31
ENDBRANCH  28  29
ENDBRANCH  27  28
ENDBRANCH  26  27
ENDBRANCH  25  26
ENDBRANCH   1  25
TORSDOF 23
ENDMDL
MODEL 3
REMARK VINA RESULT:      -9.7      2.517      2.945
REMARK SMILES CC(C)C[C@@H](NC(=O)Cn1nc(O)ccc1=O)C(=O)OCCOCCOC(=O)c1ccc(-c2c3nc(c(-c4cc(S(=O)(=O)[O-])ccc4F)c4ccc([nH]4)c(-c4cc(S(=O)(=O)[O-])ccc4F)c4nc(c(-c5cc(S(=O)(=O)[O-])ccc5F)c5ccc2[nH]5)C=C4)C=C3)cc1
REMARK SMILES IDX 22 1 21 2 20 3 18 4 19 5 5 6 4 7 2 8 1 9 3 10 6 11 7 12 8 14
REMARK SMILES IDX 9 15 10 16 11 17 16 18 12 19 15 20 17 21 14 22 13 23 23 25
REMARK SMILES IDX 24 26 25 27 26 28 27 29 28 30 29 31 30 32 91 33 31 34 90 35
REMARK SMILES IDX 32 36 33 37 34 38 84 39 35 40 89 41 83 42 85 43 36 44 88 45
REMARK SMILES IDX 82 46 81 47 37 49 69 50 49 51 68 52 50 53 53 54 67 55 86 56
REMARK SMILES IDX 51 57 52 58 66 60 87 61 54 62 38 63 39 64 47 65 40 66 46 67
REMARK SMILES IDX 48 68 45 69 41 70 42 71 43 72 44 73 70 74 71 75 79 76 72 77
REMARK SMILES IDX 78 78 80 79 77 80 73 81 74 82 75 83 76 84 55 85 56 86 64 87
REMARK SMILES IDX 57 88 63 89 65 90 62 91 58 92 59 93 60 94 61 95
REMARK H PARENT 6 13 13 24 85 48 53 59
REMARK Flexibility Score: inf
ROOT
ATOM      1  C   UNL A   1      33.040  27.798  26.839  1.00  0.00     0.202 C 
ENDROOT
BRANCH   1   2
ATOM      2  C   UNL A   1      32.789  26.482  26.062  1.00  0.00     0.261 C 
BRANCH   2   3
ATOM      3  O   UNL A   1      32.475  25.306  26.848  1.00  0.00    -0.462 OA
BRANCH   3   4
ATOM      4  C   UNL A   1      32.947  24.101  26.469  1.00  0.00     0.328 C 
ATOM      5  O   UNL A   1      32.405  23.033  26.739  1.00  0.00    -0.250 OA
BRANCH   4   6
ATOM      6  C   UNL A   1      34.177  24.178  25.518  1.00  0.00     0.192 C 
BRANCH   6   7
ATOM      7  C   UNL A   1      35.443  23.538  26.141  1.00  0.00     0.040 C 
BRANCH   7   8
ATOM      8  C   UNL A   1      36.738  23.597  25.299  1.00  0.00    -0.015 C 
ATOM      9  C   UNL A   1      37.941  24.074  26.108  1.00  0.00     0.007 C 
ATOM     10  C   UNL A   1      37.043  22.202  24.728  1.00  0.00     0.007 C 
ENDBRANCH   7   8
ENDBRANCH   6   7
BRANCH   6  11
ATOM     11  N   UNL A   1      34.075  23.908  24.070  1.00  0.00    -0.341 N 
ATOM     12  C   UNL A   1      33.523  22.974  23.257  1.00  0.00     0.242 C 
ATOM     13  H   UNL A   1      34.540  24.601  23.547  1.00  0.00     0.164 HD
ATOM     14  O   UNL A   1      33.999  22.943  22.113  1.00  0.00    -0.273 OA
BRANCH  12  15
ATOM     15  C   UNL A   1      32.379  22.042  23.633  1.00  0.00     0.248 C 
BRANCH  15  16
ATOM     16  N   UNL A   1      32.701  20.624  23.589  1.00  0.00    -0.217 N 
ATOM     17  N   UNL A   1      32.103  19.857  22.601  1.00  0.00    -0.131 NA
ATOM     18  C   UNL A   1      33.533  20.086  24.547  1.00  0.00     0.267 A 
ATOM     19  C   UNL A   1      32.354  18.596  22.649  1.00  0.00     0.229 A 
ATOM     20  C   UNL A   1      33.769  18.643  24.506  1.00  0.00     0.079 A 
ATOM     21  O   UNL A   1      34.109  20.718  25.421  1.00  0.00    -0.268 OA
ATOM     22  C   UNL A   1      33.170  17.871  23.605  1.00  0.00     0.075 A 
BRANCH  19  23
ATOM     23  O   UNL A   1      31.863  17.771  21.725  1.00  0.00    -0.492 OA
ATOM     24  H   UNL A   1      30.988  17.888  21.409  1.00  0.00     0.295 HD
ENDBRANCH  19  23
ENDBRANCH  15  16
ENDBRANCH  12  15
ENDBRANCH   6  11
ENDBRANCH   4   6
ENDBRANCH   3   4
ENDBRANCH   2   3
ENDBRANCH   1   2
BRANCH   1  25
ATOM     25  O   UNL A   1      31.958  28.733  26.801  1.00  0.00    -0.374 OA
BRANCH  25  26
ATOM     26  C   UNL A   1      32.220  29.914  26.045  1.00  0.00     0.202 C 
BRANCH  26  27
ATOM     27  C   UNL A   1      32.515  31.157  26.886  1.00  0.00     0.261 C 
BRANCH  27  28
ATOM     28  O   UNL A   1      33.592  30.936  27.815  1.00  0.00    -0.460 OA
BRANCH  28  29
ATOM     29  C   UNL A   1      34.530  31.915  27.881  1.00  0.00     0.338 C 
ATOM     30  O   UNL A   1      34.376  33.102  27.679  1.00  0.00    -0.246 OA
BRANCH  29  31
ATOM     31  C   UNL A   1      35.795  31.311  28.356  1.00  0.00     0.060 A 
ATOM     32  C   UNL A   1      36.987  32.041  28.368  1.00  0.00     0.016 A 
ATOM     33  C   UNL A   1      35.790  29.977  28.770  1.00  0.00     0.016 A 
ATOM     34  C   UNL A   1      38.183  31.405  28.724  1.00  0.00     0.010 A 
ATOM     35  C   UNL A   1      36.984  29.359  29.171  1.00  0.00     0.010 A 
ATOM     36  C   UNL A   1      38.201  30.056  29.139  1.00  0.00    -0.014 A 
BRANCH  36  37
ATOM     37  C   UNL A   1      39.462  29.427  29.643  1.00  0.00     0.031 A 
ATOM     38  C   UNL A   1      40.119  28.248  28.962  1.00  0.00     0.074 A 
ATOM     39  C   UNL A   1      40.015  29.914  30.775  1.00  0.00     0.049 A 
ATOM     40  N   UNL A   1      41.204  27.600  29.311  1.00  0.00    -0.248 NA
ATOM     41  C   UNL A   1      39.493  27.734  27.735  1.00  0.00     0.031 C 
ATOM     42  C   UNL A   1      39.480  31.035  31.547  1.00  0.00     0.029 A 
ATOM     43  N   UNL A   1      41.136  29.534  31.476  1.00  0.00    -0.354 N 
ATOM     44  C   UNL A   1      41.393  26.606  28.356  1.00  0.00     0.074 A 
ATOM     45  C   UNL A   1      40.295  26.721  27.420  1.00  0.00     0.031 C 
ATOM     46  C   UNL A   1      40.284  31.274  32.590  1.00  0.00     0.029 A 
ATOM     47  C   UNL A   1      41.345  30.271  32.621  1.00  0.00     0.049 A 
ATOM     48  H   UNL A   1      41.732  28.806  31.187  1.00  0.00     0.167 HD
ATOM     49  C   UNL A   1      42.390  25.687  28.267  1.00  0.00     0.034 A 
ATOM     50  C   UNL A   1      42.254  30.149  33.611  1.00  0.00     0.034 A 
ATOM     51  C   UNL A   1      43.480  25.572  29.209  1.00  0.00     0.049 A 
ATOM     52  C   UNL A   1      43.309  29.081  33.522  1.00  0.00     0.074 A 
ATOM     53  C   UNL A   1      44.558  24.702  29.158  1.00  0.00     0.029 A 
ATOM     54  N   UNL A   1      43.636  26.320  30.366  1.00  0.00    -0.354 N 
ATOM     55  N   UNL A   1      43.516  28.208  32.566  1.00  0.00    -0.248 NA
ATOM     56  C   UNL A   1      44.262  28.981  34.637  1.00  0.00     0.031 C 
ATOM     57  C   UNL A   1      45.308  24.856  30.323  1.00  0.00     0.029 A 
ATOM     58  C   UNL A   1      44.762  25.896  31.057  1.00  0.00     0.049 A 
ATOM     59  H   UNL A   1      43.036  27.045  30.655  1.00  0.00     0.167 HD
ATOM     60  C   UNL A   1      44.635  27.475  32.952  1.00  0.00     0.074 A 
ATOM     61  C   UNL A   1      45.076  28.021  34.216  1.00  0.00     0.031 C 
ATOM     62  C   UNL A   1      45.231  26.441  32.309  1.00  0.00     0.034 A 
BRANCH  49  63
ATOM     63  C   UNL A   1      42.406  24.714  27.107  1.00  0.00     0.023 A 
ATOM     64  C   UNL A   1      41.816  23.441  27.250  1.00  0.00     0.031 A 
ATOM     65  C   UNL A   1      43.187  24.956  25.963  1.00  0.00     0.131 A 
ATOM     66  C   UNL A   1      42.069  22.442  26.301  1.00  0.00     0.055 A 
ATOM     67  C   UNL A   1      43.399  23.970  24.997  1.00  0.00     0.041 A 
ATOM     68  F   UNL A   1      43.778  26.149  25.781  1.00  0.00    -0.206 F 
ATOM     69  C   UNL A   1      42.854  22.701  25.173  1.00  0.00     0.022 A 
BRANCH  66  70
ATOM     70  S   UNL A   1      41.477  20.742  26.541  1.00  0.00     0.124 S 
ATOM     71  O   UNL A   1      41.949  20.450  27.894  1.00  0.00    -0.237 OA
ATOM     72  O   UNL A   1      40.032  20.899  26.406  1.00  0.00    -0.237 OA
ATOM     73  O   UNL A   1      42.134  19.988  25.479  1.00  0.00    -0.744 OA
ENDBRANCH  66  70
ENDBRANCH  49  63
BRANCH  50  74
ATOM     74  C   UNL A   1      42.194  31.101  34.761  1.00  0.00     0.023 A 
ATOM     75  C   UNL A   1      42.864  32.337  34.702  1.00  0.00     0.031 A 
ATOM     76  C   UNL A   1      41.581  30.738  35.970  1.00  0.00     0.131 A 
ATOM     77  C   UNL A   1      42.987  33.118  35.857  1.00  0.00     0.055 A 
ATOM     78  C   UNL A   1      41.628  31.564  37.095  1.00  0.00     0.041 A 
ATOM     79  F   UNL A   1      40.940  29.565  36.078  1.00  0.00    -0.206 F 
ATOM     80  C   UNL A   1      42.355  32.749  37.048  1.00  0.00     0.022 A 
BRANCH  77  81
ATOM     81  S   UNL A   1      44.112  34.541  35.895  1.00  0.00     0.124 S 
ATOM     82  O   UNL A   1      45.016  34.186  36.983  1.00  0.00    -0.237 OA
ATOM     83  O   UNL A   1      44.690  34.499  34.552  1.00  0.00    -0.237 OA
ATOM     84  O   UNL A   1      43.227  35.673  36.150  1.00  0.00    -0.744 OA
ENDBRANCH  77  81
ENDBRANCH  50  74
BRANCH  62  85
ATOM     85  C   UNL A   1      46.457  25.800  32.922  1.00  0.00     0.023 A 
ATOM     86  C   UNL A   1      47.735  26.095  32.405  1.00  0.00     0.031 A 
ATOM     87  C   UNL A   1      46.353  24.785  33.889  1.00  0.00     0.131 A 
ATOM     88  C   UNL A   1      48.846  25.343  32.814  1.00  0.00     0.055 A 
ATOM     89  C   UNL A   1      47.472  24.079  34.335  1.00  0.00     0.041 A 
ATOM     90  F   UNL A   1      45.159  24.459  34.409  1.00  0.00    -0.206 F 
ATOM     91  C   UNL A   1      48.722  24.343  33.783  1.00  0.00     0.022 A 
BRANCH  88  92
ATOM     92  S   UNL A   1      50.468  25.569  32.033  1.00  0.00     0.124 S 
ATOM     93  O   UNL A   1      50.529  24.427  31.125  1.00  0.00    -0.237 OA
ATOM     94  O   UNL A   1      50.319  26.871  31.388  1.00  0.00    -0.237 OA
ATOM     95  O   UNL A   1      51.407  25.523  33.150  1.00  0.00    -0.744 OA
ENDBRANCH  88  92
ENDBRANCH  62  85
ENDBRANCH  36  37
ENDBRANCH  29  31
ENDBRANCH  28  29
ENDBRANCH  27  28
ENDBRANCH  26  27
ENDBRANCH  25  26
ENDBRANCH   1  25
TORSDOF 23
ENDMDL
