MODEL 1
REMARK VINA RESULT:     -10.1      0.000      0.000
REMARK SMILES CC[C@H](C)[C@H](NC(=O)CCl)C(=O)OCCOCCOC(=O)c1ccc(-c2c3nc(c(-c4cc(S(=O)(=O)[O-])ccc4F)c4ccc([nH]4)c(-c4cc(S(=O)(=O)[O-])ccc4F)c4nc(c(-c5cc(S(=O)(=O)[O-])ccc5F)c5ccc2[nH]5)C=C4)C=C3)cc1
REMARK SMILES IDX 17 1 16 2 15 3 14 4 13 5 11 6 12 7 5 8 3 9 4 10 2 11 1 12
REMARK SMILES IDX 6 13 7 14 8 16 9 17 10 18 18 19 19 20 20 21 21 22 22 23
REMARK SMILES IDX 23 24 84 25 24 26 83 27 25 28 26 29 27 30 77 31 28 32 82 33
REMARK SMILES IDX 76 34 78 35 29 36 81 37 75 38 74 39 30 41 62 42 42 43 61 44
REMARK SMILES IDX 43 45 46 46 60 47 79 48 44 49 45 50 59 52 80 53 47 54 31 55
REMARK SMILES IDX 32 56 40 57 33 58 39 59 41 60 38 61 34 62 35 63 36 64 37 65
REMARK SMILES IDX 63 66 64 67 72 68 65 69 71 70 73 71 70 72 66 73 67 74 68 75
REMARK SMILES IDX 69 76 48 77 49 78 57 79 50 80 56 81 58 82 55 83 51 84 52 85
REMARK SMILES IDX 53 86 54 87
REMARK H PARENT 6 15 78 40 46 51
REMARK Flexibility Score: inf
ROOT
ATOM      1  C   UNL A   1      35.391  20.993  25.380  1.00  0.00     0.202 C 
ENDROOT
BRANCH   1   2
ATOM      2  O   UNL A   1      34.308  20.331  24.733  1.00  0.00    -0.374 OA
BRANCH   2   3
ATOM      3  C   UNL A   1      33.120  20.171  25.513  1.00  0.00     0.202 C 
BRANCH   3   4
ATOM      4  C   UNL A   1      32.162  21.359  25.427  1.00  0.00     0.261 C 
BRANCH   4   5
ATOM      5  O   UNL A   1      32.809  22.569  25.896  1.00  0.00    -0.462 OA
BRANCH   5   6
ATOM      6  C   UNL A   1      31.989  23.595  26.249  1.00  0.00     0.328 C 
ATOM      7  O   UNL A   1      31.246  23.574  27.224  1.00  0.00    -0.250 OA
BRANCH   6   8
ATOM      8  C   UNL A   1      31.911  24.702  25.165  1.00  0.00     0.195 C 
BRANCH   8   9
ATOM      9  C   UNL A   1      30.590  25.547  25.279  1.00  0.00     0.019 C 
ATOM     10  C   UNL A   1      30.760  26.837  26.096  1.00  0.00     0.010 C 
BRANCH   9  11
ATOM     11  C   UNL A   1      29.829  25.838  23.971  1.00  0.00     0.002 C 
ATOM     12  C   UNL A   1      29.684  27.304  23.598  1.00  0.00     0.004 C 
ENDBRANCH   9  11
ENDBRANCH   8   9
BRANCH   8  13
ATOM     13  N   UNL A   1      32.412  24.596  23.780  1.00  0.00    -0.341 N 
ATOM     14  C   UNL A   1      33.321  25.277  23.035  1.00  0.00     0.235 C 
ATOM     15  H   UNL A   1      31.990  23.861  23.280  1.00  0.00     0.164 HD
ATOM     16  O   UNL A   1      34.086  24.625  22.322  1.00  0.00    -0.274 OA
BRANCH  14  17
ATOM     17  C   UNL A   1      33.224  26.770  22.913  1.00  0.00     0.209 C 
ATOM     18  Cl  UNL A   1      33.933  27.455  24.405  1.00  0.00    -0.116 Cl
ENDBRANCH  14  17
ENDBRANCH   8  13
ENDBRANCH   6   8
ENDBRANCH   5   6
ENDBRANCH   4   5
ENDBRANCH   3   4
ENDBRANCH   2   3
ENDBRANCH   1   2
BRANCH   1  19
ATOM     19  C   UNL A   1      36.770  20.375  25.095  1.00  0.00     0.261 C 
BRANCH  19  20
ATOM     20  O   UNL A   1      37.810  21.370  25.006  1.00  0.00    -0.460 OA
BRANCH  20  21
ATOM     21  C   UNL A   1      38.871  21.113  25.811  1.00  0.00     0.338 C 
ATOM     22  O   UNL A   1      39.482  20.053  25.889  1.00  0.00    -0.246 OA
BRANCH  21  23
ATOM     23  C   UNL A   1      39.355  22.330  26.490  1.00  0.00     0.060 A 
ATOM     24  C   UNL A   1      38.765  23.535  26.090  1.00  0.00     0.016 A 
ATOM     25  C   UNL A   1      40.430  22.335  27.384  1.00  0.00     0.016 A 
ATOM     26  C   UNL A   1      39.307  24.750  26.496  1.00  0.00     0.010 A 
ATOM     27  C   UNL A   1      40.970  23.563  27.800  1.00  0.00     0.010 A 
ATOM     28  C   UNL A   1      40.449  24.776  27.308  1.00  0.00    -0.014 A 
BRANCH  28  29
ATOM     29  C   UNL A   1      41.175  26.067  27.455  1.00  0.00     0.031 A 
ATOM     30  C   UNL A   1      40.547  27.172  28.270  1.00  0.00     0.074 A 
ATOM     31  C   UNL A   1      42.427  26.214  26.983  1.00  0.00     0.049 A 
ATOM     32  N   UNL A   1      41.018  28.355  28.571  1.00  0.00    -0.248 NA
ATOM     33  C   UNL A   1      39.213  26.899  28.824  1.00  0.00     0.031 C 
ATOM     34  C   UNL A   1      43.171  25.197  26.242  1.00  0.00     0.029 A 
ATOM     35  N   UNL A   1      43.303  27.269  27.075  1.00  0.00    -0.354 N 
ATOM     36  C   UNL A   1      40.041  28.967  29.352  1.00  0.00     0.074 A 
ATOM     37  C   UNL A   1      38.932  28.041  29.433  1.00  0.00     0.031 C 
ATOM     38  C   UNL A   1      44.393  25.673  25.954  1.00  0.00     0.029 A 
ATOM     39  C   UNL A   1      44.507  27.045  26.449  1.00  0.00     0.049 A 
ATOM     40  H   UNL A   1      43.088  28.107  27.544  1.00  0.00     0.167 HD
ATOM     41  C   UNL A   1      40.072  30.179  29.961  1.00  0.00     0.034 A 
ATOM     42  C   UNL A   1      45.569  27.857  26.273  1.00  0.00     0.034 A 
ATOM     43  C   UNL A   1      41.181  31.098  29.868  1.00  0.00     0.049 A 
ATOM     44  C   UNL A   1      45.540  29.244  26.870  1.00  0.00     0.074 A 
ATOM     45  C   UNL A   1      41.310  32.354  30.436  1.00  0.00     0.029 A 
ATOM     46  N   UNL A   1      42.351  30.866  29.156  1.00  0.00    -0.354 N 
ATOM     47  N   UNL A   1      44.601  29.815  27.588  1.00  0.00    -0.248 NA
ATOM     48  C   UNL A   1      46.717  30.092  26.638  1.00  0.00     0.031 C 
ATOM     49  C   UNL A   1      42.517  32.911  30.004  1.00  0.00     0.029 A 
ATOM     50  C   UNL A   1      43.188  31.968  29.242  1.00  0.00     0.049 A 
ATOM     51  H   UNL A   1      42.555  30.039  28.662  1.00  0.00     0.167 HD
ATOM     52  C   UNL A   1      45.090  31.078  27.919  1.00  0.00     0.074 A 
ATOM     53  C   UNL A   1      46.410  31.176  27.334  1.00  0.00     0.031 C 
ATOM     54  C   UNL A   1      44.501  32.065  28.643  1.00  0.00     0.034 A 
BRANCH  41  55
ATOM     55  C   UNL A   1      38.845  30.598  30.737  1.00  0.00     0.023 A 
ATOM     56  C   UNL A   1      37.848  31.411  30.169  1.00  0.00     0.031 A 
ATOM     57  C   UNL A   1      38.681  30.201  32.077  1.00  0.00     0.131 A 
ATOM     58  C   UNL A   1      36.773  31.856  30.955  1.00  0.00     0.055 A 
ATOM     59  C   UNL A   1      37.567  30.578  32.828  1.00  0.00     0.041 A 
ATOM     60  F   UNL A   1      39.611  29.446  32.684  1.00  0.00    -0.206 F 
ATOM     61  C   UNL A   1      36.611  31.422  32.273  1.00  0.00     0.022 A 
BRANCH  58  62
ATOM     62  S   UNL A   1      35.669  33.127  30.278  1.00  0.00     0.124 S 
ATOM     63  O   UNL A   1      36.511  33.728  29.247  1.00  0.00    -0.237 OA
ATOM     64  O   UNL A   1      34.537  32.341  29.802  1.00  0.00    -0.237 OA
ATOM     65  O   UNL A   1      35.393  33.988  31.426  1.00  0.00    -0.744 OA
ENDBRANCH  58  62
ENDBRANCH  41  55
BRANCH  42  66
ATOM     66  C   UNL A   1      46.733  27.405  25.453  1.00  0.00     0.023 A 
ATOM     67  C   UNL A   1      46.942  27.875  24.147  1.00  0.00     0.031 A 
ATOM     68  C   UNL A   1      47.629  26.444  25.958  1.00  0.00     0.131 A 
ATOM     69  C   UNL A   1      47.995  27.353  23.377  1.00  0.00     0.055 A 
ATOM     70  C   UNL A   1      48.707  25.971  25.210  1.00  0.00     0.041 A 
ATOM     71  F   UNL A   1      47.472  25.954  27.199  1.00  0.00    -0.206 F 
ATOM     72  C   UNL A   1      48.888  26.418  23.905  1.00  0.00     0.022 A 
BRANCH  69  73
ATOM     73  S   UNL A   1      48.132  27.849  21.637  1.00  0.00     0.124 S 
ATOM     74  O   UNL A   1      48.415  26.574  20.987  1.00  0.00    -0.237 OA
ATOM     75  O   UNL A   1      46.814  28.421  21.382  1.00  0.00    -0.237 OA
ATOM     76  O   UNL A   1      49.235  28.807  21.642  1.00  0.00    -0.744 OA
ENDBRANCH  69  73
ENDBRANCH  42  66
BRANCH  54  77
ATOM     77  C   UNL A   1      45.304  33.323  28.883  1.00  0.00     0.023 A 
ATOM     78  C   UNL A   1      45.262  34.411  27.995  1.00  0.00     0.031 A 
ATOM     79  C   UNL A   1      46.129  33.429  30.017  1.00  0.00     0.131 A 
ATOM     80  C   UNL A   1      46.074  35.533  28.224  1.00  0.00     0.055 A 
ATOM     81  C   UNL A   1      46.884  34.574  30.276  1.00  0.00     0.041 A 
ATOM     82  F   UNL A   1      46.213  32.419  30.899  1.00  0.00    -0.206 F 
ATOM     83  C   UNL A   1      46.870  35.629  29.368  1.00  0.00     0.022 A 
BRANCH  80  84
ATOM     84  S   UNL A   1      46.156  36.825  26.953  1.00  0.00     0.124 S 
ATOM     85  O   UNL A   1      47.166  37.725  27.500  1.00  0.00    -0.237 OA
ATOM     86  O   UNL A   1      46.548  36.072  25.767  1.00  0.00    -0.237 OA
ATOM     87  O   UNL A   1      44.797  37.364  26.923  1.00  0.00    -0.744 OA
ENDBRANCH  80  84
ENDBRANCH  54  77
ENDBRANCH  28  29
ENDBRANCH  21  23
ENDBRANCH  20  21
ENDBRANCH  19  20
ENDBRANCH   1  19
TORSDOF 21
ENDMDL
MODEL 2
REMARK VINA RESULT:     -10.0      5.087      8.107
REMARK SMILES CC[C@H](C)[C@H](NC(=O)CCl)C(=O)OCCOCCOC(=O)c1ccc(-c2c3nc(c(-c4cc(S(=O)(=O)[O-])ccc4F)c4ccc([nH]4)c(-c4cc(S(=O)(=O)[O-])ccc4F)c4nc(c(-c5cc(S(=O)(=O)[O-])ccc5F)c5ccc2[nH]5)C=C4)C=C3)cc1
REMARK SMILES IDX 17 1 16 2 15 3 14 4 13 5 11 6 12 7 5 8 3 9 4 10 2 11 1 12
REMARK SMILES IDX 6 13 7 14 8 16 9 17 10 18 18 19 19 20 20 21 21 22 22 23
REMARK SMILES IDX 23 24 84 25 24 26 83 27 25 28 26 29 27 30 77 31 28 32 82 33
REMARK SMILES IDX 76 34 78 35 29 36 81 37 75 38 74 39 30 41 62 42 42 43 61 44
REMARK SMILES IDX 43 45 46 46 60 47 79 48 44 49 45 50 59 52 80 53 47 54 31 55
REMARK SMILES IDX 32 56 40 57 33 58 39 59 41 60 38 61 34 62 35 63 36 64 37 65
REMARK SMILES IDX 63 66 64 67 72 68 65 69 71 70 73 71 70 72 66 73 67 74 68 75
REMARK SMILES IDX 69 76 48 77 49 78 57 79 50 80 56 81 58 82 55 83 51 84 52 85
REMARK SMILES IDX 53 86 54 87
REMARK H PARENT 6 15 78 40 46 51
REMARK Flexibility Score: inf
ROOT
ATOM      1  C   UNL A   1      31.484  31.121  26.483  1.00  0.00     0.202 C 
ENDROOT
BRANCH   1   2
ATOM      2  O   UNL A   1      32.786  30.668  26.123  1.00  0.00    -0.374 OA
BRANCH   2   3
ATOM      3  C   UNL A   1      32.859  29.346  25.581  1.00  0.00     0.202 C 
BRANCH   3   4
ATOM      4  C   UNL A   1      33.722  28.390  26.404  1.00  0.00     0.261 C 
BRANCH   4   5
ATOM      5  O   UNL A   1      33.351  27.014  26.140  1.00  0.00    -0.462 OA
BRANCH   5   6
ATOM      6  C   UNL A   1      32.064  26.672  26.414  1.00  0.00     0.328 C 
ATOM      7  O   UNL A   1      31.427  27.106  27.368  1.00  0.00    -0.250 OA
BRANCH   6   8
ATOM      8  C   UNL A   1      31.555  25.496  25.538  1.00  0.00     0.195 C 
BRANCH   8   9
ATOM      9  C   UNL A   1      31.187  25.960  24.083  1.00  0.00     0.019 C 
ATOM     10  C   UNL A   1      32.136  25.409  23.008  1.00  0.00     0.010 C 
BRANCH   9  11
ATOM     11  C   UNL A   1      29.720  25.787  23.641  1.00  0.00     0.002 C 
ATOM     12  C   UNL A   1      28.850  27.031  23.721  1.00  0.00     0.004 C 
ENDBRANCH   9  11
ENDBRANCH   8   9
BRANCH   8  13
ATOM     13  N   UNL A   1      30.739  24.357  26.006  1.00  0.00    -0.341 N 
ATOM     14  C   UNL A   1      30.941  23.323  26.864  1.00  0.00     0.235 C 
ATOM     15  H   UNL A   1      29.842  24.344  25.604  1.00  0.00     0.164 HD
ATOM     16  O   UNL A   1      30.026  23.031  27.637  1.00  0.00    -0.274 OA
BRANCH  14  17
ATOM     17  C   UNL A   1      32.137  22.433  26.700  1.00  0.00     0.209 C 
ATOM     18  Cl  UNL A   1      31.881  21.500  25.195  1.00  0.00    -0.116 Cl
ENDBRANCH  14  17
ENDBRANCH   8  13
ENDBRANCH   6   8
ENDBRANCH   5   6
ENDBRANCH   4   5
ENDBRANCH   3   4
ENDBRANCH   2   3
ENDBRANCH   1   2
BRANCH   1  19
ATOM     19  C   UNL A   1      31.432  32.579  26.967  1.00  0.00     0.261 C 
BRANCH  19  20
ATOM     20  O   UNL A   1      32.699  33.252  26.820  1.00  0.00    -0.460 OA
BRANCH  20  21
ATOM     21  C   UNL A   1      33.285  33.559  28.003  1.00  0.00     0.338 C 
ATOM     22  O   UNL A   1      32.772  34.179  28.929  1.00  0.00    -0.246 OA
BRANCH  21  23
ATOM     23  C   UNL A   1      34.597  32.901  28.154  1.00  0.00     0.060 A 
ATOM     24  C   UNL A   1      34.573  31.570  28.584  1.00  0.00     0.016 A 
ATOM     25  C   UNL A   1      35.815  33.575  28.016  1.00  0.00     0.016 A 
ATOM     26  C   UNL A   1      35.748  30.938  28.977  1.00  0.00     0.010 A 
ATOM     27  C   UNL A   1      37.001  32.932  28.405  1.00  0.00     0.010 A 
ATOM     28  C   UNL A   1      36.966  31.632  28.945  1.00  0.00    -0.014 A 
BRANCH  28  29
ATOM     29  C   UNL A   1      38.129  31.040  29.662  1.00  0.00     0.031 A 
ATOM     30  C   UNL A   1      38.360  31.404  31.108  1.00  0.00     0.074 A 
ATOM     31  C   UNL A   1      38.891  30.095  29.081  1.00  0.00     0.049 A 
ATOM     32  N   UNL A   1      39.275  30.974  31.939  1.00  0.00    -0.248 NA
ATOM     33  C   UNL A   1      37.429  32.380  31.695  1.00  0.00     0.031 C 
ATOM     34  C   UNL A   1      38.725  29.604  27.714  1.00  0.00     0.029 A 
ATOM     35  N   UNL A   1      39.945  29.364  29.574  1.00  0.00    -0.354 N 
ATOM     36  C   UNL A   1      39.028  31.623  33.147  1.00  0.00     0.074 A 
ATOM     37  C   UNL A   1      37.909  32.512  32.922  1.00  0.00     0.031 C 
ATOM     38  C   UNL A   1      39.638  28.647  27.481  1.00  0.00     0.029 A 
ATOM     39  C   UNL A   1      40.484  28.486  28.662  1.00  0.00     0.049 A 
ATOM     40  H   UNL A   1      40.283  29.459  30.494  1.00  0.00     0.167 HD
ATOM     41  C   UNL A   1      39.662  31.477  34.338  1.00  0.00     0.034 A 
ATOM     42  C   UNL A   1      41.550  27.665  28.759  1.00  0.00     0.034 A 
ATOM     43  C   UNL A   1      40.782  30.591  34.550  1.00  0.00     0.049 A 
ATOM     44  C   UNL A   1      42.308  27.596  30.063  1.00  0.00     0.074 A 
ATOM     45  C   UNL A   1      41.503  30.376  35.712  1.00  0.00     0.029 A 
ATOM     46  N   UNL A   1      41.350  29.778  33.578  1.00  0.00    -0.354 N 
ATOM     47  N   UNL A   1      42.075  28.230  31.189  1.00  0.00    -0.248 NA
ATOM     48  C   UNL A   1      43.469  26.696  30.110  1.00  0.00     0.031 C 
ATOM     49  C   UNL A   1      42.552  29.498  35.423  1.00  0.00     0.029 A 
ATOM     50  C   UNL A   1      42.433  29.089  34.105  1.00  0.00     0.049 A 
ATOM     51  H   UNL A   1      41.032  29.702  32.649  1.00  0.00     0.167 HD
ATOM     52  C   UNL A   1      43.043  27.780  32.087  1.00  0.00     0.074 A 
ATOM     53  C   UNL A   1      43.849  26.812  31.374  1.00  0.00     0.031 C 
ATOM     54  C   UNL A   1      43.242  28.133  33.383  1.00  0.00     0.034 A 
BRANCH  41  55
ATOM     55  C   UNL A   1      39.189  32.336  35.487  1.00  0.00     0.023 A 
ATOM     56  C   UNL A   1      39.609  33.669  35.641  1.00  0.00     0.031 A 
ATOM     57  C   UNL A   1      38.323  31.806  36.461  1.00  0.00     0.131 A 
ATOM     58  C   UNL A   1      39.221  34.401  36.775  1.00  0.00     0.055 A 
ATOM     59  C   UNL A   1      37.873  32.566  37.542  1.00  0.00     0.041 A 
ATOM     60  F   UNL A   1      37.906  30.532  36.383  1.00  0.00    -0.206 F 
ATOM     61  C   UNL A   1      38.334  33.868  37.713  1.00  0.00     0.022 A 
BRANCH  58  62
ATOM     62  S   UNL A   1      40.010  36.005  37.085  1.00  0.00     0.124 S 
ATOM     63  O   UNL A   1      39.779  36.696  35.818  1.00  0.00    -0.237 OA
ATOM     64  O   UNL A   1      39.264  36.507  38.233  1.00  0.00    -0.237 OA
ATOM     65  O   UNL A   1      41.404  35.656  37.350  1.00  0.00    -0.744 OA
ENDBRANCH  58  62
ENDBRANCH  41  55
BRANCH  42  66
ATOM     66  C   UNL A   1      42.001  26.878  27.573  1.00  0.00     0.023 A 
ATOM     67  C   UNL A   1      41.790  25.493  27.483  1.00  0.00     0.031 A 
ATOM     68  C   UNL A   1      42.707  27.505  26.529  1.00  0.00     0.131 A 
ATOM     69  C   UNL A   1      42.314  24.775  26.394  1.00  0.00     0.055 A 
ATOM     70  C   UNL A   1      43.175  26.797  25.422  1.00  0.00     0.041 A 
ATOM     71  F   UNL A   1      42.944  28.826  26.567  1.00  0.00    -0.206 F 
ATOM     72  C   UNL A   1      42.990  25.421  25.356  1.00  0.00     0.022 A 
BRANCH  69  73
ATOM     73  S   UNL A   1      42.177  22.966  26.395  1.00  0.00     0.124 S 
ATOM     74  O   UNL A   1      43.199  22.592  27.366  1.00  0.00    -0.237 OA
ATOM     75  O   UNL A   1      40.793  22.769  26.811  1.00  0.00    -0.237 OA
ATOM     76  O   UNL A   1      42.467  22.602  25.010  1.00  0.00    -0.744 OA
ENDBRANCH  69  73
ENDBRANCH  42  66
BRANCH  54  77
ATOM     77  C   UNL A   1      44.353  27.431  34.129  1.00  0.00     0.023 A 
ATOM     78  C   UNL A   1      44.156  26.191  34.761  1.00  0.00     0.031 A 
ATOM     79  C   UNL A   1      45.629  28.017  34.214  1.00  0.00     0.131 A 
ATOM     80  C   UNL A   1      45.199  25.606  35.497  1.00  0.00     0.055 A 
ATOM     81  C   UNL A   1      46.682  27.400  34.890  1.00  0.00     0.041 A 
ATOM     82  F   UNL A   1      45.876  29.203  33.633  1.00  0.00    -0.206 F 
ATOM     83  C   UNL A   1      46.465  26.194  35.550  1.00  0.00     0.022 A 
BRANCH  80  84
ATOM     84  S   UNL A   1      44.850  24.117  36.473  1.00  0.00     0.124 S 
ATOM     85  O   UNL A   1      44.700  24.664  37.817  1.00  0.00    -0.237 OA
ATOM     86  O   UNL A   1      43.631  23.614  35.849  1.00  0.00    -0.237 OA
ATOM     87  O   UNL A   1      46.037  23.288  36.270  1.00  0.00    -0.744 OA
ENDBRANCH  80  84
ENDBRANCH  54  77
ENDBRANCH  28  29
ENDBRANCH  21  23
ENDBRANCH  20  21
ENDBRANCH  19  20
ENDBRANCH   1  19
TORSDOF 21
ENDMDL
MODEL 3
REMARK VINA RESULT:      -9.9      1.402      7.957
REMARK SMILES CC[C@H](C)[C@H](NC(=O)CCl)C(=O)OCCOCCOC(=O)c1ccc(-c2c3nc(c(-c4cc(S(=O)(=O)[O-])ccc4F)c4ccc([nH]4)c(-c4cc(S(=O)(=O)[O-])ccc4F)c4nc(c(-c5cc(S(=O)(=O)[O-])ccc5F)c5ccc2[nH]5)C=C4)C=C3)cc1
REMARK SMILES IDX 17 1 16 2 15 3 14 4 13 5 11 6 12 7 5 8 3 9 4 10 2 11 1 12
REMARK SMILES IDX 6 13 7 14 8 16 9 17 10 18 18 19 19 20 20 21 21 22 22 23
REMARK SMILES IDX 23 24 84 25 24 26 83 27 25 28 26 29 27 30 77 31 28 32 82 33
REMARK SMILES IDX 76 34 78 35 29 36 81 37 75 38 74 39 30 41 62 42 42 43 61 44
REMARK SMILES IDX 43 45 46 46 60 47 79 48 44 49 45 50 59 52 80 53 47 54 31 55
REMARK SMILES IDX 32 56 40 57 33 58 39 59 41 60 38 61 34 62 35 63 36 64 37 65
REMARK SMILES IDX 63 66 64 67 72 68 65 69 71 70 73 71 70 72 66 73 67 74 68 75
REMARK SMILES IDX 69 76 48 77 49 78 57 79 50 80 56 81 58 82 55 83 51 84 52 85
REMARK SMILES IDX 53 86 54 87
REMARK H PARENT 6 15 78 40 46 51
REMARK Flexibility Score: inf
ROOT
ATOM      1  C   UNL A   1      36.162  21.472  25.343  1.00  0.00     0.202 C 
ENDROOT
BRANCH   1   2
ATOM      2  O   UNL A   1      35.049  20.814  24.743  1.00  0.00    -0.374 OA
BRANCH   2   3
ATOM      3  C   UNL A   1      33.903  21.633  24.490  1.00  0.00     0.202 C 
BRANCH   3   4
ATOM      4  C   UNL A   1      33.983  22.415  23.180  1.00  0.00     0.261 C 
BRANCH   4   5
ATOM      5  O   UNL A   1      34.433  23.772  23.425  1.00  0.00    -0.462 OA
BRANCH   5   6
ATOM      6  C   UNL A   1      33.622  24.768  22.978  1.00  0.00     0.328 C 
ATOM      7  O   UNL A   1      33.628  25.193  21.828  1.00  0.00    -0.250 OA
BRANCH   6   8
ATOM      8  C   UNL A   1      32.855  25.477  24.125  1.00  0.00     0.195 C 
BRANCH   8   9
ATOM      9  C   UNL A   1      33.550  26.818  24.560  1.00  0.00     0.019 C 
ATOM     10  C   UNL A   1      32.880  28.071  23.976  1.00  0.00     0.010 C 
BRANCH   9  11
ATOM     11  C   UNL A   1      33.825  27.009  26.064  1.00  0.00     0.002 C 
ATOM     12  C   UNL A   1      33.935  28.448  26.543  1.00  0.00     0.004 C 
ENDBRANCH   9  11
ENDBRANCH   8   9
BRANCH   8  13
ATOM     13  N   UNL A   1      32.140  24.810  25.232  1.00  0.00    -0.341 N 
ATOM     14  C   UNL A   1      30.845  24.747  25.636  1.00  0.00     0.235 C 
ATOM     15  H   UNL A   1      32.742  24.291  25.812  1.00  0.00     0.164 HD
ATOM     16  O   UNL A   1      30.407  23.652  25.995  1.00  0.00    -0.274 OA
BRANCH  14  17
ATOM     17  C   UNL A   1      30.066  26.009  25.859  1.00  0.00     0.209 C 
ATOM     18  Cl  UNL A   1      29.306  26.428  24.295  1.00  0.00    -0.116 Cl
ENDBRANCH  14  17
ENDBRANCH   8  13
ENDBRANCH   6   8
ENDBRANCH   5   6
ENDBRANCH   4   5
ENDBRANCH   3   4
ENDBRANCH   2   3
ENDBRANCH   1   2
BRANCH   1  19
ATOM     19  C   UNL A   1      37.503  20.745  25.155  1.00  0.00     0.261 C 
BRANCH  19  20
ATOM     20  O   UNL A   1      38.625  21.652  25.154  1.00  0.00    -0.460 OA
BRANCH  20  21
ATOM     21  C   UNL A   1      39.566  21.344  26.079  1.00  0.00     0.338 C 
ATOM     22  O   UNL A   1      40.201  20.296  26.148  1.00  0.00    -0.246 OA
BRANCH  21  23
ATOM     23  C   UNL A   1      39.899  22.500  26.932  1.00  0.00     0.060 A 
ATOM     24  C   UNL A   1      39.156  23.665  26.709  1.00  0.00     0.016 A 
ATOM     25  C   UNL A   1      40.975  22.512  27.826  1.00  0.00     0.016 A 
ATOM     26  C   UNL A   1      39.542  24.867  27.292  1.00  0.00     0.010 A 
ATOM     27  C   UNL A   1      41.359  23.725  28.420  1.00  0.00     0.010 A 
ATOM     28  C   UNL A   1      40.681  24.920  28.108  1.00  0.00    -0.014 A 
BRANCH  28  29
ATOM     29  C   UNL A   1      41.238  26.258  28.447  1.00  0.00     0.031 A 
ATOM     30  C   UNL A   1      42.646  26.596  28.020  1.00  0.00     0.074 A 
ATOM     31  C   UNL A   1      40.465  27.207  29.010  1.00  0.00     0.049 A 
ATOM     32  N   UNL A   1      43.315  27.712  28.163  1.00  0.00    -0.248 NA
ATOM     33  C   UNL A   1      43.394  25.533  27.332  1.00  0.00     0.031 C 
ATOM     34  C   UNL A   1      39.069  27.028  29.404  1.00  0.00     0.029 A 
ATOM     35  N   UNL A   1      40.739  28.514  29.329  1.00  0.00    -0.354 N 
ATOM     36  C   UNL A   1      44.560  27.487  27.581  1.00  0.00     0.074 A 
ATOM     37  C   UNL A   1      44.567  26.112  27.130  1.00  0.00     0.031 C 
ATOM     38  C   UNL A   1      38.605  28.185  29.904  1.00  0.00     0.029 A 
ATOM     39  C   UNL A   1      39.681  29.175  29.909  1.00  0.00     0.049 A 
ATOM     40  H   UNL A   1      41.611  28.939  29.160  1.00  0.00     0.167 HD
ATOM     41  C   UNL A   1      45.594  28.351  27.421  1.00  0.00     0.034 A 
ATOM     42  C   UNL A   1      39.595  30.426  30.408  1.00  0.00     0.034 A 
ATOM     43  C   UNL A   1      45.578  29.719  27.881  1.00  0.00     0.049 A 
ATOM     44  C   UNL A   1      40.795  31.338  30.315  1.00  0.00     0.074 A 
ATOM     45  C   UNL A   1      46.575  30.674  27.779  1.00  0.00     0.029 A 
ATOM     46  N   UNL A   1      44.516  30.327  28.537  1.00  0.00    -0.354 N 
ATOM     47  N   UNL A   1      41.971  31.104  29.781  1.00  0.00    -0.248 NA
ATOM     48  C   UNL A   1      40.651  32.685  30.886  1.00  0.00     0.031 C 
ATOM     49  C   UNL A   1      46.148  31.829  28.441  1.00  0.00     0.029 A 
ATOM     50  C   UNL A   1      44.847  31.630  28.876  1.00  0.00     0.049 A 
ATOM     51  H   UNL A   1      43.653  29.895  28.733  1.00  0.00     0.167 HD
ATOM     52  C   UNL A   1      42.696  32.287  29.925  1.00  0.00     0.074 A 
ATOM     53  C   UNL A   1      41.819  33.232  30.581  1.00  0.00     0.031 C 
ATOM     54  C   UNL A   1      43.970  32.565  29.544  1.00  0.00     0.034 A 
BRANCH  41  55
ATOM     55  C   UNL A   1      46.848  27.819  26.765  1.00  0.00     0.023 A 
ATOM     56  C   UNL A   1      47.109  28.010  25.396  1.00  0.00     0.031 A 
ATOM     57  C   UNL A   1      47.785  27.086  27.515  1.00  0.00     0.131 A 
ATOM     58  C   UNL A   1      48.238  27.418  24.808  1.00  0.00     0.055 A 
ATOM     59  C   UNL A   1      48.949  26.571  26.941  1.00  0.00     0.041 A 
ATOM     60  F   UNL A   1      47.580  26.848  28.820  1.00  0.00    -0.206 F 
ATOM     61  C   UNL A   1      49.174  26.723  25.577  1.00  0.00     0.022 A 
BRANCH  58  62
ATOM     62  S   UNL A   1      48.389  27.443  23.001  1.00  0.00     0.124 S 
ATOM     63  O   UNL A   1      48.372  26.017  22.684  1.00  0.00    -0.237 OA
ATOM     64  O   UNL A   1      47.211  28.202  22.596  1.00  0.00    -0.237 OA
ATOM     65  O   UNL A   1      49.669  28.108  22.772  1.00  0.00    -0.744 OA
ENDBRANCH  58  62
ENDBRANCH  41  55
BRANCH  42  66
ATOM     66  C   UNL A   1      38.346  30.877  31.091  1.00  0.00     0.023 A 
ATOM     67  C   UNL A   1      37.327  31.548  30.397  1.00  0.00     0.031 A 
ATOM     68  C   UNL A   1      38.183  30.687  32.476  1.00  0.00     0.131 A 
ATOM     69  C   UNL A   1      36.211  32.039  31.096  1.00  0.00     0.055 A 
ATOM     70  C   UNL A   1      37.047  31.126  33.156  1.00  0.00     0.041 A 
ATOM     71  F   UNL A   1      39.130  30.058  33.192  1.00  0.00    -0.206 F 
ATOM     72  C   UNL A   1      36.057  31.817  32.466  1.00  0.00     0.022 A 
BRANCH  69  73
ATOM     73  S   UNL A   1      35.000  33.053  30.203  1.00  0.00     0.124 S 
ATOM     74  O   UNL A   1      34.171  33.552  31.294  1.00  0.00    -0.237 OA
ATOM     75  O   UNL A   1      35.855  34.033  29.544  1.00  0.00    -0.237 OA
ATOM     76  O   UNL A   1      34.349  32.096  29.310  1.00  0.00    -0.744 OA
ENDBRANCH  69  73
ENDBRANCH  42  66
BRANCH  54  77
ATOM     77  C   UNL A   1      44.476  33.968  29.789  1.00  0.00     0.023 A 
ATOM     78  C   UNL A   1      44.111  35.045  28.963  1.00  0.00     0.031 A 
ATOM     79  C   UNL A   1      45.342  34.229  30.866  1.00  0.00     0.131 A 
ATOM     80  C   UNL A   1      44.656  36.318  29.189  1.00  0.00     0.055 A 
ATOM     81  C   UNL A   1      45.828  35.511  31.128  1.00  0.00     0.041 A 
ATOM     82  F   UNL A   1      45.729  33.239  31.688  1.00  0.00    -0.206 F 
ATOM     83  C   UNL A   1      45.497  36.562  30.278  1.00  0.00     0.022 A 
BRANCH  80  84
ATOM     84  S   UNL A   1      44.333  37.633  27.983  1.00  0.00     0.124 S 
ATOM     85  O   UNL A   1      44.038  36.870  26.775  1.00  0.00    -0.237 OA
ATOM     86  O   UNL A   1      43.205  38.338  28.583  1.00  0.00    -0.237 OA
ATOM     87  O   UNL A   1      45.587  38.385  27.950  1.00  0.00    -0.744 OA
ENDBRANCH  80  84
ENDBRANCH  54  77
ENDBRANCH  28  29
ENDBRANCH  21  23
ENDBRANCH  20  21
ENDBRANCH  19  20
ENDBRANCH   1  19
TORSDOF 21
ENDMDL
