MODEL 1
REMARK VINA RESULT:     -10.9      0.000      0.000
REMARK SMILES C[C@@H](C(=O)OCCOCCOC(=O)c1ccc(-c2c3nc(c(-c4cc(S(=O)(=O)[O-])ccc4F)c4ccc([nH]4)c(-c4cc(S(=O)(=O)[O-])ccc4F)c4nc(c(-c5cc(S(=O)(=O)[O-])ccc5F)c5ccc2[nH]5)C=C4)C=C3)cc1)c1ccc(-c2cccc(OC(=O)NCCCc3ccccc3)c2)c(F)c1
REMARK SMILES IDX 6 1 5 2 3 3 4 4 2 5 1 6 77 7 78 8 102 9 79 10 100 11 80 12
REMARK SMILES IDX 101 13 81 14 82 15 99 16 83 17 85 18 84 19 86 20 87 21 88 22
REMARK SMILES IDX 89 23 90 25 91 26 92 27 93 28 94 29 98 30 95 31 97 32 96 33
REMARK SMILES IDX 7 34 8 35 9 36 10 37 11 38 12 39 13 40 14 41 15 42 76 43
REMARK SMILES IDX 16 44 75 45 17 46 18 47 19 48 69 49 20 50 74 51 68 52 70 53
REMARK SMILES IDX 21 54 73 55 67 56 66 57 22 59 54 60 34 61 53 62 35 63 38 64
REMARK SMILES IDX 52 65 71 66 36 67 37 68 51 70 72 71 39 72 23 73 24 74 32 75
REMARK SMILES IDX 25 76 31 77 33 78 30 79 26 80 27 81 28 82 29 83 55 84 56 85
REMARK SMILES IDX 64 86 57 87 63 88 65 89 62 90 58 91 59 92 60 93 61 94 40 95
REMARK SMILES IDX 41 96 49 97 42 98 48 99 50 100 47 101 43 102 44 103 45 104
REMARK SMILES IDX 46 105
REMARK H PARENT 89 24 70 58 38 69
REMARK Flexibility Score: inf
ROOT
ATOM      1  C   UNL A   1      42.248  20.611  25.974  1.00  0.00     0.261 C 
ENDROOT
BRANCH   1   2
ATOM      2  O   UNL A   1      42.068  21.943  26.497  1.00  0.00    -0.463 OA
BRANCH   2   3
ATOM      3  C   UNL A   1      40.885  22.180  27.125  1.00  0.00     0.313 C 
ATOM      4  O   UNL A   1      40.503  21.582  28.125  1.00  0.00    -0.252 OA
BRANCH   3   5
ATOM      5  C   UNL A   1      40.067  23.299  26.460  1.00  0.00     0.126 C 
ATOM      6  C   UNL A   1      39.960  24.608  27.251  1.00  0.00     0.025 C 
BRANCH   5   7
ATOM      7  C   UNL A   1      38.695  22.758  26.070  1.00  0.00    -0.031 A 
ATOM      8  C   UNL A   1      38.534  21.404  25.746  1.00  0.00     0.005 A 
ATOM      9  C   UNL A   1      37.549  23.558  26.133  1.00  0.00     0.044 A 
ATOM     10  C   UNL A   1      37.261  20.869  25.507  1.00  0.00     0.012 A 
ATOM     11  C   UNL A   1      36.286  23.013  25.933  1.00  0.00     0.131 A 
ATOM     12  C   UNL A   1      36.110  21.664  25.602  1.00  0.00     0.018 A 
ATOM     13  F   UNL A   1      35.229  23.830  26.071  1.00  0.00    -0.206 F 
BRANCH  12  14
ATOM     14  C   UNL A   1      34.777  21.131  25.284  1.00  0.00    -0.012 A 
ATOM     15  C   UNL A   1      34.587  19.907  24.627  1.00  0.00     0.009 A 
ATOM     16  C   UNL A   1      33.641  21.883  25.630  1.00  0.00     0.056 A 
ATOM     17  C   UNL A   1      33.299  19.456  24.314  1.00  0.00     0.004 A 
ATOM     18  C   UNL A   1      32.365  21.439  25.315  1.00  0.00     0.133 A 
ATOM     19  C   UNL A   1      32.186  20.225  24.655  1.00  0.00     0.047 A 
BRANCH  18  20
ATOM     20  O   UNL A   1      31.186  22.149  25.641  1.00  0.00    -0.410 OA
BRANCH  20  21
ATOM     21  C   UNL A   1      31.128  23.430  26.183  1.00  0.00     0.412 C 
ATOM     22  O   UNL A   1      31.337  23.751  27.350  1.00  0.00    -0.224 OA
ATOM     23  N   UNL A   1      30.825  24.388  25.262  1.00  0.00    -0.321 N 
ATOM     24  H   UNL A   1      30.658  25.300  25.596  1.00  0.00     0.167 HD
BRANCH  23  25
ATOM     25  C   UNL A   1      30.729  24.178  23.840  1.00  0.00     0.120 C 
BRANCH  25  26
ATOM     26  C   UNL A   1      32.075  24.127  23.122  1.00  0.00     0.026 C 
BRANCH  26  27
ATOM     27  C   UNL A   1      32.631  25.424  22.522  1.00  0.00     0.037 C 
BRANCH  27  28
ATOM     28  C   UNL A   1      32.911  26.624  23.398  1.00  0.00    -0.048 A 
ATOM     29  C   UNL A   1      33.648  26.591  24.586  1.00  0.00     0.004 A 
ATOM     30  C   UNL A   1      32.329  27.848  23.023  1.00  0.00     0.004 A 
ATOM     31  C   UNL A   1      33.789  27.735  25.379  1.00  0.00     0.000 A 
ATOM     32  C   UNL A   1      32.479  28.995  23.806  1.00  0.00     0.000 A 
ATOM     33  C   UNL A   1      33.205  28.936  24.990  1.00  0.00     0.000 A 
ENDBRANCH  27  28
ENDBRANCH  26  27
ENDBRANCH  25  26
ENDBRANCH  23  25
ENDBRANCH  20  21
ENDBRANCH  18  20
ENDBRANCH  12  14
ENDBRANCH   5   7
ENDBRANCH   3   5
ENDBRANCH   2   3
ENDBRANCH   1   2
BRANCH   1  34
ATOM     34  C   UNL A   1      43.667  20.414  25.428  1.00  0.00     0.202 C 
BRANCH  34  35
ATOM     35  O   UNL A   1      44.574  21.512  25.541  1.00  0.00    -0.374 OA
BRANCH  35  36
ATOM     36  C   UNL A   1      44.706  22.366  24.411  1.00  0.00     0.202 C 
BRANCH  36  37
ATOM     37  C   UNL A   1      44.374  23.855  24.579  1.00  0.00     0.261 C 
BRANCH  37  38
ATOM     38  O   UNL A   1      45.160  24.493  25.594  1.00  0.00    -0.460 OA
BRANCH  38  39
ATOM     39  C   UNL A   1      45.182  25.847  25.497  1.00  0.00     0.338 C 
ATOM     40  O   UNL A   1      45.720  26.511  24.626  1.00  0.00    -0.246 OA
BRANCH  39  41
ATOM     41  C   UNL A   1      44.275  26.437  26.497  1.00  0.00     0.060 A 
ATOM     42  C   UNL A   1      44.271  27.834  26.608  1.00  0.00     0.016 A 
ATOM     43  C   UNL A   1      43.497  25.653  27.351  1.00  0.00     0.016 A 
ATOM     44  C   UNL A   1      43.528  28.452  27.606  1.00  0.00     0.010 A 
ATOM     45  C   UNL A   1      42.758  26.277  28.362  1.00  0.00     0.010 A 
ATOM     46  C   UNL A   1      42.802  27.675  28.517  1.00  0.00    -0.014 A 
BRANCH  46  47
ATOM     47  C   UNL A   1      42.228  28.325  29.721  1.00  0.00     0.031 A 
ATOM     48  C   UNL A   1      40.867  28.957  29.622  1.00  0.00     0.074 A 
ATOM     49  C   UNL A   1      42.886  28.302  30.893  1.00  0.00     0.049 A 
ATOM     50  N   UNL A   1      40.180  29.599  30.531  1.00  0.00    -0.248 NA
ATOM     51  C   UNL A   1      40.190  28.850  28.320  1.00  0.00     0.031 C 
ATOM     52  C   UNL A   1      44.182  27.662  31.119  1.00  0.00     0.029 A 
ATOM     53  N   UNL A   1      42.552  28.826  32.116  1.00  0.00    -0.354 N 
ATOM     54  C   UNL A   1      38.996  29.983  29.909  1.00  0.00     0.074 A 
ATOM     55  C   UNL A   1      39.076  29.531  28.536  1.00  0.00     0.031 C 
ATOM     56  C   UNL A   1      44.534  27.833  32.405  1.00  0.00     0.029 A 
ATOM     57  C   UNL A   1      43.513  28.633  33.080  1.00  0.00     0.049 A 
ATOM     58  H   UNL A   1      41.704  29.297  32.287  1.00  0.00     0.167 HD
ATOM     59  C   UNL A   1      37.938  30.644  30.441  1.00  0.00     0.034 A 
ATOM     60  C   UNL A   1      43.573  29.074  34.353  1.00  0.00     0.034 A 
ATOM     61  C   UNL A   1      37.883  31.090  31.813  1.00  0.00     0.049 A 
ATOM     62  C   UNL A   1      42.426  29.895  34.893  1.00  0.00     0.074 A 
ATOM     63  C   UNL A   1      36.854  31.751  32.462  1.00  0.00     0.029 A 
ATOM     64  N   UNL A   1      38.902  30.934  32.743  1.00  0.00    -0.354 N 
ATOM     65  N   UNL A   1      41.308  30.249  34.299  1.00  0.00    -0.248 NA
ATOM     66  C   UNL A   1      42.545  30.369  36.278  1.00  0.00     0.031 C 
ATOM     67  C   UNL A   1      37.286  32.072  33.752  1.00  0.00     0.029 A 
ATOM     68  C   UNL A   1      38.544  31.525  33.946  1.00  0.00     0.049 A 
ATOM     69  H   UNL A   1      39.755  30.471  32.574  1.00  0.00     0.167 HD
ATOM     70  C   UNL A   1      40.578  30.955  35.253  1.00  0.00     0.074 A 
ATOM     71  C   UNL A   1      41.376  30.965  36.461  1.00  0.00     0.031 C 
ATOM     72  C   UNL A   1      39.355  31.537  35.142  1.00  0.00     0.034 A 
BRANCH  59  73
ATOM     73  C   UNL A   1      36.790  30.980  29.518  1.00  0.00     0.023 A 
ATOM     74  C   UNL A   1      36.342  32.300  29.333  1.00  0.00     0.031 A 
ATOM     75  C   UNL A   1      36.116  29.955  28.830  1.00  0.00     0.131 A 
ATOM     76  C   UNL A   1      35.212  32.551  28.539  1.00  0.00     0.055 A 
ATOM     77  C   UNL A   1      35.045  30.220  27.975  1.00  0.00     0.041 A 
ATOM     78  F   UNL A   1      36.480  28.673  28.988  1.00  0.00    -0.206 F 
ATOM     79  C   UNL A   1      34.577  31.523  27.837  1.00  0.00     0.022 A 
BRANCH  76  80
ATOM     80  S   UNL A   1      34.491  34.215  28.554  1.00  0.00     0.124 S 
ATOM     81  O   UNL A   1      34.705  34.641  27.172  1.00  0.00    -0.237 OA
ATOM     82  O   UNL A   1      33.108  33.957  28.937  1.00  0.00    -0.237 OA
ATOM     83  O   UNL A   1      35.292  34.927  29.548  1.00  0.00    -0.744 OA
ENDBRANCH  76  80
ENDBRANCH  59  73
BRANCH  60  84
ATOM     84  C   UNL A   1      44.770  28.792  35.197  1.00  0.00     0.023 A 
ATOM     85  C   UNL A   1      44.828  27.653  36.016  1.00  0.00     0.031 A 
ATOM     86  C   UNL A   1      45.851  29.690  35.243  1.00  0.00     0.131 A 
ATOM     87  C   UNL A   1      45.919  27.469  36.882  1.00  0.00     0.055 A 
ATOM     88  C   UNL A   1      46.961  29.472  36.060  1.00  0.00     0.041 A 
ATOM     89  F   UNL A   1      45.846  30.799  34.485  1.00  0.00    -0.206 F 
ATOM     90  C   UNL A   1      46.992  28.361  36.898  1.00  0.00     0.022 A 
BRANCH  87  91
ATOM     91  S   UNL A   1      45.865  26.095  38.065  1.00  0.00     0.124 S 
ATOM     92  O   UNL A   1      44.433  25.840  38.157  1.00  0.00    -0.237 OA
ATOM     93  O   UNL A   1      46.656  25.078  37.381  1.00  0.00    -0.237 OA
ATOM     94  O   UNL A   1      46.480  26.656  39.266  1.00  0.00    -0.744 OA
ENDBRANCH  87  91
ENDBRANCH  60  84
BRANCH  72  95
ATOM     95  C   UNL A   1      38.786  32.187  36.382  1.00  0.00     0.023 A 
ATOM     96  C   UNL A   1      37.999  31.472  37.303  1.00  0.00     0.031 A 
ATOM     97  C   UNL A   1      39.030  33.548  36.641  1.00  0.00     0.131 A 
ATOM     98  C   UNL A   1      37.435  32.135  38.404  1.00  0.00     0.055 A 
ATOM     99  C   UNL A   1      38.526  34.185  37.776  1.00  0.00     0.041 A 
ATOM    100  F   UNL A   1      39.770  34.283  35.796  1.00  0.00    -0.206 F 
ATOM    101  C   UNL A   1      37.712  33.481  38.657  1.00  0.00     0.022 A 
BRANCH  98 102
ATOM    102  S   UNL A   1      36.250  31.241  39.447  1.00  0.00     0.124 S 
ATOM    103  O   UNL A   1      36.868  31.347  40.765  1.00  0.00    -0.237 OA
ATOM    104  O   UNL A   1      35.024  32.007  39.253  1.00  0.00    -0.237 OA
ATOM    105  O   UNL A   1      36.236  29.896  38.875  1.00  0.00    -0.744 OA
ENDBRANCH  98 102
ENDBRANCH  72  95
ENDBRANCH  46  47
ENDBRANCH  39  41
ENDBRANCH  38  39
ENDBRANCH  37  38
ENDBRANCH  36  37
ENDBRANCH  35  36
ENDBRANCH  34  35
ENDBRANCH   1  34
TORSDOF 25
ENDMDL
MODEL 2
REMARK VINA RESULT:     -10.2      3.327     10.322
REMARK SMILES C[C@@H](C(=O)OCCOCCOC(=O)c1ccc(-c2c3nc(c(-c4cc(S(=O)(=O)[O-])ccc4F)c4ccc([nH]4)c(-c4cc(S(=O)(=O)[O-])ccc4F)c4nc(c(-c5cc(S(=O)(=O)[O-])ccc5F)c5ccc2[nH]5)C=C4)C=C3)cc1)c1ccc(-c2cccc(OC(=O)NCCCc3ccccc3)c2)c(F)c1
REMARK SMILES IDX 6 1 5 2 3 3 4 4 2 5 1 6 77 7 78 8 102 9 79 10 100 11 80 12
REMARK SMILES IDX 101 13 81 14 82 15 99 16 83 17 85 18 84 19 86 20 87 21 88 22
REMARK SMILES IDX 89 23 90 25 91 26 92 27 93 28 94 29 98 30 95 31 97 32 96 33
REMARK SMILES IDX 7 34 8 35 9 36 10 37 11 38 12 39 13 40 14 41 15 42 76 43
REMARK SMILES IDX 16 44 75 45 17 46 18 47 19 48 69 49 20 50 74 51 68 52 70 53
REMARK SMILES IDX 21 54 73 55 67 56 66 57 22 59 54 60 34 61 53 62 35 63 38 64
REMARK SMILES IDX 52 65 71 66 36 67 37 68 51 70 72 71 39 72 23 73 24 74 32 75
REMARK SMILES IDX 25 76 31 77 33 78 30 79 26 80 27 81 28 82 29 83 55 84 56 85
REMARK SMILES IDX 64 86 57 87 63 88 65 89 62 90 58 91 59 92 60 93 61 94 40 95
REMARK SMILES IDX 41 96 49 97 42 98 48 99 50 100 47 101 43 102 44 103 45 104
REMARK SMILES IDX 46 105
REMARK H PARENT 89 24 70 58 38 69
REMARK Flexibility Score: inf
ROOT
ATOM      1  C   UNL A   1      34.394  30.350  27.837  1.00  0.00     0.261 C 
ENDROOT
BRANCH   1   2
ATOM      2  O   UNL A   1      33.944  30.161  26.480  1.00  0.00    -0.463 OA
BRANCH   2   3
ATOM      3  C   UNL A   1      32.619  29.899  26.324  1.00  0.00     0.313 C 
ATOM      4  O   UNL A   1      31.769  30.106  27.184  1.00  0.00    -0.252 OA
BRANCH   3   5
ATOM      5  C   UNL A   1      32.280  29.326  24.939  1.00  0.00     0.126 C 
ATOM      6  C   UNL A   1      30.807  29.414  24.522  1.00  0.00     0.025 C 
BRANCH   5   7
ATOM      7  C   UNL A   1      32.815  27.901  24.836  1.00  0.00    -0.031 A 
ATOM      8  C   UNL A   1      33.629  27.527  23.758  1.00  0.00     0.005 A 
ATOM      9  C   UNL A   1      32.610  26.968  25.859  1.00  0.00     0.044 A 
ATOM     10  C   UNL A   1      34.228  26.260  23.716  1.00  0.00     0.012 A 
ATOM     11  C   UNL A   1      33.237  25.728  25.829  1.00  0.00     0.131 A 
ATOM     12  C   UNL A   1      34.047  25.337  24.756  1.00  0.00     0.018 A 
ATOM     13  F   UNL A   1      33.042  24.909  26.876  1.00  0.00    -0.206 F 
BRANCH  12  14
ATOM     14  C   UNL A   1      34.612  23.981  24.690  1.00  0.00    -0.012 A 
ATOM     15  C   UNL A   1      33.824  22.842  24.470  1.00  0.00     0.009 A 
ATOM     16  C   UNL A   1      35.993  23.807  24.876  1.00  0.00     0.056 A 
ATOM     17  C   UNL A   1      34.400  21.566  24.449  1.00  0.00     0.004 A 
ATOM     18  C   UNL A   1      36.565  22.543  24.861  1.00  0.00     0.133 A 
ATOM     19  C   UNL A   1      35.773  21.417  24.649  1.00  0.00     0.047 A 
BRANCH  18  20
ATOM     20  O   UNL A   1      37.948  22.306  25.037  1.00  0.00    -0.410 OA
BRANCH  20  21
ATOM     21  C   UNL A   1      38.517  21.155  25.577  1.00  0.00     0.412 C 
ATOM     22  O   UNL A   1      38.216  19.991  25.324  1.00  0.00    -0.224 OA
ATOM     23  N   UNL A   1      39.525  21.417  26.455  1.00  0.00    -0.321 N 
ATOM     24  H   UNL A   1      39.896  20.655  26.958  1.00  0.00     0.167 HD
BRANCH  23  25
ATOM     25  C   UNL A   1      40.094  22.716  26.710  1.00  0.00     0.120 C 
BRANCH  25  26
ATOM     26  C   UNL A   1      41.525  22.883  26.204  1.00  0.00     0.026 C 
BRANCH  26  27
ATOM     27  C   UNL A   1      42.321  24.111  26.662  1.00  0.00     0.037 C 
BRANCH  27  28
ATOM     28  C   UNL A   1      42.911  24.178  28.052  1.00  0.00    -0.048 A 
ATOM     29  C   UNL A   1      43.223  25.360  28.731  1.00  0.00     0.004 A 
ATOM     30  C   UNL A   1      43.231  22.960  28.678  1.00  0.00     0.004 A 
ATOM     31  C   UNL A   1      43.843  25.329  29.984  1.00  0.00     0.000 A 
ATOM     32  C   UNL A   1      43.838  22.926  29.935  1.00  0.00     0.000 A 
ATOM     33  C   UNL A   1      44.151  24.114  30.586  1.00  0.00     0.000 A 
ENDBRANCH  27  28
ENDBRANCH  26  27
ENDBRANCH  25  26
ENDBRANCH  23  25
ENDBRANCH  20  21
ENDBRANCH  18  20
ENDBRANCH  12  14
ENDBRANCH   5   7
ENDBRANCH   3   5
ENDBRANCH   2   3
ENDBRANCH   1   2
BRANCH   1  34
ATOM     34  C   UNL A   1      35.184  31.655  27.986  1.00  0.00     0.202 C 
BRANCH  34  35
ATOM     35  O   UNL A   1      34.520  32.871  27.636  1.00  0.00    -0.374 OA
BRANCH  35  36
ATOM     36  C   UNL A   1      34.587  33.941  28.570  1.00  0.00     0.202 C 
BRANCH  36  37
ATOM     37  C   UNL A   1      33.272  34.563  29.062  1.00  0.00     0.261 C 
BRANCH  37  38
ATOM     38  O   UNL A   1      33.475  35.643  29.983  1.00  0.00    -0.460 OA
BRANCH  38  39
ATOM     39  C   UNL A   1      33.100  35.352  31.255  1.00  0.00     0.338 C 
ATOM     40  O   UNL A   1      31.981  35.451  31.731  1.00  0.00    -0.246 OA
BRANCH  39  41
ATOM     41  C   UNL A   1      34.207  34.688  31.965  1.00  0.00     0.060 A 
ATOM     42  C   UNL A   1      35.452  35.332  31.949  1.00  0.00     0.016 A 
ATOM     43  C   UNL A   1      34.058  33.441  32.575  1.00  0.00     0.016 A 
ATOM     44  C   UNL A   1      36.566  34.709  32.498  1.00  0.00     0.010 A 
ATOM     45  C   UNL A   1      35.184  32.811  33.118  1.00  0.00     0.010 A 
ATOM     46  C   UNL A   1      36.448  33.427  33.046  1.00  0.00    -0.014 A 
BRANCH  46  47
ATOM     47  C   UNL A   1      37.680  32.675  33.392  1.00  0.00     0.031 A 
ATOM     48  C   UNL A   1      38.367  32.973  34.696  1.00  0.00     0.074 A 
ATOM     49  C   UNL A   1      38.143  31.707  32.582  1.00  0.00     0.049 A 
ATOM     50  N   UNL A   1      39.463  32.463  35.194  1.00  0.00    -0.248 NA
ATOM     51  C   UNL A   1      37.730  33.986  35.553  1.00  0.00     0.031 C 
ATOM     52  C   UNL A   1      37.521  31.291  31.325  1.00  0.00     0.029 A 
ATOM     53  N   UNL A   1      39.242  30.895  32.699  1.00  0.00    -0.354 N 
ATOM     54  C   UNL A   1      39.655  33.099  36.417  1.00  0.00     0.074 A 
ATOM     55  C   UNL A   1      38.581  34.057  36.566  1.00  0.00     0.031 C 
ATOM     56  C   UNL A   1      38.250  30.299  30.785  1.00  0.00     0.029 A 
ATOM     57  C   UNL A   1      39.414  30.043  31.633  1.00  0.00     0.049 A 
ATOM     58  H   UNL A   1      39.850  30.919  33.472  1.00  0.00     0.167 HD
ATOM     59  C   UNL A   1      40.634  32.893  37.332  1.00  0.00     0.034 A 
ATOM     60  C   UNL A   1      40.411  29.176  31.361  1.00  0.00     0.034 A 
ATOM     61  C   UNL A   1      41.699  31.934  37.160  1.00  0.00     0.049 A 
ATOM     62  C   UNL A   1      41.544  29.036  32.350  1.00  0.00     0.074 A 
ATOM     63  C   UNL A   1      42.733  31.630  38.029  1.00  0.00     0.029 A 
ATOM     64  N   UNL A   1      41.879  31.135  36.038  1.00  0.00    -0.354 N 
ATOM     65  N   UNL A   1      41.714  29.639  33.505  1.00  0.00    -0.248 NA
ATOM     66  C   UNL A   1      42.615  28.095  32.001  1.00  0.00     0.031 C 
ATOM     67  C   UNL A   1      43.581  30.716  37.398  1.00  0.00     0.029 A 
ATOM     68  C   UNL A   1      43.029  30.372  36.175  1.00  0.00     0.049 A 
ATOM     69  H   UNL A   1      41.277  31.113  35.258  1.00  0.00     0.167 HD
ATOM     70  C   UNL A   1      42.893  29.119  34.034  1.00  0.00     0.074 A 
ATOM     71  C   UNL A   1      43.382  28.147  33.079  1.00  0.00     0.031 C 
ATOM     72  C   UNL A   1      43.512  29.413  35.208  1.00  0.00     0.034 A 
BRANCH  59  73
ATOM     73  C   UNL A   1      40.632  33.766  38.565  1.00  0.00     0.023 A 
ATOM     74  C   UNL A   1      41.424  34.923  38.662  1.00  0.00     0.031 A 
ATOM     75  C   UNL A   1      39.838  33.419  39.673  1.00  0.00     0.131 A 
ATOM     76  C   UNL A   1      41.459  35.650  39.863  1.00  0.00     0.055 A 
ATOM     77  C   UNL A   1      39.813  34.193  40.834  1.00  0.00     0.041 A 
ATOM     78  F   UNL A   1      39.081  32.311  39.650  1.00  0.00    -0.206 F 
ATOM     79  C   UNL A   1      40.638  35.308  40.940  1.00  0.00     0.022 A 
BRANCH  76  80
ATOM     80  S   UNL A   1      42.701  36.958  40.052  1.00  0.00     0.124 S 
ATOM     81  O   UNL A   1      43.514  36.436  41.148  1.00  0.00    -0.237 OA
ATOM     82  O   UNL A   1      43.337  36.982  38.739  1.00  0.00    -0.237 OA
ATOM     83  O   UNL A   1      41.907  38.140  40.383  1.00  0.00    -0.744 OA
ENDBRANCH  76  80
ENDBRANCH  59  73
BRANCH  60  84
ATOM     84  C   UNL A   1      40.413  28.401  30.086  1.00  0.00     0.023 A 
ATOM     85  C   UNL A   1      41.271  28.743  29.030  1.00  0.00     0.031 A 
ATOM     86  C   UNL A   1      39.511  27.340  29.883  1.00  0.00     0.131 A 
ATOM     87  C   UNL A   1      41.176  28.067  27.803  1.00  0.00     0.055 A 
ATOM     88  C   UNL A   1      39.461  26.631  28.682  1.00  0.00     0.041 A 
ATOM     89  F   UNL A   1      38.662  26.973  30.857  1.00  0.00    -0.206 F 
ATOM     90  C   UNL A   1      40.289  27.003  27.627  1.00  0.00     0.022 A 
BRANCH  87  91
ATOM     91  S   UNL A   1      42.161  28.666  26.403  1.00  0.00     0.124 S 
ATOM     92  O   UNL A   1      42.812  29.836  26.979  1.00  0.00    -0.237 OA
ATOM     93  O   UNL A   1      43.022  27.521  26.128  1.00  0.00    -0.237 OA
ATOM     94  O   UNL A   1      41.158  28.948  25.378  1.00  0.00    -0.744 OA
ENDBRANCH  87  91
ENDBRANCH  60  84
BRANCH  72  95
ATOM     95  C   UNL A   1      44.761  28.630  35.544  1.00  0.00     0.023 A 
ATOM     96  C   UNL A   1      46.036  29.044  35.121  1.00  0.00     0.031 A 
ATOM     97  C   UNL A   1      44.669  27.445  36.297  1.00  0.00     0.131 A 
ATOM     98  C   UNL A   1      47.158  28.249  35.400  1.00  0.00     0.055 A 
ATOM     99  C   UNL A   1      45.797  26.695  36.633  1.00  0.00     0.041 A 
ATOM    100  F   UNL A   1      43.478  26.997  36.725  1.00  0.00    -0.206 F 
ATOM    101  C   UNL A   1      47.049  27.088  36.171  1.00  0.00     0.022 A 
BRANCH  98 102
ATOM    102  S   UNL A   1      48.750  28.694  34.654  1.00  0.00     0.124 S 
ATOM    103  O   UNL A   1      48.614  30.138  34.489  1.00  0.00    -0.237 OA
ATOM    104  O   UNL A   1      49.704  28.255  35.666  1.00  0.00    -0.237 OA
ATOM    105  O   UNL A   1      48.773  27.928  33.409  1.00  0.00    -0.744 OA
ENDBRANCH  98 102
ENDBRANCH  72  95
ENDBRANCH  46  47
ENDBRANCH  39  41
ENDBRANCH  38  39
ENDBRANCH  37  38
ENDBRANCH  36  37
ENDBRANCH  35  36
ENDBRANCH  34  35
ENDBRANCH   1  34
TORSDOF 25
ENDMDL
MODEL 3
REMARK VINA RESULT:     -10.0      3.524      9.344
REMARK SMILES C[C@@H](C(=O)OCCOCCOC(=O)c1ccc(-c2c3nc(c(-c4cc(S(=O)(=O)[O-])ccc4F)c4ccc([nH]4)c(-c4cc(S(=O)(=O)[O-])ccc4F)c4nc(c(-c5cc(S(=O)(=O)[O-])ccc5F)c5ccc2[nH]5)C=C4)C=C3)cc1)c1ccc(-c2cccc(OC(=O)NCCCc3ccccc3)c2)c(F)c1
REMARK SMILES IDX 6 1 5 2 3 3 4 4 2 5 1 6 77 7 78 8 102 9 79 10 100 11 80 12
REMARK SMILES IDX 101 13 81 14 82 15 99 16 83 17 85 18 84 19 86 20 87 21 88 22
REMARK SMILES IDX 89 23 90 25 91 26 92 27 93 28 94 29 98 30 95 31 97 32 96 33
REMARK SMILES IDX 7 34 8 35 9 36 10 37 11 38 12 39 13 40 14 41 15 42 76 43
REMARK SMILES IDX 16 44 75 45 17 46 18 47 19 48 69 49 20 50 74 51 68 52 70 53
REMARK SMILES IDX 21 54 73 55 67 56 66 57 22 59 54 60 34 61 53 62 35 63 38 64
REMARK SMILES IDX 52 65 71 66 36 67 37 68 51 70 72 71 39 72 23 73 24 74 32 75
REMARK SMILES IDX 25 76 31 77 33 78 30 79 26 80 27 81 28 82 29 83 55 84 56 85
REMARK SMILES IDX 64 86 57 87 63 88 65 89 62 90 58 91 59 92 60 93 61 94 40 95
REMARK SMILES IDX 41 96 49 97 42 98 48 99 50 100 47 101 43 102 44 103 45 104
REMARK SMILES IDX 46 105
REMARK H PARENT 89 24 70 58 38 69
REMARK Flexibility Score: inf
ROOT
ATOM      1  C   UNL A   1      33.875  26.435  25.843  1.00  0.00     0.261 C 
ENDROOT
BRANCH   1   2
ATOM      2  O   UNL A   1      33.074  25.237  25.909  1.00  0.00    -0.463 OA
BRANCH   2   3
ATOM      3  C   UNL A   1      33.759  24.062  25.874  1.00  0.00     0.313 C 
ATOM      4  O   UNL A   1      33.740  23.226  26.771  1.00  0.00    -0.252 OA
BRANCH   3   5
ATOM      5  C   UNL A   1      34.558  23.872  24.574  1.00  0.00     0.126 C 
ATOM      6  C   UNL A   1      33.870  23.044  23.483  1.00  0.00     0.025 C 
BRANCH   5   7
ATOM      7  C   UNL A   1      35.945  23.332  24.908  1.00  0.00    -0.031 A 
ATOM      8  C   UNL A   1      36.802  24.054  25.750  1.00  0.00     0.005 A 
ATOM      9  C   UNL A   1      36.356  22.063  24.485  1.00  0.00     0.044 A 
ATOM     10  C   UNL A   1      38.026  23.513  26.164  1.00  0.00     0.012 A 
ATOM     11  C   UNL A   1      37.554  21.517  24.930  1.00  0.00     0.131 A 
ATOM     12  C   UNL A   1      38.424  22.228  25.765  1.00  0.00     0.018 A 
ATOM     13  F   UNL A   1      37.853  20.270  24.530  1.00  0.00    -0.206 F 
BRANCH  12  14
ATOM     14  C   UNL A   1      39.737  21.679  26.134  1.00  0.00    -0.012 A 
ATOM     15  C   UNL A   1      39.966  20.304  26.292  1.00  0.00     0.009 A 
ATOM     16  C   UNL A   1      40.806  22.561  26.363  1.00  0.00     0.056 A 
ATOM     17  C   UNL A   1      41.224  19.829  26.679  1.00  0.00     0.004 A 
ATOM     18  C   UNL A   1      42.052  22.091  26.753  1.00  0.00     0.133 A 
ATOM     19  C   UNL A   1      42.268  20.724  26.913  1.00  0.00     0.047 A 
BRANCH  18  20
ATOM     20  O   UNL A   1      43.166  22.929  26.992  1.00  0.00    -0.410 OA
BRANCH  20  21
ATOM     21  C   UNL A   1      43.585  23.393  28.236  1.00  0.00     0.412 C 
ATOM     22  O   UNL A   1      44.360  22.838  29.012  1.00  0.00    -0.224 OA
ATOM     23  N   UNL A   1      43.062  24.609  28.559  1.00  0.00    -0.321 N 
ATOM     24  H   UNL A   1      43.227  24.945  29.470  1.00  0.00     0.167 HD
BRANCH  23  25
ATOM     25  C   UNL A   1      42.286  25.444  27.678  1.00  0.00     0.120 C 
BRANCH  25  26
ATOM     26  C   UNL A   1      40.897  25.793  28.208  1.00  0.00     0.026 C 
BRANCH  26  27
ATOM     27  C   UNL A   1      40.761  26.978  29.171  1.00  0.00     0.037 C 
BRANCH  27  28
ATOM     28  C   UNL A   1      39.627  27.968  29.025  1.00  0.00    -0.048 A 
ATOM     29  C   UNL A   1      38.585  28.128  29.944  1.00  0.00     0.004 A 
ATOM     30  C   UNL A   1      39.583  28.732  27.846  1.00  0.00     0.004 A 
ATOM     31  C   UNL A   1      37.531  29.011  29.691  1.00  0.00     0.000 A 
ATOM     32  C   UNL A   1      38.538  29.624  27.596  1.00  0.00     0.000 A 
ATOM     33  C   UNL A   1      37.506  29.758  28.517  1.00  0.00     0.000 A 
ENDBRANCH  27  28
ENDBRANCH  26  27
ENDBRANCH  25  26
ENDBRANCH  23  25
ENDBRANCH  20  21
ENDBRANCH  18  20
ENDBRANCH  12  14
ENDBRANCH   5   7
ENDBRANCH   3   5
ENDBRANCH   2   3
ENDBRANCH   1   2
BRANCH   1  34
ATOM     34  C   UNL A   1      33.042  27.680  26.168  1.00  0.00     0.202 C 
BRANCH  34  35
ATOM     35  O   UNL A   1      33.709  28.943  26.143  1.00  0.00    -0.374 OA
BRANCH  35  36
ATOM     36  C   UNL A   1      33.276  29.926  27.076  1.00  0.00     0.202 C 
BRANCH  36  37
ATOM     37  C   UNL A   1      34.244  31.058  27.445  1.00  0.00     0.261 C 
BRANCH  37  38
ATOM     38  O   UNL A   1      34.286  31.321  28.854  1.00  0.00    -0.460 OA
BRANCH  38  39
ATOM     39  C   UNL A   1      34.556  32.616  29.159  1.00  0.00     0.338 C 
ATOM     40  O   UNL A   1      33.894  33.595  28.854  1.00  0.00    -0.246 OA
BRANCH  39  41
ATOM     41  C   UNL A   1      35.680  32.685  30.110  1.00  0.00     0.060 A 
ATOM     42  C   UNL A   1      36.660  33.656  29.867  1.00  0.00     0.016 A 
ATOM     43  C   UNL A   1      35.813  31.788  31.171  1.00  0.00     0.016 A 
ATOM     44  C   UNL A   1      37.805  33.702  30.653  1.00  0.00     0.010 A 
ATOM     45  C   UNL A   1      36.971  31.829  31.955  1.00  0.00     0.010 A 
ATOM     46  C   UNL A   1      37.988  32.761  31.674  1.00  0.00    -0.014 A 
BRANCH  46  47
ATOM     47  C   UNL A   1      39.314  32.660  32.331  1.00  0.00     0.031 A 
ATOM     48  C   UNL A   1      39.471  33.191  33.729  1.00  0.00     0.074 A 
ATOM     49  C   UNL A   1      40.342  32.055  31.711  1.00  0.00     0.049 A 
ATOM     50  N   UNL A   1      40.535  33.233  34.488  1.00  0.00    -0.248 NA
ATOM     51  C   UNL A   1      38.263  33.753  34.354  1.00  0.00     0.031 C 
ATOM     52  C   UNL A   1      40.285  31.449  30.381  1.00  0.00     0.029 A 
ATOM     53  N   UNL A   1      41.635  31.848  32.120  1.00  0.00    -0.354 N 
ATOM     54  C   UNL A   1      40.130  33.835  35.675  1.00  0.00     0.074 A 
ATOM     55  C   UNL A   1      38.731  34.172  35.520  1.00  0.00     0.031 C 
ATOM     56  C   UNL A   1      41.492  30.936  30.083  1.00  0.00     0.029 A 
ATOM     57  C   UNL A   1      42.418  31.220  31.179  1.00  0.00     0.049 A 
ATOM     58  H   UNL A   1      41.972  32.122  33.004  1.00  0.00     0.167 HD
ATOM     59  C   UNL A   1      40.859  34.074  36.794  1.00  0.00     0.034 A 
ATOM     60  C   UNL A   1      43.735  30.932  31.192  1.00  0.00     0.034 A 
ATOM     61  C   UNL A   1      42.255  33.732  36.924  1.00  0.00     0.049 A 
ATOM     62  C   UNL A   1      44.548  31.299  32.411  1.00  0.00     0.074 A 
ATOM     63  C   UNL A   1      43.086  33.912  38.017  1.00  0.00     0.029 A 
ATOM     64  N   UNL A   1      43.032  33.157  35.927  1.00  0.00    -0.354 N 
ATOM     65  N   UNL A   1      44.155  31.863  33.530  1.00  0.00    -0.248 NA
ATOM     66  C   UNL A   1      45.982  30.983  32.370  1.00  0.00     0.031 C 
ATOM     67  C   UNL A   1      44.380  33.528  37.651  1.00  0.00     0.029 A 
ATOM     68  C   UNL A   1      44.341  33.016  36.364  1.00  0.00     0.049 A 
ATOM     69  H   UNL A   1      42.702  32.888  35.039  1.00  0.00     0.167 HD
ATOM     70  C   UNL A   1      45.288  31.934  34.338  1.00  0.00     0.074 A 
ATOM     71  C   UNL A   1      46.372  31.344  33.583  1.00  0.00     0.031 C 
ATOM     72  C   UNL A   1      45.417  32.435  35.595  1.00  0.00     0.034 A 
BRANCH  59  73
ATOM     73  C   UNL A   1      40.174  34.793  37.932  1.00  0.00     0.023 A 
ATOM     74  C   UNL A   1      39.601  34.103  39.014  1.00  0.00     0.031 A 
ATOM     75  C   UNL A   1      40.074  36.196  37.921  1.00  0.00     0.131 A 
ATOM     76  C   UNL A   1      38.894  34.809  40.000  1.00  0.00     0.055 A 
ATOM     77  C   UNL A   1      39.443  36.899  38.948  1.00  0.00     0.041 A 
ATOM     78  F   UNL A   1      40.577  36.908  36.901  1.00  0.00    -0.206 F 
ATOM     79  C   UNL A   1      38.835  36.205  39.989  1.00  0.00     0.022 A 
BRANCH  76  80
ATOM     80  S   UNL A   1      37.927  33.872  41.216  1.00  0.00     0.124 S 
ATOM     81  O   UNL A   1      37.230  32.913  40.361  1.00  0.00    -0.237 OA
ATOM     82  O   UNL A   1      38.961  33.321  42.085  1.00  0.00    -0.237 OA
ATOM     83  O   UNL A   1      37.071  34.887  41.828  1.00  0.00    -0.744 OA
ENDBRANCH  76  80
ENDBRANCH  59  73
BRANCH  60  84
ATOM     84  C   UNL A   1      44.384  30.301  30.006  1.00  0.00     0.023 A 
ATOM     85  C   UNL A   1      44.696  28.933  29.992  1.00  0.00     0.031 A 
ATOM     86  C   UNL A   1      44.756  31.072  28.890  1.00  0.00     0.131 A 
ATOM     87  C   UNL A   1      45.405  28.388  28.908  1.00  0.00     0.055 A 
ATOM     88  C   UNL A   1      45.406  30.514  27.788  1.00  0.00     0.041 A 
ATOM     89  F   UNL A   1      44.488  32.387  28.852  1.00  0.00    -0.206 F 
ATOM     90  C   UNL A   1      45.747  29.165  27.800  1.00  0.00     0.022 A 
BRANCH  87  91
ATOM     91  S   UNL A   1      45.963  26.665  29.015  1.00  0.00     0.124 S 
ATOM     92  O   UNL A   1      47.360  26.831  29.400  1.00  0.00    -0.237 OA
ATOM     93  O   UNL A   1      45.075  26.123  30.037  1.00  0.00    -0.237 OA
ATOM     94  O   UNL A   1      45.742  26.152  27.664  1.00  0.00    -0.744 OA
ENDBRANCH  87  91
ENDBRANCH  60  84
BRANCH  72  95
ATOM     95  C   UNL A   1      46.775  32.314  36.249  1.00  0.00     0.023 A 
ATOM     96  C   UNL A   1      47.739  33.335  36.158  1.00  0.00     0.031 A 
ATOM     97  C   UNL A   1      47.111  31.153  36.969  1.00  0.00     0.131 A 
ATOM     98  C   UNL A   1      49.009  33.149  36.724  1.00  0.00     0.055 A 
ATOM     99  C   UNL A   1      48.351  31.004  37.591  1.00  0.00     0.041 A 
ATOM    100  F   UNL A   1      46.233  30.144  37.086  1.00  0.00    -0.206 F 
ATOM    101  C   UNL A   1      49.314  31.999  37.458  1.00  0.00     0.022 A 
BRANCH  98 102
ATOM    102  S   UNL A   1      50.297  34.385  36.402  1.00  0.00     0.124 S 
ATOM    103  O   UNL A   1      50.843  33.928  35.128  1.00  0.00    -0.237 OA
ATOM    104  O   UNL A   1      49.533  35.628  36.359  1.00  0.00    -0.237 OA
ATOM    105  O   UNL A   1      51.197  34.251  37.546  1.00  0.00    -0.744 OA
ENDBRANCH  98 102
ENDBRANCH  72  95
ENDBRANCH  46  47
ENDBRANCH  39  41
ENDBRANCH  38  39
ENDBRANCH  37  38
ENDBRANCH  36  37
ENDBRANCH  35  36
ENDBRANCH  34  35
ENDBRANCH   1  34
TORSDOF 25
ENDMDL
