MODEL 1
REMARK VINA RESULT:     -12.6      0.000      0.000
REMARK SMILES O=C1C[C@@H](c2cccc(O)c2)c2c(c(C(=O)OCCOCCOC(=O)c3ccc(-c4c5nc(c(-c6cc(S(=O)(=O)[O-])ccc6F)c6ccc([nH]6)c(-c6cc(S(=O)(=O)[O-])ccc6F)c6nc(c(-c7cc(S(=O)(=O)[O-])ccc7F)c7ccc4[nH]7)C=C6)C=C5)cc3)cn2-c2cccc(C(F)(F)F)c2)N1
REMARK SMILES IDX 21 1 20 2 19 3 18 4 17 5 15 6 16 7 14 8 1 9 2 10 3 11 101 12
REMARK SMILES IDX 4 13 13 14 12 16 90 17 89 18 5 19 6 20 11 21 7 22 9 23 8 24
REMARK SMILES IDX 10 25 91 27 92 28 100 29 93 30 95 31 94 32 96 33 97 34 98 35
REMARK SMILES IDX 99 36 22 37 23 38 24 39 25 40 26 41 27 42 88 43 28 44 87 45
REMARK SMILES IDX 29 46 30 47 31 48 81 49 32 50 86 51 80 52 82 53 33 54 85 55
REMARK SMILES IDX 79 56 78 57 34 59 66 60 46 61 65 62 47 63 50 64 64 65 83 66
REMARK SMILES IDX 48 67 49 68 63 70 84 71 51 72 35 73 36 74 44 75 37 76 43 77
REMARK SMILES IDX 45 78 42 79 38 80 39 81 40 82 41 83 67 84 68 85 76 86 69 87
REMARK SMILES IDX 75 88 77 89 74 90 70 91 71 92 72 93 73 94 52 95 53 96 61 97
REMARK SMILES IDX 54 98 60 99 62 100 59 101 55 102 56 103 57 104 58 105
REMARK H PARENT 101 15 10 26 82 58 50 69
REMARK Flexibility Score: inf
ROOT
ATOM      1  C   UNL A   1      39.124  20.926  25.973  1.00  0.00     0.202 C 
ENDROOT
BRANCH   1   2
ATOM      2  O   UNL A   1      38.179  21.569  25.121  1.00  0.00    -0.374 OA
BRANCH   2   3
ATOM      3  C   UNL A   1      36.850  21.815  25.578  1.00  0.00     0.202 C 
BRANCH   3   4
ATOM      4  C   UNL A   1      35.684  21.391  24.681  1.00  0.00     0.261 C 
BRANCH   4   5
ATOM      5  O   UNL A   1      34.439  21.994  25.065  1.00  0.00    -0.460 OA
BRANCH   5   6
ATOM      6  C   UNL A   1      33.686  22.437  24.019  1.00  0.00     0.341 C 
ATOM      7  O   UNL A   1      33.249  21.728  23.120  1.00  0.00    -0.246 OA
BRANCH   6   8
ATOM      8  C   UNL A   1      33.291  23.828  24.155  1.00  0.00     0.102 A 
ATOM      9  O   UNL A   1      32.278  25.155  19.681  1.00  0.00    -0.275 OA
ATOM     10  C   UNL A   1      32.592  25.415  20.841  1.00  0.00     0.225 C 
ATOM     11  C   UNL A   1      32.986  26.816  21.283  1.00  0.00     0.115 C 
ATOM     12  N   UNL A   1      32.764  24.422  21.769  1.00  0.00    -0.324 N 
ATOM     13  C   UNL A   1      32.568  27.171  22.727  1.00  0.00     0.078 C 
ATOM     14  C   UNL A   1      32.917  24.695  23.108  1.00  0.00     0.078 A 
ATOM     15  H   UNL A   1      32.780  23.485  21.469  1.00  0.00     0.170 HD
ATOM     16  C   UNL A   1      32.714  25.961  23.610  1.00  0.00     0.055 A 
ATOM     17  N   UNL A   1      32.867  25.891  24.990  1.00  0.00    -0.317 N 
ATOM     18  C   UNL A   1      33.226  24.587  25.308  1.00  0.00     0.109 A 
BRANCH  13  19
ATOM     19  C   UNL A   1      31.207  27.835  22.718  1.00  0.00    -0.035 A 
ATOM     20  C   UNL A   1      30.054  27.218  23.225  1.00  0.00     0.005 A 
ATOM     21  C   UNL A   1      31.093  29.124  22.165  1.00  0.00     0.050 A 
ATOM     22  C   UNL A   1      28.830  27.894  23.215  1.00  0.00     0.004 A 
ATOM     23  C   UNL A   1      29.879  29.797  22.190  1.00  0.00     0.115 A 
ATOM     24  C   UNL A   1      28.742  29.191  22.708  1.00  0.00     0.046 A 
BRANCH  23  25
ATOM     25  O   UNL A   1      29.858  31.077  21.724  1.00  0.00    -0.508 OA
ATOM     26  H   UNL A   1      29.365  31.287  20.955  1.00  0.00     0.293 HD
ENDBRANCH  23  25
ENDBRANCH  13  19
BRANCH  17  27
ATOM     27  C   UNL A   1      32.761  26.926  25.955  1.00  0.00     0.046 A 
ATOM     28  C   UNL A   1      31.544  27.114  26.621  1.00  0.00     0.026 A 
ATOM     29  C   UNL A   1      33.829  27.796  26.200  1.00  0.00     0.039 A 
ATOM     30  C   UNL A   1      31.421  28.121  27.578  1.00  0.00     0.003 A 
ATOM     31  C   UNL A   1      33.711  28.819  27.156  1.00  0.00     0.058 A 
ATOM     32  C   UNL A   1      32.500  28.961  27.852  1.00  0.00     0.013 A 
BRANCH  31  33
ATOM     33  C   UNL A   1      34.849  29.772  27.443  1.00  0.00     0.416 C 
ATOM     34  F   UNL A   1      35.120  29.866  28.775  1.00  0.00    -0.166 F 
ATOM     35  F   UNL A   1      36.013  29.372  26.859  1.00  0.00    -0.166 F 
ATOM     36  F   UNL A   1      34.632  31.046  27.019  1.00  0.00    -0.166 F 
ENDBRANCH  31  33
ENDBRANCH  17  27
ENDBRANCH   6   8
ENDBRANCH   5   6
ENDBRANCH   4   5
ENDBRANCH   3   4
ENDBRANCH   2   3
ENDBRANCH   1   2
BRANCH   1  37
ATOM     37  C   UNL A   1      40.198  21.751  26.659  1.00  0.00     0.261 C 
BRANCH  37  38
ATOM     38  O   UNL A   1      40.003  23.136  26.447  1.00  0.00    -0.460 OA
BRANCH  38  39
ATOM     39  C   UNL A   1      41.118  23.879  26.661  1.00  0.00     0.338 C 
ATOM     40  O   UNL A   1      42.212  23.718  26.168  1.00  0.00    -0.246 OA
BRANCH  39  41
ATOM     41  C   UNL A   1      40.810  24.844  27.720  1.00  0.00     0.060 A 
ATOM     42  C   UNL A   1      39.657  25.603  27.519  1.00  0.00     0.016 A 
ATOM     43  C   UNL A   1      41.811  25.215  28.629  1.00  0.00     0.016 A 
ATOM     44  C   UNL A   1      39.640  26.880  28.022  1.00  0.00     0.010 A 
ATOM     45  C   UNL A   1      41.806  26.499  29.104  1.00  0.00     0.010 A 
ATOM     46  C   UNL A   1      40.768  27.338  28.710  1.00  0.00    -0.014 A 
BRANCH  46  47
ATOM     47  C   UNL A   1      40.777  28.712  29.156  1.00  0.00     0.031 A 
ATOM     48  C   UNL A   1      41.924  29.441  28.581  1.00  0.00     0.074 A 
ATOM     49  C   UNL A   1      39.782  29.239  29.890  1.00  0.00     0.049 A 
ATOM     50  N   UNL A   1      43.014  29.790  29.179  1.00  0.00    -0.248 NA
ATOM     51  C   UNL A   1      41.994  29.534  27.110  1.00  0.00     0.031 C 
ATOM     52  C   UNL A   1      38.500  28.631  30.255  1.00  0.00     0.029 A 
ATOM     53  N   UNL A   1      39.667  30.496  30.389  1.00  0.00    -0.354 N 
ATOM     54  C   UNL A   1      43.768  30.419  28.195  1.00  0.00     0.074 A 
ATOM     55  C   UNL A   1      43.250  29.946  26.946  1.00  0.00     0.031 C 
ATOM     56  C   UNL A   1      37.660  29.596  30.700  1.00  0.00     0.029 A 
ATOM     57  C   UNL A   1      38.378  30.860  30.765  1.00  0.00     0.049 A 
ATOM     58  H   UNL A   1      40.437  31.103  30.477  1.00  0.00     0.167 HD
ATOM     59  C   UNL A   1      44.475  31.542  28.488  1.00  0.00     0.034 A 
ATOM     60  C   UNL A   1      37.936  32.126  31.016  1.00  0.00     0.034 A 
ATOM     61  C   UNL A   1      44.710  31.633  29.918  1.00  0.00     0.049 A 
ATOM     62  C   UNL A   1      39.147  32.944  31.303  1.00  0.00     0.074 A 
ATOM     63  C   UNL A   1      45.297  30.795  30.851  1.00  0.00     0.029 A 
ATOM     64  N   UNL A   1      43.949  32.519  30.651  1.00  0.00    -0.354 N 
ATOM     65  N   UNL A   1      39.913  32.745  32.342  1.00  0.00    -0.248 NA
ATOM     66  C   UNL A   1      39.794  33.614  30.184  1.00  0.00     0.031 C 
ATOM     67  C   UNL A   1      44.479  30.905  32.015  1.00  0.00     0.029 A 
ATOM     68  C   UNL A   1      43.498  31.870  31.775  1.00  0.00     0.049 A 
ATOM     69  H   UNL A   1      43.761  33.455  30.412  1.00  0.00     0.167 HD
ATOM     70  C   UNL A   1      41.213  32.860  31.866  1.00  0.00     0.074 A 
ATOM     71  C   UNL A   1      41.074  33.477  30.546  1.00  0.00     0.031 C 
ATOM     72  C   UNL A   1      42.245  32.177  32.446  1.00  0.00     0.034 A 
BRANCH  59  73
ATOM     73  C   UNL A   1      44.527  32.753  27.568  1.00  0.00     0.023 A 
ATOM     74  C   UNL A   1      43.833  33.892  28.009  1.00  0.00     0.031 A 
ATOM     75  C   UNL A   1      44.932  32.782  26.210  1.00  0.00     0.131 A 
ATOM     76  C   UNL A   1      43.427  34.887  27.106  1.00  0.00     0.055 A 
ATOM     77  C   UNL A   1      44.574  33.803  25.326  1.00  0.00     0.041 A 
ATOM     78  F   UNL A   1      45.641  31.814  25.622  1.00  0.00    -0.206 F 
ATOM     79  C   UNL A   1      43.779  34.844  25.761  1.00  0.00     0.022 A 
BRANCH  76  80
ATOM     80  S   UNL A   1      42.263  36.134  27.696  1.00  0.00     0.124 S 
ATOM     81  O   UNL A   1      42.755  36.363  29.051  1.00  0.00    -0.237 OA
ATOM     82  O   UNL A   1      42.478  37.214  26.739  1.00  0.00    -0.237 OA
ATOM     83  O   UNL A   1      40.971  35.460  27.602  1.00  0.00    -0.744 OA
ENDBRANCH  76  80
ENDBRANCH  59  73
BRANCH  60  84
ATOM     84  C   UNL A   1      36.621  32.714  30.609  1.00  0.00     0.023 A 
ATOM     85  C   UNL A   1      35.735  33.339  31.519  1.00  0.00     0.031 A 
ATOM     86  C   UNL A   1      36.326  32.880  29.237  1.00  0.00     0.131 A 
ATOM     87  C   UNL A   1      34.621  34.078  31.043  1.00  0.00     0.055 A 
ATOM     88  C   UNL A   1      35.227  33.609  28.774  1.00  0.00     0.041 A 
ATOM     89  F   UNL A   1      37.148  32.412  28.285  1.00  0.00    -0.206 F 
ATOM     90  C   UNL A   1      34.374  34.219  29.676  1.00  0.00     0.022 A 
BRANCH  87  91
ATOM     91  S   UNL A   1      33.500  34.941  32.197  1.00  0.00     0.124 S 
ATOM     92  O   UNL A   1      32.477  35.466  31.301  1.00  0.00    -0.237 OA
ATOM     93  O   UNL A   1      33.089  33.870  33.097  1.00  0.00    -0.237 OA
ATOM     94  O   UNL A   1      34.356  35.958  32.810  1.00  0.00    -0.744 OA
ENDBRANCH  87  91
ENDBRANCH  60  84
BRANCH  72  95
ATOM     95  C   UNL A   1      42.021  31.541  33.805  1.00  0.00     0.023 A 
ATOM     96  C   UNL A   1      42.084  32.213  35.050  1.00  0.00     0.031 A 
ATOM     97  C   UNL A   1      41.605  30.197  33.816  1.00  0.00     0.131 A 
ATOM     98  C   UNL A   1      41.745  31.531  36.239  1.00  0.00     0.055 A 
ATOM     99  C   UNL A   1      41.249  29.534  34.988  1.00  0.00     0.041 A 
ATOM    100  F   UNL A   1      41.500  29.509  32.666  1.00  0.00    -0.206 F 
ATOM    101  C   UNL A   1      41.323  30.198  36.206  1.00  0.00     0.022 A 
BRANCH  98 102
ATOM    102  S   UNL A   1      41.862  32.354  37.862  1.00  0.00     0.124 S 
ATOM    103  O   UNL A   1      42.666  31.431  38.656  1.00  0.00    -0.237 OA
ATOM    104  O   UNL A   1      42.496  33.626  37.526  1.00  0.00    -0.237 OA
ATOM    105  O   UNL A   1      40.466  32.466  38.288  1.00  0.00    -0.744 OA
ENDBRANCH  98 102
ENDBRANCH  72  95
ENDBRANCH  46  47
ENDBRANCH  39  41
ENDBRANCH  38  39
ENDBRANCH  37  38
ENDBRANCH   1  37
TORSDOF 21
ENDMDL
MODEL 2
REMARK VINA RESULT:     -12.5      1.317      1.652
REMARK SMILES O=C1C[C@@H](c2cccc(O)c2)c2c(c(C(=O)OCCOCCOC(=O)c3ccc(-c4c5nc(c(-c6cc(S(=O)(=O)[O-])ccc6F)c6ccc([nH]6)c(-c6cc(S(=O)(=O)[O-])ccc6F)c6nc(c(-c7cc(S(=O)(=O)[O-])ccc7F)c7ccc4[nH]7)C=C6)C=C5)cc3)cn2-c2cccc(C(F)(F)F)c2)N1
REMARK SMILES IDX 21 1 20 2 19 3 18 4 17 5 15 6 16 7 14 8 1 9 2 10 3 11 101 12
REMARK SMILES IDX 4 13 13 14 12 16 90 17 89 18 5 19 6 20 11 21 7 22 9 23 8 24
REMARK SMILES IDX 10 25 91 27 92 28 100 29 93 30 95 31 94 32 96 33 97 34 98 35
REMARK SMILES IDX 99 36 22 37 23 38 24 39 25 40 26 41 27 42 88 43 28 44 87 45
REMARK SMILES IDX 29 46 30 47 31 48 81 49 32 50 86 51 80 52 82 53 33 54 85 55
REMARK SMILES IDX 79 56 78 57 34 59 66 60 46 61 65 62 47 63 50 64 64 65 83 66
REMARK SMILES IDX 48 67 49 68 63 70 84 71 51 72 35 73 36 74 44 75 37 76 43 77
REMARK SMILES IDX 45 78 42 79 38 80 39 81 40 82 41 83 67 84 68 85 76 86 69 87
REMARK SMILES IDX 75 88 77 89 74 90 70 91 71 92 72 93 73 94 52 95 53 96 61 97
REMARK SMILES IDX 54 98 60 99 62 100 59 101 55 102 56 103 57 104 58 105
REMARK H PARENT 101 15 10 26 82 58 50 69
REMARK Flexibility Score: inf
ROOT
ATOM      1  C   UNL A   1      39.987  21.400  26.537  1.00  0.00     0.202 C 
ENDROOT
BRANCH   1   2
ATOM      2  O   UNL A   1      38.849  22.207  26.249  1.00  0.00    -0.374 OA
BRANCH   2   3
ATOM      3  C   UNL A   1      37.853  21.748  25.336  1.00  0.00     0.202 C 
BRANCH   3   4
ATOM      4  C   UNL A   1      36.783  22.739  24.871  1.00  0.00     0.261 C 
BRANCH   4   5
ATOM      5  O   UNL A   1      35.506  22.507  25.486  1.00  0.00    -0.460 OA
BRANCH   5   6
ATOM      6  C   UNL A   1      34.443  22.681  24.652  1.00  0.00     0.341 C 
ATOM      7  O   UNL A   1      33.858  21.779  24.065  1.00  0.00    -0.246 OA
BRANCH   6   8
ATOM      8  C   UNL A   1      33.942  24.044  24.650  1.00  0.00     0.102 A 
ATOM      9  O   UNL A   1      32.646  24.761  20.110  1.00  0.00    -0.275 OA
ATOM     10  C   UNL A   1      32.983  25.177  21.216  1.00  0.00     0.225 C 
ATOM     11  C   UNL A   1      33.280  26.646  21.477  1.00  0.00     0.115 C 
ATOM     12  N   UNL A   1      33.273  24.315  22.240  1.00  0.00    -0.324 N 
ATOM     13  C   UNL A   1      32.894  27.134  22.890  1.00  0.00     0.078 C 
ATOM     14  C   UNL A   1      33.457  24.752  23.531  1.00  0.00     0.078 A 
ATOM     15  H   UNL A   1      33.353  23.353  22.047  1.00  0.00     0.170 HD
ATOM     16  C   UNL A   1      33.173  26.049  23.897  1.00  0.00     0.055 A 
ATOM     17  N   UNL A   1      33.386  26.152  25.266  1.00  0.00    -0.317 N 
ATOM     18  C   UNL A   1      33.862  24.925  25.711  1.00  0.00     0.109 A 
BRANCH  13  19
ATOM     19  C   UNL A   1      31.484  27.686  22.874  1.00  0.00    -0.035 A 
ATOM     20  C   UNL A   1      30.377  26.968  23.349  1.00  0.00     0.005 A 
ATOM     21  C   UNL A   1      31.275  28.975  22.348  1.00  0.00     0.050 A 
ATOM     22  C   UNL A   1      29.103  27.543  23.333  1.00  0.00     0.004 A 
ATOM     23  C   UNL A   1      30.010  29.548  22.368  1.00  0.00     0.115 A 
ATOM     24  C   UNL A   1      28.918  28.841  22.854  1.00  0.00     0.046 A 
BRANCH  23  25
ATOM     25  O   UNL A   1      29.892  30.832  21.930  1.00  0.00    -0.508 OA
ATOM     26  H   UNL A   1      30.657  31.363  21.824  1.00  0.00     0.293 HD
ENDBRANCH  23  25
ENDBRANCH  13  19
BRANCH  17  27
ATOM     27  C   UNL A   1      33.235  27.281  26.112  1.00  0.00     0.046 A 
ATOM     28  C   UNL A   1      31.957  27.625  26.568  1.00  0.00     0.026 A 
ATOM     29  C   UNL A   1      34.330  28.087  26.441  1.00  0.00     0.039 A 
ATOM     30  C   UNL A   1      31.788  28.728  27.406  1.00  0.00     0.003 A 
ATOM     31  C   UNL A   1      34.168  29.205  27.278  1.00  0.00     0.058 A 
ATOM     32  C   UNL A   1      32.887  29.506  27.768  1.00  0.00     0.013 A 
BRANCH  31  33
ATOM     33  C   UNL A   1      35.334  30.092  27.652  1.00  0.00     0.416 C 
ATOM     34  F   UNL A   1      35.151  31.382  27.252  1.00  0.00    -0.166 F 
ATOM     35  F   UNL A   1      35.523  30.150  29.001  1.00  0.00    -0.166 F 
ATOM     36  F   UNL A   1      36.525  29.705  27.121  1.00  0.00    -0.166 F 
ENDBRANCH  31  33
ENDBRANCH  17  27
ENDBRANCH   6   8
ENDBRANCH   5   6
ENDBRANCH   4   5
ENDBRANCH   3   4
ENDBRANCH   2   3
ENDBRANCH   1   2
BRANCH   1  37
ATOM     37  C   UNL A   1      41.369  21.878  26.129  1.00  0.00     0.261 C 
BRANCH  37  38
ATOM     38  O   UNL A   1      41.864  22.856  27.024  1.00  0.00    -0.460 OA
BRANCH  38  39
ATOM     39  C   UNL A   1      41.919  24.101  26.488  1.00  0.00     0.338 C 
ATOM     40  O   UNL A   1      42.387  24.420  25.418  1.00  0.00    -0.246 OA
BRANCH  39  41
ATOM     41  C   UNL A   1      41.435  25.041  27.503  1.00  0.00     0.060 A 
ATOM     42  C   UNL A   1      40.390  25.871  27.098  1.00  0.00     0.016 A 
ATOM     43  C   UNL A   1      42.231  25.319  28.624  1.00  0.00     0.016 A 
ATOM     44  C   UNL A   1      40.325  27.127  27.649  1.00  0.00     0.010 A 
ATOM     45  C   UNL A   1      42.184  26.581  29.150  1.00  0.00     0.010 A 
ATOM     46  C   UNL A   1      41.297  27.493  28.585  1.00  0.00    -0.014 A 
BRANCH  46  47
ATOM     47  C   UNL A   1      41.274  28.846  29.090  1.00  0.00     0.031 A 
ATOM     48  C   UNL A   1      42.383  29.636  28.520  1.00  0.00     0.074 A 
ATOM     49  C   UNL A   1      40.283  29.308  29.872  1.00  0.00     0.049 A 
ATOM     50  N   UNL A   1      43.476  29.995  29.105  1.00  0.00    -0.248 NA
ATOM     51  C   UNL A   1      42.410  29.795  27.053  1.00  0.00     0.031 C 
ATOM     52  C   UNL A   1      39.031  28.643  30.241  1.00  0.00     0.029 A 
ATOM     53  N   UNL A   1      40.142  30.538  30.428  1.00  0.00    -0.354 N 
ATOM     54  C   UNL A   1      44.183  30.690  28.131  1.00  0.00     0.074 A 
ATOM     55  C   UNL A   1      43.648  30.255  26.876  1.00  0.00     0.031 C 
ATOM     56  C   UNL A   1      38.173  29.560  30.749  1.00  0.00     0.029 A 
ATOM     57  C   UNL A   1      38.852  30.842  30.852  1.00  0.00     0.049 A 
ATOM     58  H   UNL A   1      40.894  31.166  30.524  1.00  0.00     0.167 HD
ATOM     59  C   UNL A   1      44.862  31.822  28.455  1.00  0.00     0.034 A 
ATOM     60  C   UNL A   1      38.377  32.081  31.169  1.00  0.00     0.034 A 
ATOM     61  C   UNL A   1      45.132  31.859  29.882  1.00  0.00     0.049 A 
ATOM     62  C   UNL A   1      39.569  32.926  31.462  1.00  0.00     0.074 A 
ATOM     63  C   UNL A   1      45.769  31.001  30.762  1.00  0.00     0.029 A 
ATOM     64  N   UNL A   1      44.363  32.687  30.672  1.00  0.00    -0.354 N 
ATOM     65  N   UNL A   1      40.368  32.707  32.472  1.00  0.00    -0.248 NA
ATOM     66  C   UNL A   1      40.164  33.665  30.357  1.00  0.00     0.031 C 
ATOM     67  C   UNL A   1      44.979  31.034  31.950  1.00  0.00     0.029 A 
ATOM     68  C   UNL A   1      43.963  31.975  31.777  1.00  0.00     0.049 A 
ATOM     69  H   UNL A   1      44.139  33.626  30.479  1.00  0.00     0.167 HD
ATOM     70  C   UNL A   1      41.650  32.886  31.969  1.00  0.00     0.074 A 
ATOM     71  C   UNL A   1      41.457  33.554  30.681  1.00  0.00     0.031 C 
ATOM     72  C   UNL A   1      42.718  32.212  32.492  1.00  0.00     0.034 A 
BRANCH  59  73
ATOM     73  C   UNL A   1      44.851  33.073  27.589  1.00  0.00     0.023 A 
ATOM     74  C   UNL A   1      44.087  34.149  28.069  1.00  0.00     0.031 A 
ATOM     75  C   UNL A   1      45.267  33.185  26.238  1.00  0.00     0.131 A 
ATOM     76  C   UNL A   1      43.631  35.156  27.204  1.00  0.00     0.055 A 
ATOM     77  C   UNL A   1      44.858  34.220  25.394  1.00  0.00     0.041 A 
ATOM     78  F   UNL A   1      46.038  32.286  25.619  1.00  0.00    -0.206 F 
ATOM     79  C   UNL A   1      43.998  35.193  25.864  1.00  0.00     0.022 A 
BRANCH  76  80
ATOM     80  S   UNL A   1      42.389  36.306  27.833  1.00  0.00     0.124 S 
ATOM     81  O   UNL A   1      41.162  35.549  27.609  1.00  0.00    -0.237 OA
ATOM     82  O   UNL A   1      42.809  36.463  29.221  1.00  0.00    -0.237 OA
ATOM     83  O   UNL A   1      42.564  37.484  26.988  1.00  0.00    -0.744 OA
ENDBRANCH  76  80
ENDBRANCH  59  73
BRANCH  60  84
ATOM     84  C   UNL A   1      37.034  32.643  30.822  1.00  0.00     0.023 A 
ATOM     85  C   UNL A   1      36.082  33.037  31.792  1.00  0.00     0.031 A 
ATOM     86  C   UNL A   1      36.763  33.029  29.489  1.00  0.00     0.131 A 
ATOM     87  C   UNL A   1      34.930  33.773  31.411  1.00  0.00     0.055 A 
ATOM     88  C   UNL A   1      35.626  33.754  29.119  1.00  0.00     0.041 A 
ATOM     89  F   UNL A   1      37.640  32.791  28.502  1.00  0.00    -0.206 F 
ATOM     90  C   UNL A   1      34.709  34.136  30.081  1.00  0.00     0.022 A 
BRANCH  87  91
ATOM     91  S   UNL A   1      33.721  34.342  32.654  1.00  0.00     0.124 S 
ATOM     92  O   UNL A   1      33.275  33.088  33.251  1.00  0.00    -0.237 OA
ATOM     93  O   UNL A   1      34.526  35.214  33.501  1.00  0.00    -0.237 OA
ATOM     94  O   UNL A   1      32.707  35.034  31.856  1.00  0.00    -0.744 OA
ENDBRANCH  87  91
ENDBRANCH  60  84
BRANCH  72  95
ATOM     95  C   UNL A   1      42.550  31.510  33.827  1.00  0.00     0.023 A 
ATOM     96  C   UNL A   1      42.257  30.137  34.005  1.00  0.00     0.031 A 
ATOM     97  C   UNL A   1      42.821  32.269  34.981  1.00  0.00     0.131 A 
ATOM     98  C   UNL A   1      42.236  29.582  35.303  1.00  0.00     0.055 A 
ATOM     99  C   UNL A   1      42.822  31.713  36.258  1.00  0.00     0.041 A 
ATOM    100  F   UNL A   1      43.129  33.573  34.879  1.00  0.00    -0.206 F 
ATOM    101  C   UNL A   1      42.524  30.367  36.424  1.00  0.00     0.022 A 
BRANCH  98 102
ATOM    102  S   UNL A   1      41.815  27.827  35.570  1.00  0.00     0.124 S 
ATOM    103  O   UNL A   1      41.153  27.443  34.328  1.00  0.00    -0.237 OA
ATOM    104  O   UNL A   1      43.122  27.222  35.812  1.00  0.00    -0.237 OA
ATOM    105  O   UNL A   1      40.937  27.862  36.741  1.00  0.00    -0.744 OA
ENDBRANCH  98 102
ENDBRANCH  72  95
ENDBRANCH  46  47
ENDBRANCH  39  41
ENDBRANCH  38  39
ENDBRANCH  37  38
ENDBRANCH   1  37
TORSDOF 21
ENDMDL
MODEL 3
REMARK VINA RESULT:     -12.1      4.048      8.666
REMARK SMILES O=C1C[C@@H](c2cccc(O)c2)c2c(c(C(=O)OCCOCCOC(=O)c3ccc(-c4c5nc(c(-c6cc(S(=O)(=O)[O-])ccc6F)c6ccc([nH]6)c(-c6cc(S(=O)(=O)[O-])ccc6F)c6nc(c(-c7cc(S(=O)(=O)[O-])ccc7F)c7ccc4[nH]7)C=C6)C=C5)cc3)cn2-c2cccc(C(F)(F)F)c2)N1
REMARK SMILES IDX 21 1 20 2 19 3 18 4 17 5 15 6 16 7 14 8 1 9 2 10 3 11 101 12
REMARK SMILES IDX 4 13 13 14 12 16 90 17 89 18 5 19 6 20 11 21 7 22 9 23 8 24
REMARK SMILES IDX 10 25 91 27 92 28 100 29 93 30 95 31 94 32 96 33 97 34 98 35
REMARK SMILES IDX 99 36 22 37 23 38 24 39 25 40 26 41 27 42 88 43 28 44 87 45
REMARK SMILES IDX 29 46 30 47 31 48 81 49 32 50 86 51 80 52 82 53 33 54 85 55
REMARK SMILES IDX 79 56 78 57 34 59 66 60 46 61 65 62 47 63 50 64 64 65 83 66
REMARK SMILES IDX 48 67 49 68 63 70 84 71 51 72 35 73 36 74 44 75 37 76 43 77
REMARK SMILES IDX 45 78 42 79 38 80 39 81 40 82 41 83 67 84 68 85 76 86 69 87
REMARK SMILES IDX 75 88 77 89 74 90 70 91 71 92 72 93 73 94 52 95 53 96 61 97
REMARK SMILES IDX 54 98 60 99 62 100 59 101 55 102 56 103 57 104 58 105
REMARK H PARENT 101 15 10 26 82 58 50 69
REMARK Flexibility Score: inf
ROOT
ATOM      1  C   UNL A   1      35.368  32.752  30.098  1.00  0.00     0.202 C 
ENDROOT
BRANCH   1   2
ATOM      2  O   UNL A   1      35.546  33.128  28.735  1.00  0.00    -0.374 OA
BRANCH   2   3
ATOM      3  C   UNL A   1      35.255  32.202  27.688  1.00  0.00     0.202 C 
BRANCH   3   4
ATOM      4  C   UNL A   1      34.010  31.321  27.825  1.00  0.00     0.261 C 
BRANCH   4   5
ATOM      5  O   UNL A   1      34.016  30.207  26.919  1.00  0.00    -0.460 OA
BRANCH   5   6
ATOM      6  C   UNL A   1      32.798  29.917  26.381  1.00  0.00     0.341 C 
ATOM      7  O   UNL A   1      31.916  30.737  26.161  1.00  0.00    -0.246 OA
BRANCH   6   8
ATOM      8  C   UNL A   1      32.696  28.543  25.920  1.00  0.00     0.102 A 
ATOM      9  O   UNL A   1      30.104  28.887  21.924  1.00  0.00    -0.275 OA
ATOM     10  C   UNL A   1      30.539  28.246  22.878  1.00  0.00     0.225 C 
ATOM     11  C   UNL A   1      30.081  26.828  23.183  1.00  0.00     0.115 C 
ATOM     12  N   UNL A   1      31.342  28.832  23.820  1.00  0.00    -0.324 N 
ATOM     13  C   UNL A   1      31.174  25.920  23.789  1.00  0.00     0.078 C 
ATOM     14  C   UNL A   1      32.000  28.097  24.778  1.00  0.00     0.078 A 
ATOM     15  H   UNL A   1      31.452  29.811  23.812  1.00  0.00     0.170 HD
ATOM     16  C   UNL A   1      32.039  26.722  24.725  1.00  0.00     0.055 A 
ATOM     17  N   UNL A   1      32.836  26.286  25.776  1.00  0.00    -0.317 N 
ATOM     18  C   UNL A   1      33.224  27.407  26.502  1.00  0.00     0.109 A 
BRANCH  13  19
ATOM     19  C   UNL A   1      31.892  25.176  22.683  1.00  0.00    -0.035 A 
ATOM     20  C   UNL A   1      32.279  23.832  22.793  1.00  0.00     0.005 A 
ATOM     21  C   UNL A   1      32.194  25.867  21.495  1.00  0.00     0.050 A 
ATOM     22  C   UNL A   1      32.914  23.190  21.726  1.00  0.00     0.004 A 
ATOM     23  C   UNL A   1      32.797  25.211  20.431  1.00  0.00     0.115 A 
ATOM     24  C   UNL A   1      33.164  23.876  20.536  1.00  0.00     0.046 A 
BRANCH  23  25
ATOM     25  O   UNL A   1      32.977  25.912  19.277  1.00  0.00    -0.508 OA
ATOM     26  H   UNL A   1      33.737  26.450  19.170  1.00  0.00     0.293 HD
ENDBRANCH  23  25
ENDBRANCH  13  19
BRANCH  17  27
ATOM     27  C   UNL A   1      33.181  24.961  26.149  1.00  0.00     0.046 A 
ATOM     28  C   UNL A   1      32.316  24.240  26.979  1.00  0.00     0.026 A 
ATOM     29  C   UNL A   1      34.398  24.395  25.754  1.00  0.00     0.039 A 
ATOM     30  C   UNL A   1      32.633  22.934  27.353  1.00  0.00     0.003 A 
ATOM     31  C   UNL A   1      34.731  23.083  26.133  1.00  0.00     0.058 A 
ATOM     32  C   UNL A   1      33.827  22.355  26.923  1.00  0.00     0.013 A 
BRANCH  31  33
ATOM     33  C   UNL A   1      36.037  22.444  25.719  1.00  0.00     0.416 C 
ATOM     34  F   UNL A   1      36.114  22.253  24.372  1.00  0.00    -0.166 F 
ATOM     35  F   UNL A   1      37.112  23.217  26.042  1.00  0.00    -0.166 F 
ATOM     36  F   UNL A   1      36.266  21.226  26.279  1.00  0.00    -0.166 F 
ENDBRANCH  31  33
ENDBRANCH  17  27
ENDBRANCH   6   8
ENDBRANCH   5   6
ENDBRANCH   4   5
ENDBRANCH   3   4
ENDBRANCH   2   3
ENDBRANCH   1   2
BRANCH   1  37
ATOM     37  C   UNL A   1      36.497  32.061  30.840  1.00  0.00     0.261 C 
BRANCH  37  38
ATOM     38  O   UNL A   1      37.153  31.113  30.019  1.00  0.00    -0.460 OA
BRANCH  38  39
ATOM     39  C   UNL A   1      36.859  29.827  30.337  1.00  0.00     0.338 C 
ATOM     40  O   UNL A   1      36.036  29.437  31.134  1.00  0.00    -0.246 OA
BRANCH  39  41
ATOM     41  C   UNL A   1      37.825  28.969  29.645  1.00  0.00     0.060 A 
ATOM     42  C   UNL A   1      38.416  27.980  30.431  1.00  0.00     0.016 A 
ATOM     43  C   UNL A   1      38.365  29.384  28.419  1.00  0.00     0.016 A 
ATOM     44  C   UNL A   1      39.702  27.610  30.127  1.00  0.00     0.010 A 
ATOM     45  C   UNL A   1      39.658  29.036  28.135  1.00  0.00     0.010 A 
ATOM     46  C   UNL A   1      40.335  28.232  29.047  1.00  0.00    -0.014 A 
BRANCH  46  47
ATOM     47  C   UNL A   1      41.718  27.902  28.791  1.00  0.00     0.031 A 
ATOM     48  C   UNL A   1      41.827  26.597  28.111  1.00  0.00     0.074 A 
ATOM     49  C   UNL A   1      42.723  28.760  29.041  1.00  0.00     0.049 A 
ATOM     50  N   UNL A   1      42.201  25.472  28.623  1.00  0.00    -0.248 NA
ATOM     51  C   UNL A   1      41.171  26.466  26.796  1.00  0.00     0.031 C 
ATOM     52  C   UNL A   1      42.639  30.160  29.461  1.00  0.00     0.029 A 
ATOM     53  N   UNL A   1      44.057  28.580  28.868  1.00  0.00    -0.354 N 
ATOM     54  C   UNL A   1      42.103  24.561  27.578  1.00  0.00     0.074 A 
ATOM     55  C   UNL A   1      41.191  25.143  26.639  1.00  0.00     0.031 C 
ATOM     56  C   UNL A   1      43.843  30.753  29.275  1.00  0.00     0.029 A 
ATOM     57  C   UNL A   1      44.805  29.753  28.840  1.00  0.00     0.049 A 
ATOM     58  H   UNL A   1      44.463  27.688  28.769  1.00  0.00     0.167 HD
ATOM     59  C   UNL A   1      43.059  23.611  27.405  1.00  0.00     0.034 A 
ATOM     60  C   UNL A   1      46.090  29.881  28.401  1.00  0.00     0.034 A 
ATOM     61  C   UNL A   1      43.791  23.401  28.642  1.00  0.00     0.049 A 
ATOM     62  C   UNL A   1      46.685  28.516  28.439  1.00  0.00     0.074 A 
ATOM     63  C   UNL A   1      43.421  23.061  29.932  1.00  0.00     0.029 A 
ATOM     64  N   UNL A   1      45.054  23.944  28.755  1.00  0.00    -0.354 N 
ATOM     65  N   UNL A   1      46.874  27.851  29.547  1.00  0.00    -0.248 NA
ATOM     66  C   UNL A   1      46.577  27.695  27.241  1.00  0.00     0.031 C 
ATOM     67  C   UNL A   1      44.248  23.860  30.777  1.00  0.00     0.029 A 
ATOM     68  C   UNL A   1      45.143  24.570  29.975  1.00  0.00     0.049 A 
ATOM     69  H   UNL A   1      45.768  23.893  28.080  1.00  0.00     0.167 HD
ATOM     70  C   UNL A   1      46.481  26.549  29.263  1.00  0.00     0.074 A 
ATOM     71  C   UNL A   1      46.384  26.497  27.804  1.00  0.00     0.031 C 
ATOM     72  C   UNL A   1      45.981  25.730  30.237  1.00  0.00     0.034 A 
BRANCH  59  73
ATOM     73  C   UNL A   1      43.625  23.242  26.042  1.00  0.00     0.023 A 
ATOM     74  C   UNL A   1      43.527  21.888  25.680  1.00  0.00     0.031 A 
ATOM     75  C   UNL A   1      44.488  24.022  25.232  1.00  0.00     0.131 A 
ATOM     76  C   UNL A   1      44.370  21.339  24.701  1.00  0.00     0.055 A 
ATOM     77  C   UNL A   1      45.284  23.481  24.219  1.00  0.00     0.041 A 
ATOM     78  F   UNL A   1      44.675  25.336  25.391  1.00  0.00    -0.206 F 
ATOM     79  C   UNL A   1      45.261  22.122  23.976  1.00  0.00     0.022 A 
BRANCH  76  80
ATOM     80  S   UNL A   1      44.409  19.541  24.537  1.00  0.00     0.124 S 
ATOM     81  O   UNL A   1      44.632  19.391  23.103  1.00  0.00    -0.237 OA
ATOM     82  O   UNL A   1      45.527  19.190  25.406  1.00  0.00    -0.237 OA
ATOM     83  O   UNL A   1      43.091  19.131  25.015  1.00  0.00    -0.744 OA
ENDBRANCH  76  80
ENDBRANCH  59  73
BRANCH  60  84
ATOM     84  C   UNL A   1      46.650  31.002  27.583  1.00  0.00     0.023 A 
ATOM     85  C   UNL A   1      45.850  32.005  26.986  1.00  0.00     0.031 A 
ATOM     86  C   UNL A   1      48.045  31.234  27.580  1.00  0.00     0.131 A 
ATOM     87  C   UNL A   1      46.449  33.162  26.423  1.00  0.00     0.055 A 
ATOM     88  C   UNL A   1      48.630  32.375  27.024  1.00  0.00     0.041 A 
ATOM     89  F   UNL A   1      48.892  30.397  28.199  1.00  0.00    -0.206 F 
ATOM     90  C   UNL A   1      47.832  33.349  26.451  1.00  0.00     0.022 A 
BRANCH  87  91
ATOM     91  S   UNL A   1      45.430  34.495  25.703  1.00  0.00     0.124 S 
ATOM     92  O   UNL A   1      45.019  33.917  24.428  1.00  0.00    -0.237 OA
ATOM     93  O   UNL A   1      44.385  34.669  26.704  1.00  0.00    -0.237 OA
ATOM     94  O   UNL A   1      46.363  35.618  25.593  1.00  0.00    -0.744 OA
ENDBRANCH  87  91
ENDBRANCH  60  84
BRANCH  72  95
ATOM     95  C   UNL A   1      46.152  26.139  31.688  1.00  0.00     0.023 A 
ATOM     96  C   UNL A   1      45.143  26.693  32.512  1.00  0.00     0.031 A 
ATOM     97  C   UNL A   1      47.387  25.837  32.290  1.00  0.00     0.131 A 
ATOM     98  C   UNL A   1      45.400  26.929  33.880  1.00  0.00     0.055 A 
ATOM     99  C   UNL A   1      47.629  26.049  33.645  1.00  0.00     0.041 A 
ATOM    100  F   UNL A   1      48.378  25.288  31.569  1.00  0.00    -0.206 F 
ATOM    101  C   UNL A   1      46.637  26.601  34.445  1.00  0.00     0.022 A 
BRANCH  98 102
ATOM    102  S   UNL A   1      44.137  27.685  34.958  1.00  0.00     0.124 S 
ATOM    103  O   UNL A   1      42.915  26.973  34.603  1.00  0.00    -0.237 OA
ATOM    104  O   UNL A   1      44.665  27.423  36.294  1.00  0.00    -0.237 OA
ATOM    105  O   UNL A   1      44.155  29.095  34.565  1.00  0.00    -0.744 OA
ENDBRANCH  98 102
ENDBRANCH  72  95
ENDBRANCH  46  47
ENDBRANCH  39  41
ENDBRANCH  38  39
ENDBRANCH  37  38
ENDBRANCH   1  37
TORSDOF 21
ENDMDL
