MODEL 1
REMARK VINA RESULT:     -11.7      0.000      0.000
REMARK SMILES COC(=O)c1ccc(C)c(NC(=O)[C@H]2CC=CC[C@H]2C(=O)OCCOCCOC(=O)c2ccc(-c3c4nc(c(-c5cc(S(=O)(=O)[O-])ccc5F)c5ccc([nH]5)c(-c5cc(S(=O)(=O)[O-])ccc5F)c5nc(c(-c6cc(S(=O)(=O)[O-])ccc6F)c6ccc3[nH]6)C=C5)C=C4)cc2)c1
REMARK SMILES IDX 24 1 23 2 22 3 20 4 21 5 19 6 14 7 15 8 16 9 18 10 17 11
REMARK SMILES IDX 12 12 11 13 13 15 10 16 5 17 6 18 94 19 7 20 8 21 9 22 3 23
REMARK SMILES IDX 4 24 2 25 1 26 25 27 26 28 27 29 28 30 29 31 30 32 31 33
REMARK SMILES IDX 32 34 93 35 33 36 92 37 34 38 35 39 36 40 86 41 37 42 91 43
REMARK SMILES IDX 85 44 87 45 38 46 90 47 84 48 83 49 39 51 71 52 51 53 70 54
REMARK SMILES IDX 52 55 55 56 69 57 88 58 53 59 54 60 68 62 89 63 56 64 40 65
REMARK SMILES IDX 41 66 49 67 42 68 48 69 50 70 47 71 43 72 44 73 45 74 46 75
REMARK SMILES IDX 72 76 73 77 81 78 74 79 80 80 82 81 79 82 75 83 76 84 77 85
REMARK SMILES IDX 78 86 57 87 58 88 66 89 59 90 65 91 67 92 64 93 60 94 61 95
REMARK SMILES IDX 62 96 63 97
REMARK H PARENT 11 14 87 50 55 61
REMARK Flexibility Score: inf
ROOT
ATOM      1  C   UNL A   1      32.465  30.124  26.386  1.00  0.00     0.202 C 
ENDROOT
BRANCH   1   2
ATOM      2  C   UNL A   1      32.564  28.864  27.206  1.00  0.00     0.261 C 
BRANCH   2   3
ATOM      3  O   UNL A   1      32.928  27.751  26.409  1.00  0.00    -0.463 OA
BRANCH   3   4
ATOM      4  C   UNL A   1      31.970  26.808  26.281  1.00  0.00     0.310 C 
ATOM      5  O   UNL A   1      30.833  26.851  26.715  1.00  0.00    -0.252 OA
BRANCH   4   6
ATOM      6  C   UNL A   1      32.476  25.724  25.391  1.00  0.00     0.116 C 
ATOM      7  C   UNL A   1      31.689  25.575  24.052  1.00  0.00     0.097 C 
ATOM      8  C   UNL A   1      32.191  24.226  23.459  1.00  0.00     0.041 C 
ATOM      9  C   UNL A   1      33.693  24.027  23.535  1.00  0.00    -0.030 C 
ATOM     10  C   UNL A   1      33.989  25.825  25.242  1.00  0.00     0.043 C 
ATOM     11  C   UNL A   1      34.501  24.766  24.312  1.00  0.00    -0.030 C 
BRANCH   7  12
ATOM     12  C   UNL A   1      31.904  26.694  22.996  1.00  0.00     0.228 C 
ATOM     13  N   UNL A   1      31.157  27.824  22.799  1.00  0.00    -0.326 N 
ATOM     14  H   UNL A   1      31.744  28.526  22.438  1.00  0.00     0.169 HD
ATOM     15  O   UNL A   1      32.907  26.606  22.272  1.00  0.00    -0.274 OA
BRANCH  13  16
ATOM     16  C   UNL A   1      29.836  28.356  22.924  1.00  0.00     0.044 A 
ATOM     17  C   UNL A   1      28.478  30.411  22.421  1.00  0.00     0.062 A 
ATOM     18  C   UNL A   1      27.366  29.808  22.983  1.00  0.00     0.016 A 
ATOM     19  C   UNL A   1      29.694  29.696  22.458  1.00  0.00     0.042 A 
ATOM     20  C   UNL A   1      27.459  28.489  23.438  1.00  0.00     0.006 A 
ATOM     21  C   UNL A   1      28.660  27.725  23.350  1.00  0.00    -0.027 A 
ATOM     22  C   UNL A   1      28.546  26.279  23.729  1.00  0.00     0.046 C 
BRANCH  17  23
ATOM     23  C   UNL A   1      28.261  31.724  21.703  1.00  0.00     0.337 C 
ATOM     24  O   UNL A   1      28.391  31.880  20.506  1.00  0.00    -0.246 OA
BRANCH  23  25
ATOM     25  O   UNL A   1      27.976  32.692  22.584  1.00  0.00    -0.465 OA
ATOM     26  C   UNL A   1      29.018  33.538  23.083  1.00  0.00     0.282 C 
ENDBRANCH  23  25
ENDBRANCH  17  23
ENDBRANCH  13  16
ENDBRANCH   7  12
ENDBRANCH   4   6
ENDBRANCH   3   4
ENDBRANCH   2   3
ENDBRANCH   1   2
BRANCH   1  27
ATOM     27  O   UNL A   1      32.621  31.266  27.211  1.00  0.00    -0.374 OA
BRANCH  27  28
ATOM     28  C   UNL A   1      31.739  32.338  26.935  1.00  0.00     0.202 C 
BRANCH  28  29
ATOM     29  C   UNL A   1      32.319  33.734  27.230  1.00  0.00     0.261 C 
BRANCH  29  30
ATOM     30  O   UNL A   1      32.523  33.966  28.648  1.00  0.00    -0.460 OA
BRANCH  30  31
ATOM     31  C   UNL A   1      33.738  34.450  29.051  1.00  0.00     0.338 C 
ATOM     32  O   UNL A   1      34.023  35.636  29.104  1.00  0.00    -0.246 OA
BRANCH  31  33
ATOM     33  C   UNL A   1      34.683  33.334  29.363  1.00  0.00     0.060 A 
ATOM     34  C   UNL A   1      34.703  32.690  30.621  1.00  0.00     0.016 A 
ATOM     35  C   UNL A   1      35.733  33.137  28.485  1.00  0.00     0.016 A 
ATOM     36  C   UNL A   1      35.848  31.977  31.053  1.00  0.00     0.010 A 
ATOM     37  C   UNL A   1      36.895  32.589  28.978  1.00  0.00     0.010 A 
ATOM     38  C   UNL A   1      36.983  31.978  30.250  1.00  0.00    -0.014 A 
BRANCH  38  39
ATOM     39  C   UNL A   1      38.361  31.525  30.561  1.00  0.00     0.031 A 
ATOM     40  C   UNL A   1      38.714  30.149  30.071  1.00  0.00     0.074 A 
ATOM     41  C   UNL A   1      39.385  32.386  30.834  1.00  0.00     0.049 A 
ATOM     42  N   UNL A   1      39.898  29.656  30.062  1.00  0.00    -0.248 NA
ATOM     43  C   UNL A   1      37.733  29.200  29.534  1.00  0.00     0.031 C 
ATOM     44  C   UNL A   1      40.747  32.272  30.291  1.00  0.00     0.029 A 
ATOM     45  N   UNL A   1      39.461  33.547  31.624  1.00  0.00    -0.354 N 
ATOM     46  C   UNL A   1      39.904  28.526  29.280  1.00  0.00     0.074 A 
ATOM     47  C   UNL A   1      38.519  28.256  29.011  1.00  0.00     0.031 C 
ATOM     48  C   UNL A   1      41.561  33.139  30.901  1.00  0.00     0.029 A 
ATOM     49  C   UNL A   1      40.819  33.744  31.981  1.00  0.00     0.049 A 
ATOM     50  H   UNL A   1      38.705  34.121  31.882  1.00  0.00     0.167 HD
ATOM     51  C   UNL A   1      41.108  28.011  28.911  1.00  0.00     0.034 A 
ATOM     52  C   UNL A   1      41.251  33.833  33.272  1.00  0.00     0.034 A 
ATOM     53  C   UNL A   1      42.186  28.684  29.643  1.00  0.00     0.049 A 
ATOM     54  C   UNL A   1      42.155  32.728  33.681  1.00  0.00     0.074 A 
ATOM     55  C   UNL A   1      43.137  29.632  29.319  1.00  0.00     0.029 A 
ATOM     56  N   UNL A   1      42.192  28.573  31.026  1.00  0.00    -0.354 N 
ATOM     57  N   UNL A   1      42.506  31.773  32.875  1.00  0.00    -0.248 NA
ATOM     58  C   UNL A   1      42.662  32.551  35.033  1.00  0.00     0.031 C 
ATOM     59  C   UNL A   1      43.668  30.136  30.541  1.00  0.00     0.029 A 
ATOM     60  C   UNL A   1      43.080  29.458  31.598  1.00  0.00     0.049 A 
ATOM     61  H   UNL A   1      41.632  27.944  31.534  1.00  0.00     0.167 HD
ATOM     62  C   UNL A   1      43.062  30.765  33.599  1.00  0.00     0.074 A 
ATOM     63  C   UNL A   1      43.244  31.347  34.919  1.00  0.00     0.031 C 
ATOM     64  C   UNL A   1      43.205  29.523  33.051  1.00  0.00     0.034 A 
BRANCH  51  65
ATOM     65  C   UNL A   1      41.398  26.960  27.865  1.00  0.00     0.023 A 
ATOM     66  C   UNL A   1      41.878  25.709  28.314  1.00  0.00     0.031 A 
ATOM     67  C   UNL A   1      41.299  27.093  26.467  1.00  0.00     0.131 A 
ATOM     68  C   UNL A   1      42.235  24.685  27.419  1.00  0.00     0.055 A 
ATOM     69  C   UNL A   1      41.629  26.062  25.573  1.00  0.00     0.041 A 
ATOM     70  F   UNL A   1      40.904  28.222  25.872  1.00  0.00    -0.206 F 
ATOM     71  C   UNL A   1      42.104  24.851  26.047  1.00  0.00     0.022 A 
BRANCH  68  72
ATOM     72  S   UNL A   1      42.899  23.138  28.086  1.00  0.00     0.124 S 
ATOM     73  O   UNL A   1      44.199  23.052  27.429  1.00  0.00    -0.237 OA
ATOM     74  O   UNL A   1      42.912  23.396  29.521  1.00  0.00    -0.237 OA
ATOM     75  O   UNL A   1      41.924  22.138  27.650  1.00  0.00    -0.744 OA
ENDBRANCH  68  72
ENDBRANCH  51  65
BRANCH  52  76
ATOM     76  C   UNL A   1      40.390  34.621  34.180  1.00  0.00     0.023 A 
ATOM     77  C   UNL A   1      39.434  33.823  34.825  1.00  0.00     0.031 A 
ATOM     78  C   UNL A   1      40.982  35.692  34.865  1.00  0.00     0.131 A 
ATOM     79  C   UNL A   1      39.396  33.823  36.213  1.00  0.00     0.055 A 
ATOM     80  C   UNL A   1      40.939  35.708  36.250  1.00  0.00     0.041 A 
ATOM     81  F   UNL A   1      41.839  36.514  34.243  1.00  0.00    -0.206 F 
ATOM     82  C   UNL A   1      40.222  34.708  36.913  1.00  0.00     0.022 A 
BRANCH  79  83
ATOM     83  S   UNL A   1      38.466  32.450  36.977  1.00  0.00     0.124 S 
ATOM     84  O   UNL A   1      37.148  32.578  36.368  1.00  0.00    -0.237 OA
ATOM     85  O   UNL A   1      39.274  31.303  36.571  1.00  0.00    -0.237 OA
ATOM     86  O   UNL A   1      38.486  32.707  38.407  1.00  0.00    -0.744 OA
ENDBRANCH  79  83
ENDBRANCH  52  76
BRANCH  64  87
ATOM     87  C   UNL A   1      43.485  28.284  33.863  1.00  0.00     0.023 A 
ATOM     88  C   UNL A   1      42.525  27.708  34.700  1.00  0.00     0.031 A 
ATOM     89  C   UNL A   1      44.725  27.612  33.806  1.00  0.00     0.131 A 
ATOM     90  C   UNL A   1      42.849  26.663  35.570  1.00  0.00     0.055 A 
ATOM     91  C   UNL A   1      45.006  26.479  34.573  1.00  0.00     0.041 A 
ATOM     92  F   UNL A   1      45.718  28.019  33.003  1.00  0.00    -0.206 F 
ATOM     93  C   UNL A   1      44.080  26.023  35.500  1.00  0.00     0.022 A 
BRANCH  90  94
ATOM     94  S   UNL A   1      41.671  26.296  36.893  1.00  0.00     0.124 S 
ATOM     95  O   UNL A   1      41.029  25.082  36.394  1.00  0.00    -0.237 OA
ATOM     96  O   UNL A   1      42.542  26.116  38.049  1.00  0.00    -0.237 OA
ATOM     97  O   UNL A   1      40.817  27.481  36.931  1.00  0.00    -0.744 OA
ENDBRANCH  90  94
ENDBRANCH  64  87
ENDBRANCH  38  39
ENDBRANCH  31  33
ENDBRANCH  30  31
ENDBRANCH  29  30
ENDBRANCH  28  29
ENDBRANCH  27  28
ENDBRANCH   1  27
TORSDOF 21
ENDMDL
MODEL 2
REMARK VINA RESULT:     -11.4      1.815      2.407
REMARK SMILES COC(=O)c1ccc(C)c(NC(=O)[C@H]2CC=CC[C@H]2C(=O)OCCOCCOC(=O)c2ccc(-c3c4nc(c(-c5cc(S(=O)(=O)[O-])ccc5F)c5ccc([nH]5)c(-c5cc(S(=O)(=O)[O-])ccc5F)c5nc(c(-c6cc(S(=O)(=O)[O-])ccc6F)c6ccc3[nH]6)C=C5)C=C4)cc2)c1
REMARK SMILES IDX 24 1 23 2 22 3 20 4 21 5 19 6 14 7 15 8 16 9 18 10 17 11
REMARK SMILES IDX 12 12 11 13 13 15 10 16 5 17 6 18 94 19 7 20 8 21 9 22 3 23
REMARK SMILES IDX 4 24 2 25 1 26 25 27 26 28 27 29 28 30 29 31 30 32 31 33
REMARK SMILES IDX 32 34 93 35 33 36 92 37 34 38 35 39 36 40 86 41 37 42 91 43
REMARK SMILES IDX 85 44 87 45 38 46 90 47 84 48 83 49 39 51 71 52 51 53 70 54
REMARK SMILES IDX 52 55 55 56 69 57 88 58 53 59 54 60 68 62 89 63 56 64 40 65
REMARK SMILES IDX 41 66 49 67 42 68 48 69 50 70 47 71 43 72 44 73 45 74 46 75
REMARK SMILES IDX 72 76 73 77 81 78 74 79 80 80 82 81 79 82 75 83 76 84 77 85
REMARK SMILES IDX 78 86 57 87 58 88 66 89 59 90 65 91 67 92 64 93 60 94 61 95
REMARK SMILES IDX 62 96 63 97
REMARK H PARENT 11 14 87 50 55 61
REMARK Flexibility Score: inf
ROOT
ATOM      1  C   UNL A   1      34.125  29.153  26.128  1.00  0.00     0.202 C 
ENDROOT
BRANCH   1   2
ATOM      2  C   UNL A   1      33.709  27.889  26.836  1.00  0.00     0.261 C 
BRANCH   2   3
ATOM      3  O   UNL A   1      33.245  26.910  25.924  1.00  0.00    -0.463 OA
BRANCH   3   4
ATOM      4  C   UNL A   1      31.950  26.558  26.080  1.00  0.00     0.310 C 
ATOM      5  O   UNL A   1      30.976  27.284  25.995  1.00  0.00    -0.252 OA
BRANCH   4   6
ATOM      6  C   UNL A   1      31.869  25.079  26.252  1.00  0.00     0.116 C 
ATOM      7  C   UNL A   1      30.752  24.396  25.402  1.00  0.00     0.097 C 
ATOM      8  C   UNL A   1      30.667  22.950  25.970  1.00  0.00     0.041 C 
ATOM      9  C   UNL A   1      32.012  22.289  26.209  1.00  0.00    -0.030 C 
ATOM     10  C   UNL A   1      33.252  24.455  26.120  1.00  0.00     0.043 C 
ATOM     11  C   UNL A   1      33.174  22.962  26.245  1.00  0.00    -0.030 C 
BRANCH   7  12
ATOM     12  C   UNL A   1      31.000  24.317  23.871  1.00  0.00     0.228 C 
ATOM     13  N   UNL A   1      31.392  25.320  23.026  1.00  0.00    -0.326 N 
ATOM     14  H   UNL A   1      31.902  24.922  22.285  1.00  0.00     0.169 HD
ATOM     15  O   UNL A   1      30.897  23.202  23.336  1.00  0.00    -0.274 OA
BRANCH  13  16
ATOM     16  C   UNL A   1      31.332  26.734  22.825  1.00  0.00     0.044 A 
ATOM     17  C   UNL A   1      29.713  28.658  22.787  1.00  0.00     0.062 A 
ATOM     18  C   UNL A   1      30.753  29.520  22.486  1.00  0.00     0.016 A 
ATOM     19  C   UNL A   1      30.018  27.283  22.892  1.00  0.00     0.042 A 
ATOM     20  C   UNL A   1      32.059  29.025  22.427  1.00  0.00     0.006 A 
ATOM     21  C   UNL A   1      32.376  27.655  22.665  1.00  0.00    -0.027 A 
ATOM     22  C   UNL A   1      33.836  27.322  22.728  1.00  0.00     0.046 C 
BRANCH  17  23
ATOM     23  C   UNL A   1      28.372  29.279  23.106  1.00  0.00     0.337 C 
ATOM     24  O   UNL A   1      27.303  28.737  22.914  1.00  0.00    -0.246 OA
BRANCH  23  25
ATOM     25  O   UNL A   1      28.537  30.529  23.560  1.00  0.00    -0.465 OA
ATOM     26  C   UNL A   1      27.493  31.495  23.399  1.00  0.00     0.282 C 
ENDBRANCH  23  25
ENDBRANCH  17  23
ENDBRANCH  13  16
ENDBRANCH   7  12
ENDBRANCH   4   6
ENDBRANCH   3   4
ENDBRANCH   2   3
ENDBRANCH   1   2
BRANCH   1  27
ATOM     27  O   UNL A   1      33.003  29.988  25.906  1.00  0.00    -0.374 OA
BRANCH  27  28
ATOM     28  C   UNL A   1      32.686  30.873  26.965  1.00  0.00     0.202 C 
BRANCH  28  29
ATOM     29  C   UNL A   1      33.902  31.355  27.780  1.00  0.00     0.261 C 
BRANCH  29  30
ATOM     30  O   UNL A   1      34.070  32.795  27.733  1.00  0.00    -0.460 OA
BRANCH  30  31
ATOM     31  C   UNL A   1      34.149  33.471  28.921  1.00  0.00     0.338 C 
ATOM     32  O   UNL A   1      33.221  34.075  29.432  1.00  0.00    -0.246 OA
BRANCH  31  33
ATOM     33  C   UNL A   1      35.537  33.416  29.478  1.00  0.00     0.060 A 
ATOM     34  C   UNL A   1      36.674  33.749  28.706  1.00  0.00     0.016 A 
ATOM     35  C   UNL A   1      35.704  32.758  30.682  1.00  0.00     0.016 A 
ATOM     36  C   UNL A   1      37.959  33.283  29.072  1.00  0.00     0.010 A 
ATOM     37  C   UNL A   1      36.924  32.172  30.935  1.00  0.00     0.010 A 
ATOM     38  C   UNL A   1      38.080  32.430  30.164  1.00  0.00    -0.014 A 
BRANCH  38  39
ATOM     39  C   UNL A   1      39.243  31.624  30.609  1.00  0.00     0.031 A 
ATOM     40  C   UNL A   1      39.347  30.252  30.002  1.00  0.00     0.074 A 
ATOM     41  C   UNL A   1      40.377  32.175  31.133  1.00  0.00     0.049 A 
ATOM     42  N   UNL A   1      40.369  29.483  30.100  1.00  0.00    -0.248 NA
ATOM     43  C   UNL A   1      38.278  29.629  29.214  1.00  0.00     0.031 C 
ATOM     44  C   UNL A   1      41.747  31.776  30.779  1.00  0.00     0.029 A 
ATOM     45  N   UNL A   1      40.584  33.205  32.067  1.00  0.00    -0.354 N 
ATOM     46  C   UNL A   1      40.246  28.461  29.188  1.00  0.00     0.074 A 
ATOM     47  C   UNL A   1      38.902  28.570  28.692  1.00  0.00     0.031 C 
ATOM     48  C   UNL A   1      42.624  32.355  31.605  1.00  0.00     0.029 A 
ATOM     49  C   UNL A   1      41.870  33.026  32.636  1.00  0.00     0.049 A 
ATOM     50  H   UNL A   1      39.949  33.924  32.286  1.00  0.00     0.167 HD
ATOM     51  C   UNL A   1      41.343  27.699  28.933  1.00  0.00     0.034 A 
ATOM     52  C   UNL A   1      42.086  32.889  33.976  1.00  0.00     0.034 A 
ATOM     53  C   UNL A   1      42.407  28.015  29.890  1.00  0.00     0.049 A 
ATOM     54  C   UNL A   1      42.627  31.563  34.366  1.00  0.00     0.074 A 
ATOM     55  C   UNL A   1      43.592  28.722  29.829  1.00  0.00     0.029 A 
ATOM     56  N   UNL A   1      42.153  27.783  31.235  1.00  0.00    -0.354 N 
ATOM     57  N   UNL A   1      42.879  30.626  33.503  1.00  0.00    -0.248 NA
ATOM     58  C   UNL A   1      42.843  31.145  35.743  1.00  0.00     0.031 C 
ATOM     59  C   UNL A   1      44.011  28.967  31.169  1.00  0.00     0.029 A 
ATOM     60  C   UNL A   1      43.111  28.365  32.035  1.00  0.00     0.049 A 
ATOM     61  H   UNL A   1      41.385  27.270  31.573  1.00  0.00     0.167 HD
ATOM     62  C   UNL A   1      43.057  29.452  34.164  1.00  0.00     0.074 A 
ATOM     63  C   UNL A   1      43.142  29.849  35.560  1.00  0.00     0.031 C 
ATOM     64  C   UNL A   1      43.000  28.267  33.488  1.00  0.00     0.034 A 
BRANCH  51  65
ATOM     65  C   UNL A   1      41.555  26.707  27.812  1.00  0.00     0.023 A 
ATOM     66  C   UNL A   1      42.047  25.429  28.160  1.00  0.00     0.031 A 
ATOM     67  C   UNL A   1      41.372  26.921  26.433  1.00  0.00     0.131 A 
ATOM     68  C   UNL A   1      42.335  24.454  27.188  1.00  0.00     0.055 A 
ATOM     69  C   UNL A   1      41.634  25.939  25.464  1.00  0.00     0.041 A 
ATOM     70  F   UNL A   1      40.956  28.085  25.928  1.00  0.00    -0.206 F 
ATOM     71  C   UNL A   1      42.122  24.699  25.839  1.00  0.00     0.022 A 
BRANCH  68  72
ATOM     72  S   UNL A   1      43.019  22.865  27.725  1.00  0.00     0.124 S 
ATOM     73  O   UNL A   1      43.126  23.049  29.169  1.00  0.00    -0.237 OA
ATOM     74  O   UNL A   1      42.011  21.919  27.262  1.00  0.00    -0.237 OA
ATOM     75  O   UNL A   1      44.299  22.794  27.019  1.00  0.00    -0.744 OA
ENDBRANCH  68  72
ENDBRANCH  51  65
BRANCH  52  76
ATOM     76  C   UNL A   1      41.290  33.782  34.846  1.00  0.00     0.023 A 
ATOM     77  C   UNL A   1      40.064  33.206  35.212  1.00  0.00     0.031 A 
ATOM     78  C   UNL A   1      41.985  34.583  35.762  1.00  0.00     0.131 A 
ATOM     79  C   UNL A   1      39.769  33.076  36.563  1.00  0.00     0.055 A 
ATOM     80  C   UNL A   1      41.690  34.470  37.111  1.00  0.00     0.041 A 
ATOM     81  F   UNL A   1      43.117  35.207  35.405  1.00  0.00    -0.206 F 
ATOM     82  C   UNL A   1      40.641  33.635  37.503  1.00  0.00     0.022 A 
BRANCH  79  83
ATOM     83  S   UNL A   1      38.408  31.929  36.967  1.00  0.00     0.124 S 
ATOM     84  O   UNL A   1      37.267  32.537  36.294  1.00  0.00    -0.237 OA
ATOM     85  O   UNL A   1      38.917  30.679  36.409  1.00  0.00    -0.237 OA
ATOM     86  O   UNL A   1      38.308  31.929  38.417  1.00  0.00    -0.744 OA
ENDBRANCH  79  83
ENDBRANCH  52  76
BRANCH  64  87
ATOM     87  C   UNL A   1      42.845  26.930  34.166  1.00  0.00     0.023 A 
ATOM     88  C   UNL A   1      43.784  25.905  34.019  1.00  0.00     0.031 A 
ATOM     89  C   UNL A   1      41.755  26.639  35.015  1.00  0.00     0.131 A 
ATOM     90  C   UNL A   1      43.545  24.620  34.515  1.00  0.00     0.055 A 
ATOM     91  C   UNL A   1      41.585  25.395  35.627  1.00  0.00     0.041 A 
ATOM     92  F   UNL A   1      40.808  27.546  35.293  1.00  0.00    -0.206 F 
ATOM     93  C   UNL A   1      42.460  24.357  35.341  1.00  0.00     0.022 A 
BRANCH  90  94
ATOM     94  S   UNL A   1      44.604  23.289  33.899  1.00  0.00     0.124 S 
ATOM     95  O   UNL A   1      44.013  22.116  34.540  1.00  0.00    -0.237 OA
ATOM     96  O   UNL A   1      44.415  23.378  32.455  1.00  0.00    -0.237 OA
ATOM     97  O   UNL A   1      45.933  23.657  34.381  1.00  0.00    -0.744 OA
ENDBRANCH  90  94
ENDBRANCH  64  87
ENDBRANCH  38  39
ENDBRANCH  31  33
ENDBRANCH  30  31
ENDBRANCH  29  30
ENDBRANCH  28  29
ENDBRANCH  27  28
ENDBRANCH   1  27
TORSDOF 21
ENDMDL
MODEL 3
REMARK VINA RESULT:     -11.1      2.371      3.417
REMARK SMILES COC(=O)c1ccc(C)c(NC(=O)[C@H]2CC=CC[C@H]2C(=O)OCCOCCOC(=O)c2ccc(-c3c4nc(c(-c5cc(S(=O)(=O)[O-])ccc5F)c5ccc([nH]5)c(-c5cc(S(=O)(=O)[O-])ccc5F)c5nc(c(-c6cc(S(=O)(=O)[O-])ccc6F)c6ccc3[nH]6)C=C5)C=C4)cc2)c1
REMARK SMILES IDX 24 1 23 2 22 3 20 4 21 5 19 6 14 7 15 8 16 9 18 10 17 11
REMARK SMILES IDX 12 12 11 13 13 15 10 16 5 17 6 18 94 19 7 20 8 21 9 22 3 23
REMARK SMILES IDX 4 24 2 25 1 26 25 27 26 28 27 29 28 30 29 31 30 32 31 33
REMARK SMILES IDX 32 34 93 35 33 36 92 37 34 38 35 39 36 40 86 41 37 42 91 43
REMARK SMILES IDX 85 44 87 45 38 46 90 47 84 48 83 49 39 51 71 52 51 53 70 54
REMARK SMILES IDX 52 55 55 56 69 57 88 58 53 59 54 60 68 62 89 63 56 64 40 65
REMARK SMILES IDX 41 66 49 67 42 68 48 69 50 70 47 71 43 72 44 73 45 74 46 75
REMARK SMILES IDX 72 76 73 77 81 78 74 79 80 80 82 81 79 82 75 83 76 84 77 85
REMARK SMILES IDX 78 86 57 87 58 88 66 89 59 90 65 91 67 92 64 93 60 94 61 95
REMARK SMILES IDX 62 96 63 97
REMARK H PARENT 11 14 87 50 55 61
REMARK Flexibility Score: inf
ROOT
ATOM      1  C   UNL A   1      32.877  28.034  26.751  1.00  0.00     0.202 C 
ENDROOT
BRANCH   1   2
ATOM      2  C   UNL A   1      32.071  26.882  26.208  1.00  0.00     0.261 C 
BRANCH   2   3
ATOM      3  O   UNL A   1      32.743  25.648  26.385  1.00  0.00    -0.463 OA
BRANCH   3   4
ATOM      4  C   UNL A   1      33.876  25.510  25.663  1.00  0.00     0.310 C 
ATOM      5  O   UNL A   1      34.710  26.368  25.434  1.00  0.00    -0.252 OA
BRANCH   4   6
ATOM      6  C   UNL A   1      34.033  24.078  25.279  1.00  0.00     0.116 C 
ATOM      7  C   UNL A   1      33.065  23.609  24.147  1.00  0.00     0.097 C 
ATOM      8  C   UNL A   1      33.202  22.059  24.143  1.00  0.00     0.041 C 
ATOM      9  C   UNL A   1      34.630  21.554  24.241  1.00  0.00    -0.030 C 
ATOM     10  C   UNL A   1      35.502  23.750  25.049  1.00  0.00     0.043 C 
ATOM     11  C   UNL A   1      35.665  22.323  24.617  1.00  0.00    -0.030 C 
BRANCH   7  12
ATOM     12  C   UNL A   1      33.365  24.140  22.719  1.00  0.00     0.228 C 
ATOM     13  N   UNL A   1      33.279  25.427  22.261  1.00  0.00    -0.326 N 
ATOM     14  H   UNL A   1      33.935  25.545  21.537  1.00  0.00     0.169 HD
ATOM     15  O   UNL A   1      33.798  23.325  21.889  1.00  0.00    -0.274 OA
BRANCH  13  16
ATOM     16  C   UNL A   1      32.585  26.662  22.449  1.00  0.00     0.044 A 
ATOM     17  C   UNL A   1      30.297  27.594  22.916  1.00  0.00     0.062 A 
ATOM     18  C   UNL A   1      30.814  28.876  22.869  1.00  0.00     0.016 A 
ATOM     19  C   UNL A   1      31.181  26.526  22.649  1.00  0.00     0.042 A 
ATOM     20  C   UNL A   1      32.189  29.054  22.690  1.00  0.00     0.006 A 
ATOM     21  C   UNL A   1      33.097  27.963  22.553  1.00  0.00    -0.027 A 
ATOM     22  C   UNL A   1      34.553  28.320  22.536  1.00  0.00     0.046 C 
BRANCH  17  23
ATOM     23  C   UNL A   1      28.865  27.444  23.379  1.00  0.00     0.337 C 
ATOM     24  O   UNL A   1      28.422  26.456  23.927  1.00  0.00    -0.246 OA
BRANCH  23  25
ATOM     25  O   UNL A   1      28.152  28.524  23.033  1.00  0.00    -0.465 OA
ATOM     26  C   UNL A   1      26.773  28.625  23.407  1.00  0.00     0.282 C 
ENDBRANCH  23  25
ENDBRANCH  17  23
ENDBRANCH  13  16
ENDBRANCH   7  12
ENDBRANCH   4   6
ENDBRANCH   3   4
ENDBRANCH   2   3
ENDBRANCH   1   2
BRANCH   1  27
ATOM     27  O   UNL A   1      32.022  29.031  27.281  1.00  0.00    -0.374 OA
BRANCH  27  28
ATOM     28  C   UNL A   1      31.937  30.223  26.521  1.00  0.00     0.202 C 
BRANCH  28  29
ATOM     29  C   UNL A   1      32.767  31.395  27.077  1.00  0.00     0.261 C 
BRANCH  29  30
ATOM     30  O   UNL A   1      34.181  31.083  27.173  1.00  0.00    -0.460 OA
BRANCH  30  31
ATOM     31  C   UNL A   1      34.808  31.304  28.370  1.00  0.00     0.338 C 
ATOM     32  O   UNL A   1      34.560  32.239  29.114  1.00  0.00    -0.246 OA
BRANCH  31  33
ATOM     33  C   UNL A   1      35.873  30.282  28.614  1.00  0.00     0.060 A 
ATOM     34  C   UNL A   1      36.063  29.677  29.878  1.00  0.00     0.016 A 
ATOM     35  C   UNL A   1      36.851  30.151  27.646  1.00  0.00     0.016 A 
ATOM     36  C   UNL A   1      37.301  29.077  30.215  1.00  0.00     0.010 A 
ATOM     37  C   UNL A   1      38.097  29.719  28.040  1.00  0.00     0.010 A 
ATOM     38  C   UNL A   1      38.354  29.154  29.310  1.00  0.00    -0.014 A 
BRANCH  38  39
ATOM     39  C   UNL A   1      39.789  28.830  29.501  1.00  0.00     0.031 A 
ATOM     40  C   UNL A   1      40.204  27.455  29.059  1.00  0.00     0.074 A 
ATOM     41  C   UNL A   1      40.760  29.783  29.611  1.00  0.00     0.049 A 
ATOM     42  N   UNL A   1      41.418  27.054  28.955  1.00  0.00    -0.248 NA
ATOM     43  C   UNL A   1      39.255  26.399  28.687  1.00  0.00     0.031 C 
ATOM     44  C   UNL A   1      42.065  29.736  28.935  1.00  0.00     0.029 A 
ATOM     45  N   UNL A   1      40.819  30.997  30.317  1.00  0.00    -0.354 N 
ATOM     46  C   UNL A   1      41.439  25.876  28.246  1.00  0.00     0.074 A 
ATOM     47  C   UNL A   1      40.060  25.484  28.142  1.00  0.00     0.031 C 
ATOM     48  C   UNL A   1      42.862  30.703  29.403  1.00  0.00     0.029 A 
ATOM     49  C   UNL A   1      42.185  31.322  30.516  1.00  0.00     0.049 A 
ATOM     50  H   UNL A   1      40.048  31.529  30.619  1.00  0.00     0.167 HD
ATOM     51  C   UNL A   1      42.638  25.431  27.784  1.00  0.00     0.034 A 
ATOM     52  C   UNL A   1      42.736  31.531  31.746  1.00  0.00     0.034 A 
ATOM     53  C   UNL A   1      43.725  26.232  28.355  1.00  0.00     0.049 A 
ATOM     54  C   UNL A   1      43.764  30.530  32.123  1.00  0.00     0.074 A 
ATOM     55  C   UNL A   1      44.556  27.226  27.876  1.00  0.00     0.029 A 
ATOM     56  N   UNL A   1      43.879  26.218  29.735  1.00  0.00    -0.354 N 
ATOM     57  N   UNL A   1      44.110  29.551  31.344  1.00  0.00    -0.248 NA
ATOM     58  C   UNL A   1      44.418  30.484  33.423  1.00  0.00     0.031 C 
ATOM     59  C   UNL A   1      45.164  27.852  29.003  1.00  0.00     0.029 A 
ATOM     60  C   UNL A   1      44.743  27.205  30.155  1.00  0.00     0.049 A 
ATOM     61  H   UNL A   1      43.427  25.583  30.336  1.00  0.00     0.167 HD
ATOM     62  C   UNL A   1      44.818  28.641  32.064  1.00  0.00     0.074 A 
ATOM     63  C   UNL A   1      45.084  29.323  33.321  1.00  0.00     0.031 C 
ATOM     64  C   UNL A   1      45.008  27.378  31.580  1.00  0.00     0.034 A 
BRANCH  51  65
ATOM     65  C   UNL A   1      42.907  24.335  26.778  1.00  0.00     0.023 A 
ATOM     66  C   UNL A   1      42.236  23.106  26.959  1.00  0.00     0.031 A 
ATOM     67  C   UNL A   1      43.804  24.371  25.693  1.00  0.00     0.131 A 
ATOM     68  C   UNL A   1      42.462  22.004  26.116  1.00  0.00     0.055 A 
ATOM     69  C   UNL A   1      44.010  23.280  24.833  1.00  0.00     0.041 A 
ATOM     70  F   UNL A   1      44.552  25.439  25.404  1.00  0.00    -0.206 F 
ATOM     71  C   UNL A   1      43.341  22.087  25.044  1.00  0.00     0.022 A 
BRANCH  68  72
ATOM     72  S   UNL A   1      41.599  20.450  26.463  1.00  0.00     0.124 S 
ATOM     73  O   UNL A   1      42.086  19.583  25.394  1.00  0.00    -0.237 OA
ATOM     74  O   UNL A   1      42.054  20.135  27.812  1.00  0.00    -0.237 OA
ATOM     75  O   UNL A   1      40.188  20.818  26.359  1.00  0.00    -0.744 OA
ENDBRANCH  68  72
ENDBRANCH  51  65
BRANCH  52  76
ATOM     76  C   UNL A   1      41.908  32.312  32.692  1.00  0.00     0.023 A 
ATOM     77  C   UNL A   1      40.921  31.525  33.303  1.00  0.00     0.031 A 
ATOM     78  C   UNL A   1      42.542  33.326  33.422  1.00  0.00     0.131 A 
ATOM     79  C   UNL A   1      40.885  31.464  34.690  1.00  0.00     0.055 A 
ATOM     80  C   UNL A   1      42.502  33.282  34.806  1.00  0.00     0.041 A 
ATOM     81  F   UNL A   1      43.431  34.141  32.834  1.00  0.00    -0.206 F 
ATOM     82  C   UNL A   1      41.747  32.283  35.426  1.00  0.00     0.022 A 
BRANCH  79  83
ATOM     83  S   UNL A   1      39.902  30.096  35.394  1.00  0.00     0.124 S 
ATOM     84  O   UNL A   1      38.974  29.780  34.316  1.00  0.00    -0.237 OA
ATOM     85  O   UNL A   1      40.947  29.116  35.678  1.00  0.00    -0.237 OA
ATOM     86  O   UNL A   1      39.266  30.639  36.583  1.00  0.00    -0.744 OA
ENDBRANCH  79  83
ENDBRANCH  52  76
BRANCH  64  87
ATOM     87  C   UNL A   1      45.470  26.223  32.431  1.00  0.00     0.023 A 
ATOM     88  C   UNL A   1      44.579  25.434  33.165  1.00  0.00     0.031 A 
ATOM     89  C   UNL A   1      46.828  25.847  32.516  1.00  0.00     0.131 A 
ATOM     90  C   UNL A   1      45.034  24.477  34.077  1.00  0.00     0.055 A 
ATOM     91  C   UNL A   1      47.272  24.796  33.322  1.00  0.00     0.041 A 
ATOM     92  F   UNL A   1      47.785  26.478  31.821  1.00  0.00    -0.206 F 
ATOM     93  C   UNL A   1      46.378  24.131  34.147  1.00  0.00     0.022 A 
BRANCH  90  94
ATOM     94  S   UNL A   1      43.833  23.836  35.268  1.00  0.00     0.124 S 
ATOM     95  O   UNL A   1      44.518  22.650  35.776  1.00  0.00    -0.237 OA
ATOM     96  O   UNL A   1      43.706  24.942  36.212  1.00  0.00    -0.237 OA
ATOM     97  O   UNL A   1      42.650  23.570  34.453  1.00  0.00    -0.744 OA
ENDBRANCH  90  94
ENDBRANCH  64  87
ENDBRANCH  38  39
ENDBRANCH  31  33
ENDBRANCH  30  31
ENDBRANCH  29  30
ENDBRANCH  28  29
ENDBRANCH  27  28
ENDBRANCH   1  27
TORSDOF 21
ENDMDL
