MODEL 1
REMARK VINA RESULT:     -11.2      0.000      0.000
REMARK SMILES COc1cccc(C(=O)Nc2ccc(NC(=O)[C@@H]3[C@@H](C(=O)OCCOCCOC(=O)c4ccc(-c5c6nc(c(-c7cc(S(=O)(=O)[O-])ccc7F)c7ccc([nH]7)c(-c7cc(S(=O)(=O)[O-])ccc7F)c7nc(c(-c8cc(S(=O)(=O)[O-])ccc8F)c8ccc5[nH]8)C=C7)C=C6)cc4)[C@@H]4C=C[C@H]3C4)cc2)c1
REMARK SMILES IDX 24 1 23 2 22 3 20 4 21 5 19 6 18 7 97 8 94 9 96 10 98 11
REMARK SMILES IDX 95 12 16 13 15 14 17 16 14 17 11 18 12 19 100 20 13 21 99 22
REMARK SMILES IDX 10 23 8 24 9 25 7 27 3 28 4 29 101 30 5 31 6 32 2 33 1 34
REMARK SMILES IDX 25 35 26 36 27 37 28 38 29 39 30 40 31 41 32 42 93 43 33 44
REMARK SMILES IDX 92 45 34 46 35 47 36 48 86 49 37 50 91 51 85 52 87 53 38 54
REMARK SMILES IDX 90 55 84 56 83 57 39 59 71 60 51 61 70 62 52 63 55 64 69 65
REMARK SMILES IDX 88 66 53 67 54 68 68 70 89 71 56 72 40 73 41 74 49 75 42 76
REMARK SMILES IDX 48 77 50 78 47 79 43 80 44 81 45 82 46 83 72 84 73 85 81 86
REMARK SMILES IDX 74 87 80 88 82 89 79 90 75 91 76 92 77 93 78 94 57 95 58 96
REMARK SMILES IDX 66 97 59 98 65 99 67 100 64 101 60 102 61 103 62 104 63 105
REMARK H PARENT 15 15 10 26 87 58 55 69
REMARK Flexibility Score: inf
ROOT
ATOM      1  C   UNL A   1      36.154  23.323  23.743  1.00  0.00     0.202 C 
ENDROOT
BRANCH   1   2
ATOM      2  C   UNL A   1      34.751  23.449  23.147  1.00  0.00     0.261 C 
BRANCH   2   3
ATOM      3  O   UNL A   1      34.322  24.812  23.055  1.00  0.00    -0.463 OA
BRANCH   3   4
ATOM      4  C   UNL A   1      33.032  25.069  23.413  1.00  0.00     0.310 C 
ATOM      5  O   UNL A   1      32.055  24.413  23.074  1.00  0.00    -0.252 OA
BRANCH   4   6
ATOM      6  C   UNL A   1      32.995  26.274  24.327  1.00  0.00     0.119 C 
ATOM      7  C   UNL A   1      31.570  26.490  25.011  1.00  0.00     0.100 C 
ATOM      8  C   UNL A   1      31.173  27.834  24.363  1.00  0.00     0.025 C 
ATOM      9  C   UNL A   1      33.176  27.537  23.447  1.00  0.00     0.027 C 
ATOM     10  C   UNL A   1      32.067  28.928  24.882  1.00  0.00    -0.027 C 
ATOM     11  C   UNL A   1      31.748  27.720  22.949  1.00  0.00     0.017 C 
ATOM     12  C   UNL A   1      33.277  28.742  24.346  1.00  0.00    -0.027 C 
BRANCH   7  13
ATOM     13  C   UNL A   1      31.675  26.305  26.543  1.00  0.00     0.228 C 
ATOM     14  N   UNL A   1      31.927  25.145  27.229  1.00  0.00    -0.326 N 
ATOM     15  H   UNL A   1      32.149  25.283  28.178  1.00  0.00     0.169 HD
ATOM     16  O   UNL A   1      31.561  27.307  27.269  1.00  0.00    -0.274 OA
BRANCH  14  17
ATOM     17  C   UNL A   1      31.929  23.802  26.833  1.00  0.00     0.041 A 
ATOM     18  C   UNL A   1      31.773  21.814  24.939  1.00  0.00     0.041 A 
ATOM     19  C   UNL A   1      32.999  22.099  25.545  1.00  0.00     0.028 A 
ATOM     20  C   UNL A   1      30.621  22.193  25.609  1.00  0.00     0.028 A 
ATOM     21  C   UNL A   1      33.070  23.090  26.530  1.00  0.00     0.028 A 
ATOM     22  C   UNL A   1      30.695  23.213  26.563  1.00  0.00     0.028 A 
BRANCH  18  23
ATOM     23  N   UNL A   1      31.817  21.311  23.628  1.00  0.00    -0.322 N 
ATOM     24  C   UNL A   1      32.251  20.125  23.064  1.00  0.00     0.255 C 
ATOM     25  O   UNL A   1      32.138  19.994  21.842  1.00  0.00    -0.269 OA
ATOM     26  H   UNL A   1      31.459  21.944  22.962  1.00  0.00     0.170 HD
BRANCH  24  27
ATOM     27  C   UNL A   1      32.852  19.001  23.823  1.00  0.00     0.043 A 
ATOM     28  C   UNL A   1      32.725  16.954  25.114  1.00  0.00     0.119 A 
ATOM     29  C   UNL A   1      34.078  17.092  25.434  1.00  0.00     0.046 A 
ATOM     30  C   UNL A   1      32.133  17.872  24.243  1.00  0.00     0.060 A 
ATOM     31  C   UNL A   1      34.837  18.132  24.899  1.00  0.00     0.005 A 
ATOM     32  C   UNL A   1      34.221  19.091  24.101  1.00  0.00     0.014 A 
BRANCH  28  33
ATOM     33  O   UNL A   1      32.100  15.922  25.757  1.00  0.00    -0.497 OA
ATOM     34  C   UNL A   1      32.636  14.614  25.620  1.00  0.00     0.278 C 
ENDBRANCH  28  33
ENDBRANCH  24  27
ENDBRANCH  18  23
ENDBRANCH  14  17
ENDBRANCH   7  13
ENDBRANCH   4   6
ENDBRANCH   3   4
ENDBRANCH   2   3
ENDBRANCH   1   2
BRANCH   1  35
ATOM     35  O   UNL A   1      36.271  23.198  25.156  1.00  0.00    -0.374 OA
BRANCH  35  36
ATOM     36  C   UNL A   1      36.697  21.956  25.712  1.00  0.00     0.202 C 
BRANCH  36  37
ATOM     37  C   UNL A   1      38.081  21.401  25.346  1.00  0.00     0.261 C 
BRANCH  37  38
ATOM     38  O   UNL A   1      38.948  21.159  26.467  1.00  0.00    -0.460 OA
BRANCH  38  39
ATOM     39  C   UNL A   1      40.177  21.711  26.350  1.00  0.00     0.338 C 
ATOM     40  O   UNL A   1      41.140  21.242  25.738  1.00  0.00    -0.246 OA
BRANCH  39  41
ATOM     41  C   UNL A   1      40.210  23.056  26.933  1.00  0.00     0.060 A 
ATOM     42  C   UNL A   1      39.577  24.098  26.242  1.00  0.00     0.016 A 
ATOM     43  C   UNL A   1      40.987  23.320  28.063  1.00  0.00     0.016 A 
ATOM     44  C   UNL A   1      39.756  25.418  26.651  1.00  0.00     0.010 A 
ATOM     45  C   UNL A   1      41.173  24.644  28.465  1.00  0.00     0.010 A 
ATOM     46  C   UNL A   1      40.593  25.701  27.737  1.00  0.00    -0.014 A 
BRANCH  46  47
ATOM     47  C   UNL A   1      41.024  27.094  28.001  1.00  0.00     0.031 A 
ATOM     48  C   UNL A   1      42.452  27.470  27.715  1.00  0.00     0.074 A 
ATOM     49  C   UNL A   1      40.166  28.004  28.493  1.00  0.00     0.049 A 
ATOM     50  N   UNL A   1      43.097  28.570  27.997  1.00  0.00    -0.248 NA
ATOM     51  C   UNL A   1      43.261  26.454  27.026  1.00  0.00     0.031 C 
ATOM     52  C   UNL A   1      38.746  27.773  28.746  1.00  0.00     0.029 A 
ATOM     53  N   UNL A   1      40.374  29.302  28.888  1.00  0.00    -0.354 N 
ATOM     54  C   UNL A   1      44.398  28.373  27.541  1.00  0.00     0.074 A 
ATOM     55  C   UNL A   1      44.450  27.035  26.991  1.00  0.00     0.031 C 
ATOM     56  C   UNL A   1      38.214  28.885  29.282  1.00  0.00     0.029 A 
ATOM     57  C   UNL A   1      39.266  29.885  29.455  1.00  0.00     0.049 A 
ATOM     58  H   UNL A   1      41.233  29.770  28.776  1.00  0.00     0.167 HD
ATOM     59  C   UNL A   1      45.446  29.232  27.580  1.00  0.00     0.034 A 
ATOM     60  C   UNL A   1      39.130  31.072  30.082  1.00  0.00     0.034 A 
ATOM     61  C   UNL A   1      45.370  30.557  28.146  1.00  0.00     0.049 A 
ATOM     62  C   UNL A   1      40.330  31.979  30.200  1.00  0.00     0.074 A 
ATOM     63  C   UNL A   1      46.362  31.517  28.234  1.00  0.00     0.029 A 
ATOM     64  N   UNL A   1      44.236  31.105  28.736  1.00  0.00    -0.354 N 
ATOM     65  N   UNL A   1      41.560  31.782  29.782  1.00  0.00    -0.248 NA
ATOM     66  C   UNL A   1      40.124  33.271  30.870  1.00  0.00     0.031 C 
ATOM     67  C   UNL A   1      45.853  32.610  28.945  1.00  0.00     0.029 A 
ATOM     68  C   UNL A   1      44.515  32.373  29.220  1.00  0.00     0.049 A 
ATOM     69  H   UNL A   1      43.362  30.656  28.802  1.00  0.00     0.167 HD
ATOM     70  C   UNL A   1      42.263  32.941  30.103  1.00  0.00     0.074 A 
ATOM     71  C   UNL A   1      41.321  33.830  30.753  1.00  0.00     0.031 C 
ATOM     72  C   UNL A   1      43.564  33.249  29.867  1.00  0.00     0.034 A 
BRANCH  59  73
ATOM     73  C   UNL A   1      46.772  28.727  27.059  1.00  0.00     0.023 A 
ATOM     74  C   UNL A   1      47.005  28.524  25.688  1.00  0.00     0.031 A 
ATOM     75  C   UNL A   1      47.802  28.386  27.956  1.00  0.00     0.131 A 
ATOM     76  C   UNL A   1      48.194  27.913  25.261  1.00  0.00     0.055 A 
ATOM     77  C   UNL A   1      49.020  27.863  27.517  1.00  0.00     0.041 A 
ATOM     78  F   UNL A   1      47.632  28.533  29.280  1.00  0.00    -0.206 F 
ATOM     79  C   UNL A   1      49.214  27.605  26.164  1.00  0.00     0.022 A 
BRANCH  76  80
ATOM     80  S   UNL A   1      48.315  27.364  23.536  1.00  0.00     0.124 S 
ATOM     81  O   UNL A   1      49.687  27.740  23.203  1.00  0.00    -0.237 OA
ATOM     82  O   UNL A   1      48.051  25.934  23.641  1.00  0.00    -0.237 OA
ATOM     83  O   UNL A   1      47.282  28.143  22.855  1.00  0.00    -0.744 OA
ENDBRANCH  76  80
ENDBRANCH  59  73
BRANCH  60  84
ATOM     84  C   UNL A   1      37.823  31.446  30.692  1.00  0.00     0.023 A 
ATOM     85  C   UNL A   1      36.868  32.180  29.973  1.00  0.00     0.031 A 
ATOM     86  C   UNL A   1      37.519  31.085  32.018  1.00  0.00     0.131 A 
ATOM     87  C   UNL A   1      35.666  32.558  30.594  1.00  0.00     0.055 A 
ATOM     88  C   UNL A   1      36.302  31.422  32.614  1.00  0.00     0.041 A 
ATOM     89  F   UNL A   1      38.397  30.380  32.748  1.00  0.00    -0.206 F 
ATOM     90  C   UNL A   1      35.372  32.172  31.904  1.00  0.00     0.022 A 
BRANCH  87  91
ATOM     91  S   UNL A   1      34.514  33.621  29.682  1.00  0.00     0.124 S 
ATOM     92  O   UNL A   1      33.875  32.665  28.784  1.00  0.00    -0.237 OA
ATOM     93  O   UNL A   1      33.679  34.153  30.754  1.00  0.00    -0.237 OA
ATOM     94  O   UNL A   1      35.390  34.597  29.035  1.00  0.00    -0.744 OA
ENDBRANCH  87  91
ENDBRANCH  60  84
BRANCH  72  95
ATOM     95  C   UNL A   1      44.032  34.634  30.244  1.00  0.00     0.023 A 
ATOM     96  C   UNL A   1      43.914  35.730  29.372  1.00  0.00     0.031 A 
ATOM     97  C   UNL A   1      44.582  34.859  31.520  1.00  0.00     0.131 A 
ATOM     98  C   UNL A   1      44.375  36.995  29.776  1.00  0.00     0.055 A 
ATOM     99  C   UNL A   1      44.985  36.128  31.935  1.00  0.00     0.041 A 
ATOM    100  F   UNL A   1      44.721  33.848  32.392  1.00  0.00    -0.206 F 
ATOM    101  C   UNL A   1      44.892  37.204  31.057  1.00  0.00     0.022 A 
BRANCH  98 102
ATOM    102  S   UNL A   1      44.354  38.357  28.578  1.00  0.00     0.124 S 
ATOM    103  O   UNL A   1      43.367  37.893  27.608  1.00  0.00    -0.237 OA
ATOM    104  O   UNL A   1      43.954  39.493  29.401  1.00  0.00    -0.237 OA
ATOM    105  O   UNL A   1      45.730  38.404  28.087  1.00  0.00    -0.744 OA
ENDBRANCH  98 102
ENDBRANCH  72  95
ENDBRANCH  46  47
ENDBRANCH  39  41
ENDBRANCH  38  39
ENDBRANCH  37  38
ENDBRANCH  36  37
ENDBRANCH  35  36
ENDBRANCH   1  35
TORSDOF 22
ENDMDL
MODEL 2
REMARK VINA RESULT:     -10.9      2.865      6.176
REMARK SMILES COc1cccc(C(=O)Nc2ccc(NC(=O)[C@@H]3[C@@H](C(=O)OCCOCCOC(=O)c4ccc(-c5c6nc(c(-c7cc(S(=O)(=O)[O-])ccc7F)c7ccc([nH]7)c(-c7cc(S(=O)(=O)[O-])ccc7F)c7nc(c(-c8cc(S(=O)(=O)[O-])ccc8F)c8ccc5[nH]8)C=C7)C=C6)cc4)[C@@H]4C=C[C@H]3C4)cc2)c1
REMARK SMILES IDX 24 1 23 2 22 3 20 4 21 5 19 6 18 7 97 8 94 9 96 10 98 11
REMARK SMILES IDX 95 12 16 13 15 14 17 16 14 17 11 18 12 19 100 20 13 21 99 22
REMARK SMILES IDX 10 23 8 24 9 25 7 27 3 28 4 29 101 30 5 31 6 32 2 33 1 34
REMARK SMILES IDX 25 35 26 36 27 37 28 38 29 39 30 40 31 41 32 42 93 43 33 44
REMARK SMILES IDX 92 45 34 46 35 47 36 48 86 49 37 50 91 51 85 52 87 53 38 54
REMARK SMILES IDX 90 55 84 56 83 57 39 59 71 60 51 61 70 62 52 63 55 64 69 65
REMARK SMILES IDX 88 66 53 67 54 68 68 70 89 71 56 72 40 73 41 74 49 75 42 76
REMARK SMILES IDX 48 77 50 78 47 79 43 80 44 81 45 82 46 83 72 84 73 85 81 86
REMARK SMILES IDX 74 87 80 88 82 89 79 90 75 91 76 92 77 93 78 94 57 95 58 96
REMARK SMILES IDX 66 97 59 98 65 99 67 100 64 101 60 102 61 103 62 104 63 105
REMARK H PARENT 15 15 10 26 87 58 55 69
REMARK Flexibility Score: inf
ROOT
ATOM      1  C   UNL A   1      35.178  23.210  23.617  1.00  0.00     0.202 C 
ENDROOT
BRANCH   1   2
ATOM      2  C   UNL A   1      33.903  23.930  24.058  1.00  0.00     0.261 C 
BRANCH   2   3
ATOM      3  O   UNL A   1      33.955  25.336  23.790  1.00  0.00    -0.463 OA
BRANCH   3   4
ATOM      4  C   UNL A   1      32.936  25.850  23.045  1.00  0.00     0.310 C 
ATOM      5  O   UNL A   1      32.625  25.486  21.917  1.00  0.00    -0.252 OA
BRANCH   4   6
ATOM      6  C   UNL A   1      32.222  26.920  23.841  1.00  0.00     0.119 C 
ATOM      7  C   UNL A   1      30.735  26.504  24.244  1.00  0.00     0.100 C 
ATOM      8  C   UNL A   1      29.944  27.553  23.434  1.00  0.00     0.025 C 
ATOM      9  C   UNL A   1      32.022  28.144  22.912  1.00  0.00     0.027 C 
ATOM     10  C   UNL A   1      30.178  28.922  24.016  1.00  0.00    -0.027 C 
ATOM     11  C   UNL A   1      30.775  27.703  22.157  1.00  0.00     0.017 C 
ATOM     12  C   UNL A   1      31.433  29.273  23.717  1.00  0.00    -0.027 C 
BRANCH   7  13
ATOM     13  C   UNL A   1      30.610  26.374  25.780  1.00  0.00     0.228 C 
ATOM     14  N   UNL A   1      31.250  27.119  26.736  1.00  0.00    -0.326 N 
ATOM     15  H   UNL A   1      30.880  27.009  27.642  1.00  0.00     0.169 HD
ATOM     16  O   UNL A   1      29.819  25.532  26.240  1.00  0.00    -0.274 OA
BRANCH  14  17
ATOM     17  C   UNL A   1      32.329  28.009  26.666  1.00  0.00     0.041 A 
ATOM     18  C   UNL A   1      34.498  29.308  27.748  1.00  0.00     0.041 A 
ATOM     19  C   UNL A   1      34.696  28.295  26.807  1.00  0.00     0.028 A 
ATOM     20  C   UNL A   1      33.262  29.935  27.767  1.00  0.00     0.028 A 
ATOM     21  C   UNL A   1      33.591  27.656  26.235  1.00  0.00     0.028 A 
ATOM     22  C   UNL A   1      32.156  29.271  27.230  1.00  0.00     0.028 A 
BRANCH  18  23
ATOM     23  N   UNL A   1      35.514  29.495  28.701  1.00  0.00    -0.322 N 
ATOM     24  C   UNL A   1      36.017  30.595  29.370  1.00  0.00     0.255 C 
ATOM     25  O   UNL A   1      36.935  30.410  30.173  1.00  0.00    -0.269 OA
ATOM     26  H   UNL A   1      35.967  28.655  28.947  1.00  0.00     0.170 HD
BRANCH  24  27
ATOM     27  C   UNL A   1      35.539  31.987  29.184  1.00  0.00     0.043 A 
ATOM     28  C   UNL A   1      34.206  33.914  29.802  1.00  0.00     0.119 A 
ATOM     29  C   UNL A   1      34.529  34.509  28.580  1.00  0.00     0.046 A 
ATOM     30  C   UNL A   1      34.777  32.683  30.134  1.00  0.00     0.060 A 
ATOM     31  C   UNL A   1      35.406  33.888  27.692  1.00  0.00     0.005 A 
ATOM     32  C   UNL A   1      35.904  32.623  27.990  1.00  0.00     0.014 A 
BRANCH  28  33
ATOM     33  O   UNL A   1      33.292  34.613  30.540  1.00  0.00    -0.497 OA
ATOM     34  C   UNL A   1      32.693  35.766  29.965  1.00  0.00     0.278 C 
ENDBRANCH  28  33
ENDBRANCH  24  27
ENDBRANCH  18  23
ENDBRANCH  14  17
ENDBRANCH   7  13
ENDBRANCH   4   6
ENDBRANCH   3   4
ENDBRANCH   2   3
ENDBRANCH   1   2
BRANCH   1  35
ATOM     35  O   UNL A   1      35.694  22.186  24.461  1.00  0.00    -0.374 OA
BRANCH  35  36
ATOM     36  C   UNL A   1      37.045  21.763  24.294  1.00  0.00     0.202 C 
BRANCH  36  37
ATOM     37  C   UNL A   1      37.876  21.389  25.531  1.00  0.00     0.261 C 
BRANCH  37  38
ATOM     38  O   UNL A   1      39.221  21.897  25.526  1.00  0.00    -0.460 OA
BRANCH  38  39
ATOM     39  C   UNL A   1      39.851  21.815  26.721  1.00  0.00     0.338 C 
ATOM     40  O   UNL A   1      40.206  20.784  27.299  1.00  0.00    -0.246 OA
BRANCH  39  41
ATOM     41  C   UNL A   1      40.216  23.146  27.218  1.00  0.00     0.060 A 
ATOM     42  C   UNL A   1      39.705  24.268  26.552  1.00  0.00     0.016 A 
ATOM     43  C   UNL A   1      41.171  23.289  28.225  1.00  0.00     0.016 A 
ATOM     44  C   UNL A   1      40.183  25.541  26.860  1.00  0.00     0.010 A 
ATOM     45  C   UNL A   1      41.657  24.564  28.524  1.00  0.00     0.010 A 
ATOM     46  C   UNL A   1      41.196  25.689  27.815  1.00  0.00    -0.014 A 
BRANCH  46  47
ATOM     47  C   UNL A   1      41.914  26.980  27.943  1.00  0.00     0.031 A 
ATOM     48  C   UNL A   1      43.315  27.078  27.405  1.00  0.00     0.074 A 
ATOM     49  C   UNL A   1      41.336  28.040  28.534  1.00  0.00     0.049 A 
ATOM     50  N   UNL A   1      44.190  28.040  27.528  1.00  0.00    -0.248 NA
ATOM     51  C   UNL A   1      43.792  25.920  26.634  1.00  0.00     0.031 C 
ATOM     52  C   UNL A   1      39.964  28.082  29.032  1.00  0.00     0.029 A 
ATOM     53  N   UNL A   1      41.843  29.279  28.833  1.00  0.00    -0.354 N 
ATOM     54  C   UNL A   1      45.333  27.598  26.869  1.00  0.00     0.074 A 
ATOM     55  C   UNL A   1      45.043  26.267  26.375  1.00  0.00     0.031 C 
ATOM     56  C   UNL A   1      39.745  29.280  29.601  1.00  0.00     0.029 A 
ATOM     57  C   UNL A   1      40.977  30.066  29.553  1.00  0.00     0.049 A 
ATOM     58  H   UNL A   1      42.741  29.576  28.558  1.00  0.00     0.167 HD
ATOM     59  C   UNL A   1      46.512  28.244  26.694  1.00  0.00     0.034 A 
ATOM     60  C   UNL A   1      41.171  31.263  30.142  1.00  0.00     0.034 A 
ATOM     61  C   UNL A   1      46.779  29.566  27.208  1.00  0.00     0.049 A 
ATOM     62  C   UNL A   1      42.519  31.931  30.018  1.00  0.00     0.074 A 
ATOM     63  C   UNL A   1      47.931  30.323  27.087  1.00  0.00     0.029 A 
ATOM     64  N   UNL A   1      45.885  30.323  27.956  1.00  0.00    -0.354 N 
ATOM     65  N   UNL A   1      43.601  31.502  29.408  1.00  0.00    -0.248 NA
ATOM     66  C   UNL A   1      42.672  33.245  30.657  1.00  0.00     0.031 C 
ATOM     67  C   UNL A   1      47.762  31.500  27.826  1.00  0.00     0.029 A 
ATOM     68  C   UNL A   1      46.471  31.521  28.332  1.00  0.00     0.049 A 
ATOM     69  H   UNL A   1      44.969  30.047  28.187  1.00  0.00     0.167 HD
ATOM     70  C   UNL A   1      44.549  32.511  29.557  1.00  0.00     0.074 A 
ATOM     71  C   UNL A   1      43.913  33.567  30.317  1.00  0.00     0.031 C 
ATOM     72  C   UNL A   1      45.824  32.566  29.092  1.00  0.00     0.034 A 
BRANCH  59  73
ATOM     73  C   UNL A   1      47.612  27.493  25.979  1.00  0.00     0.023 A 
ATOM     74  C   UNL A   1      48.523  26.672  26.667  1.00  0.00     0.031 A 
ATOM     75  C   UNL A   1      47.789  27.648  24.592  1.00  0.00     0.131 A 
ATOM     76  C   UNL A   1      49.617  26.115  25.987  1.00  0.00     0.055 A 
ATOM     77  C   UNL A   1      48.827  27.017  23.904  1.00  0.00     0.041 A 
ATOM     78  F   UNL A   1      46.967  28.438  23.882  1.00  0.00    -0.206 F 
ATOM     79  C   UNL A   1      49.761  26.260  24.606  1.00  0.00     0.022 A 
BRANCH  76  80
ATOM     80  S   UNL A   1      50.943  25.351  26.961  1.00  0.00     0.124 S 
ATOM     81  O   UNL A   1      51.445  26.492  27.723  1.00  0.00    -0.237 OA
ATOM     82  O   UNL A   1      50.227  24.336  27.726  1.00  0.00    -0.237 OA
ATOM     83  O   UNL A   1      51.861  24.836  25.947  1.00  0.00    -0.744 OA
ENDBRANCH  76  80
ENDBRANCH  59  73
BRANCH  60  84
ATOM     84  C   UNL A   1      40.080  31.883  30.947  1.00  0.00     0.023 A 
ATOM     85  C   UNL A   1      39.821  31.469  32.262  1.00  0.00     0.031 A 
ATOM     86  C   UNL A   1      39.265  32.891  30.399  1.00  0.00     0.131 A 
ATOM     87  C   UNL A   1      38.754  32.038  32.976  1.00  0.00     0.055 A 
ATOM     88  C   UNL A   1      38.237  33.488  31.130  1.00  0.00     0.041 A 
ATOM     89  F   UNL A   1      39.473  33.324  29.145  1.00  0.00    -0.206 F 
ATOM     90  C   UNL A   1      37.970  33.055  32.424  1.00  0.00     0.022 A 
BRANCH  87  91
ATOM     91  S   UNL A   1      38.363  31.386  34.622  1.00  0.00     0.124 S 
ATOM     92  O   UNL A   1      38.254  29.956  34.357  1.00  0.00    -0.237 OA
ATOM     93  O   UNL A   1      39.525  31.808  35.399  1.00  0.00    -0.237 OA
ATOM     94  O   UNL A   1      37.111  32.056  34.965  1.00  0.00    -0.744 OA
ENDBRANCH  87  91
ENDBRANCH  60  84
BRANCH  72  95
ATOM     95  C   UNL A   1      46.596  33.843  29.326  1.00  0.00     0.023 A 
ATOM     96  C   UNL A   1      46.434  34.978  28.514  1.00  0.00     0.031 A 
ATOM     97  C   UNL A   1      47.493  33.925  30.408  1.00  0.00     0.131 A 
ATOM     98  C   UNL A   1      47.186  36.136  28.775  1.00  0.00     0.055 A 
ATOM     99  C   UNL A   1      48.194  35.096  30.696  1.00  0.00     0.041 A 
ATOM    100  F   UNL A   1      47.688  32.870  31.215  1.00  0.00    -0.206 F 
ATOM    101  C   UNL A   1      48.050  36.207  29.871  1.00  0.00     0.022 A 
BRANCH  98 102
ATOM    102  S   UNL A   1      47.074  37.532  27.622  1.00  0.00     0.124 S 
ATOM    103  O   UNL A   1      45.721  38.021  27.867  1.00  0.00    -0.237 OA
ATOM    104  O   UNL A   1      48.157  38.399  28.072  1.00  0.00    -0.237 OA
ATOM    105  O   UNL A   1      47.281  36.913  26.313  1.00  0.00    -0.744 OA
ENDBRANCH  98 102
ENDBRANCH  72  95
ENDBRANCH  46  47
ENDBRANCH  39  41
ENDBRANCH  38  39
ENDBRANCH  37  38
ENDBRANCH  36  37
ENDBRANCH  35  36
ENDBRANCH   1  35
TORSDOF 22
ENDMDL
MODEL 3
REMARK VINA RESULT:     -10.8      5.229      9.825
REMARK SMILES COc1cccc(C(=O)Nc2ccc(NC(=O)[C@@H]3[C@@H](C(=O)OCCOCCOC(=O)c4ccc(-c5c6nc(c(-c7cc(S(=O)(=O)[O-])ccc7F)c7ccc([nH]7)c(-c7cc(S(=O)(=O)[O-])ccc7F)c7nc(c(-c8cc(S(=O)(=O)[O-])ccc8F)c8ccc5[nH]8)C=C7)C=C6)cc4)[C@@H]4C=C[C@H]3C4)cc2)c1
REMARK SMILES IDX 24 1 23 2 22 3 20 4 21 5 19 6 18 7 97 8 94 9 96 10 98 11
REMARK SMILES IDX 95 12 16 13 15 14 17 16 14 17 11 18 12 19 100 20 13 21 99 22
REMARK SMILES IDX 10 23 8 24 9 25 7 27 3 28 4 29 101 30 5 31 6 32 2 33 1 34
REMARK SMILES IDX 25 35 26 36 27 37 28 38 29 39 30 40 31 41 32 42 93 43 33 44
REMARK SMILES IDX 92 45 34 46 35 47 36 48 86 49 37 50 91 51 85 52 87 53 38 54
REMARK SMILES IDX 90 55 84 56 83 57 39 59 71 60 51 61 70 62 52 63 55 64 69 65
REMARK SMILES IDX 88 66 53 67 54 68 68 70 89 71 56 72 40 73 41 74 49 75 42 76
REMARK SMILES IDX 48 77 50 78 47 79 43 80 44 81 45 82 46 83 72 84 73 85 81 86
REMARK SMILES IDX 74 87 80 88 82 89 79 90 75 91 76 92 77 93 78 94 57 95 58 96
REMARK SMILES IDX 66 97 59 98 65 99 67 100 64 101 60 102 61 103 62 104 63 105
REMARK H PARENT 15 15 10 26 87 58 55 69
REMARK Flexibility Score: inf
ROOT
ATOM      1  C   UNL A   1      32.409  29.187  27.036  1.00  0.00     0.202 C 
ENDROOT
BRANCH   1   2
ATOM      2  C   UNL A   1      32.797  28.993  25.569  1.00  0.00     0.261 C 
BRANCH   2   3
ATOM      3  O   UNL A   1      31.979  29.768  24.686  1.00  0.00    -0.463 OA
BRANCH   3   4
ATOM      4  C   UNL A   1      31.294  29.078  23.730  1.00  0.00     0.310 C 
ATOM      5  O   UNL A   1      31.793  28.332  22.896  1.00  0.00    -0.252 OA
BRANCH   4   6
ATOM      6  C   UNL A   1      29.813  29.348  23.879  1.00  0.00     0.119 C 
ATOM      7  C   UNL A   1      28.925  28.520  22.844  1.00  0.00     0.100 C 
ATOM      8  C   UNL A   1      28.350  29.684  22.008  1.00  0.00     0.025 C 
ATOM      9  C   UNL A   1      29.562  30.824  23.479  1.00  0.00     0.027 C 
ATOM     10  C   UNL A   1      27.392  30.485  22.849  1.00  0.00    -0.027 C 
ATOM     11  C   UNL A   1      29.507  30.684  21.964  1.00  0.00     0.017 C 
ATOM     12  C   UNL A   1      28.118  31.160  23.746  1.00  0.00    -0.027 C 
BRANCH   7  13
ATOM     13  C   UNL A   1      28.024  27.512  23.595  1.00  0.00     0.228 C 
ATOM     14  N   UNL A   1      28.414  26.388  24.276  1.00  0.00    -0.326 N 
ATOM     15  H   UNL A   1      27.710  26.002  24.845  1.00  0.00     0.169 HD
ATOM     16  O   UNL A   1      26.801  27.733  23.642  1.00  0.00    -0.274 OA
BRANCH  14  17
ATOM     17  C   UNL A   1      29.627  25.688  24.314  1.00  0.00     0.041 A 
ATOM     18  C   UNL A   1      31.133  23.437  24.786  1.00  0.00     0.041 A 
ATOM     19  C   UNL A   1      30.902  23.852  23.473  1.00  0.00     0.028 A 
ATOM     20  C   UNL A   1      31.007  24.382  25.792  1.00  0.00     0.028 A 
ATOM     21  C   UNL A   1      30.161  25.015  23.235  1.00  0.00     0.028 A 
ATOM     22  C   UNL A   1      30.230  25.521  25.559  1.00  0.00     0.028 A 
BRANCH  18  23
ATOM     23  N   UNL A   1      31.317  22.059  24.992  1.00  0.00    -0.322 N 
ATOM     24  C   UNL A   1      32.419  21.223  24.990  1.00  0.00     0.255 C 
ATOM     25  O   UNL A   1      32.232  20.025  25.221  1.00  0.00    -0.269 OA
ATOM     26  H   UNL A   1      30.475  21.583  25.179  1.00  0.00     0.170 HD
BRANCH  24  27
ATOM     27  C   UNL A   1      33.810  21.661  24.721  1.00  0.00     0.043 A 
ATOM     28  C   UNL A   1      36.148  21.910  25.307  1.00  0.00     0.119 A 
ATOM     29  C   UNL A   1      36.317  22.757  24.208  1.00  0.00     0.046 A 
ATOM     30  C   UNL A   1      34.909  21.301  25.515  1.00  0.00     0.060 A 
ATOM     31  C   UNL A   1      35.265  23.003  23.327  1.00  0.00     0.005 A 
ATOM     32  C   UNL A   1      34.010  22.462  23.589  1.00  0.00     0.014 A 
BRANCH  28  33
ATOM     33  O   UNL A   1      37.250  21.810  26.110  1.00  0.00    -0.497 OA
ATOM     34  C   UNL A   1      38.526  21.681  25.499  1.00  0.00     0.278 C 
ENDBRANCH  28  33
ENDBRANCH  24  27
ENDBRANCH  18  23
ENDBRANCH  14  17
ENDBRANCH   7  13
ENDBRANCH   4   6
ENDBRANCH   3   4
ENDBRANCH   2   3
ENDBRANCH   1   2
BRANCH   1  35
ATOM     35  O   UNL A   1      32.902  30.340  27.711  1.00  0.00    -0.374 OA
BRANCH  35  36
ATOM     36  C   UNL A   1      34.157  30.891  27.320  1.00  0.00     0.202 C 
BRANCH  36  37
ATOM     37  C   UNL A   1      34.471  32.358  27.647  1.00  0.00     0.261 C 
BRANCH  37  38
ATOM     38  O   UNL A   1      33.320  33.169  27.937  1.00  0.00    -0.460 OA
BRANCH  38  39
ATOM     39  C   UNL A   1      33.539  34.142  28.851  1.00  0.00     0.338 C 
ATOM     40  O   UNL A   1      32.879  35.172  29.004  1.00  0.00    -0.246 OA
BRANCH  39  41
ATOM     41  C   UNL A   1      34.609  33.762  29.780  1.00  0.00     0.060 A 
ATOM     42  C   UNL A   1      35.888  34.296  29.577  1.00  0.00     0.016 A 
ATOM     43  C   UNL A   1      34.393  32.772  30.741  1.00  0.00     0.016 A 
ATOM     44  C   UNL A   1      36.972  33.808  30.305  1.00  0.00     0.010 A 
ATOM     45  C   UNL A   1      35.483  32.277  31.461  1.00  0.00     0.010 A 
ATOM     46  C   UNL A   1      36.782  32.763  31.217  1.00  0.00    -0.014 A 
BRANCH  46  47
ATOM     47  C   UNL A   1      37.950  32.042  31.777  1.00  0.00     0.031 A 
ATOM     48  C   UNL A   1      38.366  32.339  33.191  1.00  0.00     0.074 A 
ATOM     49  C   UNL A   1      38.633  31.149  31.040  1.00  0.00     0.049 A 
ATOM     50  N   UNL A   1      39.428  31.953  33.847  1.00  0.00    -0.248 NA
ATOM     51  C   UNL A   1      37.459  33.203  33.963  1.00  0.00     0.031 C 
ATOM     52  C   UNL A   1      38.283  30.733  29.685  1.00  0.00     0.029 A 
ATOM     53  N   UNL A   1      39.777  30.448  31.326  1.00  0.00    -0.354 N 
ATOM     54  C   UNL A   1      39.332  32.544  35.104  1.00  0.00     0.074 A 
ATOM     55  C   UNL A   1      38.120  33.337  35.101  1.00  0.00     0.031 C 
ATOM     56  C   UNL A   1      39.211  29.867  29.243  1.00  0.00     0.029 A 
ATOM     57  C   UNL A   1      40.245  29.709  30.266  1.00  0.00     0.049 A 
ATOM     58  H   UNL A   1      40.219  30.470  32.205  1.00  0.00     0.167 HD
ATOM     59  C   UNL A   1      40.178  32.432  36.157  1.00  0.00     0.034 A 
ATOM     60  C   UNL A   1      41.397  29.022  30.122  1.00  0.00     0.034 A 
ATOM     61  C   UNL A   1      41.386  31.644  36.128  1.00  0.00     0.049 A 
ATOM     62  C   UNL A   1      42.374  28.983  31.272  1.00  0.00     0.074 A 
ATOM     63  C   UNL A   1      42.315  31.450  37.135  1.00  0.00     0.029 A 
ATOM     64  N   UNL A   1      41.842  30.930  35.026  1.00  0.00    -0.354 N 
ATOM     65  N   UNL A   1      42.286  29.556  32.451  1.00  0.00    -0.248 NA
ATOM     66  C   UNL A   1      43.602  28.202  31.075  1.00  0.00     0.031 C 
ATOM     67  C   UNL A   1      43.368  30.686  36.619  1.00  0.00     0.029 A 
ATOM     68  C   UNL A   1      43.054  30.324  35.318  1.00  0.00     0.049 A 
ATOM     69  H   UNL A   1      41.373  30.865  34.163  1.00  0.00     0.167 HD
ATOM     70  C   UNL A   1      43.428  29.171  33.149  1.00  0.00     0.074 A 
ATOM     71  C   UNL A   1      44.190  28.321  32.257  1.00  0.00     0.031 C 
ATOM     72  C   UNL A   1      43.804  29.479  34.417  1.00  0.00     0.034 A 
BRANCH  59  73
ATOM     73  C   UNL A   1      39.852  33.240  37.393  1.00  0.00     0.023 A 
ATOM     74  C   UNL A   1      39.022  32.740  38.412  1.00  0.00     0.031 A 
ATOM     75  C   UNL A   1      40.332  34.555  37.526  1.00  0.00     0.131 A 
ATOM     76  C   UNL A   1      38.625  33.576  39.467  1.00  0.00     0.055 A 
ATOM     77  C   UNL A   1      40.007  35.353  38.625  1.00  0.00     0.041 A 
ATOM     78  F   UNL A   1      41.109  35.099  36.575  1.00  0.00    -0.206 F 
ATOM     79  C   UNL A   1      39.132  34.871  39.594  1.00  0.00     0.022 A 
BRANCH  76  80
ATOM     80  S   UNL A   1      37.299  33.010  40.568  1.00  0.00     0.124 S 
ATOM     81  O   UNL A   1      36.246  32.672  39.613  1.00  0.00    -0.237 OA
ATOM     82  O   UNL A   1      37.921  31.886  41.258  1.00  0.00    -0.237 OA
ATOM     83  O   UNL A   1      37.022  34.179  41.401  1.00  0.00    -0.744 OA
ENDBRANCH  76  80
ENDBRANCH  59  73
BRANCH  60  84
ATOM     84  C   UNL A   1      41.713  28.362  28.824  1.00  0.00     0.023 A 
ATOM     85  C   UNL A   1      41.344  27.032  28.576  1.00  0.00     0.031 A 
ATOM     86  C   UNL A   1      42.410  29.054  27.816  1.00  0.00     0.131 A 
ATOM     87  C   UNL A   1      41.701  26.424  27.361  1.00  0.00     0.055 A 
ATOM     88  C   UNL A   1      42.719  28.461  26.591  1.00  0.00     0.041 A 
ATOM     89  F   UNL A   1      42.784  30.330  28.003  1.00  0.00    -0.206 F 
ATOM     90  C   UNL A   1      42.373  27.134  26.362  1.00  0.00     0.022 A 
BRANCH  87  91
ATOM     91  S   UNL A   1      41.327  24.665  27.127  1.00  0.00     0.124 S 
ATOM     92  O   UNL A   1      39.969  24.717  26.600  1.00  0.00    -0.237 OA
ATOM     93  O   UNL A   1      42.366  24.257  26.186  1.00  0.00    -0.237 OA
ATOM     94  O   UNL A   1      41.455  24.108  28.472  1.00  0.00    -0.744 OA
ENDBRANCH  87  91
ENDBRANCH  60  84
BRANCH  72  95
ATOM     95  C   UNL A   1      45.061  28.831  34.948  1.00  0.00     0.023 A 
ATOM     96  C   UNL A   1      45.050  27.578  35.583  1.00  0.00     0.031 A 
ATOM     97  C   UNL A   1      46.300  29.480  34.784  1.00  0.00     0.131 A 
ATOM     98  C   UNL A   1      46.251  27.029  36.063  1.00  0.00     0.055 A 
ATOM     99  C   UNL A   1      47.495  28.904  35.212  1.00  0.00     0.041 A 
ATOM    100  F   UNL A   1      46.368  30.680  34.186  1.00  0.00    -0.206 F 
ATOM    101  C   UNL A   1      47.474  27.675  35.865  1.00  0.00     0.022 A 
BRANCH  98 102
ATOM    102  S   UNL A   1      46.189  25.486  37.015  1.00  0.00     0.124 S 
ATOM    103  O   UNL A   1      47.565  25.011  36.914  1.00  0.00    -0.237 OA
ATOM    104  O   UNL A   1      45.768  25.947  38.334  1.00  0.00    -0.237 OA
ATOM    105  O   UNL A   1      45.201  24.680  36.298  1.00  0.00    -0.744 OA
ENDBRANCH  98 102
ENDBRANCH  72  95
ENDBRANCH  46  47
ENDBRANCH  39  41
ENDBRANCH  38  39
ENDBRANCH  37  38
ENDBRANCH  36  37
ENDBRANCH  35  36
ENDBRANCH   1  35
TORSDOF 22
ENDMDL
