MODEL 1
REMARK VINA RESULT:     -10.7      0.000      0.000
REMARK SMILES Cc1n[nH]c(CN(C)C(=O)N[C@](C)(C(=O)OCCOCCOC(=O)c2ccc(-c3c4nc(c(-c5cc(S(=O)(=O)[O-])ccc5F)c5ccc([nH]5)c(-c5cc(S(=O)(=O)[O-])ccc5F)c5nc(c(-c6cc(S(=O)(=O)[O-])ccc6F)c6ccc3[nH]6)C=C5)C=C4)cc2)C(F)(F)F)n1
REMARK SMILES IDX 18 1 17 2 16 3 14 4 15 5 12 6 13 7 11 8 9 9 10 10 7 12 8 13
REMARK SMILES IDX 6 14 5 15 1 16 2 17 3 18 92 19 4 20 88 22 89 23 90 24 91 25
REMARK SMILES IDX 19 26 20 27 21 28 22 29 23 30 24 31 25 32 26 33 87 34 27 35
REMARK SMILES IDX 86 36 28 37 29 38 30 39 80 40 31 41 85 42 79 43 81 44 32 45
REMARK SMILES IDX 84 46 78 47 77 48 33 50 65 51 45 52 64 53 46 54 49 55 63 56
REMARK SMILES IDX 82 57 47 58 48 59 62 61 83 62 50 63 34 64 35 65 43 66 36 67
REMARK SMILES IDX 42 68 44 69 41 70 37 71 38 72 39 73 40 74 66 75 67 76 75 77
REMARK SMILES IDX 68 78 74 79 76 80 73 81 69 82 70 83 71 84 72 85 51 86 52 87
REMARK SMILES IDX 60 88 53 89 59 90 61 91 58 92 54 93 55 94 56 95 57 96
REMARK H PARENT 11 11 4 21 81 49 49 60
REMARK Flexibility Score: inf
ROOT
ATOM      1  C   UNL A   1      35.089  21.100  25.291  1.00  0.00     0.202 C 
ENDROOT
BRANCH   1   2
ATOM      2  C   UNL A   1      33.627  21.259  24.888  1.00  0.00     0.261 C 
BRANCH   2   3
ATOM      3  O   UNL A   1      33.184  22.616  25.087  1.00  0.00    -0.461 OA
BRANCH   3   4
ATOM      4  C   UNL A   1      32.662  23.225  23.986  1.00  0.00     0.341 C 
ATOM      5  O   UNL A   1      32.611  22.691  22.884  1.00  0.00    -0.249 OA
BRANCH   4   6
ATOM      6  C   UNL A   1      32.260  24.680  24.247  1.00  0.00     0.232 C 
ATOM      7  C   UNL A   1      32.510  25.192  25.665  1.00  0.00     0.058 C 
BRANCH   6   8
ATOM      8  N   UNL A   1      32.841  25.484  23.125  1.00  0.00    -0.315 N 
ATOM      9  C   UNL A   1      33.331  26.673  22.785  1.00  0.00     0.318 C 
ATOM     10  O   UNL A   1      33.784  26.699  21.632  1.00  0.00    -0.249 OA
ATOM     11  H   UNL A   1      32.875  24.907  22.328  1.00  0.00     0.166 HD
BRANCH   9  12
ATOM     12  N   UNL A   1      33.331  27.793  23.549  1.00  0.00    -0.320 N 
ATOM     13  C   UNL A   1      33.813  27.984  24.901  1.00  0.00     0.149 C 
BRANCH  12  14
ATOM     14  C   UNL A   1      32.971  29.036  22.867  1.00  0.00     0.197 C 
BRANCH  14  15
ATOM     15  C   UNL A   1      31.507  29.028  22.591  1.00  0.00     0.144 A 
ATOM     16  C   UNL A   1      28.055  28.498  23.099  1.00  0.00     0.092 C 
ATOM     17  C   UNL A   1      29.406  28.855  22.627  1.00  0.00     0.147 A 
ATOM     18  N   UNL A   1      29.614  29.673  21.587  1.00  0.00    -0.159 NA
ATOM     19  N   UNL A   1      30.544  28.416  23.251  1.00  0.00    -0.215 NA
ATOM     20  N   UNL A   1      30.952  29.782  21.599  1.00  0.00    -0.262 N 
ATOM     21  H   UNL A   1      31.469  30.336  20.969  1.00  0.00     0.192 HD
ENDBRANCH  14  15
ENDBRANCH  12  14
ENDBRANCH   9  12
ENDBRANCH   6   8
BRANCH   6  22
ATOM     22  C   UNL A   1      30.713  24.645  24.111  1.00  0.00     0.422 C 
ATOM     23  F   UNL A   1      30.311  24.566  22.821  1.00  0.00    -0.168 F 
ATOM     24  F   UNL A   1      30.210  23.551  24.742  1.00  0.00    -0.168 F 
ATOM     25  F   UNL A   1      30.106  25.711  24.679  1.00  0.00    -0.168 F 
ENDBRANCH   6  22
ENDBRANCH   4   6
ENDBRANCH   3   4
ENDBRANCH   2   3
ENDBRANCH   1   2
BRANCH   1  26
ATOM     26  O   UNL A   1      35.749  19.901  24.878  1.00  0.00    -0.374 OA
BRANCH  26  27
ATOM     27  C   UNL A   1      37.171  19.830  24.907  1.00  0.00     0.202 C 
BRANCH  27  28
ATOM     28  C   UNL A   1      37.929  20.842  25.758  1.00  0.00     0.261 C 
BRANCH  28  29
ATOM     29  O   UNL A   1      39.233  21.081  25.250  1.00  0.00    -0.460 OA
BRANCH  29  30
ATOM     30  C   UNL A   1      40.183  20.264  25.763  1.00  0.00     0.338 C 
ATOM     31  O   UNL A   1      40.184  19.041  25.751  1.00  0.00    -0.246 OA
BRANCH  30  32
ATOM     32  C   UNL A   1      41.179  21.086  26.449  1.00  0.00     0.060 A 
ATOM     33  C   UNL A   1      41.152  21.028  27.841  1.00  0.00     0.016 A 
ATOM     34  C   UNL A   1      41.853  22.102  25.753  1.00  0.00     0.016 A 
ATOM     35  C   UNL A   1      41.538  22.149  28.532  1.00  0.00     0.010 A 
ATOM     36  C   UNL A   1      42.236  23.222  26.445  1.00  0.00     0.010 A 
ATOM     37  C   UNL A   1      41.964  23.268  27.808  1.00  0.00    -0.014 A 
BRANCH  37  38
ATOM     38  C   UNL A   1      42.230  24.484  28.541  1.00  0.00     0.031 A 
ATOM     39  C   UNL A   1      41.152  25.469  28.347  1.00  0.00     0.074 A 
ATOM     40  C   UNL A   1      43.303  24.638  29.338  1.00  0.00     0.049 A 
ATOM     41  N   UNL A   1      41.181  26.506  27.581  1.00  0.00    -0.248 NA
ATOM     42  C   UNL A   1      39.807  25.117  28.834  1.00  0.00     0.031 C 
ATOM     43  C   UNL A   1      44.291  23.637  29.749  1.00  0.00     0.029 A 
ATOM     44  N   UNL A   1      43.691  25.741  30.027  1.00  0.00    -0.354 N 
ATOM     45  C   UNL A   1      39.930  27.088  27.717  1.00  0.00     0.074 A 
ATOM     46  C   UNL A   1      39.075  26.064  28.249  1.00  0.00     0.031 C 
ATOM     47  C   UNL A   1      45.015  24.123  30.786  1.00  0.00     0.029 A 
ATOM     48  C   UNL A   1      44.631  25.507  31.026  1.00  0.00     0.049 A 
ATOM     49  H   UNL A   1      43.335  26.639  29.835  1.00  0.00     0.167 HD
ATOM     50  C   UNL A   1      39.794  28.440  27.685  1.00  0.00     0.034 A 
ATOM     51  C   UNL A   1      45.004  26.373  32.010  1.00  0.00     0.034 A 
ATOM     52  C   UNL A   1      40.968  29.056  27.097  1.00  0.00     0.049 A 
ATOM     53  C   UNL A   1      44.647  27.736  31.530  1.00  0.00     0.074 A 
ATOM     54  C   UNL A   1      41.593  28.963  25.868  1.00  0.00     0.029 A 
ATOM     55  N   UNL A   1      41.902  29.604  27.951  1.00  0.00    -0.354 N 
ATOM     56  N   UNL A   1      45.230  28.297  30.505  1.00  0.00    -0.248 NA
ATOM     57  C   UNL A   1      43.313  28.245  31.827  1.00  0.00     0.031 C 
ATOM     58  C   UNL A   1      42.988  29.000  26.160  1.00  0.00     0.029 A 
ATOM     59  C   UNL A   1      43.148  29.203  27.533  1.00  0.00     0.049 A 
ATOM     60  H   UNL A   1      41.709  30.180  28.725  1.00  0.00     0.167 HD
ATOM     61  C   UNL A   1      44.203  28.882  29.776  1.00  0.00     0.074 A 
ATOM     62  C   UNL A   1      43.059  28.899  30.687  1.00  0.00     0.031 C 
ATOM     63  C   UNL A   1      44.287  29.017  28.418  1.00  0.00     0.034 A 
BRANCH  50  64
ATOM     64  C   UNL A   1      38.827  29.210  28.557  1.00  0.00     0.023 A 
ATOM     65  C   UNL A   1      39.092  29.204  29.937  1.00  0.00     0.031 A 
ATOM     66  C   UNL A   1      37.545  29.678  28.183  1.00  0.00     0.131 A 
ATOM     67  C   UNL A   1      38.085  29.506  30.865  1.00  0.00     0.055 A 
ATOM     68  C   UNL A   1      36.567  30.045  29.110  1.00  0.00     0.041 A 
ATOM     69  F   UNL A   1      37.118  29.730  26.917  1.00  0.00    -0.206 F 
ATOM     70  C   UNL A   1      36.821  29.922  30.463  1.00  0.00     0.022 A 
BRANCH  67  71
ATOM     71  S   UNL A   1      38.406  29.152  32.608  1.00  0.00     0.124 S 
ATOM     72  O   UNL A   1      39.553  28.255  32.516  1.00  0.00    -0.237 OA
ATOM     73  O   UNL A   1      38.671  30.486  33.139  1.00  0.00    -0.237 OA
ATOM     74  O   UNL A   1      37.163  28.534  33.061  1.00  0.00    -0.744 OA
ENDBRANCH  67  71
ENDBRANCH  50  64
BRANCH  51  75
ATOM     75  C   UNL A   1      45.264  26.028  33.442  1.00  0.00     0.023 A 
ATOM     76  C   UNL A   1      44.311  26.170  34.478  1.00  0.00     0.031 A 
ATOM     77  C   UNL A   1      46.444  25.320  33.769  1.00  0.00     0.131 A 
ATOM     78  C   UNL A   1      44.569  25.627  35.766  1.00  0.00     0.055 A 
ATOM     79  C   UNL A   1      46.693  24.791  35.036  1.00  0.00     0.041 A 
ATOM     80  F   UNL A   1      47.369  25.045  32.835  1.00  0.00    -0.206 F 
ATOM     81  C   UNL A   1      45.753  24.937  36.041  1.00  0.00     0.022 A 
BRANCH  78  82
ATOM     82  S   UNL A   1      43.339  25.757  37.111  1.00  0.00     0.124 S 
ATOM     83  O   UNL A   1      44.101  25.330  38.278  1.00  0.00    -0.237 OA
ATOM     84  O   UNL A   1      42.966  27.165  37.056  1.00  0.00    -0.237 OA
ATOM     85  O   UNL A   1      42.283  24.830  36.701  1.00  0.00    -0.744 OA
ENDBRANCH  78  82
ENDBRANCH  51  75
BRANCH  63  86
ATOM     86  C   UNL A   1      45.631  28.766  27.756  1.00  0.00     0.023 A 
ATOM     87  C   UNL A   1      46.030  27.546  27.161  1.00  0.00     0.031 A 
ATOM     88  C   UNL A   1      46.494  29.868  27.621  1.00  0.00     0.131 A 
ATOM     89  C   UNL A   1      47.259  27.463  26.474  1.00  0.00     0.055 A 
ATOM     90  C   UNL A   1      47.696  29.789  26.920  1.00  0.00     0.041 A 
ATOM     91  F   UNL A   1      46.160  31.061  28.138  1.00  0.00    -0.206 F 
ATOM     92  C   UNL A   1      48.087  28.584  26.348  1.00  0.00     0.022 A 
BRANCH  89  93
ATOM     93  S   UNL A   1      47.814  25.889  25.740  1.00  0.00     0.124 S 
ATOM     94  O   UNL A   1      46.919  24.903  26.334  1.00  0.00    -0.237 OA
ATOM     95  O   UNL A   1      47.642  26.128  24.309  1.00  0.00    -0.237 OA
ATOM     96  O   UNL A   1      49.209  25.785  26.173  1.00  0.00    -0.744 OA
ENDBRANCH  89  93
ENDBRANCH  63  86
ENDBRANCH  37  38
ENDBRANCH  30  32
ENDBRANCH  29  30
ENDBRANCH  28  29
ENDBRANCH  27  28
ENDBRANCH  26  27
ENDBRANCH   1  26
TORSDOF 22
ENDMDL
MODEL 2
REMARK VINA RESULT:     -10.7      1.606      2.077
REMARK SMILES Cc1n[nH]c(CN(C)C(=O)N[C@](C)(C(=O)OCCOCCOC(=O)c2ccc(-c3c4nc(c(-c5cc(S(=O)(=O)[O-])ccc5F)c5ccc([nH]5)c(-c5cc(S(=O)(=O)[O-])ccc5F)c5nc(c(-c6cc(S(=O)(=O)[O-])ccc6F)c6ccc3[nH]6)C=C5)C=C4)cc2)C(F)(F)F)n1
REMARK SMILES IDX 18 1 17 2 16 3 14 4 15 5 12 6 13 7 11 8 9 9 10 10 7 12 8 13
REMARK SMILES IDX 6 14 5 15 1 16 2 17 3 18 92 19 4 20 88 22 89 23 90 24 91 25
REMARK SMILES IDX 19 26 20 27 21 28 22 29 23 30 24 31 25 32 26 33 87 34 27 35
REMARK SMILES IDX 86 36 28 37 29 38 30 39 80 40 31 41 85 42 79 43 81 44 32 45
REMARK SMILES IDX 84 46 78 47 77 48 33 50 65 51 45 52 64 53 46 54 49 55 63 56
REMARK SMILES IDX 82 57 47 58 48 59 62 61 83 62 50 63 34 64 35 65 43 66 36 67
REMARK SMILES IDX 42 68 44 69 41 70 37 71 38 72 39 73 40 74 66 75 67 76 75 77
REMARK SMILES IDX 68 78 74 79 76 80 73 81 69 82 70 83 71 84 72 85 51 86 52 87
REMARK SMILES IDX 60 88 53 89 59 90 61 91 58 92 54 93 55 94 56 95 57 96
REMARK H PARENT 11 11 4 21 81 49 49 60
REMARK Flexibility Score: inf
ROOT
ATOM      1  C   UNL A   1      36.019  23.207  25.622  1.00  0.00     0.202 C 
ENDROOT
BRANCH   1   2
ATOM      2  C   UNL A   1      34.746  23.294  24.786  1.00  0.00     0.261 C 
BRANCH   2   3
ATOM      3  O   UNL A   1      34.072  24.549  25.006  1.00  0.00    -0.461 OA
BRANCH   3   4
ATOM      4  C   UNL A   1      32.811  24.629  24.497  1.00  0.00     0.341 C 
ATOM      5  O   UNL A   1      32.276  23.713  23.882  1.00  0.00    -0.249 OA
BRANCH   4   6
ATOM      6  C   UNL A   1      32.188  26.017  24.671  1.00  0.00     0.232 C 
ATOM      7  C   UNL A   1      33.038  27.035  25.431  1.00  0.00     0.058 C 
BRANCH   6   8
ATOM      8  N   UNL A   1      31.691  26.427  23.319  1.00  0.00    -0.315 N 
ATOM      9  C   UNL A   1      30.835  27.213  22.673  1.00  0.00     0.318 C 
ATOM     10  O   UNL A   1      30.976  27.174  21.442  1.00  0.00    -0.249 OA
ATOM     11  H   UNL A   1      32.195  25.915  22.646  1.00  0.00     0.166 HD
BRANCH   9  12
ATOM     12  N   UNL A   1      29.858  27.971  23.229  1.00  0.00    -0.320 N 
ATOM     13  C   UNL A   1      28.481  27.630  23.515  1.00  0.00     0.149 C 
BRANCH  12  14
ATOM     14  C   UNL A   1      30.283  29.250  23.797  1.00  0.00     0.197 C 
BRANCH  14  15
ATOM     15  C   UNL A   1      29.561  30.351  23.100  1.00  0.00     0.144 A 
ATOM     16  C   UNL A   1      27.975  32.130  20.497  1.00  0.00     0.092 C 
ATOM     17  C   UNL A   1      28.546  31.622  21.759  1.00  0.00     0.147 A 
ATOM     18  N   UNL A   1      28.268  32.171  22.948  1.00  0.00    -0.159 NA
ATOM     19  N   UNL A   1      29.359  30.520  21.809  1.00  0.00    -0.215 NA
ATOM     20  N   UNL A   1      28.907  31.335  23.782  1.00  0.00    -0.262 N 
ATOM     21  H   UNL A   1      28.905  31.422  24.763  1.00  0.00     0.192 HD
ENDBRANCH  14  15
ENDBRANCH  12  14
ENDBRANCH   9  12
ENDBRANCH   6   8
BRANCH   6  22
ATOM     22  C   UNL A   1      30.979  25.743  25.606  1.00  0.00     0.422 C 
ATOM     23  F   UNL A   1      29.955  25.138  24.960  1.00  0.00    -0.168 F 
ATOM     24  F   UNL A   1      31.344  24.911  26.617  1.00  0.00    -0.168 F 
ATOM     25  F   UNL A   1      30.502  26.860  26.201  1.00  0.00    -0.168 F 
ENDBRANCH   6  22
ENDBRANCH   4   6
ENDBRANCH   3   4
ENDBRANCH   2   3
ENDBRANCH   1   2
BRANCH   1  26
ATOM     26  O   UNL A   1      36.439  21.904  26.031  1.00  0.00    -0.374 OA
BRANCH  26  27
ATOM     27  C   UNL A   1      36.534  20.857  25.071  1.00  0.00     0.202 C 
BRANCH  27  28
ATOM     28  C   UNL A   1      37.857  20.110  24.943  1.00  0.00     0.261 C 
BRANCH  28  29
ATOM     29  O   UNL A   1      38.915  20.806  25.583  1.00  0.00    -0.460 OA
BRANCH  29  30
ATOM     30  C   UNL A   1      40.018  20.053  25.803  1.00  0.00     0.338 C 
ATOM     31  O   UNL A   1      40.127  18.846  25.642  1.00  0.00    -0.246 OA
BRANCH  30  32
ATOM     32  C   UNL A   1      41.054  20.908  26.382  1.00  0.00     0.060 A 
ATOM     33  C   UNL A   1      41.230  20.790  27.760  1.00  0.00     0.016 A 
ATOM     34  C   UNL A   1      41.562  21.992  25.651  1.00  0.00     0.016 A 
ATOM     35  C   UNL A   1      41.647  21.903  28.445  1.00  0.00     0.010 A 
ATOM     36  C   UNL A   1      41.977  23.104  26.337  1.00  0.00     0.010 A 
ATOM     37  C   UNL A   1      41.901  23.076  27.725  1.00  0.00    -0.014 A 
BRANCH  37  38
ATOM     38  C   UNL A   1      42.200  24.274  28.474  1.00  0.00     0.031 A 
ATOM     39  C   UNL A   1      41.156  25.296  28.282  1.00  0.00     0.074 A 
ATOM     40  C   UNL A   1      43.270  24.385  29.281  1.00  0.00     0.049 A 
ATOM     41  N   UNL A   1      41.225  26.340  27.528  1.00  0.00    -0.248 NA
ATOM     42  C   UNL A   1      39.796  24.983  28.754  1.00  0.00     0.031 C 
ATOM     43  C   UNL A   1      44.221  23.348  29.689  1.00  0.00     0.029 A 
ATOM     44  N   UNL A   1      43.688  25.468  29.985  1.00  0.00    -0.354 N 
ATOM     45  C   UNL A   1      39.993  26.961  27.660  1.00  0.00     0.074 A 
ATOM     46  C   UNL A   1      39.101  25.960  28.173  1.00  0.00     0.031 C 
ATOM     47  C   UNL A   1      44.952  23.799  30.738  1.00  0.00     0.029 A 
ATOM     48  C   UNL A   1      44.611  25.191  30.990  1.00  0.00     0.049 A 
ATOM     49  H   UNL A   1      43.363  26.378  29.800  1.00  0.00     0.167 HD
ATOM     50  C   UNL A   1      39.901  28.317  27.641  1.00  0.00     0.034 A 
ATOM     51  C   UNL A   1      45.004  26.034  31.987  1.00  0.00     0.034 A 
ATOM     52  C   UNL A   1      41.100  28.901  27.070  1.00  0.00     0.049 A 
ATOM     53  C   UNL A   1      44.695  27.414  31.519  1.00  0.00     0.074 A 
ATOM     54  C   UNL A   1      41.732  28.800  25.846  1.00  0.00     0.029 A 
ATOM     55  N   UNL A   1      42.044  29.408  27.938  1.00  0.00    -0.354 N 
ATOM     56  N   UNL A   1      45.305  27.966  30.504  1.00  0.00    -0.248 NA
ATOM     57  C   UNL A   1      43.376  27.963  31.810  1.00  0.00     0.031 C 
ATOM     58  C   UNL A   1      43.125  28.789  26.150  1.00  0.00     0.029 A 
ATOM     59  C   UNL A   1      43.280  28.972  27.526  1.00  0.00     0.049 A 
ATOM     60  H   UNL A   1      41.863  29.982  28.717  1.00  0.00     0.167 HD
ATOM     61  C   UNL A   1      44.304  28.592  29.773  1.00  0.00     0.074 A 
ATOM     62  C   UNL A   1      43.154  28.637  30.675  1.00  0.00     0.031 C 
ATOM     63  C   UNL A   1      44.404  28.740  28.418  1.00  0.00     0.034 A 
BRANCH  50  64
ATOM     64  C   UNL A   1      38.953  29.109  28.514  1.00  0.00     0.023 A 
ATOM     65  C   UNL A   1      39.214  29.090  29.895  1.00  0.00     0.031 A 
ATOM     66  C   UNL A   1      37.684  29.612  28.138  1.00  0.00     0.131 A 
ATOM     67  C   UNL A   1      38.212  29.415  30.822  1.00  0.00     0.055 A 
ATOM     68  C   UNL A   1      36.714  30.000  29.065  1.00  0.00     0.041 A 
ATOM     69  F   UNL A   1      37.262  29.680  26.872  1.00  0.00    -0.206 F 
ATOM     70  C   UNL A   1      36.960  29.866  30.417  1.00  0.00     0.022 A 
BRANCH  67  71
ATOM     71  S   UNL A   1      38.520  29.047  32.564  1.00  0.00     0.124 S 
ATOM     72  O   UNL A   1      37.260  28.423  32.955  1.00  0.00    -0.237 OA
ATOM     73  O   UNL A   1      39.679  28.166  32.482  1.00  0.00    -0.237 OA
ATOM     74  O   UNL A   1      38.774  30.363  33.146  1.00  0.00    -0.744 OA
ENDBRANCH  67  71
ENDBRANCH  50  64
BRANCH  51  75
ATOM     75  C   UNL A   1      45.240  25.666  33.417  1.00  0.00     0.023 A 
ATOM     76  C   UNL A   1      46.493  25.763  34.066  1.00  0.00     0.031 A 
ATOM     77  C   UNL A   1      44.124  25.407  34.246  1.00  0.00     0.131 A 
ATOM     78  C   UNL A   1      46.585  25.592  35.473  1.00  0.00     0.055 A 
ATOM     79  C   UNL A   1      44.220  25.238  35.629  1.00  0.00     0.041 A 
ATOM     80  F   UNL A   1      42.877  25.391  33.747  1.00  0.00    -0.206 F 
ATOM     81  C   UNL A   1      45.452  25.335  36.250  1.00  0.00     0.022 A 
BRANCH  78  82
ATOM     82  S   UNL A   1      48.183  25.755  36.344  1.00  0.00     0.124 S 
ATOM     83  O   UNL A   1      48.530  24.369  36.630  1.00  0.00    -0.237 OA
ATOM     84  O   UNL A   1      49.007  26.442  35.356  1.00  0.00    -0.237 OA
ATOM     85  O   UNL A   1      47.851  26.556  37.524  1.00  0.00    -0.744 OA
ENDBRANCH  78  82
ENDBRANCH  51  75
BRANCH  63  86
ATOM     86  C   UNL A   1      45.745  28.452  27.765  1.00  0.00     0.023 A 
ATOM     87  C   UNL A   1      46.136  27.203  27.225  1.00  0.00     0.031 A 
ATOM     88  C   UNL A   1      46.613  29.542  27.576  1.00  0.00     0.131 A 
ATOM     89  C   UNL A   1      47.363  27.084  26.539  1.00  0.00     0.055 A 
ATOM     90  C   UNL A   1      47.813  29.425  26.877  1.00  0.00     0.041 A 
ATOM     91  F   UNL A   1      46.286  30.759  28.039  1.00  0.00    -0.206 F 
ATOM     92  C   UNL A   1      48.196  28.193  26.360  1.00  0.00     0.022 A 
BRANCH  89  93
ATOM     93  S   UNL A   1      47.909  25.474  25.876  1.00  0.00     0.124 S 
ATOM     94  O   UNL A   1      49.092  25.813  25.094  1.00  0.00    -0.237 OA
ATOM     95  O   UNL A   1      48.146  24.696  27.089  1.00  0.00    -0.237 OA
ATOM     96  O   UNL A   1      46.762  25.026  25.084  1.00  0.00    -0.744 OA
ENDBRANCH  89  93
ENDBRANCH  63  86
ENDBRANCH  37  38
ENDBRANCH  30  32
ENDBRANCH  29  30
ENDBRANCH  28  29
ENDBRANCH  27  28
ENDBRANCH  26  27
ENDBRANCH   1  26
TORSDOF 22
ENDMDL
MODEL 3
REMARK VINA RESULT:     -10.6      3.798      7.617
REMARK SMILES Cc1n[nH]c(CN(C)C(=O)N[C@](C)(C(=O)OCCOCCOC(=O)c2ccc(-c3c4nc(c(-c5cc(S(=O)(=O)[O-])ccc5F)c5ccc([nH]5)c(-c5cc(S(=O)(=O)[O-])ccc5F)c5nc(c(-c6cc(S(=O)(=O)[O-])ccc6F)c6ccc3[nH]6)C=C5)C=C4)cc2)C(F)(F)F)n1
REMARK SMILES IDX 18 1 17 2 16 3 14 4 15 5 12 6 13 7 11 8 9 9 10 10 7 12 8 13
REMARK SMILES IDX 6 14 5 15 1 16 2 17 3 18 92 19 4 20 88 22 89 23 90 24 91 25
REMARK SMILES IDX 19 26 20 27 21 28 22 29 23 30 24 31 25 32 26 33 87 34 27 35
REMARK SMILES IDX 86 36 28 37 29 38 30 39 80 40 31 41 85 42 79 43 81 44 32 45
REMARK SMILES IDX 84 46 78 47 77 48 33 50 65 51 45 52 64 53 46 54 49 55 63 56
REMARK SMILES IDX 82 57 47 58 48 59 62 61 83 62 50 63 34 64 35 65 43 66 36 67
REMARK SMILES IDX 42 68 44 69 41 70 37 71 38 72 39 73 40 74 66 75 67 76 75 77
REMARK SMILES IDX 68 78 74 79 76 80 73 81 69 82 70 83 71 84 72 85 51 86 52 87
REMARK SMILES IDX 60 88 53 89 59 90 61 91 58 92 54 93 55 94 56 95 57 96
REMARK H PARENT 11 11 4 21 81 49 49 60
REMARK Flexibility Score: inf
ROOT
ATOM      1  C   UNL A   1      38.453  21.785  25.545  1.00  0.00     0.202 C 
ENDROOT
BRANCH   1   2
ATOM      2  C   UNL A   1      37.294  21.657  24.562  1.00  0.00     0.261 C 
BRANCH   2   3
ATOM      3  O   UNL A   1      36.241  22.586  24.885  1.00  0.00    -0.461 OA
BRANCH   3   4
ATOM      4  C   UNL A   1      35.677  23.221  23.820  1.00  0.00     0.341 C 
ATOM      5  O   UNL A   1      36.163  23.203  22.694  1.00  0.00    -0.249 OA
BRANCH   4   6
ATOM      6  C   UNL A   1      34.448  24.049  24.205  1.00  0.00     0.232 C 
ATOM      7  C   UNL A   1      34.571  24.857  25.496  1.00  0.00     0.058 C 
BRANCH   6   8
ATOM      8  N   UNL A   1      34.045  24.800  22.973  1.00  0.00    -0.315 N 
ATOM      9  C   UNL A   1      33.570  25.955  22.516  1.00  0.00     0.318 C 
ATOM     10  O   UNL A   1      33.543  26.012  21.278  1.00  0.00    -0.249 OA
ATOM     11  H   UNL A   1      34.188  24.207  22.200  1.00  0.00     0.166 HD
BRANCH   9  12
ATOM     12  N   UNL A   1      33.107  26.988  23.262  1.00  0.00    -0.320 N 
ATOM     13  C   UNL A   1      33.623  28.335  23.385  1.00  0.00     0.149 C 
BRANCH  12  14
ATOM     14  C   UNL A   1      31.800  26.794  23.888  1.00  0.00     0.197 C 
BRANCH  14  15
ATOM     15  C   UNL A   1      30.805  27.668  23.206  1.00  0.00     0.144 A 
ATOM     16  C   UNL A   1      27.786  29.400  22.620  1.00  0.00     0.092 C 
ATOM     17  C   UNL A   1      29.143  28.821  22.611  1.00  0.00     0.147 A 
ATOM     18  N   UNL A   1      30.113  29.269  21.804  1.00  0.00    -0.159 NA
ATOM     19  N   UNL A   1      29.522  27.820  23.466  1.00  0.00    -0.215 NA
ATOM     20  N   UNL A   1      31.160  28.534  22.215  1.00  0.00    -0.262 N 
ATOM     21  H   UNL A   1      32.070  28.612  21.846  1.00  0.00     0.192 HD
ENDBRANCH  14  15
ENDBRANCH  12  14
ENDBRANCH   9  12
ENDBRANCH   6   8
BRANCH   6  22
ATOM     22  C   UNL A   1      33.381  22.966  24.523  1.00  0.00     0.422 C 
ATOM     23  F   UNL A   1      33.215  22.782  25.854  1.00  0.00    -0.168 F 
ATOM     24  F   UNL A   1      32.171  23.338  24.028  1.00  0.00    -0.168 F 
ATOM     25  F   UNL A   1      33.657  21.766  23.962  1.00  0.00    -0.168 F 
ENDBRANCH   6  22
ENDBRANCH   4   6
ENDBRANCH   3   4
ENDBRANCH   2   3
ENDBRANCH   1   2
BRANCH   1  26
ATOM     26  O   UNL A   1      39.232  20.612  25.786  1.00  0.00    -0.374 OA
BRANCH  26  27
ATOM     27  C   UNL A   1      40.424  20.700  26.561  1.00  0.00     0.202 C 
BRANCH  27  28
ATOM     28  C   UNL A   1      40.569  21.862  27.536  1.00  0.00     0.261 C 
BRANCH  28  29
ATOM     29  O   UNL A   1      41.828  22.503  27.404  1.00  0.00    -0.460 OA
BRANCH  29  30
ATOM     30  C   UNL A   1      41.764  23.740  26.857  1.00  0.00     0.338 C 
ATOM     31  O   UNL A   1      42.053  24.052  25.711  1.00  0.00    -0.246 OA
BRANCH  30  32
ATOM     32  C   UNL A   1      41.391  24.690  27.905  1.00  0.00     0.060 A 
ATOM     33  C   UNL A   1      40.216  25.404  27.679  1.00  0.00     0.016 A 
ATOM     34  C   UNL A   1      42.333  25.082  28.868  1.00  0.00     0.016 A 
ATOM     35  C   UNL A   1      40.131  26.671  28.199  1.00  0.00     0.010 A 
ATOM     36  C   UNL A   1      42.248  26.349  29.385  1.00  0.00     0.010 A 
ATOM     37  C   UNL A   1      41.207  27.160  28.949  1.00  0.00    -0.014 A 
BRANCH  37  38
ATOM     38  C   UNL A   1      41.164  28.541  29.367  1.00  0.00     0.031 A 
ATOM     39  C   UNL A   1      42.206  29.335  28.694  1.00  0.00     0.074 A 
ATOM     40  C   UNL A   1      40.237  29.020  30.217  1.00  0.00     0.049 A 
ATOM     41  N   UNL A   1      43.326  29.728  29.199  1.00  0.00    -0.248 NA
ATOM     42  C   UNL A   1      42.128  29.466  27.229  1.00  0.00     0.031 C 
ATOM     43  C   UNL A   1      39.049  28.349  30.750  1.00  0.00     0.029 A 
ATOM     44  N   UNL A   1      40.127  30.273  30.728  1.00  0.00    -0.354 N 
ATOM     45  C   UNL A   1      43.966  30.403  28.172  1.00  0.00     0.074 A 
ATOM     46  C   UNL A   1      43.332  29.968  26.959  1.00  0.00     0.031 C 
ATOM     47  C   UNL A   1      38.230  29.270  31.313  1.00  0.00     0.029 A 
ATOM     48  C   UNL A   1      38.891  30.567  31.295  1.00  0.00     0.049 A 
ATOM     49  H   UNL A   1      40.865  30.924  30.699  1.00  0.00     0.167 HD
ATOM     50  C   UNL A   1      44.734  31.492  28.438  1.00  0.00     0.034 A 
ATOM     51  C   UNL A   1      38.434  31.800  31.653  1.00  0.00     0.034 A 
ATOM     52  C   UNL A   1      45.088  31.534  29.844  1.00  0.00     0.049 A 
ATOM     53  C   UNL A   1      39.636  32.662  31.825  1.00  0.00     0.074 A 
ATOM     54  C   UNL A   1      45.775  30.685  30.691  1.00  0.00     0.029 A 
ATOM     55  N   UNL A   1      44.368  32.378  30.664  1.00  0.00    -0.354 N 
ATOM     56  N   UNL A   1      40.514  32.464  32.771  1.00  0.00    -0.248 NA
ATOM     57  C   UNL A   1      40.143  33.379  30.662  1.00  0.00     0.031 C 
ATOM     58  C   UNL A   1      45.067  30.744  31.927  1.00  0.00     0.029 A 
ATOM     59  C   UNL A   1      44.042  31.687  31.806  1.00  0.00     0.049 A 
ATOM     60  H   UNL A   1      44.129  33.311  30.464  1.00  0.00     0.167 HD
ATOM     61  C   UNL A   1      41.751  32.619  32.159  1.00  0.00     0.074 A 
ATOM     62  C   UNL A   1      41.459  33.274  30.884  1.00  0.00     0.031 C 
ATOM     63  C   UNL A   1      42.850  31.934  32.599  1.00  0.00     0.034 A 
BRANCH  50  64
ATOM     64  C   UNL A   1      44.796  32.717  27.553  1.00  0.00     0.023 A 
ATOM     65  C   UNL A   1      44.105  33.853  28.011  1.00  0.00     0.031 A 
ATOM     66  C   UNL A   1      45.210  32.759  26.200  1.00  0.00     0.131 A 
ATOM     67  C   UNL A   1      43.738  34.878  27.127  1.00  0.00     0.055 A 
ATOM     68  C   UNL A   1      44.901  33.815  25.341  1.00  0.00     0.041 A 
ATOM     69  F   UNL A   1      45.856  31.757  25.595  1.00  0.00    -0.206 F 
ATOM     70  C   UNL A   1      44.126  34.866  25.792  1.00  0.00     0.022 A 
BRANCH  67  71
ATOM     71  S   UNL A   1      42.574  36.128  27.717  1.00  0.00     0.124 S 
ATOM     72  O   UNL A   1      43.150  36.472  29.013  1.00  0.00    -0.237 OA
ATOM     73  O   UNL A   1      42.674  37.145  26.676  1.00  0.00    -0.237 OA
ATOM     74  O   UNL A   1      41.304  35.408  27.768  1.00  0.00    -0.744 OA
ENDBRANCH  67  71
ENDBRANCH  50  64
BRANCH  51  75
ATOM     75  C   UNL A   1      37.047  32.323  31.455  1.00  0.00     0.023 A 
ATOM     76  C   UNL A   1      36.468  32.577  30.189  1.00  0.00     0.031 A 
ATOM     77  C   UNL A   1      36.172  32.373  32.565  1.00  0.00     0.131 A 
ATOM     78  C   UNL A   1      35.082  32.874  30.083  1.00  0.00     0.055 A 
ATOM     79  C   UNL A   1      34.812  32.667  32.455  1.00  0.00     0.041 A 
ATOM     80  F   UNL A   1      36.597  32.053  33.798  1.00  0.00    -0.206 F 
ATOM     81  C   UNL A   1      34.259  32.914  31.211  1.00  0.00     0.022 A 
BRANCH  78  82
ATOM     82  S   UNL A   1      34.298  33.164  28.459  1.00  0.00     0.124 S 
ATOM     83  O   UNL A   1      33.325  34.207  28.758  1.00  0.00    -0.237 OA
ATOM     84  O   UNL A   1      35.434  33.551  27.630  1.00  0.00    -0.237 OA
ATOM     85  O   UNL A   1      33.714  31.864  28.123  1.00  0.00    -0.744 OA
ENDBRANCH  78  82
ENDBRANCH  51  75
BRANCH  63  86
ATOM     86  C   UNL A   1      42.756  31.214  33.933  1.00  0.00     0.023 A 
ATOM     87  C   UNL A   1      42.355  29.867  34.104  1.00  0.00     0.031 A 
ATOM     88  C   UNL A   1      43.217  31.904  35.068  1.00  0.00     0.131 A 
ATOM     89  C   UNL A   1      42.416  29.269  35.380  1.00  0.00     0.055 A 
ATOM     90  C   UNL A   1      43.299  31.301  36.322  1.00  0.00     0.041 A 
ATOM     91  F   UNL A   1      43.639  33.175  34.966  1.00  0.00    -0.206 F 
ATOM     92  C   UNL A   1      42.893  29.983  36.485  1.00  0.00     0.022 A 
BRANCH  89  93
ATOM     93  S   UNL A   1      41.860  27.550  35.633  1.00  0.00     0.124 S 
ATOM     94  O   UNL A   1      41.176  27.227  34.386  1.00  0.00    -0.237 OA
ATOM     95  O   UNL A   1      43.116  26.844  35.874  1.00  0.00    -0.237 OA
ATOM     96  O   UNL A   1      40.984  27.644  36.801  1.00  0.00    -0.744 OA
ENDBRANCH  89  93
ENDBRANCH  63  86
ENDBRANCH  37  38
ENDBRANCH  30  32
ENDBRANCH  29  30
ENDBRANCH  28  29
ENDBRANCH  27  28
ENDBRANCH  26  27
ENDBRANCH   1  26
TORSDOF 22
ENDMDL
