MODEL 1
REMARK VINA RESULT:     -11.3      0.000      0.000
REMARK SMILES Cc1cc(CC(=O)N2C[C@@H](C(=O)OCCOCCOC(=O)c3ccc(-c4c5nc(c(-c6cc(S(=O)(=O)[O-])ccc6F)c6ccc([nH]6)c(-c6cc(S(=O)(=O)[O-])ccc6F)c6nc(c(-c7cc(S(=O)(=O)[O-])ccc7F)c7ccc4[nH]7)C=C6)C=C5)cc3)[C@H](c3ccccc3C)C2)on1
REMARK SMILES IDX 16 1 15 2 14 3 13 4 11 5 12 6 10 7 8 8 9 9 93 10 85 11 6 12
REMARK SMILES IDX 7 13 5 14 4 15 1 16 2 17 3 18 95 19 94 20 86 21 87 22 91 23
REMARK SMILES IDX 88 24 90 25 92 26 89 27 17 28 18 29 19 30 20 31 21 32 22 33
REMARK SMILES IDX 23 34 84 35 24 36 83 37 25 38 26 39 27 40 77 41 28 42 82 43
REMARK SMILES IDX 76 44 78 45 29 46 81 47 75 48 74 49 30 51 62 52 42 53 61 54
REMARK SMILES IDX 43 55 46 56 60 57 79 58 44 59 45 60 59 62 80 63 47 64 31 65
REMARK SMILES IDX 32 66 40 67 33 68 39 69 41 70 38 71 34 72 35 73 36 74 37 75
REMARK SMILES IDX 63 76 64 77 72 78 65 79 71 80 73 81 70 82 66 83 67 84 68 85
REMARK SMILES IDX 69 86 48 87 49 88 57 89 50 90 56 91 58 92 55 93 51 94 52 95
REMARK SMILES IDX 53 96 54 97
REMARK H PARENT 78 50 46 61
REMARK Flexibility Score: inf
ROOT
ATOM      1  O   UNL A   1      39.688  22.274  26.564  1.00  0.00    -0.374 OA
ENDROOT
BRANCH   1   2
ATOM      2  C   UNL A   1      38.899  23.456  26.518  1.00  0.00     0.202 C 
BRANCH   2   3
ATOM      3  C   UNL A   1      37.552  23.386  25.797  1.00  0.00     0.261 C 
BRANCH   3   4
ATOM      4  O   UNL A   1      37.561  22.626  24.576  1.00  0.00    -0.463 OA
BRANCH   4   5
ATOM      5  C   UNL A   1      36.602  22.977  23.672  1.00  0.00     0.311 C 
ATOM      6  O   UNL A   1      36.811  23.246  22.497  1.00  0.00    -0.252 OA
BRANCH   5   7
ATOM      7  C   UNL A   1      35.239  23.007  24.316  1.00  0.00     0.128 C 
ATOM      8  N   UNL A   1      33.344  21.616  24.086  1.00  0.00    -0.341 N 
ATOM      9  C   UNL A   1      34.736  21.580  24.462  1.00  0.00     0.135 C 
ATOM     10  C   UNL A   1      33.104  22.724  23.176  1.00  0.00     0.128 C 
ATOM     11  C   UNL A   1      34.224  23.769  23.417  1.00  0.00     0.055 C 
BRANCH   8  12
ATOM     12  C   UNL A   1      32.428  20.586  24.199  1.00  0.00     0.230 C 
ATOM     13  O   UNL A   1      31.726  20.484  25.213  1.00  0.00    -0.274 OA
BRANCH  12  14
ATOM     14  C   UNL A   1      32.446  19.441  23.200  1.00  0.00     0.178 C 
BRANCH  14  15
ATOM     15  C   UNL A   1      33.215  18.233  23.564  1.00  0.00     0.146 A 
ATOM     16  C   UNL A   1      35.349  15.803  25.270  1.00  0.00     0.070 C 
ATOM     17  C   UNL A   1      34.418  16.609  24.444  1.00  0.00     0.081 A 
ATOM     18  C   UNL A   1      34.145  17.989  24.549  1.00  0.00     0.072 A 
ATOM     19  N   UNL A   1      33.715  16.053  23.450  1.00  0.00    -0.085 NA
ATOM     20  O   UNL A   1      32.947  17.075  22.908  1.00  0.00    -0.361 OA
ENDBRANCH  14  15
ENDBRANCH  12  14
ENDBRANCH   8  12
BRANCH  11  21
ATOM     21  C   UNL A   1      33.868  25.160  23.973  1.00  0.00    -0.039 A 
ATOM     22  C   UNL A   1      34.000  25.454  25.344  1.00  0.00     0.004 A 
ATOM     23  C   UNL A   1      33.330  26.188  23.146  1.00  0.00    -0.048 A 
ATOM     24  C   UNL A   1      33.663  26.708  25.870  1.00  0.00     0.000 A 
ATOM     25  C   UNL A   1      33.045  27.458  23.687  1.00  0.00     0.004 A 
ATOM     26  C   UNL A   1      33.047  26.040  21.676  1.00  0.00     0.044 C 
ATOM     27  C   UNL A   1      33.203  27.716  25.039  1.00  0.00     0.000 A 
ENDBRANCH  11  21
ENDBRANCH   5   7
ENDBRANCH   4   5
ENDBRANCH   3   4
ENDBRANCH   2   3
ENDBRANCH   1   2
BRANCH   1  28
ATOM     28  C   UNL A   1      39.118  21.069  26.066  1.00  0.00     0.202 C 
BRANCH  28  29
ATOM     29  C   UNL A   1      40.025  19.843  25.933  1.00  0.00     0.261 C 
BRANCH  29  30
ATOM     30  O   UNL A   1      41.264  19.939  26.660  1.00  0.00    -0.460 OA
BRANCH  30  31
ATOM     31  C   UNL A   1      42.364  20.026  25.873  1.00  0.00     0.338 C 
ATOM     32  O   UNL A   1      42.748  19.199  25.051  1.00  0.00    -0.246 OA
BRANCH  31  33
ATOM     33  C   UNL A   1      43.024  21.331  26.021  1.00  0.00     0.060 A 
ATOM     34  C   UNL A   1      43.563  21.660  27.271  1.00  0.00     0.016 A 
ATOM     35  C   UNL A   1      42.960  22.285  25.002  1.00  0.00     0.016 A 
ATOM     36  C   UNL A   1      44.000  22.959  27.523  1.00  0.00     0.010 A 
ATOM     37  C   UNL A   1      43.392  23.591  25.261  1.00  0.00     0.010 A 
ATOM     38  C   UNL A   1      43.878  23.945  26.534  1.00  0.00    -0.014 A 
BRANCH  38  39
ATOM     39  C   UNL A   1      44.108  25.369  26.882  1.00  0.00     0.031 A 
ATOM     40  C   UNL A   1      45.494  25.941  26.734  1.00  0.00     0.074 A 
ATOM     41  C   UNL A   1      43.095  26.147  27.306  1.00  0.00     0.049 A 
ATOM     42  N   UNL A   1      45.937  27.134  27.036  1.00  0.00    -0.248 NA
ATOM     43  C   UNL A   1      46.515  25.044  26.171  1.00  0.00     0.031 C 
ATOM     44  C   UNL A   1      41.705  25.717  27.444  1.00  0.00     0.029 A 
ATOM     45  N   UNL A   1      43.082  27.460  27.709  1.00  0.00    -0.354 N 
ATOM     46  C   UNL A   1      47.290  27.130  26.712  1.00  0.00     0.074 A 
ATOM     47  C   UNL A   1      47.598  25.807  26.211  1.00  0.00     0.031 C 
ATOM     48  C   UNL A   1      40.976  26.742  27.920  1.00  0.00     0.029 A 
ATOM     49  C   UNL A   1      41.853  27.888  28.156  1.00  0.00     0.049 A 
ATOM     50  H   UNL A   1      43.877  28.039  27.680  1.00  0.00     0.167 HD
ATOM     51  C   UNL A   1      48.189  28.139  26.817  1.00  0.00     0.034 A 
ATOM     52  C   UNL A   1      41.488  29.056  28.722  1.00  0.00     0.034 A 
ATOM     53  C   UNL A   1      47.867  29.453  27.317  1.00  0.00     0.049 A 
ATOM     54  C   UNL A   1      42.526  30.141  28.895  1.00  0.00     0.074 A 
ATOM     55  C   UNL A   1      48.697  30.555  27.442  1.00  0.00     0.029 A 
ATOM     56  N   UNL A   1      46.619  29.841  27.785  1.00  0.00    -0.354 N 
ATOM     57  N   UNL A   1      43.798  30.128  28.569  1.00  0.00    -0.248 NA
ATOM     58  C   UNL A   1      42.076  31.401  29.504  1.00  0.00     0.031 C 
ATOM     59  C   UNL A   1      47.970  31.585  28.048  1.00  0.00     0.029 A 
ATOM     60  C   UNL A   1      46.666  31.153  28.232  1.00  0.00     0.049 A 
ATOM     61  H   UNL A   1      45.819  29.269  27.799  1.00  0.00     0.167 HD
ATOM     62  C   UNL A   1      44.289  31.388  28.903  1.00  0.00     0.074 A 
ATOM     63  C   UNL A   1      43.175  32.138  29.445  1.00  0.00     0.031 C 
ATOM     64  C   UNL A   1      45.545  31.885  28.771  1.00  0.00     0.034 A 
BRANCH  51  65
ATOM     65  C   UNL A   1      49.619  27.844  26.437  1.00  0.00     0.023 A 
ATOM     66  C   UNL A   1      50.072  27.941  25.111  1.00  0.00     0.031 A 
ATOM     67  C   UNL A   1      50.544  27.458  27.425  1.00  0.00     0.131 A 
ATOM     68  C   UNL A   1      51.399  27.607  24.800  1.00  0.00     0.055 A 
ATOM     69  C   UNL A   1      51.880  27.192  27.119  1.00  0.00     0.041 A 
ATOM     70  F   UNL A   1      50.161  27.326  28.704  1.00  0.00    -0.206 F 
ATOM     71  C   UNL A   1      52.312  27.256  25.798  1.00  0.00     0.022 A 
BRANCH  68  72
ATOM     72  S   UNL A   1      51.892  27.531  23.056  1.00  0.00     0.124 S 
ATOM     73  O   UNL A   1      52.820  26.402  23.061  1.00  0.00    -0.237 OA
ATOM     74  O   UNL A   1      50.619  27.308  22.378  1.00  0.00    -0.237 OA
ATOM     75  O   UNL A   1      52.506  28.834  22.815  1.00  0.00    -0.744 OA
ENDBRANCH  68  72
ENDBRANCH  51  65
BRANCH  52  76
ATOM     76  C   UNL A   1      40.097  29.255  29.223  1.00  0.00     0.023 A 
ATOM     77  C   UNL A   1      39.785  29.119  30.585  1.00  0.00     0.031 A 
ATOM     78  C   UNL A   1      39.042  29.512  28.329  1.00  0.00     0.131 A 
ATOM     79  C   UNL A   1      38.447  29.184  31.006  1.00  0.00     0.055 A 
ATOM     80  C   UNL A   1      37.720  29.633  28.760  1.00  0.00     0.041 A 
ATOM     81  F   UNL A   1      39.283  29.651  27.015  1.00  0.00    -0.206 F 
ATOM     82  C   UNL A   1      37.414  29.452  30.104  1.00  0.00     0.022 A 
BRANCH  79  83
ATOM     83  S   UNL A   1      38.062  28.806  32.738  1.00  0.00     0.124 S 
ATOM     84  O   UNL A   1      36.732  29.388  32.881  1.00  0.00    -0.237 OA
ATOM     85  O   UNL A   1      38.129  27.348  32.749  1.00  0.00    -0.237 OA
ATOM     86  O   UNL A   1      39.124  29.484  33.478  1.00  0.00    -0.744 OA
ENDBRANCH  79  83
ENDBRANCH  52  76
BRANCH  64  87
ATOM     87  C   UNL A   1      45.763  33.324  29.169  1.00  0.00     0.023 A 
ATOM     88  C   UNL A   1      46.181  33.680  30.464  1.00  0.00     0.031 A 
ATOM     89  C   UNL A   1      45.547  34.353  28.236  1.00  0.00     0.131 A 
ATOM     90  C   UNL A   1      46.322  35.033  30.803  1.00  0.00     0.055 A 
ATOM     91  C   UNL A   1      45.743  35.695  28.564  1.00  0.00     0.041 A 
ATOM     92  F   UNL A   1      45.147  34.069  26.986  1.00  0.00    -0.206 F 
ATOM     93  C   UNL A   1      46.121  36.042  29.857  1.00  0.00     0.022 A 
BRANCH  90  94
ATOM     94  S   UNL A   1      46.698  35.466  32.524  1.00  0.00     0.124 S 
ATOM     95  O   UNL A   1      45.434  36.035  32.978  1.00  0.00    -0.237 OA
ATOM     96  O   UNL A   1      47.059  34.175  33.099  1.00  0.00    -0.237 OA
ATOM     97  O   UNL A   1      47.800  36.420  32.406  1.00  0.00    -0.744 OA
ENDBRANCH  90  94
ENDBRANCH  64  87
ENDBRANCH  38  39
ENDBRANCH  31  33
ENDBRANCH  30  31
ENDBRANCH  29  30
ENDBRANCH  28  29
ENDBRANCH   1  28
TORSDOF 21
ENDMDL
MODEL 2
REMARK VINA RESULT:     -11.3      3.634      9.050
REMARK SMILES Cc1cc(CC(=O)N2C[C@@H](C(=O)OCCOCCOC(=O)c3ccc(-c4c5nc(c(-c6cc(S(=O)(=O)[O-])ccc6F)c6ccc([nH]6)c(-c6cc(S(=O)(=O)[O-])ccc6F)c6nc(c(-c7cc(S(=O)(=O)[O-])ccc7F)c7ccc4[nH]7)C=C6)C=C5)cc3)[C@H](c3ccccc3C)C2)on1
REMARK SMILES IDX 16 1 15 2 14 3 13 4 11 5 12 6 10 7 8 8 9 9 93 10 85 11 6 12
REMARK SMILES IDX 7 13 5 14 4 15 1 16 2 17 3 18 95 19 94 20 86 21 87 22 91 23
REMARK SMILES IDX 88 24 90 25 92 26 89 27 17 28 18 29 19 30 20 31 21 32 22 33
REMARK SMILES IDX 23 34 84 35 24 36 83 37 25 38 26 39 27 40 77 41 28 42 82 43
REMARK SMILES IDX 76 44 78 45 29 46 81 47 75 48 74 49 30 51 62 52 42 53 61 54
REMARK SMILES IDX 43 55 46 56 60 57 79 58 44 59 45 60 59 62 80 63 47 64 31 65
REMARK SMILES IDX 32 66 40 67 33 68 39 69 41 70 38 71 34 72 35 73 36 74 37 75
REMARK SMILES IDX 63 76 64 77 72 78 65 79 71 80 73 81 70 82 66 83 67 84 68 85
REMARK SMILES IDX 69 86 48 87 49 88 57 89 50 90 56 91 58 92 55 93 51 94 52 95
REMARK SMILES IDX 53 96 54 97
REMARK H PARENT 78 50 46 61
REMARK Flexibility Score: inf
ROOT
ATOM      1  O   UNL A   1      35.814  22.811  22.634  1.00  0.00    -0.374 OA
ENDROOT
BRANCH   1   2
ATOM      2  C   UNL A   1      34.689  23.627  22.933  1.00  0.00     0.202 C 
BRANCH   2   3
ATOM      3  C   UNL A   1      33.387  23.347  22.181  1.00  0.00     0.261 C 
BRANCH   3   4
ATOM      4  O   UNL A   1      32.897  24.447  21.395  1.00  0.00    -0.463 OA
BRANCH   4   5
ATOM      5  C   UNL A   1      33.047  25.677  21.967  1.00  0.00     0.311 C 
ATOM      6  O   UNL A   1      33.969  26.448  21.739  1.00  0.00    -0.252 OA
BRANCH   5   7
ATOM      7  C   UNL A   1      31.930  25.959  22.939  1.00  0.00     0.128 C 
ATOM      8  N   UNL A   1      31.000  27.975  23.746  1.00  0.00    -0.341 N 
ATOM      9  C   UNL A   1      31.234  27.245  22.524  1.00  0.00     0.135 C 
ATOM     10  C   UNL A   1      31.979  27.590  24.750  1.00  0.00     0.128 C 
ATOM     11  C   UNL A   1      32.493  26.177  24.373  1.00  0.00     0.055 C 
BRANCH   8  12
ATOM     12  C   UNL A   1      30.264  29.137  23.889  1.00  0.00     0.230 C 
ATOM     13  O   UNL A   1      30.722  30.091  24.531  1.00  0.00    -0.274 OA
BRANCH  12  14
ATOM     14  C   UNL A   1      28.802  29.165  23.475  1.00  0.00     0.178 C 
BRANCH  14  15
ATOM     15  C   UNL A   1      28.410  30.128  22.425  1.00  0.00     0.146 A 
ATOM     16  C   UNL A   1      27.663  33.177  20.551  1.00  0.00     0.070 C 
ATOM     17  C   UNL A   1      27.957  31.833  21.104  1.00  0.00     0.081 A 
ATOM     18  C   UNL A   1      28.179  31.485  22.453  1.00  0.00     0.072 A 
ATOM     19  N   UNL A   1      28.031  30.758  20.310  1.00  0.00    -0.085 NA
ATOM     20  O   UNL A   1      28.332  29.689  21.143  1.00  0.00    -0.361 OA
ENDBRANCH  14  15
ENDBRANCH  12  14
ENDBRANCH   8  12
BRANCH  11  21
ATOM     21  C   UNL A   1      32.212  24.984  25.307  1.00  0.00    -0.039 A 
ATOM     22  C   UNL A   1      30.903  24.500  25.498  1.00  0.00     0.004 A 
ATOM     23  C   UNL A   1      33.243  24.361  26.066  1.00  0.00    -0.048 A 
ATOM     24  C   UNL A   1      30.627  23.429  26.358  1.00  0.00     0.000 A 
ATOM     25  C   UNL A   1      32.951  23.253  26.888  1.00  0.00     0.004 A 
ATOM     26  C   UNL A   1      34.688  24.785  26.054  1.00  0.00     0.044 C 
ATOM     27  C   UNL A   1      31.652  22.794  27.038  1.00  0.00     0.000 A 
ENDBRANCH  11  21
ENDBRANCH   5   7
ENDBRANCH   4   5
ENDBRANCH   3   4
ENDBRANCH   2   3
ENDBRANCH   1   2
BRANCH   1  28
ATOM     28  C   UNL A   1      36.860  22.734  23.595  1.00  0.00     0.202 C 
BRANCH  28  29
ATOM     29  C   UNL A   1      37.086  21.400  24.311  1.00  0.00     0.261 C 
BRANCH  29  30
ATOM     30  O   UNL A   1      37.405  21.523  25.709  1.00  0.00    -0.460 OA
BRANCH  30  31
ATOM     31  C   UNL A   1      38.719  21.349  25.995  1.00  0.00     0.338 C 
ATOM     32  O   UNL A   1      39.431  20.412  25.644  1.00  0.00    -0.246 OA
BRANCH  31  33
ATOM     33  C   UNL A   1      39.269  22.513  26.704  1.00  0.00     0.060 A 
ATOM     34  C   UNL A   1      38.704  23.768  26.447  1.00  0.00     0.016 A 
ATOM     35  C   UNL A   1      40.430  22.400  27.473  1.00  0.00     0.016 A 
ATOM     36  C   UNL A   1      39.325  24.923  26.922  1.00  0.00     0.010 A 
ATOM     37  C   UNL A   1      41.055  23.562  27.940  1.00  0.00     0.010 A 
ATOM     38  C   UNL A   1      40.528  24.831  27.635  1.00  0.00    -0.014 A 
BRANCH  38  39
ATOM     39  C   UNL A   1      41.310  26.060  27.920  1.00  0.00     0.031 A 
ATOM     40  C   UNL A   1      40.641  27.199  28.644  1.00  0.00     0.074 A 
ATOM     41  C   UNL A   1      42.602  26.153  27.556  1.00  0.00     0.049 A 
ATOM     42  N   UNL A   1      41.108  28.383  28.942  1.00  0.00    -0.248 NA
ATOM     43  C   UNL A   1      39.258  26.968  29.089  1.00  0.00     0.031 C 
ATOM     44  C   UNL A   1      43.368  25.099  26.892  1.00  0.00     0.029 A 
ATOM     45  N   UNL A   1      43.495  27.188  27.684  1.00  0.00    -0.354 N 
ATOM     46  C   UNL A   1      40.076  29.045  29.599  1.00  0.00     0.074 A 
ATOM     47  C   UNL A   1      38.950  28.136  29.635  1.00  0.00     0.031 C 
ATOM     48  C   UNL A   1      44.612  25.549  26.653  1.00  0.00     0.029 A 
ATOM     49  C   UNL A   1      44.720  26.934  27.111  1.00  0.00     0.049 A 
ATOM     50  H   UNL A   1      43.280  28.031  28.144  1.00  0.00     0.167 HD
ATOM     51  C   UNL A   1      40.071  30.293  30.128  1.00  0.00     0.034 A 
ATOM     52  C   UNL A   1      45.791  27.738  26.944  1.00  0.00     0.034 A 
ATOM     53  C   UNL A   1      41.202  31.187  30.085  1.00  0.00     0.049 A 
ATOM     54  C   UNL A   1      45.735  29.150  27.479  1.00  0.00     0.074 A 
ATOM     55  C   UNL A   1      41.311  32.464  30.613  1.00  0.00     0.029 A 
ATOM     56  N   UNL A   1      42.415  30.906  29.473  1.00  0.00    -0.354 N 
ATOM     57  N   UNL A   1      44.757  29.757  28.112  1.00  0.00    -0.248 NA
ATOM     58  C   UNL A   1      46.931  29.983  27.285  1.00  0.00     0.031 C 
ATOM     59  C   UNL A   1      42.564  32.977  30.260  1.00  0.00     0.029 A 
ATOM     60  C   UNL A   1      43.265  31.996  29.579  1.00  0.00     0.049 A 
ATOM     61  H   UNL A   1      42.639  30.057  29.029  1.00  0.00     0.167 HD
ATOM     62  C   UNL A   1      45.235  31.028  28.420  1.00  0.00     0.074 A 
ATOM     63  C   UNL A   1      46.590  31.097  27.914  1.00  0.00     0.031 C 
ATOM     64  C   UNL A   1      44.614  32.048  29.067  1.00  0.00     0.034 A 
BRANCH  51  65
ATOM     65  C   UNL A   1      38.787  30.786  30.747  1.00  0.00     0.023 A 
ATOM     66  C   UNL A   1      37.776  31.392  29.981  1.00  0.00     0.031 A 
ATOM     67  C   UNL A   1      38.573  30.644  32.130  1.00  0.00     0.131 A 
ATOM     68  C   UNL A   1      36.621  31.880  30.612  1.00  0.00     0.055 A 
ATOM     69  C   UNL A   1      37.392  31.071  32.741  1.00  0.00     0.041 A 
ATOM     70  F   UNL A   1      39.514  30.094  32.913  1.00  0.00    -0.206 F 
ATOM     71  C   UNL A   1      36.412  31.703  31.982  1.00  0.00     0.022 A 
BRANCH  68  72
ATOM     72  S   UNL A   1      35.440  32.849  29.634  1.00  0.00     0.124 S 
ATOM     73  O   UNL A   1      35.147  31.934  28.534  1.00  0.00    -0.237 OA
ATOM     74  O   UNL A   1      34.355  33.075  30.583  1.00  0.00    -0.237 OA
ATOM     75  O   UNL A   1      36.199  34.041  29.261  1.00  0.00    -0.744 OA
ENDBRANCH  68  72
ENDBRANCH  51  65
BRANCH  52  76
ATOM     76  C   UNL A   1      46.988  27.261  26.192  1.00  0.00     0.023 A 
ATOM     77  C   UNL A   1      48.064  26.643  26.849  1.00  0.00     0.031 A 
ATOM     78  C   UNL A   1      47.104  27.487  24.809  1.00  0.00     0.131 A 
ATOM     79  C   UNL A   1      49.229  26.323  26.135  1.00  0.00     0.055 A 
ATOM     80  C   UNL A   1      48.242  27.116  24.092  1.00  0.00     0.041 A 
ATOM     81  F   UNL A   1      46.106  28.076  24.130  1.00  0.00    -0.206 F 
ATOM     82  C   UNL A   1      49.321  26.544  24.758  1.00  0.00     0.022 A 
BRANCH  79  83
ATOM     83  S   UNL A   1      50.670  25.711  27.051  1.00  0.00     0.124 S 
ATOM     84  O   UNL A   1      50.211  24.395  27.482  1.00  0.00    -0.237 OA
ATOM     85  O   UNL A   1      51.707  25.725  26.025  1.00  0.00    -0.237 OA
ATOM     86  O   UNL A   1      50.837  26.695  28.119  1.00  0.00    -0.744 OA
ENDBRANCH  79  83
ENDBRANCH  52  76
BRANCH  64  87
ATOM     87  C   UNL A   1      45.417  33.302  29.309  1.00  0.00     0.023 A 
ATOM     88  C   UNL A   1      45.397  34.381  28.408  1.00  0.00     0.031 A 
ATOM     89  C   UNL A   1      46.216  33.414  30.461  1.00  0.00     0.131 A 
ATOM     90  C   UNL A   1      46.199  35.506  28.650  1.00  0.00     0.055 A 
ATOM     91  C   UNL A   1      46.968  34.560  30.724  1.00  0.00     0.041 A 
ATOM     92  F   UNL A   1      46.271  32.413  31.354  1.00  0.00    -0.206 F 
ATOM     93  C   UNL A   1      46.972  35.609  29.810  1.00  0.00     0.022 A 
BRANCH  90  94
ATOM     94  S   UNL A   1      46.280  36.806  27.388  1.00  0.00     0.124 S 
ATOM     95  O   UNL A   1      46.809  36.081  26.238  1.00  0.00    -0.237 OA
ATOM     96  O   UNL A   1      44.888  37.232  27.288  1.00  0.00    -0.237 OA
ATOM     97  O   UNL A   1      47.189  37.793  27.969  1.00  0.00    -0.744 OA
ENDBRANCH  90  94
ENDBRANCH  64  87
ENDBRANCH  38  39
ENDBRANCH  31  33
ENDBRANCH  30  31
ENDBRANCH  29  30
ENDBRANCH  28  29
ENDBRANCH   1  28
TORSDOF 21
ENDMDL
MODEL 3
REMARK VINA RESULT:     -11.1      2.621      8.600
REMARK SMILES Cc1cc(CC(=O)N2C[C@@H](C(=O)OCCOCCOC(=O)c3ccc(-c4c5nc(c(-c6cc(S(=O)(=O)[O-])ccc6F)c6ccc([nH]6)c(-c6cc(S(=O)(=O)[O-])ccc6F)c6nc(c(-c7cc(S(=O)(=O)[O-])ccc7F)c7ccc4[nH]7)C=C6)C=C5)cc3)[C@H](c3ccccc3C)C2)on1
REMARK SMILES IDX 16 1 15 2 14 3 13 4 11 5 12 6 10 7 8 8 9 9 93 10 85 11 6 12
REMARK SMILES IDX 7 13 5 14 4 15 1 16 2 17 3 18 95 19 94 20 86 21 87 22 91 23
REMARK SMILES IDX 88 24 90 25 92 26 89 27 17 28 18 29 19 30 20 31 21 32 22 33
REMARK SMILES IDX 23 34 84 35 24 36 83 37 25 38 26 39 27 40 77 41 28 42 82 43
REMARK SMILES IDX 76 44 78 45 29 46 81 47 75 48 74 49 30 51 62 52 42 53 61 54
REMARK SMILES IDX 43 55 46 56 60 57 79 58 44 59 45 60 59 62 80 63 47 64 31 65
REMARK SMILES IDX 32 66 40 67 33 68 39 69 41 70 38 71 34 72 35 73 36 74 37 75
REMARK SMILES IDX 63 76 64 77 72 78 65 79 71 80 73 81 70 82 66 83 67 84 68 85
REMARK SMILES IDX 69 86 48 87 49 88 57 89 50 90 56 91 58 92 55 93 51 94 52 95
REMARK SMILES IDX 53 96 54 97
REMARK H PARENT 78 50 46 61
REMARK Flexibility Score: inf
ROOT
ATOM      1  O   UNL A   1      37.794  20.618  24.757  1.00  0.00    -0.374 OA
ENDROOT
BRANCH   1   2
ATOM      2  C   UNL A   1      37.755  21.847  25.470  1.00  0.00     0.202 C 
BRANCH   2   3
ATOM      3  C   UNL A   1      36.642  22.837  25.122  1.00  0.00     0.261 C 
BRANCH   3   4
ATOM      4  O   UNL A   1      35.763  23.163  26.211  1.00  0.00    -0.463 OA
BRANCH   4   5
ATOM      5  C   UNL A   1      34.681  22.343  26.345  1.00  0.00     0.311 C 
ATOM      6  O   UNL A   1      34.568  21.462  27.187  1.00  0.00    -0.252 OA
BRANCH   5   7
ATOM      7  C   UNL A   1      33.638  22.652  25.302  1.00  0.00     0.128 C 
ATOM      8  N   UNL A   1      31.687  23.984  25.353  1.00  0.00    -0.341 N 
ATOM      9  C   UNL A   1      33.116  24.061  25.535  1.00  0.00     0.135 C 
ATOM     10  C   UNL A   1      31.223  22.634  25.633  1.00  0.00     0.128 C 
ATOM     11  C   UNL A   1      32.430  21.681  25.429  1.00  0.00     0.055 C 
BRANCH   8  12
ATOM     12  C   UNL A   1      30.797  25.041  25.320  1.00  0.00     0.230 C 
ATOM     13  O   UNL A   1      30.258  25.436  26.361  1.00  0.00    -0.274 OA
BRANCH  12  14
ATOM     14  C   UNL A   1      30.289  25.564  23.986  1.00  0.00     0.178 C 
BRANCH  14  15
ATOM     15  C   UNL A   1      30.261  27.029  23.796  1.00  0.00     0.146 A 
ATOM     16  C   UNL A   1      29.222  30.471  23.132  1.00  0.00     0.070 C 
ATOM     17  C   UNL A   1      29.838  29.170  23.489  1.00  0.00     0.081 A 
ATOM     18  C   UNL A   1      29.305  27.880  23.289  1.00  0.00     0.072 A 
ATOM     19  N   UNL A   1      31.046  29.110  24.063  1.00  0.00    -0.085 NA
ATOM     20  O   UNL A   1      31.303  27.761  24.270  1.00  0.00    -0.361 OA
ENDBRANCH  14  15
ENDBRANCH  12  14
ENDBRANCH   8  12
BRANCH  11  21
ATOM     21  C   UNL A   1      32.394  20.629  24.305  1.00  0.00    -0.039 A 
ATOM     22  C   UNL A   1      32.104  20.991  22.975  1.00  0.00     0.004 A 
ATOM     23  C   UNL A   1      32.585  19.242  24.564  1.00  0.00    -0.048 A 
ATOM     24  C   UNL A   1      32.049  20.046  21.943  1.00  0.00     0.000 A 
ATOM     25  C   UNL A   1      32.575  18.313  23.503  1.00  0.00     0.004 A 
ATOM     26  C   UNL A   1      32.831  18.653  25.927  1.00  0.00     0.044 C 
ATOM     27  C   UNL A   1      32.303  18.709  22.203  1.00  0.00     0.000 A 
ENDBRANCH  11  21
ENDBRANCH   5   7
ENDBRANCH   4   5
ENDBRANCH   3   4
ENDBRANCH   2   3
ENDBRANCH   1   2
BRANCH   1  28
ATOM     28  C   UNL A   1      38.588  19.562  25.286  1.00  0.00     0.202 C 
BRANCH  28  29
ATOM     29  C   UNL A   1      39.851  19.931  26.068  1.00  0.00     0.261 C 
BRANCH  29  30
ATOM     30  O   UNL A   1      40.905  18.954  25.989  1.00  0.00    -0.460 OA
BRANCH  30  31
ATOM     31  C   UNL A   1      42.152  19.485  25.949  1.00  0.00     0.338 C 
ATOM     32  O   UNL A   1      43.171  18.939  25.539  1.00  0.00    -0.246 OA
BRANCH  31  33
ATOM     33  C   UNL A   1      42.143  20.898  26.356  1.00  0.00     0.060 A 
ATOM     34  C   UNL A   1      42.176  21.873  25.351  1.00  0.00     0.016 A 
ATOM     35  C   UNL A   1      42.275  21.257  27.699  1.00  0.00     0.016 A 
ATOM     36  C   UNL A   1      42.388  23.210  25.683  1.00  0.00     0.010 A 
ATOM     37  C   UNL A   1      42.497  22.600  28.028  1.00  0.00     0.010 A 
ATOM     38  C   UNL A   1      42.593  23.577  27.020  1.00  0.00    -0.014 A 
BRANCH  38  39
ATOM     39  C   UNL A   1      43.063  24.948  27.342  1.00  0.00     0.031 A 
ATOM     40  C   UNL A   1      42.108  25.911  27.998  1.00  0.00     0.074 A 
ATOM     41  C   UNL A   1      44.327  25.323  27.074  1.00  0.00     0.049 A 
ATOM     42  N   UNL A   1      42.281  27.169  28.311  1.00  0.00    -0.248 NA
ATOM     43  C   UNL A   1      40.779  25.382  28.343  1.00  0.00     0.031 C 
ATOM     44  C   UNL A   1      45.353  24.464  26.485  1.00  0.00     0.029 A 
ATOM     45  N   UNL A   1      44.960  26.529  27.251  1.00  0.00    -0.354 N 
ATOM     46  C   UNL A   1      41.082  27.587  28.880  1.00  0.00     0.074 A 
ATOM     47  C   UNL A   1      40.183  26.453  28.847  1.00  0.00     0.031 C 
ATOM     48  C   UNL A   1      46.483  25.177  26.331  1.00  0.00     0.029 A 
ATOM     49  C   UNL A   1      46.250  26.551  26.774  1.00  0.00     0.049 A 
ATOM     50  H   UNL A   1      44.531  27.304  27.681  1.00  0.00     0.167 HD
ATOM     51  C   UNL A   1      40.764  28.803  29.387  1.00  0.00     0.034 A 
ATOM     52  C   UNL A   1      47.128  27.571  26.674  1.00  0.00     0.034 A 
ATOM     53  C   UNL A   1      41.671  29.924  29.415  1.00  0.00     0.049 A 
ATOM     54  C   UNL A   1      46.724  28.935  27.182  1.00  0.00     0.074 A 
ATOM     55  C   UNL A   1      41.458  31.192  29.929  1.00  0.00     0.029 A 
ATOM     56  N   UNL A   1      42.959  29.916  28.898  1.00  0.00    -0.354 N 
ATOM     57  N   UNL A   1      45.592  29.312  27.732  1.00  0.00    -0.248 NA
ATOM     58  C   UNL A   1      47.719  30.010  27.064  1.00  0.00     0.031 C 
ATOM     59  C   UNL A   1      42.591  31.969  29.662  1.00  0.00     0.029 A 
ATOM     60  C   UNL A   1      43.539  31.167  29.050  1.00  0.00     0.049 A 
ATOM     61  H   UNL A   1      43.397  29.138  28.485  1.00  0.00     0.167 HD
ATOM     62  C   UNL A   1      45.754  30.657  28.054  1.00  0.00     0.074 A 
ATOM     63  C   UNL A   1      47.096  31.022  27.648  1.00  0.00     0.031 C 
ATOM     64  C   UNL A   1      44.878  31.514  28.638  1.00  0.00     0.034 A 
BRANCH  51  65
ATOM     65  C   UNL A   1      39.360  29.001  29.902  1.00  0.00     0.023 A 
ATOM     66  C   UNL A   1      38.334  29.515  29.090  1.00  0.00     0.031 A 
ATOM     67  C   UNL A   1      39.044  28.667  31.232  1.00  0.00     0.131 A 
ATOM     68  C   UNL A   1      37.056  29.728  29.630  1.00  0.00     0.055 A 
ATOM     69  C   UNL A   1      37.754  28.819  31.744  1.00  0.00     0.041 A 
ATOM     70  F   UNL A   1      39.990  28.194  32.059  1.00  0.00    -0.206 F 
ATOM     71  C   UNL A   1      36.754  29.362  30.944  1.00  0.00     0.022 A 
BRANCH  68  72
ATOM     72  S   UNL A   1      35.820  30.594  28.624  1.00  0.00     0.124 S 
ATOM     73  O   UNL A   1      35.233  31.507  29.601  1.00  0.00    -0.237 OA
ATOM     74  O   UNL A   1      36.635  31.210  27.583  1.00  0.00    -0.237 OA
ATOM     75  O   UNL A   1      34.935  29.523  28.171  1.00  0.00    -0.744 OA
ENDBRANCH  68  72
ENDBRANCH  51  65
BRANCH  52  76
ATOM     76  C   UNL A   1      48.454  27.370  26.021  1.00  0.00     0.023 A 
ATOM     77  C   UNL A   1      48.620  27.544  24.637  1.00  0.00     0.031 A 
ATOM     78  C   UNL A   1      49.561  26.926  26.766  1.00  0.00     0.131 A 
ATOM     79  C   UNL A   1      49.846  27.222  24.035  1.00  0.00     0.055 A 
ATOM     80  C   UNL A   1      50.795  26.662  26.170  1.00  0.00     0.041 A 
ATOM     81  F   UNL A   1      49.458  26.742  28.092  1.00  0.00    -0.206 F 
ATOM     82  C   UNL A   1      50.938  26.794  24.794  1.00  0.00     0.022 A 
BRANCH  79  83
ATOM     83  S   UNL A   1      49.963  27.268  22.225  1.00  0.00     0.124 S 
ATOM     84  O   UNL A   1      51.303  26.736  22.000  1.00  0.00    -0.237 OA
ATOM     85  O   UNL A   1      48.854  26.404  21.831  1.00  0.00    -0.237 OA
ATOM     86  O   UNL A   1      49.791  28.684  21.909  1.00  0.00    -0.744 OA
ENDBRANCH  79  83
ENDBRANCH  52  76
BRANCH  64  87
ATOM     87  C   UNL A   1      45.367  32.914  28.919  1.00  0.00     0.023 A 
ATOM     88  C   UNL A   1      45.194  33.959  27.996  1.00  0.00     0.031 A 
ATOM     89  C   UNL A   1      46.017  33.201  30.133  1.00  0.00     0.131 A 
ATOM     90  C   UNL A   1      45.709  35.233  28.279  1.00  0.00     0.055 A 
ATOM     91  C   UNL A   1      46.477  34.484  30.433  1.00  0.00     0.041 A 
ATOM     92  F   UNL A   1      46.208  32.239  31.050  1.00  0.00    -0.206 F 
ATOM     93  C   UNL A   1      46.335  35.505  29.499  1.00  0.00     0.022 A 
BRANCH  90  94
ATOM     94  S   UNL A   1      45.618  36.515  27.000  1.00  0.00     0.124 S 
ATOM     95  O   UNL A   1      46.197  35.834  25.846  1.00  0.00    -0.237 OA
ATOM     96  O   UNL A   1      44.186  36.785  26.929  1.00  0.00    -0.237 OA
ATOM     97  O   UNL A   1      46.427  37.603  27.546  1.00  0.00    -0.744 OA
ENDBRANCH  90  94
ENDBRANCH  64  87
ENDBRANCH  38  39
ENDBRANCH  31  33
ENDBRANCH  30  31
ENDBRANCH  29  30
ENDBRANCH  28  29
ENDBRANCH   1  28
TORSDOF 21
ENDMDL
