MODEL 1
REMARK VINA RESULT:     -10.5      0.000      0.000
REMARK SMILES CC[NH2+][C@]1(C(=O)OCCOCCOC(=O)c2ccc(-c3c4nc(c(-c5cc(S(=O)(=O)[O-])ccc5F)c5ccc([nH]5)c(-c5cc(S(=O)(=O)[O-])ccc5F)c5nc(c(-c6cc(S(=O)(=O)[O-])ccc6F)c6ccc3[nH]6)C=C5)C=C4)cc2)CCC[C@@H](n2cccn2)C1
REMARK SMILES IDX 11 1 10 2 9 3 8 4 7 5 5 6 6 7 4 8 79 9 88 10 80 11 82 12
REMARK SMILES IDX 81 13 3 14 2 17 1 18 83 19 84 20 87 21 85 22 86 23 12 24
REMARK SMILES IDX 13 25 14 26 15 27 16 28 17 29 78 30 18 31 77 32 19 33 20 34
REMARK SMILES IDX 21 35 71 36 22 37 76 38 70 39 72 40 23 41 75 42 69 43 68 44
REMARK SMILES IDX 24 46 56 47 36 48 55 49 37 50 40 51 54 52 73 53 38 54 39 55
REMARK SMILES IDX 53 57 74 58 41 59 25 60 26 61 34 62 27 63 33 64 35 65 32 66
REMARK SMILES IDX 28 67 29 68 30 69 31 70 57 71 58 72 66 73 59 74 65 75 67 76
REMARK SMILES IDX 64 77 60 78 61 79 62 80 63 81 42 82 43 83 51 84 44 85 50 86
REMARK SMILES IDX 52 87 49 88 45 89 46 90 47 91 48 92
REMARK H PARENT 3 15 3 16 72 45 40 56
REMARK Flexibility Score: inf
ROOT
ATOM      1  C   UNL A   1      31.646  30.050  25.345  1.00  0.00     0.202 C 
ENDROOT
BRANCH   1   2
ATOM      2  O   UNL A   1      32.901  29.652  24.803  1.00  0.00    -0.374 OA
BRANCH   2   3
ATOM      3  C   UNL A   1      33.359  28.332  25.102  1.00  0.00     0.202 C 
BRANCH   3   4
ATOM      4  C   UNL A   1      32.655  27.608  26.256  1.00  0.00     0.261 C 
BRANCH   4   5
ATOM      5  O   UNL A   1      33.205  26.288  26.461  1.00  0.00    -0.459 OA
BRANCH   5   6
ATOM      6  C   UNL A   1      32.460  25.243  25.992  1.00  0.00     0.368 C 
ATOM      7  O   UNL A   1      31.355  24.938  26.425  1.00  0.00    -0.245 OA
BRANCH   6   8
ATOM      8  C   UNL A   1      33.203  24.456  24.855  1.00  0.00     0.196 C 
ATOM      9  C   UNL A   1      34.715  24.756  25.049  1.00  0.00     0.081 C 
ATOM     10  C   UNL A   1      33.000  22.933  25.031  1.00  0.00     0.108 C 
ATOM     11  C   UNL A   1      35.684  23.890  24.255  1.00  0.00     0.009 C 
ATOM     12  C   UNL A   1      33.871  22.090  24.085  1.00  0.00     0.114 C 
ATOM     13  C   UNL A   1      35.357  22.406  24.335  1.00  0.00     0.028 C 
BRANCH   8  14
ATOM     14  N   UNL A   1      32.560  24.803  23.561  1.00  0.00    -0.332 N 
ATOM     15  H   UNL A   1      32.375  23.927  23.073  1.00  0.00     0.347 HD
ATOM     16  H   UNL A   1      31.744  25.352  23.830  1.00  0.00     0.347 HD
BRANCH  14  17
ATOM     17  C   UNL A   1      33.275  25.665  22.637  1.00  0.00     0.257 C 
ATOM     18  C   UNL A   1      32.665  25.558  21.247  1.00  0.00     0.071 C 
ENDBRANCH  14  17
ENDBRANCH   8  14
BRANCH  12  19
ATOM     19  N   UNL A   1      33.566  20.662  24.240  1.00  0.00    -0.269 N 
ATOM     20  C   UNL A   1      32.354  20.059  24.022  1.00  0.00     0.109 A 
ATOM     21  N   UNL A   1      34.518  19.784  24.627  1.00  0.00    -0.181 NA
ATOM     22  C   UNL A   1      32.530  18.725  24.301  1.00  0.00     0.042 A 
ATOM     23  C   UNL A   1      33.884  18.611  24.654  1.00  0.00     0.135 A 
ENDBRANCH  12  19
ENDBRANCH   6   8
ENDBRANCH   5   6
ENDBRANCH   4   5
ENDBRANCH   3   4
ENDBRANCH   2   3
ENDBRANCH   1   2
BRANCH   1  24
ATOM     24  C   UNL A   1      31.620  31.352  26.162  1.00  0.00     0.261 C 
BRANCH  24  25
ATOM     25  O   UNL A   1      32.380  31.267  27.380  1.00  0.00    -0.460 OA
BRANCH  25  26
ATOM     26  C   UNL A   1      33.220  32.312  27.589  1.00  0.00     0.338 C 
ATOM     27  O   UNL A   1      32.920  33.502  27.612  1.00  0.00    -0.246 OA
BRANCH  26  28
ATOM     28  C   UNL A   1      34.556  31.837  27.989  1.00  0.00     0.060 A 
ATOM     29  C   UNL A   1      34.693  30.468  28.254  1.00  0.00     0.016 A 
ATOM     30  C   UNL A   1      35.629  32.707  28.189  1.00  0.00     0.016 A 
ATOM     31  C   UNL A   1      35.891  29.970  28.759  1.00  0.00     0.010 A 
ATOM     32  C   UNL A   1      36.832  32.204  28.706  1.00  0.00     0.010 A 
ATOM     33  C   UNL A   1      36.959  30.838  29.022  1.00  0.00    -0.014 A 
BRANCH  33  34
ATOM     34  C   UNL A   1      38.145  30.316  29.749  1.00  0.00     0.031 A 
ATOM     35  C   UNL A   1      38.393  30.758  31.167  1.00  0.00     0.074 A 
ATOM     36  C   UNL A   1      38.953  29.404  29.175  1.00  0.00     0.049 A 
ATOM     37  N   UNL A   1      39.351  30.414  31.989  1.00  0.00    -0.248 NA
ATOM     38  C   UNL A   1      37.427  31.712  31.732  1.00  0.00     0.031 C 
ATOM     39  C   UNL A   1      38.784  28.862  27.827  1.00  0.00     0.029 A 
ATOM     40  N   UNL A   1      40.072  28.769  29.655  1.00  0.00    -0.354 N 
ATOM     41  C   UNL A   1      39.104  31.107  33.170  1.00  0.00     0.074 A 
ATOM     42  C   UNL A   1      37.928  31.919  32.941  1.00  0.00     0.031 C 
ATOM     43  C   UNL A   1      39.766  27.977  27.588  1.00  0.00     0.029 A 
ATOM     44  C   UNL A   1      40.656  27.917  28.746  1.00  0.00     0.049 A 
ATOM     45  H   UNL A   1      40.422  28.910  30.564  1.00  0.00     0.167 HD
ATOM     46  C   UNL A   1      39.791  31.062  34.340  1.00  0.00     0.034 A 
ATOM     47  C   UNL A   1      41.790  27.191  28.830  1.00  0.00     0.034 A 
ATOM     48  C   UNL A   1      40.969  30.254  34.549  1.00  0.00     0.049 A 
ATOM     49  C   UNL A   1      42.591  27.232  30.110  1.00  0.00     0.074 A 
ATOM     50  C   UNL A   1      41.727  30.118  35.700  1.00  0.00     0.029 A 
ATOM     51  N   UNL A   1      41.572  29.457  33.584  1.00  0.00    -0.354 N 
ATOM     52  N   UNL A   1      42.337  27.881  31.224  1.00  0.00    -0.248 NA
ATOM     53  C   UNL A   1      43.826  26.438  30.145  1.00  0.00     0.031 C 
ATOM     54  C   UNL A   1      42.828  29.306  35.408  1.00  0.00     0.029 A 
ATOM     55  C   UNL A   1      42.716  28.865  34.099  1.00  0.00     0.049 A 
ATOM     56  H   UNL A   1      41.237  29.332  32.666  1.00  0.00     0.167 HD
ATOM     57  C   UNL A   1      43.371  27.551  32.099  1.00  0.00     0.074 A 
ATOM     58  C   UNL A   1      44.236  26.632  31.389  1.00  0.00     0.031 C 
ATOM     59  C   UNL A   1      43.584  27.967  33.374  1.00  0.00     0.034 A 
BRANCH  46  60
ATOM     60  C   UNL A   1      39.316  31.956  35.461  1.00  0.00     0.023 A 
ATOM     61  C   UNL A   1      39.764  33.281  35.599  1.00  0.00     0.031 A 
ATOM     62  C   UNL A   1      38.408  31.466  36.416  1.00  0.00     0.131 A 
ATOM     63  C   UNL A   1      39.354  34.047  36.701  1.00  0.00     0.055 A 
ATOM     64  C   UNL A   1      37.943  32.258  37.468  1.00  0.00     0.041 A 
ATOM     65  F   UNL A   1      37.962  30.201  36.349  1.00  0.00    -0.206 F 
ATOM     66  C   UNL A   1      38.427  33.554  37.622  1.00  0.00     0.022 A 
BRANCH  63  67
ATOM     67  S   UNL A   1      40.148  35.654  36.987  1.00  0.00     0.124 S 
ATOM     68  O   UNL A   1      41.563  35.296  36.942  1.00  0.00    -0.237 OA
ATOM     69  O   UNL A   1      39.653  36.453  35.873  1.00  0.00    -0.237 OA
ATOM     70  O   UNL A   1      39.656  36.048  38.306  1.00  0.00    -0.744 OA
ENDBRANCH  63  67
ENDBRANCH  46  60
BRANCH  47  71
ATOM     71  C   UNL A   1      42.273  26.406  27.658  1.00  0.00     0.023 A 
ATOM     72  C   UNL A   1      41.883  25.073  27.457  1.00  0.00     0.031 A 
ATOM     73  C   UNL A   1      43.187  26.968  26.747  1.00  0.00     0.131 A 
ATOM     74  C   UNL A   1      42.437  24.333  26.400  1.00  0.00     0.055 A 
ATOM     75  C   UNL A   1      43.694  26.245  25.665  1.00  0.00     0.041 A 
ATOM     76  F   UNL A   1      43.598  28.238  26.893  1.00  0.00    -0.206 F 
ATOM     77  C   UNL A   1      43.328  24.914  25.495  1.00  0.00     0.022 A 
BRANCH  74  78
ATOM     78  S   UNL A   1      42.044  22.566  26.275  1.00  0.00     0.124 S 
ATOM     79  O   UNL A   1      42.691  22.033  27.468  1.00  0.00    -0.237 OA
ATOM     80  O   UNL A   1      40.585  22.579  26.284  1.00  0.00    -0.237 OA
ATOM     81  O   UNL A   1      42.653  22.172  25.005  1.00  0.00    -0.744 OA
ENDBRANCH  74  78
ENDBRANCH  47  71
BRANCH  59  82
ATOM     82  C   UNL A   1      44.790  27.403  34.087  1.00  0.00     0.023 A 
ATOM     83  C   UNL A   1      44.720  26.207  34.823  1.00  0.00     0.031 A 
ATOM     84  C   UNL A   1      46.023  28.079  34.042  1.00  0.00     0.131 A 
ATOM     85  C   UNL A   1      45.845  25.754  35.531  1.00  0.00     0.055 A 
ATOM     86  C   UNL A   1      47.155  27.590  34.696  1.00  0.00     0.041 A 
ATOM     87  F   UNL A   1      46.148  29.227  33.357  1.00  0.00    -0.206 F 
ATOM     88  C   UNL A   1      47.066  26.429  35.458  1.00  0.00     0.022 A 
BRANCH  85  89
ATOM     89  S   UNL A   1      45.665  24.322  36.630  1.00  0.00     0.124 S 
ATOM     90  O   UNL A   1      46.961  23.666  36.487  1.00  0.00    -0.237 OA
ATOM     91  O   UNL A   1      45.407  24.950  37.922  1.00  0.00    -0.237 OA
ATOM     92  O   UNL A   1      44.534  23.592  36.059  1.00  0.00    -0.744 OA
ENDBRANCH  85  89
ENDBRANCH  59  82
ENDBRANCH  33  34
ENDBRANCH  26  28
ENDBRANCH  25  26
ENDBRANCH  24  25
ENDBRANCH   1  24
TORSDOF 20
ENDMDL
MODEL 2
REMARK VINA RESULT:     -10.4      1.588      1.925
REMARK SMILES CC[NH2+][C@]1(C(=O)OCCOCCOC(=O)c2ccc(-c3c4nc(c(-c5cc(S(=O)(=O)[O-])ccc5F)c5ccc([nH]5)c(-c5cc(S(=O)(=O)[O-])ccc5F)c5nc(c(-c6cc(S(=O)(=O)[O-])ccc6F)c6ccc3[nH]6)C=C5)C=C4)cc2)CCC[C@@H](n2cccn2)C1
REMARK SMILES IDX 11 1 10 2 9 3 8 4 7 5 5 6 6 7 4 8 79 9 88 10 80 11 82 12
REMARK SMILES IDX 81 13 3 14 2 17 1 18 83 19 84 20 87 21 85 22 86 23 12 24
REMARK SMILES IDX 13 25 14 26 15 27 16 28 17 29 78 30 18 31 77 32 19 33 20 34
REMARK SMILES IDX 21 35 71 36 22 37 76 38 70 39 72 40 23 41 75 42 69 43 68 44
REMARK SMILES IDX 24 46 56 47 36 48 55 49 37 50 40 51 54 52 73 53 38 54 39 55
REMARK SMILES IDX 53 57 74 58 41 59 25 60 26 61 34 62 27 63 33 64 35 65 32 66
REMARK SMILES IDX 28 67 29 68 30 69 31 70 57 71 58 72 66 73 59 74 65 75 67 76
REMARK SMILES IDX 64 77 60 78 61 79 62 80 63 81 42 82 43 83 51 84 44 85 50 86
REMARK SMILES IDX 52 87 49 88 45 89 46 90 47 91 48 92
REMARK H PARENT 3 15 3 16 72 45 40 56
REMARK Flexibility Score: inf
ROOT
ATOM      1  C   UNL A   1      31.723  29.588  25.485  1.00  0.00     0.202 C 
ENDROOT
BRANCH   1   2
ATOM      2  O   UNL A   1      32.750  28.604  25.554  1.00  0.00    -0.374 OA
BRANCH   2   3
ATOM      3  C   UNL A   1      32.398  27.259  25.224  1.00  0.00     0.202 C 
BRANCH   3   4
ATOM      4  C   UNL A   1      31.659  26.460  26.303  1.00  0.00     0.261 C 
BRANCH   4   5
ATOM      5  O   UNL A   1      31.161  25.208  25.782  1.00  0.00    -0.459 OA
BRANCH   5   6
ATOM      6  C   UNL A   1      31.678  24.073  26.339  1.00  0.00     0.368 C 
ATOM      7  O   UNL A   1      31.404  23.674  27.466  1.00  0.00    -0.245 OA
BRANCH   6   8
ATOM      8  C   UNL A   1      32.694  23.357  25.380  1.00  0.00     0.196 C 
ATOM      9  C   UNL A   1      34.107  23.793  25.857  1.00  0.00     0.081 C 
ATOM     10  C   UNL A   1      32.597  21.822  25.538  1.00  0.00     0.108 C 
ATOM     11  C   UNL A   1      35.285  23.018  25.280  1.00  0.00     0.009 C 
ATOM     12  C   UNL A   1      33.706  21.063  24.792  1.00  0.00     0.114 C 
ATOM     13  C   UNL A   1      35.082  21.511  25.319  1.00  0.00     0.028 C 
BRANCH   8  14
ATOM     14  N   UNL A   1      32.286  23.647  23.981  1.00  0.00    -0.332 N 
ATOM     15  H   UNL A   1      31.756  22.841  23.650  1.00  0.00     0.347 HD
ATOM     16  H   UNL A   1      31.776  24.527  24.050  1.00  0.00     0.347 HD
BRANCH  14  17
ATOM     17  C   UNL A   1      33.318  23.914  22.995  1.00  0.00     0.257 C 
ATOM     18  C   UNL A   1      32.939  25.129  22.161  1.00  0.00     0.071 C 
ENDBRANCH  14  17
ENDBRANCH   8  14
BRANCH  12  19
ATOM     19  N   UNL A   1      33.505  19.612  24.909  1.00  0.00    -0.269 N 
ATOM     20  C   UNL A   1      34.413  18.636  24.587  1.00  0.00     0.109 A 
ATOM     21  N   UNL A   1      32.344  19.104  25.376  1.00  0.00    -0.181 NA
ATOM     22  C   UNL A   1      33.796  17.435  24.843  1.00  0.00     0.042 A 
ATOM     23  C   UNL A   1      32.531  17.784  25.341  1.00  0.00     0.135 A 
ENDBRANCH  12  19
ENDBRANCH   6   8
ENDBRANCH   5   6
ENDBRANCH   4   5
ENDBRANCH   3   4
ENDBRANCH   2   3
ENDBRANCH   1   2
BRANCH   1  24
ATOM     24  C   UNL A   1      31.889  30.834  26.368  1.00  0.00     0.261 C 
BRANCH  24  25
ATOM     25  O   UNL A   1      32.858  30.656  27.417  1.00  0.00    -0.460 OA
BRANCH  25  26
ATOM     26  C   UNL A   1      33.715  31.696  27.568  1.00  0.00     0.338 C 
ATOM     27  O   UNL A   1      33.425  32.888  27.594  1.00  0.00    -0.246 OA
BRANCH  26  28
ATOM     28  C   UNL A   1      35.068  31.215  27.900  1.00  0.00     0.060 A 
ATOM     29  C   UNL A   1      35.222  29.838  28.104  1.00  0.00     0.016 A 
ATOM     30  C   UNL A   1      36.143  32.084  28.097  1.00  0.00     0.016 A 
ATOM     31  C   UNL A   1      36.441  29.328  28.544  1.00  0.00     0.010 A 
ATOM     32  C   UNL A   1      37.366  31.569  28.548  1.00  0.00     0.010 A 
ATOM     33  C   UNL A   1      37.512  30.192  28.804  1.00  0.00    -0.014 A 
BRANCH  33  34
ATOM     34  C   UNL A   1      38.728  29.650  29.466  1.00  0.00     0.031 A 
ATOM     35  C   UNL A   1      39.114  30.162  30.828  1.00  0.00     0.074 A 
ATOM     36  C   UNL A   1      39.437  28.662  28.889  1.00  0.00     0.049 A 
ATOM     37  N   UNL A   1      40.119  29.816  31.591  1.00  0.00    -0.248 NA
ATOM     38  C   UNL A   1      38.248  31.201  31.406  1.00  0.00     0.031 C 
ATOM     39  C   UNL A   1      39.129  28.049  27.597  1.00  0.00     0.029 A 
ATOM     40  N   UNL A   1      40.558  27.995  29.318  1.00  0.00    -0.354 N 
ATOM     41  C   UNL A   1      40.007  30.591  32.741  1.00  0.00     0.074 A 
ATOM     42  C   UNL A   1      38.858  31.452  32.555  1.00  0.00     0.031 C 
ATOM     43  C   UNL A   1      40.042  27.098  27.338  1.00  0.00     0.029 A 
ATOM     44  C   UNL A   1      41.021  27.059  28.423  1.00  0.00     0.049 A 
ATOM     45  H   UNL A   1      40.990  28.171  30.185  1.00  0.00     0.167 HD
ATOM     46  C   UNL A   1      40.786  30.579  33.852  1.00  0.00     0.034 A 
ATOM     47  C   UNL A   1      42.120  26.277  28.463  1.00  0.00     0.034 A 
ATOM     48  C   UNL A   1      41.934  29.720  34.019  1.00  0.00     0.049 A 
ATOM     49  C   UNL A   1      43.026  26.351  29.669  1.00  0.00     0.074 A 
ATOM     50  C   UNL A   1      42.778  29.612  35.112  1.00  0.00     0.029 A 
ATOM     51  N   UNL A   1      42.414  28.835  33.061  1.00  0.00    -0.354 N 
ATOM     52  N   UNL A   1      42.899  27.078  30.755  1.00  0.00    -0.248 NA
ATOM     53  C   UNL A   1      44.218  25.492  29.655  1.00  0.00     0.031 C 
ATOM     54  C   UNL A   1      43.809  28.724  34.785  1.00  0.00     0.029 A 
ATOM     55  C   UNL A   1      43.565  28.212  33.521  1.00  0.00     0.049 A 
ATOM     56  H   UNL A   1      41.997  28.674  32.184  1.00  0.00     0.167 HD
ATOM     57  C   UNL A   1      43.984  26.745  31.564  1.00  0.00     0.074 A 
ATOM     58  C   UNL A   1      44.740  25.738  30.848  1.00  0.00     0.031 C 
ATOM     59  C   UNL A   1      44.324  27.225  32.788  1.00  0.00     0.034 A 
BRANCH  46  60
ATOM     60  C   UNL A   1      40.452  31.563  34.948  1.00  0.00     0.023 A 
ATOM     61  C   UNL A   1      39.495  31.280  35.938  1.00  0.00     0.031 A 
ATOM     62  C   UNL A   1      41.094  32.813  34.993  1.00  0.00     0.131 A 
ATOM     63  C   UNL A   1      39.163  32.256  36.890  1.00  0.00     0.055 A 
ATOM     64  C   UNL A   1      40.815  33.752  35.988  1.00  0.00     0.041 A 
ATOM     65  F   UNL A   1      42.001  33.149  34.061  1.00  0.00    -0.206 F 
ATOM     66  C   UNL A   1      39.834  33.480  36.938  1.00  0.00     0.022 A 
BRANCH  63  67
ATOM     67  S   UNL A   1      37.749  31.956  37.987  1.00  0.00     0.124 S 
ATOM     68  O   UNL A   1      38.336  32.205  39.301  1.00  0.00    -0.237 OA
ATOM     69  O   UNL A   1      36.776  32.937  37.523  1.00  0.00    -0.237 OA
ATOM     70  O   UNL A   1      37.402  30.560  37.724  1.00  0.00    -0.744 OA
ENDBRANCH  63  67
ENDBRANCH  46  60
BRANCH  47  71
ATOM     71  C   UNL A   1      42.463  25.397  27.308  1.00  0.00     0.023 A 
ATOM     72  C   UNL A   1      42.057  24.054  27.263  1.00  0.00     0.031 A 
ATOM     73  C   UNL A   1      43.261  25.878  26.253  1.00  0.00     0.131 A 
ATOM     74  C   UNL A   1      42.484  23.229  26.212  1.00  0.00     0.055 A 
ATOM     75  C   UNL A   1      43.638  25.068  25.181  1.00  0.00     0.041 A 
ATOM     76  F   UNL A   1      43.682  27.153  26.246  1.00  0.00    -0.206 F 
ATOM     77  C   UNL A   1      43.260  23.729  25.163  1.00  0.00     0.022 A 
BRANCH  74  78
ATOM     78  S   UNL A   1      42.086  21.459  26.277  1.00  0.00     0.124 S 
ATOM     79  O   UNL A   1      40.708  21.447  25.799  1.00  0.00    -0.237 OA
ATOM     80  O   UNL A   1      43.085  20.892  25.378  1.00  0.00    -0.237 OA
ATOM     81  O   UNL A   1      42.260  21.124  27.689  1.00  0.00    -0.744 OA
ENDBRANCH  74  78
ENDBRANCH  47  71
BRANCH  59  82
ATOM     82  C   UNL A   1      45.555  26.638  33.438  1.00  0.00     0.023 A 
ATOM     83  C   UNL A   1      45.487  25.492  34.249  1.00  0.00     0.031 A 
ATOM     84  C   UNL A   1      46.812  27.243  33.253  1.00  0.00     0.131 A 
ATOM     85  C   UNL A   1      46.642  25.021  34.893  1.00  0.00     0.055 A 
ATOM     86  C   UNL A   1      47.969  26.732  33.845  1.00  0.00     0.041 A 
ATOM     87  F   UNL A   1      46.937  28.341  32.491  1.00  0.00    -0.206 F 
ATOM     88  C   UNL A   1      47.885  25.623  34.682  1.00  0.00     0.022 A 
BRANCH  85  89
ATOM     89  S   UNL A   1      46.482  23.667  36.088  1.00  0.00     0.124 S 
ATOM     90  O   UNL A   1      47.051  24.259  37.295  1.00  0.00    -0.237 OA
ATOM     91  O   UNL A   1      45.041  23.437  36.109  1.00  0.00    -0.237 OA
ATOM     92  O   UNL A   1      47.273  22.590  35.495  1.00  0.00    -0.744 OA
ENDBRANCH  85  89
ENDBRANCH  59  82
ENDBRANCH  33  34
ENDBRANCH  26  28
ENDBRANCH  25  26
ENDBRANCH  24  25
ENDBRANCH   1  24
TORSDOF 20
ENDMDL
MODEL 3
REMARK VINA RESULT:     -10.3      4.565     10.167
REMARK SMILES CC[NH2+][C@]1(C(=O)OCCOCCOC(=O)c2ccc(-c3c4nc(c(-c5cc(S(=O)(=O)[O-])ccc5F)c5ccc([nH]5)c(-c5cc(S(=O)(=O)[O-])ccc5F)c5nc(c(-c6cc(S(=O)(=O)[O-])ccc6F)c6ccc3[nH]6)C=C5)C=C4)cc2)CCC[C@@H](n2cccn2)C1
REMARK SMILES IDX 11 1 10 2 9 3 8 4 7 5 5 6 6 7 4 8 79 9 88 10 80 11 82 12
REMARK SMILES IDX 81 13 3 14 2 17 1 18 83 19 84 20 87 21 85 22 86 23 12 24
REMARK SMILES IDX 13 25 14 26 15 27 16 28 17 29 78 30 18 31 77 32 19 33 20 34
REMARK SMILES IDX 21 35 71 36 22 37 76 38 70 39 72 40 23 41 75 42 69 43 68 44
REMARK SMILES IDX 24 46 56 47 36 48 55 49 37 50 40 51 54 52 73 53 38 54 39 55
REMARK SMILES IDX 53 57 74 58 41 59 25 60 26 61 34 62 27 63 33 64 35 65 32 66
REMARK SMILES IDX 28 67 29 68 30 69 31 70 57 71 58 72 66 73 59 74 65 75 67 76
REMARK SMILES IDX 64 77 60 78 61 79 62 80 63 81 42 82 43 83 51 84 44 85 50 86
REMARK SMILES IDX 52 87 49 88 45 89 46 90 47 91 48 92
REMARK H PARENT 3 15 3 16 72 45 40 56
REMARK Flexibility Score: inf
ROOT
ATOM      1  C   UNL A   1      35.849  20.304  24.994  1.00  0.00     0.202 C 
ENDROOT
BRANCH   1   2
ATOM      2  O   UNL A   1      35.396  21.273  25.934  1.00  0.00    -0.374 OA
BRANCH   2   3
ATOM      3  C   UNL A   1      33.985  21.463  26.055  1.00  0.00     0.202 C 
BRANCH   3   4
ATOM      4  C   UNL A   1      33.516  22.858  26.485  1.00  0.00     0.261 C 
BRANCH   4   5
ATOM      5  O   UNL A   1      32.419  23.319  25.665  1.00  0.00    -0.459 OA
BRANCH   5   6
ATOM      6  C   UNL A   1      31.977  24.589  25.907  1.00  0.00     0.368 C 
ATOM      7  O   UNL A   1      31.284  24.904  26.868  1.00  0.00    -0.245 OA
BRANCH   6   8
ATOM      8  C   UNL A   1      32.431  25.593  24.788  1.00  0.00     0.196 C 
ATOM      9  C   UNL A   1      32.605  24.742  23.500  1.00  0.00     0.081 C 
ATOM     10  C   UNL A   1      31.322  26.635  24.517  1.00  0.00     0.108 C 
ATOM     11  C   UNL A   1      32.764  25.513  22.196  1.00  0.00     0.009 C 
ATOM     12  C   UNL A   1      31.605  27.517  23.289  1.00  0.00     0.114 C 
ATOM     13  C   UNL A   1      31.743  26.630  22.038  1.00  0.00     0.028 C 
BRANCH   8  14
ATOM     14  N   UNL A   1      33.592  26.362  25.306  1.00  0.00    -0.332 N 
ATOM     15  H   UNL A   1      34.297  25.684  25.593  1.00  0.00     0.347 HD
ATOM     16  H   UNL A   1      33.844  26.978  24.534  1.00  0.00     0.347 HD
BRANCH  14  17
ATOM     17  C   UNL A   1      33.386  27.265  26.424  1.00  0.00     0.257 C 
ATOM     18  C   UNL A   1      34.028  28.613  26.129  1.00  0.00     0.071 C 
ENDBRANCH  14  17
ENDBRANCH   8  14
BRANCH  12  19
ATOM     19  N   UNL A   1      30.562  28.541  23.139  1.00  0.00    -0.269 N 
ATOM     20  C   UNL A   1      30.440  29.693  23.872  1.00  0.00     0.109 A 
ATOM     21  N   UNL A   1      29.592  28.416  22.207  1.00  0.00    -0.181 NA
ATOM     22  C   UNL A   1      29.321  30.336  23.399  1.00  0.00     0.042 A 
ATOM     23  C   UNL A   1      28.848  29.512  22.365  1.00  0.00     0.135 A 
ENDBRANCH  12  19
ENDBRANCH   6   8
ENDBRANCH   5   6
ENDBRANCH   4   5
ENDBRANCH   3   4
ENDBRANCH   2   3
ENDBRANCH   1   2
BRANCH   1  24
ATOM     24  C   UNL A   1      37.361  20.040  24.938  1.00  0.00     0.261 C 
BRANCH  24  25
ATOM     25  O   UNL A   1      38.149  21.202  25.252  1.00  0.00    -0.460 OA
BRANCH  25  26
ATOM     26  C   UNL A   1      39.249  20.947  26.002  1.00  0.00     0.338 C 
ATOM     27  O   UNL A   1      39.892  19.901  26.030  1.00  0.00    -0.246 OA
BRANCH  26  28
ATOM     28  C   UNL A   1      39.724  22.172  26.668  1.00  0.00     0.060 A 
ATOM     29  C   UNL A   1      39.148  23.383  26.262  1.00  0.00     0.016 A 
ATOM     30  C   UNL A   1      40.762  22.160  27.602  1.00  0.00     0.016 A 
ATOM     31  C   UNL A   1      39.636  24.590  26.756  1.00  0.00     0.010 A 
ATOM     32  C   UNL A   1      41.257  23.378  28.091  1.00  0.00     0.010 A 
ATOM     33  C   UNL A   1      40.717  24.600  27.647  1.00  0.00    -0.014 A 
BRANCH  33  34
ATOM     34  C   UNL A   1      41.348  25.899  27.996  1.00  0.00     0.031 A 
ATOM     35  C   UNL A   1      42.753  26.183  27.535  1.00  0.00     0.074 A 
ATOM     36  C   UNL A   1      40.649  26.844  28.654  1.00  0.00     0.049 A 
ATOM     37  N   UNL A   1      43.485  27.253  27.710  1.00  0.00    -0.248 NA
ATOM     38  C   UNL A   1      43.419  25.116  26.772  1.00  0.00     0.031 C 
ATOM     39  C   UNL A   1      39.265  26.705  29.104  1.00  0.00     0.029 A 
ATOM     40  N   UNL A   1      41.006  28.109  29.052  1.00  0.00    -0.354 N 
ATOM     41  C   UNL A   1      44.697  26.992  27.078  1.00  0.00     0.074 A 
ATOM     42  C   UNL A   1      44.612  25.646  26.551  1.00  0.00     0.031 C 
ATOM     43  C   UNL A   1      38.891  27.839  29.719  1.00  0.00     0.029 A 
ATOM     44  C   UNL A   1      40.017  28.770  29.743  1.00  0.00     0.049 A 
ATOM     45  H   UNL A   1      41.887  28.505  28.861  1.00  0.00     0.167 HD
ATOM     46  C   UNL A   1      45.776  27.804  26.944  1.00  0.00     0.034 A 
ATOM     47  C   UNL A   1      40.028  29.977  30.344  1.00  0.00     0.034 A 
ATOM     48  C   UNL A   1      45.848  29.141  27.484  1.00  0.00     0.049 A 
ATOM     49  C   UNL A   1      41.275  30.824  30.263  1.00  0.00     0.074 A 
ATOM     50  C   UNL A   1      46.884  30.055  27.386  1.00  0.00     0.029 A 
ATOM     51  N   UNL A   1      44.854  29.751  28.239  1.00  0.00    -0.354 N 
ATOM     52  N   UNL A   1      42.409  30.570  29.650  1.00  0.00    -0.248 NA
ATOM     53  C   UNL A   1      41.241  32.123  30.949  1.00  0.00     0.031 C 
ATOM     54  C   UNL A   1      46.549  31.181  28.145  1.00  0.00     0.029 A 
ATOM     55  C   UNL A   1      45.270  31.009  28.650  1.00  0.00     0.049 A 
ATOM     56  H   UNL A   1      43.980  29.349  28.451  1.00  0.00     0.167 HD
ATOM     57  C   UNL A   1      43.213  31.690  29.858  1.00  0.00     0.074 A 
ATOM     58  C   UNL A   1      42.425  32.626  30.634  1.00  0.00     0.031 C 
ATOM     59  C   UNL A   1      44.484  31.925  29.444  1.00  0.00     0.034 A 
BRANCH  46  60
ATOM     60  C   UNL A   1      46.984  27.243  26.232  1.00  0.00     0.023 A 
ATOM     61  C   UNL A   1      47.971  26.504  26.907  1.00  0.00     0.031 A 
ATOM     62  C   UNL A   1      47.157  27.466  24.854  1.00  0.00     0.131 A 
ATOM     63  C   UNL A   1      49.114  26.069  26.218  1.00  0.00     0.055 A 
ATOM     64  C   UNL A   1      48.259  26.966  24.158  1.00  0.00     0.041 A 
ATOM     65  F   UNL A   1      46.259  28.185  24.161  1.00  0.00    -0.206 F 
ATOM     66  C   UNL A   1      49.252  26.273  24.844  1.00  0.00     0.022 A 
BRANCH  63  67
ATOM     67  S   UNL A   1      50.480  25.347  27.169  1.00  0.00     0.124 S 
ATOM     68  O   UNL A   1      49.817  24.231  27.839  1.00  0.00    -0.237 OA
ATOM     69  O   UNL A   1      51.436  24.992  26.127  1.00  0.00    -0.237 OA
ATOM     70  O   UNL A   1      50.895  26.435  28.053  1.00  0.00    -0.744 OA
ENDBRANCH  63  67
ENDBRANCH  46  60
BRANCH  47  71
ATOM     71  C   UNL A   1      38.844  30.443  31.124  1.00  0.00     0.023 A 
ATOM     72  C   UNL A   1      37.765  31.090  30.504  1.00  0.00     0.031 A 
ATOM     73  C   UNL A   1      38.807  30.296  32.524  1.00  0.00     0.131 A 
ATOM     74  C   UNL A   1      36.716  31.604  31.282  1.00  0.00     0.055 A 
ATOM     75  C   UNL A   1      37.735  30.761  33.289  1.00  0.00     0.041 A 
ATOM     76  F   UNL A   1      39.814  29.689  33.171  1.00  0.00    -0.206 F 
ATOM     77  C   UNL A   1      36.687  31.433  32.668  1.00  0.00     0.022 A 
BRANCH  74  78
ATOM     78  S   UNL A   1      35.426  32.587  30.466  1.00  0.00     0.124 S 
ATOM     79  O   UNL A   1      36.111  33.856  30.251  1.00  0.00    -0.237 OA
ATOM     80  O   UNL A   1      35.153  31.793  29.273  1.00  0.00    -0.237 OA
ATOM     81  O   UNL A   1      34.347  32.617  31.452  1.00  0.00    -0.744 OA
ENDBRANCH  74  78
ENDBRANCH  47  71
BRANCH  59  82
ATOM     82  C   UNL A   1      45.086  33.263  29.801  1.00  0.00     0.023 A 
ATOM     83  C   UNL A   1      44.953  34.382  28.960  1.00  0.00     0.031 A 
ATOM     84  C   UNL A   1      45.816  33.418  30.994  1.00  0.00     0.131 A 
ATOM     85  C   UNL A   1      45.589  35.588  29.293  1.00  0.00     0.055 A 
ATOM     86  C   UNL A   1      46.392  34.638  31.352  1.00  0.00     0.041 A 
ATOM     87  F   UNL A   1      45.978  32.384  31.834  1.00  0.00    -0.206 F 
ATOM     88  C   UNL A   1      46.292  35.728  30.492  1.00  0.00     0.022 A 
BRANCH  85  89
ATOM     89  S   UNL A   1      45.565  36.947  28.092  1.00  0.00     0.124 S 
ATOM     90  O   UNL A   1      45.047  36.286  26.898  1.00  0.00    -0.237 OA
ATOM     91  O   UNL A   1      44.670  37.910  28.726  1.00  0.00    -0.237 OA
ATOM     92  O   UNL A   1      46.965  37.361  28.014  1.00  0.00    -0.744 OA
ENDBRANCH  85  89
ENDBRANCH  59  82
ENDBRANCH  33  34
ENDBRANCH  26  28
ENDBRANCH  25  26
ENDBRANCH  24  25
ENDBRANCH   1  24
TORSDOF 20
ENDMDL
