MODEL 1
REMARK VINA RESULT:     -11.6      0.000      0.000
REMARK SMILES CCn1ncc(NC(=O)[C@@H]2CCCC[C@@H]2C(=O)OCCOCCOC(=O)c2ccc(-c3c4nc(c(-c5cc(S(=O)(=O)[O-])ccc5F)c5ccc([nH]5)c(-c5cc(S(=O)(=O)[O-])ccc5F)c5nc(c(-c6cc(S(=O)(=O)[O-])ccc6F)c6ccc3[nH]6)C=C5)C=C4)cc2)c1C(=O)Nc1cnn(C)c1C
REMARK SMILES IDX 20 1 19 2 18 3 16 4 17 5 15 6 10 7 11 8 12 9 14 10 13 11
REMARK SMILES IDX 8 12 7 13 9 15 6 16 3 17 4 18 90 19 5 20 2 21 1 22 91 23
REMARK SMILES IDX 92 24 93 25 94 27 95 28 99 29 96 30 97 31 100 32 98 33 21 34
REMARK SMILES IDX 22 35 23 36 24 37 25 38 26 39 27 40 28 41 89 42 29 43 88 44
REMARK SMILES IDX 30 45 31 46 32 47 82 48 33 49 87 50 81 51 83 52 34 53 86 54
REMARK SMILES IDX 80 55 79 56 35 58 67 59 47 60 66 61 48 62 51 63 65 64 84 65
REMARK SMILES IDX 49 66 50 67 64 69 85 70 52 71 36 72 37 73 45 74 38 75 44 76
REMARK SMILES IDX 46 77 43 78 39 79 40 80 41 81 42 82 68 83 69 84 77 85 70 86
REMARK SMILES IDX 76 87 78 88 75 89 71 90 72 91 73 92 74 93 53 94 54 95 62 96
REMARK SMILES IDX 55 97 61 98 63 99 60 100 56 101 57 102 58 103 59 104
REMARK H PARENT 7 14 93 26 83 57 51 68
REMARK Flexibility Score: inf
ROOT
ATOM      1  C   UNL A   1      39.499  20.310  25.644  1.00  0.00     0.202 C 
ENDROOT
BRANCH   1   2
ATOM      2  C   UNL A   1      38.176  19.744  25.119  1.00  0.00     0.261 C 
BRANCH   2   3
ATOM      3  O   UNL A   1      37.284  20.683  24.496  1.00  0.00    -0.463 OA
BRANCH   3   4
ATOM      4  C   UNL A   1      35.997  20.570  24.912  1.00  0.00     0.309 C 
ATOM      5  O   UNL A   1      35.350  19.530  24.841  1.00  0.00    -0.252 OA
BRANCH   4   6
ATOM      6  C   UNL A   1      35.413  21.897  25.386  1.00  0.00     0.111 C 
ATOM      7  C   UNL A   1      34.145  22.326  24.619  1.00  0.00     0.093 C 
ATOM      8  C   UNL A   1      34.436  22.447  23.147  1.00  0.00     0.014 C 
ATOM      9  C   UNL A   1      35.649  23.294  22.782  1.00  0.00     0.001 C 
ATOM     10  C   UNL A   1      36.498  22.977  25.176  1.00  0.00     0.016 C 
ATOM     11  C   UNL A   1      36.855  23.201  23.705  1.00  0.00     0.001 C 
BRANCH   7  12
ATOM     12  C   UNL A   1      32.862  21.579  25.024  1.00  0.00     0.228 C 
ATOM     13  N   UNL A   1      32.157  21.870  26.182  1.00  0.00    -0.322 N 
ATOM     14  H   UNL A   1      32.187  21.225  26.924  1.00  0.00     0.170 HD
ATOM     15  O   UNL A   1      32.570  20.533  24.435  1.00  0.00    -0.274 OA
BRANCH  13  16
ATOM     16  C   UNL A   1      31.405  23.041  26.343  1.00  0.00     0.092 A 
ATOM     17  N   UNL A   1      30.496  25.000  26.169  1.00  0.00    -0.258 N 
ATOM     18  N   UNL A   1      29.585  24.294  26.870  1.00  0.00    -0.178 NA
ATOM     19  C   UNL A   1      31.734  24.385  26.131  1.00  0.00     0.150 A 
ATOM     20  C   UNL A   1      30.160  23.104  27.007  1.00  0.00     0.162 A 
BRANCH  17  21
ATOM     21  C   UNL A   1      30.005  26.193  25.512  1.00  0.00     0.142 C 
ATOM     22  C   UNL A   1      29.158  25.874  24.290  1.00  0.00     0.029 C 
ENDBRANCH  17  21
BRANCH  19  23
ATOM     23  C   UNL A   1      33.061  24.971  25.969  1.00  0.00     0.276 C 
ATOM     24  O   UNL A   1      33.981  24.737  26.754  1.00  0.00    -0.267 OA
ATOM     25  N   UNL A   1      33.376  25.509  24.741  1.00  0.00    -0.318 N 
ATOM     26  H   UNL A   1      33.816  24.908  24.097  1.00  0.00     0.170 HD
BRANCH  25  27
ATOM     27  C   UNL A   1      33.141  26.794  24.321  1.00  0.00     0.082 A 
ATOM     28  C   UNL A   1      33.391  28.030  24.941  1.00  0.00     0.161 A 
ATOM     29  C   UNL A   1      32.542  27.101  23.116  1.00  0.00     0.059 A 
ATOM     30  N   UNL A   1      32.854  29.043  24.256  1.00  0.00    -0.179 NA
ATOM     31  N   UNL A   1      32.262  28.442  23.204  1.00  0.00    -0.271 N 
ATOM     32  C   UNL A   1      32.085  26.234  22.000  1.00  0.00     0.068 C 
ATOM     33  C   UNL A   1      31.302  29.197  22.433  1.00  0.00     0.174 C 
ENDBRANCH  25  27
ENDBRANCH  19  23
ENDBRANCH  13  16
ENDBRANCH   7  12
ENDBRANCH   4   6
ENDBRANCH   3   4
ENDBRANCH   2   3
ENDBRANCH   1   2
BRANCH   1  34
ATOM     34  O   UNL A   1      40.597  19.429  25.848  1.00  0.00    -0.374 OA
BRANCH  34  35
ATOM     35  C   UNL A   1      41.866  19.951  26.237  1.00  0.00     0.202 C 
BRANCH  35  36
ATOM     36  C   UNL A   1      43.123  19.248  25.754  1.00  0.00     0.261 C 
BRANCH  36  37
ATOM     37  O   UNL A   1      43.599  19.820  24.545  1.00  0.00    -0.460 OA
BRANCH  37  38
ATOM     38  C   UNL A   1      44.923  20.051  24.513  1.00  0.00     0.338 C 
ATOM     39  O   UNL A   1      45.816  19.209  24.429  1.00  0.00    -0.246 OA
BRANCH  38  40
ATOM     40  C   UNL A   1      45.154  21.478  24.712  1.00  0.00     0.060 A 
ATOM     41  C   UNL A   1      45.941  21.802  25.814  1.00  0.00     0.016 A 
ATOM     42  C   UNL A   1      44.414  22.448  24.011  1.00  0.00     0.016 A 
ATOM     43  C   UNL A   1      45.811  23.057  26.352  1.00  0.00     0.010 A 
ATOM     44  C   UNL A   1      44.290  23.711  24.550  1.00  0.00     0.010 A 
ATOM     45  C   UNL A   1      44.921  23.965  25.762  1.00  0.00    -0.014 A 
BRANCH  45  46
ATOM     46  C   UNL A   1      44.665  25.165  26.524  1.00  0.00     0.031 A 
ATOM     47  C   UNL A   1      45.790  26.110  26.586  1.00  0.00     0.074 A 
ATOM     48  C   UNL A   1      43.527  25.377  27.202  1.00  0.00     0.049 A 
ATOM     49  N   UNL A   1      46.560  26.347  27.594  1.00  0.00    -0.248 NA
ATOM     50  C   UNL A   1      46.186  26.769  25.339  1.00  0.00     0.031 C 
ATOM     51  C   UNL A   1      42.244  24.684  27.081  1.00  0.00     0.029 A 
ATOM     52  N   UNL A   1      43.286  26.348  28.121  1.00  0.00    -0.354 N 
ATOM     53  C   UNL A   1      47.442  27.327  27.168  1.00  0.00     0.074 A 
ATOM     54  C   UNL A   1      47.264  27.440  25.742  1.00  0.00     0.031 C 
ATOM     55  C   UNL A   1      41.303  25.396  27.742  1.00  0.00     0.029 A 
ATOM     56  C   UNL A   1      41.949  26.499  28.437  1.00  0.00     0.049 A 
ATOM     57  H   UNL A   1      43.998  26.895  28.524  1.00  0.00     0.167 HD
ATOM     58  C   UNL A   1      48.129  28.098  28.052  1.00  0.00     0.034 A 
ATOM     59  C   UNL A   1      41.410  27.521  29.144  1.00  0.00     0.034 A 
ATOM     60  C   UNL A   1      48.154  27.510  29.370  1.00  0.00     0.049 A 
ATOM     61  C   UNL A   1      42.479  28.073  30.014  1.00  0.00     0.074 A 
ATOM     62  C   UNL A   1      48.642  26.326  29.892  1.00  0.00     0.029 A 
ATOM     63  N   UNL A   1      47.300  28.008  30.328  1.00  0.00    -0.354 N 
ATOM     64  N   UNL A   1      43.026  27.402  30.992  1.00  0.00    -0.248 NA
ATOM     65  C   UNL A   1      43.262  29.208  29.545  1.00  0.00     0.031 C 
ATOM     66  C   UNL A   1      47.707  25.945  30.899  1.00  0.00     0.029 A 
ATOM     67  C   UNL A   1      46.717  26.929  30.952  1.00  0.00     0.049 A 
ATOM     68  H   UNL A   1      47.137  28.957  30.530  1.00  0.00     0.167 HD
ATOM     69  C   UNL A   1      44.367  27.751  30.972  1.00  0.00     0.074 A 
ATOM     70  C   UNL A   1      44.427  28.954  30.149  1.00  0.00     0.031 C 
ATOM     71  C   UNL A   1      45.335  26.882  31.392  1.00  0.00     0.034 A 
BRANCH  58  72
ATOM     72  C   UNL A   1      48.546  29.518  27.782  1.00  0.00     0.023 A 
ATOM     73  C   UNL A   1      47.537  30.474  27.571  1.00  0.00     0.031 A 
ATOM     74  C   UNL A   1      49.864  29.927  27.472  1.00  0.00     0.131 A 
ATOM     75  C   UNL A   1      47.845  31.736  27.036  1.00  0.00     0.055 A 
ATOM     76  C   UNL A   1      50.174  31.208  27.015  1.00  0.00     0.041 A 
ATOM     77  F   UNL A   1      50.903  29.084  27.496  1.00  0.00    -0.206 F 
ATOM     78  C   UNL A   1      49.159  32.115  26.771  1.00  0.00     0.022 A 
BRANCH  75  79
ATOM     79  S   UNL A   1      46.483  32.809  26.513  1.00  0.00     0.124 S 
ATOM     80  O   UNL A   1      45.667  31.897  25.719  1.00  0.00    -0.237 OA
ATOM     81  O   UNL A   1      45.922  33.227  27.794  1.00  0.00    -0.237 OA
ATOM     82  O   UNL A   1      47.155  33.860  25.753  1.00  0.00    -0.744 OA
ENDBRANCH  75  79
ENDBRANCH  58  72
BRANCH  59  83
ATOM     83  C   UNL A   1      40.146  28.211  28.798  1.00  0.00     0.023 A 
ATOM     84  C   UNL A   1      39.233  28.649  29.772  1.00  0.00     0.031 A 
ATOM     85  C   UNL A   1      39.916  28.637  27.467  1.00  0.00     0.131 A 
ATOM     86  C   UNL A   1      38.136  29.456  29.397  1.00  0.00     0.055 A 
ATOM     87  C   UNL A   1      38.820  29.416  27.099  1.00  0.00     0.041 A 
ATOM     88  F   UNL A   1      40.797  28.377  26.488  1.00  0.00    -0.206 F 
ATOM     89  C   UNL A   1      37.924  29.833  28.068  1.00  0.00     0.022 A 
BRANCH  86  90
ATOM     90  S   UNL A   1      37.019  30.117  30.671  1.00  0.00     0.124 S 
ATOM     91  O   UNL A   1      37.877  31.063  31.375  1.00  0.00    -0.237 OA
ATOM     92  O   UNL A   1      35.941  30.690  29.872  1.00  0.00    -0.237 OA
ATOM     93  O   UNL A   1      36.643  28.932  31.443  1.00  0.00    -0.744 OA
ENDBRANCH  86  90
ENDBRANCH  59  83
BRANCH  71  94
ATOM     94  C   UNL A   1      44.895  25.638  32.138  1.00  0.00     0.023 A 
ATOM     95  C   UNL A   1      44.582  25.621  33.516  1.00  0.00     0.031 A 
ATOM     96  C   UNL A   1      44.660  24.465  31.401  1.00  0.00     0.131 A 
ATOM     97  C   UNL A   1      44.074  24.451  34.111  1.00  0.00     0.055 A 
ATOM     98  C   UNL A   1      44.138  23.313  31.990  1.00  0.00     0.041 A 
ATOM     99  F   UNL A   1      44.897  24.433  30.079  1.00  0.00    -0.206 F 
ATOM    100  C   UNL A   1      43.849  23.300  33.352  1.00  0.00     0.022 A 
BRANCH  97 101
ATOM    101  S   UNL A   1      43.686  24.425  35.890  1.00  0.00     0.124 S 
ATOM    102  O   UNL A   1      42.280  24.033  35.923  1.00  0.00    -0.237 OA
ATOM    103  O   UNL A   1      44.637  23.448  36.411  1.00  0.00    -0.237 OA
ATOM    104  O   UNL A   1      43.941  25.804  36.315  1.00  0.00    -0.744 OA
ENDBRANCH  97 101
ENDBRANCH  71  94
ENDBRANCH  45  46
ENDBRANCH  38  40
ENDBRANCH  37  38
ENDBRANCH  36  37
ENDBRANCH  35  36
ENDBRANCH  34  35
ENDBRANCH   1  34
TORSDOF 22
ENDMDL
MODEL 2
REMARK VINA RESULT:     -11.5      2.856      9.154
REMARK SMILES CCn1ncc(NC(=O)[C@@H]2CCCC[C@@H]2C(=O)OCCOCCOC(=O)c2ccc(-c3c4nc(c(-c5cc(S(=O)(=O)[O-])ccc5F)c5ccc([nH]5)c(-c5cc(S(=O)(=O)[O-])ccc5F)c5nc(c(-c6cc(S(=O)(=O)[O-])ccc6F)c6ccc3[nH]6)C=C5)C=C4)cc2)c1C(=O)Nc1cnn(C)c1C
REMARK SMILES IDX 20 1 19 2 18 3 16 4 17 5 15 6 10 7 11 8 12 9 14 10 13 11
REMARK SMILES IDX 8 12 7 13 9 15 6 16 3 17 4 18 90 19 5 20 2 21 1 22 91 23
REMARK SMILES IDX 92 24 93 25 94 27 95 28 99 29 96 30 97 31 100 32 98 33 21 34
REMARK SMILES IDX 22 35 23 36 24 37 25 38 26 39 27 40 28 41 89 42 29 43 88 44
REMARK SMILES IDX 30 45 31 46 32 47 82 48 33 49 87 50 81 51 83 52 34 53 86 54
REMARK SMILES IDX 80 55 79 56 35 58 67 59 47 60 66 61 48 62 51 63 65 64 84 65
REMARK SMILES IDX 49 66 50 67 64 69 85 70 52 71 36 72 37 73 45 74 38 75 44 76
REMARK SMILES IDX 46 77 43 78 39 79 40 80 41 81 42 82 68 83 69 84 77 85 70 86
REMARK SMILES IDX 76 87 78 88 75 89 71 90 72 91 73 92 74 93 53 94 54 95 62 96
REMARK SMILES IDX 55 97 61 98 63 99 60 100 56 101 57 102 58 103 59 104
REMARK H PARENT 7 14 93 26 83 57 51 68
REMARK Flexibility Score: inf
ROOT
ATOM      1  C   UNL A   1      31.757  30.408  25.534  1.00  0.00     0.202 C 
ENDROOT
BRANCH   1   2
ATOM      2  C   UNL A   1      31.004  29.260  24.855  1.00  0.00     0.261 C 
BRANCH   2   3
ATOM      3  O   UNL A   1      31.757  28.060  24.612  1.00  0.00    -0.463 OA
BRANCH   3   4
ATOM      4  C   UNL A   1      31.361  27.005  25.370  1.00  0.00     0.309 C 
ATOM      5  O   UNL A   1      31.667  26.864  26.549  1.00  0.00    -0.252 OA
BRANCH   4   6
ATOM      6  C   UNL A   1      30.577  25.969  24.570  1.00  0.00     0.111 C 
ATOM      7  C   UNL A   1      31.172  24.548  24.644  1.00  0.00     0.093 C 
ATOM      8  C   UNL A   1      32.591  24.545  24.141  1.00  0.00     0.014 C 
ATOM      9  C   UNL A   1      32.811  25.195  22.780  1.00  0.00     0.001 C 
ATOM     10  C   UNL A   1      30.586  26.425  23.094  1.00  0.00     0.016 C 
ATOM     11  C   UNL A   1      31.985  26.435  22.471  1.00  0.00     0.001 C 
BRANCH   7  12
ATOM     12  C   UNL A   1      30.890  23.797  25.958  1.00  0.00     0.228 C 
ATOM     13  N   UNL A   1      31.367  22.520  26.209  1.00  0.00    -0.322 N 
ATOM     14  H   UNL A   1      30.727  21.773  26.211  1.00  0.00     0.170 HD
ATOM     15  O   UNL A   1      30.023  24.235  26.720  1.00  0.00    -0.274 OA
BRANCH  13  16
ATOM     16  C   UNL A   1      32.717  22.245  26.460  1.00  0.00     0.092 A 
ATOM     17  N   UNL A   1      34.862  21.951  26.352  1.00  0.00    -0.258 N 
ATOM     18  N   UNL A   1      34.643  22.178  27.663  1.00  0.00    -0.178 NA
ATOM     19  C   UNL A   1      33.701  21.650  25.662  1.00  0.00     0.150 A 
ATOM     20  C   UNL A   1      33.324  22.323  27.733  1.00  0.00     0.162 A 
BRANCH  17  21
ATOM     21  C   UNL A   1      36.218  22.155  25.889  1.00  0.00     0.142 C 
ATOM     22  C   UNL A   1      36.619  23.622  25.903  1.00  0.00     0.029 C 
ENDBRANCH  17  21
BRANCH  19  23
ATOM     23  C   UNL A   1      33.518  20.866  24.444  1.00  0.00     0.276 C 
ATOM     24  O   UNL A   1      33.216  21.387  23.369  1.00  0.00    -0.267 OA
ATOM     25  N   UNL A   1      34.026  19.587  24.426  1.00  0.00    -0.318 N 
ATOM     26  H   UNL A   1      34.941  19.480  24.081  1.00  0.00     0.170 HD
BRANCH  25  27
ATOM     27  C   UNL A   1      33.389  18.443  24.840  1.00  0.00     0.082 A 
ATOM     28  C   UNL A   1      32.476  18.219  25.884  1.00  0.00     0.161 A 
ATOM     29  C   UNL A   1      33.583  17.211  24.249  1.00  0.00     0.059 A 
ATOM     30  N   UNL A   1      32.225  16.918  26.048  1.00  0.00    -0.179 NA
ATOM     31  N   UNL A   1      32.984  16.321  25.106  1.00  0.00    -0.271 N 
ATOM     32  C   UNL A   1      34.396  16.804  23.074  1.00  0.00     0.068 C 
ATOM     33  C   UNL A   1      33.216  14.900  25.210  1.00  0.00     0.174 C 
ENDBRANCH  25  27
ENDBRANCH  19  23
ENDBRANCH  13  16
ENDBRANCH   7  12
ENDBRANCH   4   6
ENDBRANCH   3   4
ENDBRANCH   2   3
ENDBRANCH   1   2
BRANCH   1  34
ATOM     34  O   UNL A   1      32.087  30.300  26.913  1.00  0.00    -0.374 OA
BRANCH  34  35
ATOM     35  C   UNL A   1      33.441  30.452  27.334  1.00  0.00     0.202 C 
BRANCH  35  36
ATOM     36  C   UNL A   1      33.876  31.782  27.927  1.00  0.00     0.261 C 
BRANCH  36  37
ATOM     37  O   UNL A   1      35.284  31.947  27.842  1.00  0.00    -0.460 OA
BRANCH  37  38
ATOM     38  C   UNL A   1      35.925  31.935  29.023  1.00  0.00     0.338 C 
ATOM     39  O   UNL A   1      35.497  32.353  30.099  1.00  0.00    -0.246 OA
BRANCH  38  40
ATOM     40  C   UNL A   1      37.283  31.443  28.814  1.00  0.00     0.060 A 
ATOM     41  C   UNL A   1      37.379  30.270  28.071  1.00  0.00     0.016 A 
ATOM     42  C   UNL A   1      38.373  31.961  29.537  1.00  0.00     0.016 A 
ATOM     43  C   UNL A   1      38.499  29.495  28.233  1.00  0.00     0.010 A 
ATOM     44  C   UNL A   1      39.501  31.183  29.694  1.00  0.00     0.010 A 
ATOM     45  C   UNL A   1      39.506  29.922  29.110  1.00  0.00    -0.014 A 
BRANCH  45  46
ATOM     46  C   UNL A   1      40.526  28.944  29.405  1.00  0.00     0.031 A 
ATOM     47  C   UNL A   1      40.799  28.747  30.836  1.00  0.00     0.074 A 
ATOM     48  C   UNL A   1      41.241  28.319  28.457  1.00  0.00     0.049 A 
ATOM     49  N   UNL A   1      41.830  29.148  31.500  1.00  0.00    -0.248 NA
ATOM     50  C   UNL A   1      39.736  28.149  31.648  1.00  0.00     0.031 C 
ATOM     51  C   UNL A   1      40.970  28.212  27.023  1.00  0.00     0.029 A 
ATOM     52  N   UNL A   1      42.362  27.570  28.632  1.00  0.00    -0.354 N 
ATOM     53  C   UNL A   1      41.638  28.699  32.797  1.00  0.00     0.074 A 
ATOM     54  C   UNL A   1      40.278  28.225  32.864  1.00  0.00     0.031 C 
ATOM     55  C   UNL A   1      41.784  27.268  26.498  1.00  0.00     0.029 A 
ATOM     56  C   UNL A   1      42.712  26.821  27.525  1.00  0.00     0.049 A 
ATOM     57  H   UNL A   1      42.877  27.562  29.471  1.00  0.00     0.167 HD
ATOM     58  C   UNL A   1      42.673  28.588  33.671  1.00  0.00     0.034 A 
ATOM     59  C   UNL A   1      43.640  25.835  27.494  1.00  0.00     0.034 A 
ATOM     60  C   UNL A   1      43.818  29.357  33.247  1.00  0.00     0.049 A 
ATOM     61  C   UNL A   1      44.608  26.099  28.589  1.00  0.00     0.074 A 
ATOM     62  C   UNL A   1      44.048  30.700  33.013  1.00  0.00     0.029 A 
ATOM     63  N   UNL A   1      44.870  28.697  32.655  1.00  0.00    -0.354 N 
ATOM     64  N   UNL A   1      45.401  27.137  28.609  1.00  0.00    -0.248 NA
ATOM     65  C   UNL A   1      44.410  25.461  29.883  1.00  0.00     0.031 C 
ATOM     66  C   UNL A   1      44.945  30.740  31.905  1.00  0.00     0.029 A 
ATOM     67  C   UNL A   1      45.230  29.422  31.543  1.00  0.00     0.049 A 
ATOM     68  H   UNL A   1      45.288  27.861  32.968  1.00  0.00     0.167 HD
ATOM     69  C   UNL A   1      45.454  27.532  29.937  1.00  0.00     0.074 A 
ATOM     70  C   UNL A   1      44.932  26.394  30.686  1.00  0.00     0.031 C 
ATOM     71  C   UNL A   1      45.656  28.839  30.283  1.00  0.00     0.034 A 
BRANCH  58  72
ATOM     72  C   UNL A   1      42.737  27.564  34.772  1.00  0.00     0.023 A 
ATOM     73  C   UNL A   1      43.416  26.361  34.516  1.00  0.00     0.031 A 
ATOM     74  C   UNL A   1      41.960  27.600  35.953  1.00  0.00     0.131 A 
ATOM     75  C   UNL A   1      43.273  25.259  35.376  1.00  0.00     0.055 A 
ATOM     76  C   UNL A   1      41.884  26.529  36.845  1.00  0.00     0.041 A 
ATOM     77  F   UNL A   1      41.156  28.627  36.255  1.00  0.00    -0.206 F 
ATOM     78  C   UNL A   1      42.523  25.340  36.547  1.00  0.00     0.022 A 
BRANCH  75  79
ATOM     79  S   UNL A   1      43.928  23.656  34.843  1.00  0.00     0.124 S 
ATOM     80  O   UNL A   1      42.747  23.022  34.266  1.00  0.00    -0.237 OA
ATOM     81  O   UNL A   1      44.969  24.056  33.903  1.00  0.00    -0.237 OA
ATOM     82  O   UNL A   1      44.406  23.058  36.087  1.00  0.00    -0.744 OA
ENDBRANCH  75  79
ENDBRANCH  58  72
BRANCH  59  83
ATOM     83  C   UNL A   1      43.471  24.539  26.796  1.00  0.00     0.023 A 
ATOM     84  C   UNL A   1      42.642  23.518  27.290  1.00  0.00     0.031 A 
ATOM     85  C   UNL A   1      43.987  24.369  25.489  1.00  0.00     0.131 A 
ATOM     86  C   UNL A   1      42.379  22.379  26.497  1.00  0.00     0.055 A 
ATOM     87  C   UNL A   1      43.742  23.233  24.719  1.00  0.00     0.041 A 
ATOM     88  F   UNL A   1      44.684  25.341  24.881  1.00  0.00    -0.206 F 
ATOM     89  C   UNL A   1      42.930  22.231  25.222  1.00  0.00     0.022 A 
BRANCH  86  90
ATOM     90  S   UNL A   1      41.217  21.111  27.089  1.00  0.00     0.124 S 
ATOM     91  O   UNL A   1      42.090  19.962  27.293  1.00  0.00    -0.237 OA
ATOM     92  O   UNL A   1      40.666  21.730  28.290  1.00  0.00    -0.237 OA
ATOM     93  O   UNL A   1      40.268  20.976  25.983  1.00  0.00    -0.744 OA
ENDBRANCH  86  90
ENDBRANCH  59  83
BRANCH  71  94
ATOM     94  C   UNL A   1      46.095  29.800  29.197  1.00  0.00     0.023 A 
ATOM     95  C   UNL A   1      45.197  30.540  28.396  1.00  0.00     0.031 A 
ATOM     96  C   UNL A   1      47.467  30.072  29.061  1.00  0.00     0.131 A 
ATOM     97  C   UNL A   1      45.684  31.495  27.484  1.00  0.00     0.055 A 
ATOM     98  C   UNL A   1      47.946  31.033  28.169  1.00  0.00     0.041 A 
ATOM     99  F   UNL A   1      48.367  29.432  29.825  1.00  0.00    -0.206 F 
ATOM    100  C   UNL A   1      47.055  31.745  27.371  1.00  0.00     0.022 A 
BRANCH  97 101
ATOM    101  S   UNL A   1      44.526  32.437  26.440  1.00  0.00     0.124 S 
ATOM    102  O   UNL A   1      43.274  31.700  26.576  1.00  0.00    -0.237 OA
ATOM    103  O   UNL A   1      44.558  33.764  27.047  1.00  0.00    -0.237 OA
ATOM    104  O   UNL A   1      45.132  32.365  25.108  1.00  0.00    -0.744 OA
ENDBRANCH  97 101
ENDBRANCH  71  94
ENDBRANCH  45  46
ENDBRANCH  38  40
ENDBRANCH  37  38
ENDBRANCH  36  37
ENDBRANCH  35  36
ENDBRANCH  34  35
ENDBRANCH   1  34
TORSDOF 22
ENDMDL
MODEL 3
REMARK VINA RESULT:     -11.4      2.883      7.926
REMARK SMILES CCn1ncc(NC(=O)[C@@H]2CCCC[C@@H]2C(=O)OCCOCCOC(=O)c2ccc(-c3c4nc(c(-c5cc(S(=O)(=O)[O-])ccc5F)c5ccc([nH]5)c(-c5cc(S(=O)(=O)[O-])ccc5F)c5nc(c(-c6cc(S(=O)(=O)[O-])ccc6F)c6ccc3[nH]6)C=C5)C=C4)cc2)c1C(=O)Nc1cnn(C)c1C
REMARK SMILES IDX 20 1 19 2 18 3 16 4 17 5 15 6 10 7 11 8 12 9 14 10 13 11
REMARK SMILES IDX 8 12 7 13 9 15 6 16 3 17 4 18 90 19 5 20 2 21 1 22 91 23
REMARK SMILES IDX 92 24 93 25 94 27 95 28 99 29 96 30 97 31 100 32 98 33 21 34
REMARK SMILES IDX 22 35 23 36 24 37 25 38 26 39 27 40 28 41 89 42 29 43 88 44
REMARK SMILES IDX 30 45 31 46 32 47 82 48 33 49 87 50 81 51 83 52 34 53 86 54
REMARK SMILES IDX 80 55 79 56 35 58 67 59 47 60 66 61 48 62 51 63 65 64 84 65
REMARK SMILES IDX 49 66 50 67 64 69 85 70 52 71 36 72 37 73 45 74 38 75 44 76
REMARK SMILES IDX 46 77 43 78 39 79 40 80 41 81 42 82 68 83 69 84 77 85 70 86
REMARK SMILES IDX 76 87 78 88 75 89 71 90 72 91 73 92 74 93 53 94 54 95 62 96
REMARK SMILES IDX 55 97 61 98 63 99 60 100 56 101 57 102 58 103 59 104
REMARK H PARENT 7 14 93 26 83 57 51 68
REMARK Flexibility Score: inf
ROOT
ATOM      1  C   UNL A   1      33.253  31.822  27.341  1.00  0.00     0.202 C 
ENDROOT
BRANCH   1   2
ATOM      2  C   UNL A   1      33.006  30.316  27.212  1.00  0.00     0.261 C 
BRANCH   2   3
ATOM      3  O   UNL A   1      32.262  29.889  26.059  1.00  0.00    -0.463 OA
BRANCH   3   4
ATOM      4  C   UNL A   1      32.250  28.542  25.886  1.00  0.00     0.309 C 
ATOM      5  O   UNL A   1      33.028  27.780  26.449  1.00  0.00    -0.252 OA
BRANCH   4   6
ATOM      6  C   UNL A   1      31.230  28.092  24.845  1.00  0.00     0.111 C 
ATOM      7  C   UNL A   1      31.391  26.619  24.415  1.00  0.00     0.093 C 
ATOM      8  C   UNL A   1      32.767  26.384  23.850  1.00  0.00     0.014 C 
ATOM      9  C   UNL A   1      33.210  27.356  22.763  1.00  0.00     0.001 C 
ATOM     10  C   UNL A   1      31.421  28.986  23.599  1.00  0.00     0.016 C 
ATOM     11  C   UNL A   1      32.784  28.808  22.926  1.00  0.00     0.001 C 
BRANCH   7  12
ATOM     12  C   UNL A   1      30.861  25.589  25.428  1.00  0.00     0.228 C 
ATOM     13  N   UNL A   1      31.093  24.228  25.306  1.00  0.00    -0.322 N 
ATOM     14  H   UNL A   1      30.341  23.645  25.055  1.00  0.00     0.170 HD
ATOM     15  O   UNL A   1      30.008  25.944  26.248  1.00  0.00    -0.274 OA
BRANCH  13  16
ATOM     16  C   UNL A   1      32.348  23.645  25.523  1.00  0.00     0.092 A 
ATOM     17  N   UNL A   1      34.315  22.753  25.343  1.00  0.00    -0.258 N 
ATOM     18  N   UNL A   1      34.325  23.285  26.582  1.00  0.00    -0.178 NA
ATOM     19  C   UNL A   1      33.040  22.656  24.814  1.00  0.00     0.150 A 
ATOM     20  C   UNL A   1      33.107  23.800  26.704  1.00  0.00     0.162 A 
BRANCH  17  21
ATOM     21  C   UNL A   1      35.610  22.479  24.758  1.00  0.00     0.142 C 
ATOM     22  C   UNL A   1      35.850  23.274  23.485  1.00  0.00     0.029 C 
ENDBRANCH  17  21
BRANCH  19  23
ATOM     23  C   UNL A   1      32.513  21.730  23.816  1.00  0.00     0.276 C 
ATOM     24  O   UNL A   1      31.765  22.100  22.909  1.00  0.00    -0.267 OA
ATOM     25  N   UNL A   1      33.135  20.509  23.687  1.00  0.00    -0.318 N 
ATOM     26  H   UNL A   1      33.859  20.450  23.022  1.00  0.00     0.170 HD
BRANCH  25  27
ATOM     27  C   UNL A   1      32.852  19.363  24.388  1.00  0.00     0.082 A 
ATOM     28  C   UNL A   1      32.735  19.129  25.769  1.00  0.00     0.161 A 
ATOM     29  C   UNL A   1      32.639  18.139  23.787  1.00  0.00     0.059 A 
ATOM     30  N   UNL A   1      32.611  17.827  26.039  1.00  0.00    -0.179 NA
ATOM     31  N   UNL A   1      32.653  17.240  24.825  1.00  0.00    -0.271 N 
ATOM     32  C   UNL A   1      32.589  17.745  22.356  1.00  0.00     0.068 C 
ATOM     33  C   UNL A   1      32.881  15.816  24.759  1.00  0.00     0.174 C 
ENDBRANCH  25  27
ENDBRANCH  19  23
ENDBRANCH  13  16
ENDBRANCH   7  12
ENDBRANCH   4   6
ENDBRANCH   3   4
ENDBRANCH   2   3
ENDBRANCH   1   2
BRANCH   1  34
ATOM     34  O   UNL A   1      34.510  32.279  27.826  1.00  0.00    -0.374 OA
BRANCH  34  35
ATOM     35  C   UNL A   1      34.726  32.410  29.229  1.00  0.00     0.202 C 
BRANCH  35  36
ATOM     36  C   UNL A   1      35.957  31.762  29.841  1.00  0.00     0.261 C 
BRANCH  36  37
ATOM     37  O   UNL A   1      36.255  30.525  29.210  1.00  0.00    -0.460 OA
BRANCH  37  38
ATOM     38  C   UNL A   1      36.668  29.554  30.041  1.00  0.00     0.338 C 
ATOM     39  O   UNL A   1      36.204  29.283  31.148  1.00  0.00    -0.246 OA
BRANCH  38  40
ATOM     40  C   UNL A   1      37.854  28.923  29.470  1.00  0.00     0.060 A 
ATOM     41  C   UNL A   1      38.513  28.031  30.311  1.00  0.00     0.016 A 
ATOM     42  C   UNL A   1      38.432  29.389  28.275  1.00  0.00     0.016 A 
ATOM     43  C   UNL A   1      39.840  27.780  30.072  1.00  0.00     0.010 A 
ATOM     44  C   UNL A   1      39.765  29.130  28.032  1.00  0.00     0.010 A 
ATOM     45  C   UNL A   1      40.469  28.403  28.985  1.00  0.00    -0.014 A 
BRANCH  45  46
ATOM     46  C   UNL A   1      41.907  28.279  28.947  1.00  0.00     0.031 A 
ATOM     47  C   UNL A   1      42.409  27.128  28.181  1.00  0.00     0.074 A 
ATOM     48  C   UNL A   1      42.733  29.091  29.624  1.00  0.00     0.049 A 
ATOM     49  N   UNL A   1      42.922  26.041  28.647  1.00  0.00    -0.248 NA
ATOM     50  C   UNL A   1      42.189  27.136  26.733  1.00  0.00     0.031 C 
ATOM     51  C   UNL A   1      42.447  30.389  30.236  1.00  0.00     0.029 A 
ATOM     52  N   UNL A   1      44.064  28.918  29.837  1.00  0.00    -0.354 N 
ATOM     53  C   UNL A   1      43.263  25.282  27.539  1.00  0.00     0.074 A 
ATOM     54  C   UNL A   1      42.659  25.933  26.403  1.00  0.00     0.031 C 
ATOM     55  C   UNL A   1      43.618  30.980  30.564  1.00  0.00     0.029 A 
ATOM     56  C   UNL A   1      44.705  30.045  30.315  1.00  0.00     0.049 A 
ATOM     57  H   UNL A   1      44.529  28.067  29.667  1.00  0.00     0.167 HD
ATOM     58  C   UNL A   1      44.166  24.271  27.620  1.00  0.00     0.034 A 
ATOM     59  C   UNL A   1      46.045  30.219  30.405  1.00  0.00     0.034 A 
ATOM     60  C   UNL A   1      44.369  23.840  28.983  1.00  0.00     0.049 A 
ATOM     61  C   UNL A   1      46.663  28.874  30.510  1.00  0.00     0.074 A 
ATOM     62  C   UNL A   1      43.550  23.301  29.958  1.00  0.00     0.029 A 
ATOM     63  N   UNL A   1      45.497  24.265  29.646  1.00  0.00    -0.354 N 
ATOM     64  N   UNL A   1      46.483  28.080  31.531  1.00  0.00    -0.248 NA
ATOM     65  C   UNL A   1      47.133  28.211  29.301  1.00  0.00     0.031 C 
ATOM     66  C   UNL A   1      44.012  23.857  31.187  1.00  0.00     0.029 A 
ATOM     67  C   UNL A   1      45.100  24.683  30.895  1.00  0.00     0.049 A 
ATOM     68  H   UNL A   1      46.417  24.269  29.293  1.00  0.00     0.167 HD
ATOM     69  C   UNL A   1      46.401  26.804  30.995  1.00  0.00     0.074 A 
ATOM     70  C   UNL A   1      46.933  26.934  29.642  1.00  0.00     0.031 C 
ATOM     71  C   UNL A   1      45.657  25.826  31.595  1.00  0.00     0.034 A 
BRANCH  58  72
ATOM     72  C   UNL A   1      45.069  23.857  26.489  1.00  0.00     0.023 A 
ATOM     73  C   UNL A   1      46.142  24.702  26.157  1.00  0.00     0.031 A 
ATOM     74  C   UNL A   1      44.784  22.823  25.567  1.00  0.00     0.131 A 
ATOM     75  C   UNL A   1      46.841  24.533  24.950  1.00  0.00     0.055 A 
ATOM     76  C   UNL A   1      45.532  22.611  24.409  1.00  0.00     0.041 A 
ATOM     77  F   UNL A   1      43.713  22.029  25.684  1.00  0.00    -0.206 F 
ATOM     78  C   UNL A   1      46.553  23.484  24.081  1.00  0.00     0.022 A 
BRANCH  75  79
ATOM     79  S   UNL A   1      48.010  25.820  24.442  1.00  0.00     0.124 S 
ATOM     80  O   UNL A   1      49.176  25.512  25.263  1.00  0.00    -0.237 OA
ATOM     81  O   UNL A   1      48.140  25.559  23.013  1.00  0.00    -0.237 OA
ATOM     82  O   UNL A   1      47.318  27.059  24.790  1.00  0.00    -0.744 OA
ENDBRANCH  75  79
ENDBRANCH  58  72
BRANCH  59  83
ATOM     83  C   UNL A   1      46.759  31.463  30.036  1.00  0.00     0.023 A 
ATOM     84  C   UNL A   1      47.059  31.796  28.704  1.00  0.00     0.031 A 
ATOM     85  C   UNL A   1      46.985  32.464  31.011  1.00  0.00     0.131 A 
ATOM     86  C   UNL A   1      47.580  33.072  28.397  1.00  0.00     0.055 A 
ATOM     87  C   UNL A   1      47.520  33.715  30.706  1.00  0.00     0.041 A 
ATOM     88  F   UNL A   1      46.614  32.290  32.290  1.00  0.00    -0.206 F 
ATOM     89  C   UNL A   1      47.818  34.026  29.390  1.00  0.00     0.022 A 
BRANCH  86  90
ATOM     90  S   UNL A   1      47.861  33.543  26.663  1.00  0.00     0.124 S 
ATOM     91  O   UNL A   1      48.979  32.687  26.286  1.00  0.00    -0.237 OA
ATOM     92  O   UNL A   1      46.574  33.239  26.046  1.00  0.00    -0.237 OA
ATOM     93  O   UNL A   1      48.176  34.970  26.744  1.00  0.00    -0.744 OA
ENDBRANCH  86  90
ENDBRANCH  59  83
BRANCH  71  94
ATOM     94  C   UNL A   1      45.152  26.082  33.000  1.00  0.00     0.023 A 
ATOM     95  C   UNL A   1      43.874  26.609  33.289  1.00  0.00     0.031 A 
ATOM     96  C   UNL A   1      45.941  25.655  34.082  1.00  0.00     0.131 A 
ATOM     97  C   UNL A   1      43.436  26.714  34.623  1.00  0.00     0.055 A 
ATOM     98  C   UNL A   1      45.497  25.742  35.402  1.00  0.00     0.041 A 
ATOM     99  F   UNL A   1      47.149  25.106  33.869  1.00  0.00    -0.206 F 
ATOM    100  C   UNL A   1      44.243  26.279  35.678  1.00  0.00     0.022 A 
BRANCH  97 101
ATOM    101  S   UNL A   1      41.794  27.407  34.994  1.00  0.00     0.124 S 
ATOM    102  O   UNL A   1      42.010  28.141  36.237  1.00  0.00    -0.237 OA
ATOM    103  O   UNL A   1      41.514  28.217  33.812  1.00  0.00    -0.237 OA
ATOM    104  O   UNL A   1      40.945  26.220  35.129  1.00  0.00    -0.744 OA
ENDBRANCH  97 101
ENDBRANCH  71  94
ENDBRANCH  45  46
ENDBRANCH  38  40
ENDBRANCH  37  38
ENDBRANCH  36  37
ENDBRANCH  35  36
ENDBRANCH  34  35
ENDBRANCH   1  34
TORSDOF 22
ENDMDL
