MODEL 1
REMARK VINA RESULT:      -9.8      0.000      0.000
REMARK SMILES CN1C(=O)C(=Cc2ccc(OCc3cccc(C(=O)OCCOCCOC(=O)c4ccc(-c5c6nc(c(-c7cc(S(=O)(=O)[O-])ccc7F)c7ccc([nH]7)c(-c7cc(S(=O)(=O)[O-])ccc7F)c7nc(c(-c8cc(S(=O)(=O)[O-])ccc8F)c8ccc5[nH]8)C=C7)C=C6)cc4)c3)c(Cl)c2)C(=O)N(C)C1=S
REMARK SMILES IDX 22 1 21 2 20 3 18 4 19 5 17 6 13 7 14 8 92 9 15 10 16 11
REMARK SMILES IDX 12 12 11 13 10 14 7 15 8 16 95 17 9 18 93 19 94 20 6 21 1 22
REMARK SMILES IDX 2 23 3 24 100 25 4 26 5 27 98 28 101 29 96 30 99 31 97 32
REMARK SMILES IDX 23 33 24 34 25 35 26 36 27 37 28 38 29 39 30 40 91 41 31 42
REMARK SMILES IDX 90 43 32 44 33 45 34 46 84 47 35 48 89 49 83 50 85 51 36 52
REMARK SMILES IDX 88 53 82 54 81 55 37 57 69 58 49 59 68 60 50 61 53 62 67 63
REMARK SMILES IDX 86 64 51 65 52 66 66 68 87 69 54 70 38 71 39 72 47 73 40 74
REMARK SMILES IDX 46 75 48 76 45 77 41 78 42 79 43 80 44 81 70 82 71 83 79 84
REMARK SMILES IDX 72 85 78 86 80 87 77 88 73 89 74 90 75 91 76 92 55 93 56 94
REMARK SMILES IDX 64 95 57 96 63 97 65 98 62 99 58 100 59 101 60 102 61 103
REMARK H PARENT 85 56 53 67
REMARK Flexibility Score: inf
ROOT
ATOM      1  C   UNL A   1      40.127  27.127  28.284  1.00  0.00     0.202 C 
ENDROOT
BRANCH   1   2
ATOM      2  C   UNL A   1      38.997  28.166  28.269  1.00  0.00     0.261 C 
BRANCH   2   3
ATOM      3  O   UNL A   1      39.077  29.044  29.404  1.00  0.00    -0.460 OA
BRANCH   3   4
ATOM      4  C   UNL A   1      37.905  29.282  30.042  1.00  0.00     0.338 C 
ATOM      5  O   UNL A   1      37.461  28.699  31.019  1.00  0.00    -0.246 OA
BRANCH   4   6
ATOM      6  C   UNL A   1      37.340  30.549  29.529  1.00  0.00     0.060 A 
ATOM      7  C   UNL A   1      35.659  31.816  28.318  1.00  0.00    -0.010 A 
ATOM      8  C   UNL A   1      36.503  32.937  28.373  1.00  0.00     0.007 A 
ATOM      9  C   UNL A   1      36.116  30.601  28.855  1.00  0.00     0.023 A 
ATOM     10  C   UNL A   1      37.714  32.890  29.063  1.00  0.00     0.001 A 
ATOM     11  C   UNL A   1      38.123  31.702  29.660  1.00  0.00     0.016 A 
BRANCH   7  12
ATOM     12  C   UNL A   1      34.265  31.869  27.720  1.00  0.00     0.265 C 
BRANCH  12  13
ATOM     13  O   UNL A   1      33.455  30.694  27.831  1.00  0.00    -0.487 OA
BRANCH  13  14
ATOM     14  C   UNL A   1      33.188  29.906  26.747  1.00  0.00     0.138 A 
ATOM     15  C   UNL A   1      33.089  28.085  24.606  1.00  0.00    -0.023 A 
ATOM     16  C   UNL A   1      34.001  27.891  25.647  1.00  0.00     0.012 A 
ATOM     17  C   UNL A   1      32.231  29.184  24.635  1.00  0.00     0.032 A 
ATOM     18  C   UNL A   1      34.036  28.788  26.711  1.00  0.00     0.048 A 
ATOM     19  C   UNL A   1      32.254  30.079  25.716  1.00  0.00     0.083 A 
ATOM     20  Cl  UNL A   1      31.027  31.293  25.696  1.00  0.00    -0.080 Cl
BRANCH  15  21
ATOM     21  C   UNL A   1      32.955  27.078  23.553  1.00  0.00     0.027 C 
ATOM     22  C   UNL A   1      31.739  24.128  26.866  1.00  0.00     0.156 C 
ATOM     23  N   UNL A   1      31.811  24.295  25.412  1.00  0.00    -0.288 N 
ATOM     24  C   UNL A   1      31.601  25.597  24.983  1.00  0.00     0.265 C 
ATOM     25  C   UNL A   1      32.072  23.217  24.545  1.00  0.00     0.185 C 
ATOM     26  O   UNL A   1      30.921  26.421  25.584  1.00  0.00    -0.268 OA
ATOM     27  C   UNL A   1      32.292  25.918  23.729  1.00  0.00     0.106 C 
ATOM     28  N   UNL A   1      32.399  23.572  23.215  1.00  0.00    -0.288 N 
ATOM     29  S   UNL A   1      31.986  21.608  25.071  1.00  0.00    -0.040 S 
ATOM     30  C   UNL A   1      32.442  24.876  22.713  1.00  0.00     0.265 C 
ATOM     31  C   UNL A   1      32.837  22.585  22.226  1.00  0.00     0.156 C 
ATOM     32  O   UNL A   1      32.661  25.156  21.535  1.00  0.00    -0.268 OA
ENDBRANCH  15  21
ENDBRANCH  13  14
ENDBRANCH  12  13
ENDBRANCH   7  12
ENDBRANCH   4   6
ENDBRANCH   3   4
ENDBRANCH   2   3
ENDBRANCH   1   2
BRANCH   1  33
ATOM     33  O   UNL A   1      40.364  26.398  27.077  1.00  0.00    -0.374 OA
BRANCH  33  34
ATOM     34  C   UNL A   1      41.309  25.332  27.129  1.00  0.00     0.202 C 
BRANCH  34  35
ATOM     35  C   UNL A   1      42.303  25.182  25.969  1.00  0.00     0.261 C 
BRANCH  35  36
ATOM     36  O   UNL A   1      43.439  26.053  26.085  1.00  0.00    -0.460 OA
BRANCH  36  37
ATOM     37  C   UNL A   1      43.262  27.267  25.506  1.00  0.00     0.338 C 
ATOM     38  O   UNL A   1      42.968  27.488  24.342  1.00  0.00    -0.246 OA
BRANCH  37  39
ATOM     39  C   UNL A   1      43.288  28.328  26.531  1.00  0.00     0.060 A 
ATOM     40  C   UNL A   1      42.332  29.343  26.419  1.00  0.00     0.016 A 
ATOM     41  C   UNL A   1      44.262  28.375  27.531  1.00  0.00     0.016 A 
ATOM     42  C   UNL A   1      42.377  30.438  27.276  1.00  0.00     0.010 A 
ATOM     43  C   UNL A   1      44.306  29.479  28.392  1.00  0.00     0.010 A 
ATOM     44  C   UNL A   1      43.384  30.532  28.247  1.00  0.00    -0.014 A 
BRANCH  44  45
ATOM     45  C   UNL A   1      43.512  31.792  29.025  1.00  0.00     0.031 A 
ATOM     46  C   UNL A   1      42.651  32.006  30.240  1.00  0.00     0.074 A 
ATOM     47  C   UNL A   1      44.445  32.701  28.687  1.00  0.00     0.049 A 
ATOM     48  N   UNL A   1      42.645  33.003  31.088  1.00  0.00    -0.248 NA
ATOM     49  C   UNL A   1      41.666  30.957  30.539  1.00  0.00     0.031 C 
ATOM     50  C   UNL A   1      45.356  32.586  27.547  1.00  0.00     0.029 A 
ATOM     51  N   UNL A   1      44.792  33.891  29.275  1.00  0.00    -0.354 N 
ATOM     52  C   UNL A   1      41.658  32.703  32.022  1.00  0.00     0.074 A 
ATOM     53  C   UNL A   1      41.057  31.454  31.605  1.00  0.00     0.031 C 
ATOM     54  C   UNL A   1      46.168  33.655  27.529  1.00  0.00     0.029 A 
ATOM     55  C   UNL A   1      45.811  34.549  28.627  1.00  0.00     0.049 A 
ATOM     56  H   UNL A   1      44.353  34.240  30.083  1.00  0.00     0.167 HD
ATOM     57  C   UNL A   1      41.300  33.397  33.132  1.00  0.00     0.034 A 
ATOM     58  C   UNL A   1      46.382  35.744  28.883  1.00  0.00     0.034 A 
ATOM     59  C   UNL A   1      41.905  34.649  33.525  1.00  0.00     0.049 A 
ATOM     60  C   UNL A   1      45.913  36.534  30.080  1.00  0.00     0.074 A 
ATOM     61  C   UNL A   1      41.634  35.424  34.640  1.00  0.00     0.029 A 
ATOM     62  N   UNL A   1      42.889  35.321  32.810  1.00  0.00    -0.354 N 
ATOM     63  N   UNL A   1      44.998  36.225  30.971  1.00  0.00    -0.248 NA
ATOM     64  C   UNL A   1      46.565  37.828  30.310  1.00  0.00     0.031 C 
ATOM     65  C   UNL A   1      42.388  36.600  34.553  1.00  0.00     0.029 A 
ATOM     66  C   UNL A   1      43.203  36.520  33.435  1.00  0.00     0.049 A 
ATOM     67  H   UNL A   1      43.305  34.994  31.980  1.00  0.00     0.167 HD
ATOM     68  C   UNL A   1      44.985  37.279  31.882  1.00  0.00     0.074 A 
ATOM     69  C   UNL A   1      46.005  38.212  31.447  1.00  0.00     0.031 C 
ATOM     70  C   UNL A   1      44.202  37.461  32.978  1.00  0.00     0.034 A 
BRANCH  57  71
ATOM     71  C   UNL A   1      40.167  32.843  33.965  1.00  0.00     0.023 A 
ATOM     72  C   UNL A   1      38.844  33.295  33.818  1.00  0.00     0.031 A 
ATOM     73  C   UNL A   1      40.419  31.859  34.940  1.00  0.00     0.131 A 
ATOM     74  C   UNL A   1      37.839  32.818  34.677  1.00  0.00     0.055 A 
ATOM     75  C   UNL A   1      39.401  31.328  35.732  1.00  0.00     0.041 A 
ATOM     76  F   UNL A   1      41.665  31.405  35.145  1.00  0.00    -0.206 F 
ATOM     77  C   UNL A   1      38.104  31.819  35.615  1.00  0.00     0.022 A 
BRANCH  74  78
ATOM     78  S   UNL A   1      36.220  33.634  34.655  1.00  0.00     0.124 S 
ATOM     79  O   UNL A   1      35.434  32.711  33.840  1.00  0.00    -0.237 OA
ATOM     80  O   UNL A   1      35.875  33.689  36.071  1.00  0.00    -0.237 OA
ATOM     81  O   UNL A   1      36.495  34.926  34.029  1.00  0.00    -0.744 OA
ENDBRANCH  74  78
ENDBRANCH  57  71
BRANCH  58  82
ATOM     82  C   UNL A   1      47.436  36.286  27.977  1.00  0.00     0.023 A 
ATOM     83  C   UNL A   1      48.795  36.000  28.182  1.00  0.00     0.031 A 
ATOM     84  C   UNL A   1      47.098  37.147  26.917  1.00  0.00     0.131 A 
ATOM     85  C   UNL A   1      49.768  36.607  27.372  1.00  0.00     0.055 A 
ATOM     86  C   UNL A   1      48.064  37.700  26.076  1.00  0.00     0.041 A 
ATOM     87  F   UNL A   1      45.814  37.458  26.678  1.00  0.00    -0.206 F 
ATOM     88  C   UNL A   1      49.411  37.441  26.310  1.00  0.00     0.022 A 
BRANCH  85  89
ATOM     89  S   UNL A   1      51.517  36.364  27.785  1.00  0.00     0.124 S 
ATOM     90  O   UNL A   1      52.176  36.808  26.561  1.00  0.00    -0.237 OA
ATOM     91  O   UNL A   1      51.676  37.227  28.950  1.00  0.00    -0.237 OA
ATOM     92  O   UNL A   1      51.606  34.930  28.056  1.00  0.00    -0.744 OA
ENDBRANCH  85  89
ENDBRANCH  58  82
BRANCH  70  93
ATOM     93  C   UNL A   1      44.446  38.712  33.791  1.00  0.00     0.023 A 
ATOM     94  C   UNL A   1      43.711  39.891  33.572  1.00  0.00     0.031 A 
ATOM     95  C   UNL A   1      45.459  38.743  34.766  1.00  0.00     0.131 A 
ATOM     96  C   UNL A   1      44.055  41.070  34.251  1.00  0.00     0.055 A 
ATOM     97  C   UNL A   1      45.744  39.897  35.498  1.00  0.00     0.041 A 
ATOM     98  F   UNL A   1      46.200  37.652  35.020  1.00  0.00    -0.206 F 
ATOM     99  C   UNL A   1      45.054  41.075  35.227  1.00  0.00     0.022 A 
BRANCH  96 100
ATOM    100  S   UNL A   1      43.277  42.626  33.737  1.00  0.00     0.124 S 
ATOM    101  O   UNL A   1      43.468  42.596  32.292  1.00  0.00    -0.237 OA
ATOM    102  O   UNL A   1      41.904  42.457  34.203  1.00  0.00    -0.237 OA
ATOM    103  O   UNL A   1      44.051  43.645  34.445  1.00  0.00    -0.744 OA
ENDBRANCH  96 100
ENDBRANCH  70  93
ENDBRANCH  44  45
ENDBRANCH  37  39
ENDBRANCH  36  37
ENDBRANCH  35  36
ENDBRANCH  34  35
ENDBRANCH  33  34
ENDBRANCH   1  33
TORSDOF 21
ENDMDL
MODEL 2
REMARK VINA RESULT:      -9.5      1.869      2.243
REMARK SMILES CN1C(=O)C(=Cc2ccc(OCc3cccc(C(=O)OCCOCCOC(=O)c4ccc(-c5c6nc(c(-c7cc(S(=O)(=O)[O-])ccc7F)c7ccc([nH]7)c(-c7cc(S(=O)(=O)[O-])ccc7F)c7nc(c(-c8cc(S(=O)(=O)[O-])ccc8F)c8ccc5[nH]8)C=C7)C=C6)cc4)c3)c(Cl)c2)C(=O)N(C)C1=S
REMARK SMILES IDX 22 1 21 2 20 3 18 4 19 5 17 6 13 7 14 8 92 9 15 10 16 11
REMARK SMILES IDX 12 12 11 13 10 14 7 15 8 16 95 17 9 18 93 19 94 20 6 21 1 22
REMARK SMILES IDX 2 23 3 24 100 25 4 26 5 27 98 28 101 29 96 30 99 31 97 32
REMARK SMILES IDX 23 33 24 34 25 35 26 36 27 37 28 38 29 39 30 40 91 41 31 42
REMARK SMILES IDX 90 43 32 44 33 45 34 46 84 47 35 48 89 49 83 50 85 51 36 52
REMARK SMILES IDX 88 53 82 54 81 55 37 57 69 58 49 59 68 60 50 61 53 62 67 63
REMARK SMILES IDX 86 64 51 65 52 66 66 68 87 69 54 70 38 71 39 72 47 73 40 74
REMARK SMILES IDX 46 75 48 76 45 77 41 78 42 79 43 80 44 81 70 82 71 83 79 84
REMARK SMILES IDX 72 85 78 86 80 87 77 88 73 89 74 90 75 91 76 92 55 93 56 94
REMARK SMILES IDX 64 95 57 96 63 97 65 98 62 99 58 100 59 101 60 102 61 103
REMARK H PARENT 85 56 53 67
REMARK Flexibility Score: inf
ROOT
ATOM      1  C   UNL A   1      38.960  27.601  29.343  1.00  0.00     0.202 C 
ENDROOT
BRANCH   1   2
ATOM      2  C   UNL A   1      38.612  29.087  29.179  1.00  0.00     0.261 C 
BRANCH   2   3
ATOM      3  O   UNL A   1      38.531  29.749  30.452  1.00  0.00    -0.460 OA
BRANCH   3   4
ATOM      4  C   UNL A   1      37.305  29.759  31.028  1.00  0.00     0.338 C 
ATOM      5  O   UNL A   1      36.900  29.036  31.925  1.00  0.00    -0.246 OA
BRANCH   4   6
ATOM      6  C   UNL A   1      36.585  30.972  30.580  1.00  0.00     0.060 A 
ATOM      7  C   UNL A   1      35.097  32.150  29.065  1.00  0.00    -0.010 A 
ATOM      8  C   UNL A   1      35.496  33.359  29.656  1.00  0.00     0.007 A 
ATOM      9  C   UNL A   1      35.696  30.956  29.502  1.00  0.00     0.023 A 
ATOM     10  C   UNL A   1      36.367  33.372  30.745  1.00  0.00     0.001 A 
ATOM     11  C   UNL A   1      36.895  32.177  31.221  1.00  0.00     0.016 A 
BRANCH   7  12
ATOM     12  C   UNL A   1      34.031  32.076  27.988  1.00  0.00     0.265 C 
BRANCH  12  13
ATOM     13  O   UNL A   1      33.210  30.904  27.949  1.00  0.00    -0.487 OA
BRANCH  13  14
ATOM     14  C   UNL A   1      33.083  30.159  26.810  1.00  0.00     0.138 A 
ATOM     15  C   UNL A   1      33.274  28.452  24.583  1.00  0.00    -0.023 A 
ATOM     16  C   UNL A   1      34.112  28.261  25.685  1.00  0.00     0.012 A 
ATOM     17  C   UNL A   1      32.346  29.492  24.595  1.00  0.00     0.032 A 
ATOM     18  C   UNL A   1      34.004  29.100  26.790  1.00  0.00     0.048 A 
ATOM     19  C   UNL A   1      32.223  30.328  25.716  1.00  0.00     0.083 A 
ATOM     20  Cl  UNL A   1      30.923  31.462  25.654  1.00  0.00    -0.080 Cl
BRANCH  15  21
ATOM     21  C   UNL A   1      33.291  27.496  23.476  1.00  0.00     0.027 C 
ATOM     22  C   UNL A   1      31.651  24.394  26.450  1.00  0.00     0.156 C 
ATOM     23  N   UNL A   1      31.920  24.629  25.029  1.00  0.00    -0.288 N 
ATOM     24  C   UNL A   1      31.764  25.950  24.637  1.00  0.00     0.265 C 
ATOM     25  C   UNL A   1      32.304  23.593  24.157  1.00  0.00     0.185 C 
ATOM     26  O   UNL A   1      31.003  26.746  25.177  1.00  0.00    -0.268 OA
ATOM     27  C   UNL A   1      32.616  26.329  23.506  1.00  0.00     0.106 C 
ATOM     28  N   UNL A   1      32.807  24.010  22.902  1.00  0.00    -0.288 N 
ATOM     29  S   UNL A   1      32.156  21.961  24.590  1.00  0.00    -0.040 S 
ATOM     30  C   UNL A   1      32.911  25.337  22.472  1.00  0.00     0.265 C 
ATOM     31  C   UNL A   1      33.381  23.071  21.937  1.00  0.00     0.156 C 
ATOM     32  O   UNL A   1      33.286  25.671  21.350  1.00  0.00    -0.268 OA
ENDBRANCH  15  21
ENDBRANCH  13  14
ENDBRANCH  12  13
ENDBRANCH   7  12
ENDBRANCH   4   6
ENDBRANCH   3   4
ENDBRANCH   2   3
ENDBRANCH   1   2
BRANCH   1  33
ATOM     33  O   UNL A   1      39.189  26.846  28.151  1.00  0.00    -0.374 OA
BRANCH  33  34
ATOM     34  C   UNL A   1      39.404  25.443  28.292  1.00  0.00     0.202 C 
BRANCH  34  35
ATOM     35  C   UNL A   1      40.722  24.852  27.775  1.00  0.00     0.261 C 
BRANCH  35  36
ATOM     36  O   UNL A   1      41.867  25.282  28.526  1.00  0.00    -0.460 OA
BRANCH  36  37
ATOM     37  C   UNL A   1      42.633  26.200  27.885  1.00  0.00     0.338 C 
ATOM     38  O   UNL A   1      43.121  26.096  26.771  1.00  0.00    -0.246 OA
BRANCH  37  39
ATOM     39  C   UNL A   1      42.658  27.463  28.645  1.00  0.00     0.060 A 
ATOM     40  C   UNL A   1      42.225  28.614  27.979  1.00  0.00     0.016 A 
ATOM     41  C   UNL A   1      43.157  27.540  29.948  1.00  0.00     0.016 A 
ATOM     42  C   UNL A   1      42.338  29.858  28.593  1.00  0.00     0.010 A 
ATOM     43  C   UNL A   1      43.270  28.793  30.564  1.00  0.00     0.010 A 
ATOM     44  C   UNL A   1      42.893  29.962  29.877  1.00  0.00    -0.014 A 
BRANCH  44  45
ATOM     45  C   UNL A   1      43.164  31.314  30.430  1.00  0.00     0.031 A 
ATOM     46  C   UNL A   1      42.203  31.919  31.417  1.00  0.00     0.074 A 
ATOM     47  C   UNL A   1      44.300  31.958  30.109  1.00  0.00     0.049 A 
ATOM     48  N   UNL A   1      42.281  33.056  32.062  1.00  0.00    -0.248 NA
ATOM     49  C   UNL A   1      40.992  31.140  31.716  1.00  0.00     0.031 C 
ATOM     50  C   UNL A   1      45.319  31.455  29.187  1.00  0.00     0.029 A 
ATOM     51  N   UNL A   1      44.796  33.166  30.530  1.00  0.00    -0.354 N 
ATOM     52  C   UNL A   1      41.132  33.129  32.844  1.00  0.00     0.074 A 
ATOM     53  C   UNL A   1      40.353  31.944  32.553  1.00  0.00     0.031 C 
ATOM     54  C   UNL A   1      46.327  32.341  29.125  1.00  0.00     0.029 A 
ATOM     55  C   UNL A   1      46.009  33.491  29.969  1.00  0.00     0.049 A 
ATOM     56  H   UNL A   1      44.329  33.746  31.174  1.00  0.00     0.167 HD
ATOM     57  C   UNL A   1      40.771  34.089  33.733  1.00  0.00     0.034 A 
ATOM     58  C   UNL A   1      46.769  34.596  30.107  1.00  0.00     0.034 A 
ATOM     59  C   UNL A   1      41.556  35.272  34.001  1.00  0.00     0.049 A 
ATOM     60  C   UNL A   1      46.307  35.685  31.044  1.00  0.00     0.074 A 
ATOM     61  C   UNL A   1      41.295  36.295  34.896  1.00  0.00     0.029 A 
ATOM     62  N   UNL A   1      42.747  35.601  33.365  1.00  0.00    -0.354 N 
ATOM     63  N   UNL A   1      45.232  35.729  31.799  1.00  0.00    -0.248 NA
ATOM     64  C   UNL A   1      47.170  36.867  31.155  1.00  0.00     0.031 C 
ATOM     65  C   UNL A   1      42.277  37.280  34.739  1.00  0.00     0.029 A 
ATOM     66  C   UNL A   1      43.207  36.832  33.815  1.00  0.00     0.049 A 
ATOM     67  H   UNL A   1      43.200  35.043  32.692  1.00  0.00     0.167 HD
ATOM     68  C   UNL A   1      45.307  36.935  32.494  1.00  0.00     0.074 A 
ATOM     69  C   UNL A   1      46.545  37.567  32.089  1.00  0.00     0.031 C 
ATOM     70  C   UNL A   1      44.431  37.471  33.384  1.00  0.00     0.034 A 
BRANCH  57  71
ATOM     71  C   UNL A   1      39.443  33.923  34.436  1.00  0.00     0.023 A 
ATOM     72  C   UNL A   1      39.332  33.262  35.673  1.00  0.00     0.031 A 
ATOM     73  C   UNL A   1      38.262  34.415  33.849  1.00  0.00     0.131 A 
ATOM     74  C   UNL A   1      38.066  33.050  36.244  1.00  0.00     0.055 A 
ATOM     75  C   UNL A   1      37.018  34.276  34.464  1.00  0.00     0.041 A 
ATOM     76  F   UNL A   1      38.299  35.033  32.658  1.00  0.00    -0.206 F 
ATOM     77  C   UNL A   1      36.912  33.575  35.662  1.00  0.00     0.022 A 
BRANCH  74  78
ATOM     78  S   UNL A   1      37.936  31.946  37.677  1.00  0.00     0.124 S 
ATOM     79  O   UNL A   1      36.687  32.397  38.286  1.00  0.00    -0.237 OA
ATOM     80  O   UNL A   1      37.905  30.626  37.057  1.00  0.00    -0.237 OA
ATOM     81  O   UNL A   1      39.140  32.244  38.451  1.00  0.00    -0.744 OA
ENDBRANCH  74  78
ENDBRANCH  57  71
BRANCH  58  82
ATOM     82  C   UNL A   1      48.028  34.750  29.322  1.00  0.00     0.023 A 
ATOM     83  C   UNL A   1      48.003  35.025  27.946  1.00  0.00     0.031 A 
ATOM     84  C   UNL A   1      49.283  34.569  29.934  1.00  0.00     0.131 A 
ATOM     85  C   UNL A   1      49.203  35.064  27.218  1.00  0.00     0.055 A 
ATOM     86  C   UNL A   1      50.476  34.670  29.218  1.00  0.00     0.041 A 
ATOM     87  F   UNL A   1      49.365  34.300  31.247  1.00  0.00    -0.206 F 
ATOM     88  C   UNL A   1      50.439  34.906  27.848  1.00  0.00     0.022 A 
BRANCH  85  89
ATOM     89  S   UNL A   1      49.120  35.234  25.414  1.00  0.00     0.124 S 
ATOM     90  O   UNL A   1      50.261  34.432  24.987  1.00  0.00    -0.237 OA
ATOM     91  O   UNL A   1      47.801  34.684  25.118  1.00  0.00    -0.237 OA
ATOM     92  O   UNL A   1      49.255  36.674  25.202  1.00  0.00    -0.744 OA
ENDBRANCH  85  89
ENDBRANCH  58  82
BRANCH  70  93
ATOM     93  C   UNL A   1      44.808  38.802  33.995  1.00  0.00     0.023 A 
ATOM     94  C   UNL A   1      44.288  40.013  33.505  1.00  0.00     0.031 A 
ATOM     95  C   UNL A   1      45.736  38.866  35.050  1.00  0.00     0.131 A 
ATOM     96  C   UNL A   1      44.762  41.235  34.006  1.00  0.00     0.055 A 
ATOM     97  C   UNL A   1      46.143  40.082  35.601  1.00  0.00     0.041 A 
ATOM     98  F   UNL A   1      46.272  37.745  35.559  1.00  0.00    -0.206 F 
ATOM     99  C   UNL A   1      45.672  41.277  35.066  1.00  0.00     0.022 A 
BRANCH  96 100
ATOM    100  S   UNL A   1      44.283  42.766  33.160  1.00  0.00     0.124 S 
ATOM    101  O   UNL A   1      44.135  43.694  34.276  1.00  0.00    -0.237 OA
ATOM    102  O   UNL A   1      45.422  43.005  32.279  1.00  0.00    -0.237 OA
ATOM    103  O   UNL A   1      43.039  42.408  32.481  1.00  0.00    -0.744 OA
ENDBRANCH  96 100
ENDBRANCH  70  93
ENDBRANCH  44  45
ENDBRANCH  37  39
ENDBRANCH  36  37
ENDBRANCH  35  36
ENDBRANCH  34  35
ENDBRANCH  33  34
ENDBRANCH   1  33
TORSDOF 21
ENDMDL
MODEL 3
REMARK VINA RESULT:      -9.4      6.237     14.448
REMARK SMILES CN1C(=O)C(=Cc2ccc(OCc3cccc(C(=O)OCCOCCOC(=O)c4ccc(-c5c6nc(c(-c7cc(S(=O)(=O)[O-])ccc7F)c7ccc([nH]7)c(-c7cc(S(=O)(=O)[O-])ccc7F)c7nc(c(-c8cc(S(=O)(=O)[O-])ccc8F)c8ccc5[nH]8)C=C7)C=C6)cc4)c3)c(Cl)c2)C(=O)N(C)C1=S
REMARK SMILES IDX 22 1 21 2 20 3 18 4 19 5 17 6 13 7 14 8 92 9 15 10 16 11
REMARK SMILES IDX 12 12 11 13 10 14 7 15 8 16 95 17 9 18 93 19 94 20 6 21 1 22
REMARK SMILES IDX 2 23 3 24 100 25 4 26 5 27 98 28 101 29 96 30 99 31 97 32
REMARK SMILES IDX 23 33 24 34 25 35 26 36 27 37 28 38 29 39 30 40 91 41 31 42
REMARK SMILES IDX 90 43 32 44 33 45 34 46 84 47 35 48 89 49 83 50 85 51 36 52
REMARK SMILES IDX 88 53 82 54 81 55 37 57 69 58 49 59 68 60 50 61 53 62 67 63
REMARK SMILES IDX 86 64 51 65 52 66 66 68 87 69 54 70 38 71 39 72 47 73 40 74
REMARK SMILES IDX 46 75 48 76 45 77 41 78 42 79 43 80 44 81 70 82 71 83 79 84
REMARK SMILES IDX 72 85 78 86 80 87 77 88 73 89 74 90 75 91 76 92 55 93 56 94
REMARK SMILES IDX 64 95 57 96 63 97 65 98 62 99 58 100 59 101 60 102 61 103
REMARK H PARENT 85 56 53 67
REMARK Flexibility Score: inf
ROOT
ATOM      1  C   UNL A   1      47.984  40.982  31.732  1.00  0.00     0.202 C 
ENDROOT
BRANCH   1   2
ATOM      2  C   UNL A   1      48.921  42.160  31.430  1.00  0.00     0.261 C 
BRANCH   2   3
ATOM      3  O   UNL A   1      48.451  42.929  30.310  1.00  0.00    -0.460 OA
BRANCH   3   4
ATOM      4  C   UNL A   1      49.133  42.752  29.153  1.00  0.00     0.338 C 
ATOM      5  O   UNL A   1      50.243  43.177  28.873  1.00  0.00    -0.246 OA
BRANCH   4   6
ATOM      6  C   UNL A   1      48.430  41.730  28.345  1.00  0.00     0.060 A 
ATOM      7  C   UNL A   1      46.419  40.741  27.412  1.00  0.00    -0.010 A 
ATOM      8  C   UNL A   1      47.175  39.617  27.042  1.00  0.00     0.007 A 
ATOM      9  C   UNL A   1      47.052  41.777  28.119  1.00  0.00     0.023 A 
ATOM     10  C   UNL A   1      48.554  39.581  27.249  1.00  0.00     0.001 A 
ATOM     11  C   UNL A   1      49.185  40.647  27.881  1.00  0.00     0.016 A 
BRANCH   7  12
ATOM     12  C   UNL A   1      44.950  40.891  27.060  1.00  0.00     0.265 C 
BRANCH  12  13
ATOM     13  O   UNL A   1      44.451  42.218  26.865  1.00  0.00    -0.487 OA
BRANCH  13  14
ATOM     14  C   UNL A   1      43.902  42.607  25.675  1.00  0.00     0.138 A 
ATOM     15  C   UNL A   1      42.611  42.935  23.198  1.00  0.00    -0.023 A 
ATOM     16  C   UNL A   1      42.291  41.847  24.014  1.00  0.00     0.012 A 
ATOM     17  C   UNL A   1      43.572  43.854  23.618  1.00  0.00     0.032 A 
ATOM     18  C   UNL A   1      42.923  41.697  25.245  1.00  0.00     0.048 A 
ATOM     19  C   UNL A   1      44.197  43.713  24.866  1.00  0.00     0.083 A 
ATOM     20  Cl  UNL A   1      45.239  45.013  25.322  1.00  0.00    -0.080 Cl
BRANCH  15  21
ATOM     21  C   UNL A   1      41.859  43.171  21.965  1.00  0.00     0.027 C 
ATOM     22  C   UNL A   1      45.882  44.227  20.001  1.00  0.00     0.156 C 
ATOM     23  N   UNL A   1      44.470  43.962  19.714  1.00  0.00    -0.288 N 
ATOM     24  C   UNL A   1      43.884  43.040  20.568  1.00  0.00     0.265 C 
ATOM     25  C   UNL A   1      43.786  44.598  18.661  1.00  0.00     0.185 C 
ATOM     26  O   UNL A   1      44.493  42.140  21.136  1.00  0.00    -0.268 OA
ATOM     27  C   UNL A   1      42.444  43.246  20.753  1.00  0.00     0.106 C 
ATOM     28  N   UNL A   1      42.377  44.469  18.685  1.00  0.00    -0.288 N 
ATOM     29  S   UNL A   1      44.610  45.447  17.446  1.00  0.00    -0.040 S 
ATOM     30  C   UNL A   1      41.647  43.746  19.633  1.00  0.00     0.265 C 
ATOM     31  C   UNL A   1      41.509  45.186  17.749  1.00  0.00     0.156 C 
ATOM     32  O   UNL A   1      40.428  43.591  19.593  1.00  0.00    -0.268 OA
ENDBRANCH  15  21
ENDBRANCH  13  14
ENDBRANCH  12  13
ENDBRANCH   7  12
ENDBRANCH   4   6
ENDBRANCH   3   4
ENDBRANCH   2   3
ENDBRANCH   1   2
BRANCH   1  33
ATOM     33  O   UNL A   1      48.328  40.137  32.833  1.00  0.00    -0.374 OA
BRANCH  33  34
ATOM     34  C   UNL A   1      48.273  38.728  32.622  1.00  0.00     0.202 C 
BRANCH  34  35
ATOM     35  C   UNL A   1      46.902  38.078  32.397  1.00  0.00     0.261 C 
BRANCH  35  36
ATOM     36  O   UNL A   1      46.972  36.865  31.631  1.00  0.00    -0.460 OA
BRANCH  36  37
ATOM     37  C   UNL A   1      46.169  36.858  30.538  1.00  0.00     0.338 C 
ATOM     38  O   UNL A   1      45.833  37.823  29.870  1.00  0.00    -0.246 OA
BRANCH  37  39
ATOM     39  C   UNL A   1      45.884  35.471  30.125  1.00  0.00     0.060 A 
ATOM     40  C   UNL A   1      45.001  35.296  29.054  1.00  0.00     0.016 A 
ATOM     41  C   UNL A   1      46.404  34.368  30.806  1.00  0.00     0.016 A 
ATOM     42  C   UNL A   1      44.593  34.016  28.692  1.00  0.00     0.010 A 
ATOM     43  C   UNL A   1      45.990  33.081  30.441  1.00  0.00     0.010 A 
ATOM     44  C   UNL A   1      45.056  32.900  29.404  1.00  0.00    -0.014 A 
BRANCH  44  45
ATOM     45  C   UNL A   1      44.465  31.569  29.109  1.00  0.00     0.031 A 
ATOM     46  C   UNL A   1      43.103  31.224  29.648  1.00  0.00     0.074 A 
ATOM     47  C   UNL A   1      45.113  30.709  28.302  1.00  0.00     0.049 A 
ATOM     48  N   UNL A   1      42.386  30.146  29.461  1.00  0.00    -0.248 NA
ATOM     49  C   UNL A   1      42.467  32.228  30.513  1.00  0.00     0.031 C 
ATOM     50  C   UNL A   1      46.424  30.948  27.698  1.00  0.00     0.029 A 
ATOM     51  N   UNL A   1      44.752  29.468  27.840  1.00  0.00    -0.354 N 
ATOM     52  C   UNL A   1      41.212  30.340  30.183  1.00  0.00     0.074 A 
ATOM     53  C   UNL A   1      41.340  31.619  30.849  1.00  0.00     0.031 C 
ATOM     54  C   UNL A   1      46.750  29.894  26.931  1.00  0.00     0.029 A 
ATOM     55  C   UNL A   1      45.693  28.889  27.021  1.00  0.00     0.049 A 
ATOM     56  H   UNL A   1      43.900  29.034  28.072  1.00  0.00     0.167 HD
ATOM     57  C   UNL A   1      40.125  29.532  30.269  1.00  0.00     0.034 A 
ATOM     58  C   UNL A   1      45.708  27.680  26.424  1.00  0.00     0.034 A 
ATOM     59  C   UNL A   1      40.021  28.253  29.605  1.00  0.00     0.049 A 
ATOM     60  C   UNL A   1      44.518  26.768  26.598  1.00  0.00     0.074 A 
ATOM     61  C   UNL A   1      38.958  27.365  29.607  1.00  0.00     0.029 A 
ATOM     62  N   UNL A   1      41.021  27.667  28.838  1.00  0.00    -0.354 N 
ATOM     63  N   UNL A   1      43.404  26.975  27.261  1.00  0.00    -0.248 NA
ATOM     64  C   UNL A   1      44.588  25.463  25.929  1.00  0.00     0.031 C 
ATOM     65  C   UNL A   1      39.346  26.212  28.916  1.00  0.00     0.029 A 
ATOM     66  C   UNL A   1      40.616  26.413  28.399  1.00  0.00     0.049 A 
ATOM     67  H   UNL A   1      41.890  28.081  28.634  1.00  0.00     0.167 HD
ATOM     68  C   UNL A   1      42.629  25.834  27.066  1.00  0.00     0.074 A 
ATOM     69  C   UNL A   1      43.393  24.960  26.199  1.00  0.00     0.031 C 
ATOM     70  C   UNL A   1      41.398  25.534  27.559  1.00  0.00     0.034 A 
BRANCH  57  71
ATOM     71  C   UNL A   1      38.987  29.988  31.154  1.00  0.00     0.023 A 
ATOM     72  C   UNL A   1      37.890  30.707  30.646  1.00  0.00     0.031 A 
ATOM     73  C   UNL A   1      39.009  29.716  32.535  1.00  0.00     0.131 A 
ATOM     74  C   UNL A   1      36.902  31.189  31.520  1.00  0.00     0.055 A 
ATOM     75  C   UNL A   1      37.981  30.125  33.384  1.00  0.00     0.041 A 
ATOM     76  F   UNL A   1      40.041  29.055  33.083  1.00  0.00    -0.206 F 
ATOM     77  C   UNL A   1      36.926  30.880  32.882  1.00  0.00     0.022 A 
BRANCH  74  78
ATOM     78  S   UNL A   1      35.669  32.355  30.878  1.00  0.00     0.124 S 
ATOM     79  O   UNL A   1      35.470  31.856  29.520  1.00  0.00    -0.237 OA
ATOM     80  O   UNL A   1      34.552  32.171  31.798  1.00  0.00    -0.237 OA
ATOM     81  O   UNL A   1      36.343  33.649  30.966  1.00  0.00    -0.744 OA
ENDBRANCH  74  78
ENDBRANCH  57  71
BRANCH  58  82
ATOM     82  C   UNL A   1      46.896  27.243  25.634  1.00  0.00     0.023 A 
ATOM     83  C   UNL A   1      47.106  27.692  24.321  1.00  0.00     0.031 A 
ATOM     84  C   UNL A   1      47.815  26.322  26.169  1.00  0.00     0.131 A 
ATOM     85  C   UNL A   1      48.179  27.184  23.571  1.00  0.00     0.055 A 
ATOM     86  C   UNL A   1      48.915  25.866  25.441  1.00  0.00     0.041 A 
ATOM     87  F   UNL A   1      47.660  25.857  27.419  1.00  0.00    -0.206 F 
ATOM     88  C   UNL A   1      49.093  26.288  24.128  1.00  0.00     0.022 A 
BRANCH  85  89
ATOM     89  S   UNL A   1      48.308  27.641  21.820  1.00  0.00     0.124 S 
ATOM     90  O   UNL A   1      47.042  28.331  21.599  1.00  0.00    -0.237 OA
ATOM     91  O   UNL A   1      49.504  28.476  21.813  1.00  0.00    -0.237 OA
ATOM     92  O   UNL A   1      48.445  26.353  21.142  1.00  0.00    -0.744 OA
ENDBRANCH  85  89
ENDBRANCH  58  82
BRANCH  70  93
ATOM     93  C   UNL A   1      40.801  24.208  27.142  1.00  0.00     0.023 A 
ATOM     94  C   UNL A   1      41.540  23.013  27.204  1.00  0.00     0.031 A 
ATOM     95  C   UNL A   1      39.492  24.144  26.631  1.00  0.00     0.131 A 
ATOM     96  C   UNL A   1      41.000  21.827  26.683  1.00  0.00     0.055 A 
ATOM     97  C   UNL A   1      38.930  22.945  26.190  1.00  0.00     0.041 A 
ATOM     98  F   UNL A   1      38.736  25.251  26.541  1.00  0.00    -0.206 F 
ATOM     99  C   UNL A   1      39.692  21.781  26.195  1.00  0.00     0.022 A 
BRANCH  96 100
ATOM    100  S   UNL A   1      42.081  20.379  26.521  1.00  0.00     0.124 S 
ATOM    101  O   UNL A   1      43.347  20.990  26.132  1.00  0.00    -0.237 OA
ATOM    102  O   UNL A   1      42.037  19.805  27.863  1.00  0.00    -0.237 OA
ATOM    103  O   UNL A   1      41.432  19.580  25.484  1.00  0.00    -0.744 OA
ENDBRANCH  96 100
ENDBRANCH  70  93
ENDBRANCH  44  45
ENDBRANCH  37  39
ENDBRANCH  36  37
ENDBRANCH  35  36
ENDBRANCH  34  35
ENDBRANCH  33  34
ENDBRANCH   1  33
TORSDOF 21
ENDMDL
