MODEL 1
REMARK VINA RESULT:     -12.1      0.000      0.000
REMARK SMILES CC(C)CCn1nc(C(=O)OCCOCCOC(=O)c2ccc(-c3c4nc(c(-c5cc(S(=O)(=O)[O-])ccc5F)c5ccc([nH]5)c(-c5cc(S(=O)(=O)[O-])ccc5F)c5nc(c(-c6cc(S(=O)(=O)[O-])ccc6F)c6ccc3[nH]6)C=C5)C=C4)cc2)c2c1CCN(C(=O)[C@@H]1CCc3nn(C)c(=O)n3C1)C2
REMARK SMILES IDX 14 1 13 2 12 3 11 4 9 5 10 6 8 7 6 8 7 9 84 10 83 11 85 12
REMARK SMILES IDX 101 13 86 14 87 15 5 16 4 17 2 18 1 19 3 20 88 21 89 22
REMARK SMILES IDX 90 23 91 24 100 25 92 26 99 27 93 28 97 29 94 30 95 31 98 32
REMARK SMILES IDX 96 33 15 34 16 35 17 36 18 37 19 38 20 39 21 40 82 41 22 42
REMARK SMILES IDX 81 43 23 44 24 45 25 46 75 47 26 48 80 49 74 50 76 51 27 52
REMARK SMILES IDX 79 53 73 54 72 55 28 57 60 58 40 59 59 60 41 61 44 62 58 63
REMARK SMILES IDX 77 64 42 65 43 66 57 68 78 69 45 70 29 71 30 72 38 73 31 74
REMARK SMILES IDX 37 75 39 76 36 77 32 78 33 79 34 80 35 81 61 82 62 83 70 84
REMARK SMILES IDX 63 85 69 86 71 87 68 88 64 89 65 90 66 91 67 92 46 93 47 94
REMARK SMILES IDX 55 95 48 96 54 97 56 98 53 99 49 100 50 101 51 102 52 103
REMARK H PARENT 76 56 44 67
REMARK Flexibility Score: inf
ROOT
ATOM      1  O   UNL A   1      35.152  31.784  27.569  1.00  0.00    -0.374 OA
ENDROOT
BRANCH   1   2
ATOM      2  C   UNL A   1      35.560  30.416  27.593  1.00  0.00     0.202 C 
BRANCH   2   3
ATOM      3  C   UNL A   1      34.450  29.381  27.425  1.00  0.00     0.261 C 
BRANCH   3   4
ATOM      4  O   UNL A   1      33.716  29.628  26.219  1.00  0.00    -0.458 OA
BRANCH   4   5
ATOM      5  C   UNL A   1      32.358  29.734  26.364  1.00  0.00     0.359 C 
ATOM      6  O   UNL A   1      31.807  30.418  27.204  1.00  0.00    -0.244 OA
BRANCH   5   7
ATOM      7  C   UNL A   1      31.658  28.958  25.326  1.00  0.00     0.175 A 
ATOM      8  N   UNL A   1      30.323  28.542  23.713  1.00  0.00    -0.268 N 
ATOM      9  N   UNL A   1      30.849  29.556  24.422  1.00  0.00    -0.165 NA
ATOM     10  C   UNL A   1      30.617  27.340  24.273  1.00  0.00     0.046 A 
ATOM     11  C   UNL A   1      31.693  27.554  25.107  1.00  0.00     0.028 A 
ATOM     12  C   UNL A   1      29.951  26.034  24.093  1.00  0.00     0.078 C 
ATOM     13  C   UNL A   1      32.498  26.456  25.731  1.00  0.00     0.159 C 
ATOM     14  C   UNL A   1      30.544  25.071  25.144  1.00  0.00     0.126 C 
ATOM     15  N   UNL A   1      32.006  25.149  25.224  1.00  0.00    -0.338 N 
BRANCH   8  16
ATOM     16  C   UNL A   1      29.574  28.823  22.502  1.00  0.00     0.145 C 
BRANCH  16  17
ATOM     17  C   UNL A   1      28.075  29.048  22.705  1.00  0.00     0.027 C 
BRANCH  17  18
ATOM     18  C   UNL A   1      27.612  30.478  22.373  1.00  0.00    -0.016 C 
ATOM     19  C   UNL A   1      27.665  31.380  23.605  1.00  0.00     0.007 C 
ATOM     20  C   UNL A   1      28.458  31.056  21.241  1.00  0.00     0.007 C 
ENDBRANCH  17  18
ENDBRANCH  16  17
ENDBRANCH   8  16
BRANCH  15  21
ATOM     21  C   UNL A   1      32.928  24.128  25.098  1.00  0.00     0.227 C 
ATOM     22  O   UNL A   1      33.322  23.821  23.963  1.00  0.00    -0.274 OA
BRANCH  21  23
ATOM     23  C   UNL A   1      33.484  23.281  26.268  1.00  0.00     0.099 C 
ATOM     24  C   UNL A   1      35.006  23.275  26.454  1.00  0.00     0.023 C 
ATOM     25  C   UNL A   1      32.875  21.905  26.491  1.00  0.00     0.142 C 
ATOM     26  C   UNL A   1      35.755  22.155  25.745  1.00  0.00     0.078 C 
ATOM     27  N   UNL A   1      33.658  20.850  25.897  1.00  0.00    -0.278 N 
ATOM     28  C   UNL A   1      34.943  20.918  25.502  1.00  0.00     0.133 A 
ATOM     29  C   UNL A   1      33.166  19.662  25.422  1.00  0.00     0.345 A 
ATOM     30  N   UNL A   1      35.348  19.902  24.793  1.00  0.00    -0.155 NA
ATOM     31  N   UNL A   1      34.231  19.093  24.720  1.00  0.00    -0.216 N 
ATOM     32  O   UNL A   1      32.025  19.241  25.513  1.00  0.00    -0.246 OA
ATOM     33  C   UNL A   1      34.153  17.933  23.877  1.00  0.00     0.179 C 
ENDBRANCH  21  23
ENDBRANCH  15  21
ENDBRANCH   5   7
ENDBRANCH   4   5
ENDBRANCH   3   4
ENDBRANCH   2   3
ENDBRANCH   1   2
BRANCH   1  34
ATOM     34  C   UNL A   1      34.278  32.272  28.584  1.00  0.00     0.202 C 
BRANCH  34  35
ATOM     35  C   UNL A   1      34.902  32.874  29.833  1.00  0.00     0.261 C 
BRANCH  35  36
ATOM     36  O   UNL A   1      35.534  31.884  30.630  1.00  0.00    -0.460 OA
BRANCH  36  37
ATOM     37  C   UNL A   1      36.749  32.249  31.102  1.00  0.00     0.338 C 
ATOM     38  O   UNL A   1      37.004  33.206  31.812  1.00  0.00    -0.246 OA
BRANCH  37  39
ATOM     39  C   UNL A   1      37.755  31.374  30.495  1.00  0.00     0.060 A 
ATOM     40  C   UNL A   1      37.486  30.005  30.536  1.00  0.00     0.016 A 
ATOM     41  C   UNL A   1      39.030  31.877  30.198  1.00  0.00     0.016 A 
ATOM     42  C   UNL A   1      38.553  29.140  30.527  1.00  0.00     0.010 A 
ATOM     43  C   UNL A   1      40.094  31.014  30.207  1.00  0.00     0.010 A 
ATOM     44  C   UNL A   1      39.846  29.671  30.469  1.00  0.00    -0.014 A 
BRANCH  44  45
ATOM     45  C   UNL A   1      40.966  28.762  30.560  1.00  0.00     0.031 A 
ATOM     46  C   UNL A   1      41.393  28.577  31.960  1.00  0.00     0.074 A 
ATOM     47  C   UNL A   1      41.458  28.105  29.493  1.00  0.00     0.049 A 
ATOM     48  N   UNL A   1      42.441  29.072  32.529  1.00  0.00    -0.248 NA
ATOM     49  C   UNL A   1      40.423  27.989  32.900  1.00  0.00     0.031 C 
ATOM     50  C   UNL A   1      40.930  28.063  28.127  1.00  0.00     0.029 A 
ATOM     51  N   UNL A   1      42.516  27.257  29.431  1.00  0.00    -0.354 N 
ATOM     52  C   UNL A   1      42.393  28.609  33.836  1.00  0.00     0.074 A 
ATOM     53  C   UNL A   1      41.036  28.201  34.064  1.00  0.00     0.031 C 
ATOM     54  C   UNL A   1      41.538  27.065  27.440  1.00  0.00     0.029 A 
ATOM     55  C   UNL A   1      42.587  26.493  28.268  1.00  0.00     0.049 A 
ATOM     56  H   UNL A   1      43.183  27.188  30.152  1.00  0.00     0.167 HD
ATOM     57  C   UNL A   1      43.539  28.293  34.494  1.00  0.00     0.034 A 
ATOM     58  C   UNL A   1      43.417  25.436  28.034  1.00  0.00     0.034 A 
ATOM     59  C   UNL A   1      44.683  28.917  33.861  1.00  0.00     0.049 A 
ATOM     60  C   UNL A   1      44.550  25.577  28.987  1.00  0.00     0.074 A 
ATOM     61  C   UNL A   1      45.050  30.222  33.593  1.00  0.00     0.029 A 
ATOM     62  N   UNL A   1      45.455  28.136  33.028  1.00  0.00    -0.354 N 
ATOM     63  N   UNL A   1      45.400  26.566  28.933  1.00  0.00    -0.248 NA
ATOM     64  C   UNL A   1      44.437  24.935  30.290  1.00  0.00     0.031 C 
ATOM     65  C   UNL A   1      45.658  30.179  32.303  1.00  0.00     0.029 A 
ATOM     66  C   UNL A   1      45.706  28.849  31.881  1.00  0.00     0.049 A 
ATOM     67  H   UNL A   1      45.772  27.224  33.222  1.00  0.00     0.167 HD
ATOM     68  C   UNL A   1      45.590  26.955  30.251  1.00  0.00     0.074 A 
ATOM     69  C   UNL A   1      45.051  25.851  31.048  1.00  0.00     0.031 C 
ATOM     70  C   UNL A   1      45.891  28.250  30.569  1.00  0.00     0.034 A 
BRANCH  57  71
ATOM     71  C   UNL A   1      43.671  27.096  35.410  1.00  0.00     0.023 A 
ATOM     72  C   UNL A   1      44.023  27.359  36.746  1.00  0.00     0.031 A 
ATOM     73  C   UNL A   1      43.768  25.742  35.006  1.00  0.00     0.131 A 
ATOM     74  C   UNL A   1      44.545  26.345  37.566  1.00  0.00     0.055 A 
ATOM     75  C   UNL A   1      44.225  24.725  35.847  1.00  0.00     0.041 A 
ATOM     76  F   UNL A   1      43.522  25.326  33.760  1.00  0.00    -0.206 F 
ATOM     77  C   UNL A   1      44.651  25.029  37.125  1.00  0.00     0.022 A 
BRANCH  74  78
ATOM     78  S   UNL A   1      45.259  26.818  39.158  1.00  0.00     0.124 S 
ATOM     79  O   UNL A   1      44.174  26.487  40.075  1.00  0.00    -0.237 OA
ATOM     80  O   UNL A   1      46.441  25.964  39.220  1.00  0.00    -0.237 OA
ATOM     81  O   UNL A   1      45.528  28.245  38.995  1.00  0.00    -0.744 OA
ENDBRANCH  74  78
ENDBRANCH  57  71
BRANCH  58  82
ATOM     82  C   UNL A   1      43.059  24.156  27.351  1.00  0.00     0.023 A 
ATOM     83  C   UNL A   1      43.886  23.503  26.406  1.00  0.00     0.031 A 
ATOM     84  C   UNL A   1      41.944  23.423  27.821  1.00  0.00     0.131 A 
ATOM     85  C   UNL A   1      43.574  22.188  25.971  1.00  0.00     0.055 A 
ATOM     86  C   UNL A   1      41.644  22.129  27.390  1.00  0.00     0.041 A 
ATOM     87  F   UNL A   1      41.151  23.913  28.787  1.00  0.00    -0.206 F 
ATOM     88  C   UNL A   1      42.461  21.503  26.466  1.00  0.00     0.022 A 
BRANCH  85  89
ATOM     89  S   UNL A   1      44.645  21.307  24.780  1.00  0.00     0.124 S 
ATOM     90  O   UNL A   1      44.051  19.976  24.747  1.00  0.00    -0.237 OA
ATOM     91  O   UNL A   1      44.498  22.114  23.573  1.00  0.00    -0.237 OA
ATOM     92  O   UNL A   1      45.970  21.370  25.399  1.00  0.00    -0.744 OA
ENDBRANCH  85  89
ENDBRANCH  58  82
BRANCH  70  93
ATOM     93  C   UNL A   1      46.277  29.185  29.435  1.00  0.00     0.023 A 
ATOM     94  C   UNL A   1      45.366  29.938  28.655  1.00  0.00     0.031 A 
ATOM     95  C   UNL A   1      47.649  29.400  29.222  1.00  0.00     0.131 A 
ATOM     96  C   UNL A   1      45.848  30.856  27.697  1.00  0.00     0.055 A 
ATOM     97  C   UNL A   1      48.120  30.325  28.290  1.00  0.00     0.041 A 
ATOM     98  F   UNL A   1      48.562  28.736  29.948  1.00  0.00    -0.206 F 
ATOM     99  C   UNL A   1      47.221  31.054  27.521  1.00  0.00     0.022 A 
BRANCH  96 100
ATOM    100  S   UNL A   1      44.694  31.809  26.652  1.00  0.00     0.124 S 
ATOM    101  O   UNL A   1      44.321  32.935  27.499  1.00  0.00    -0.237 OA
ATOM    102  O   UNL A   1      45.511  32.129  25.485  1.00  0.00    -0.237 OA
ATOM    103  O   UNL A   1      43.610  30.861  26.389  1.00  0.00    -0.744 OA
ENDBRANCH  96 100
ENDBRANCH  70  93
ENDBRANCH  44  45
ENDBRANCH  37  39
ENDBRANCH  36  37
ENDBRANCH  35  36
ENDBRANCH  34  35
ENDBRANCH   1  34
TORSDOF 22
ENDMDL
MODEL 2
REMARK VINA RESULT:     -11.7      1.862      2.320
REMARK SMILES CC(C)CCn1nc(C(=O)OCCOCCOC(=O)c2ccc(-c3c4nc(c(-c5cc(S(=O)(=O)[O-])ccc5F)c5ccc([nH]5)c(-c5cc(S(=O)(=O)[O-])ccc5F)c5nc(c(-c6cc(S(=O)(=O)[O-])ccc6F)c6ccc3[nH]6)C=C5)C=C4)cc2)c2c1CCN(C(=O)[C@@H]1CCc3nn(C)c(=O)n3C1)C2
REMARK SMILES IDX 14 1 13 2 12 3 11 4 9 5 10 6 8 7 6 8 7 9 84 10 83 11 85 12
REMARK SMILES IDX 101 13 86 14 87 15 5 16 4 17 2 18 1 19 3 20 88 21 89 22
REMARK SMILES IDX 90 23 91 24 100 25 92 26 99 27 93 28 97 29 94 30 95 31 98 32
REMARK SMILES IDX 96 33 15 34 16 35 17 36 18 37 19 38 20 39 21 40 82 41 22 42
REMARK SMILES IDX 81 43 23 44 24 45 25 46 75 47 26 48 80 49 74 50 76 51 27 52
REMARK SMILES IDX 79 53 73 54 72 55 28 57 60 58 40 59 59 60 41 61 44 62 58 63
REMARK SMILES IDX 77 64 42 65 43 66 57 68 78 69 45 70 29 71 30 72 38 73 31 74
REMARK SMILES IDX 37 75 39 76 36 77 32 78 33 79 34 80 35 81 61 82 62 83 70 84
REMARK SMILES IDX 63 85 69 86 71 87 68 88 64 89 65 90 66 91 67 92 46 93 47 94
REMARK SMILES IDX 55 95 48 96 54 97 56 98 53 99 49 100 50 101 51 102 52 103
REMARK H PARENT 76 56 44 67
REMARK Flexibility Score: inf
ROOT
ATOM      1  O   UNL A   1      33.389  33.343  28.765  1.00  0.00    -0.374 OA
ENDROOT
BRANCH   1   2
ATOM      2  C   UNL A   1      33.366  32.660  27.512  1.00  0.00     0.202 C 
BRANCH   2   3
ATOM      3  C   UNL A   1      33.628  31.157  27.561  1.00  0.00     0.261 C 
BRANCH   3   4
ATOM      4  O   UNL A   1      32.872  30.484  26.546  1.00  0.00    -0.458 OA
BRANCH   4   5
ATOM      5  C   UNL A   1      33.164  29.158  26.372  1.00  0.00     0.359 C 
ATOM      6  O   UNL A   1      34.056  28.567  26.949  1.00  0.00    -0.244 OA
BRANCH   5   7
ATOM      7  C   UNL A   1      32.211  28.529  25.440  1.00  0.00     0.175 A 
ATOM      8  N   UNL A   1      30.843  28.352  23.811  1.00  0.00    -0.268 N 
ATOM      9  N   UNL A   1      31.742  29.190  24.357  1.00  0.00    -0.165 NA
ATOM     10  C   UNL A   1      30.594  27.293  24.624  1.00  0.00     0.046 A 
ATOM     11  C   UNL A   1      31.650  27.225  25.506  1.00  0.00     0.028 A 
ATOM     12  C   UNL A   1      29.440  26.372  24.637  1.00  0.00     0.078 C 
ATOM     13  C   UNL A   1      31.908  26.062  26.414  1.00  0.00     0.159 C 
ATOM     14  C   UNL A   1      29.557  25.510  25.912  1.00  0.00     0.126 C 
ATOM     15  N   UNL A   1      30.913  24.996  26.126  1.00  0.00    -0.338 N 
BRANCH   8  16
ATOM     16  C   UNL A   1      30.297  28.639  22.497  1.00  0.00     0.145 C 
BRANCH  16  17
ATOM     17  C   UNL A   1      29.826  30.080  22.293  1.00  0.00     0.027 C 
BRANCH  17  18
ATOM     18  C   UNL A   1      28.305  30.260  22.433  1.00  0.00    -0.016 C 
ATOM     19  C   UNL A   1      27.616  28.937  22.760  1.00  0.00     0.007 C 
ATOM     20  C   UNL A   1      27.994  31.311  23.497  1.00  0.00     0.007 C 
ENDBRANCH  17  18
ENDBRANCH  16  17
ENDBRANCH   8  16
BRANCH  15  21
ATOM     21  C   UNL A   1      31.318  23.686  26.300  1.00  0.00     0.227 C 
ATOM     22  O   UNL A   1      31.684  23.322  27.428  1.00  0.00    -0.274 OA
BRANCH  21  23
ATOM     23  C   UNL A   1      31.408  22.626  25.177  1.00  0.00     0.099 C 
ATOM     24  C   UNL A   1      31.764  21.196  25.603  1.00  0.00     0.023 C 
ATOM     25  C   UNL A   1      32.103  23.027  23.884  1.00  0.00     0.142 C 
ATOM     26  C   UNL A   1      33.246  20.847  25.574  1.00  0.00     0.078 C 
ATOM     27  N   UNL A   1      33.478  22.596  23.838  1.00  0.00    -0.278 N 
ATOM     28  C   UNL A   1      34.058  21.651  24.602  1.00  0.00     0.133 A 
ATOM     29  C   UNL A   1      34.490  23.229  23.164  1.00  0.00     0.345 A 
ATOM     30  N   UNL A   1      35.358  21.608  24.519  1.00  0.00    -0.155 NA
ATOM     31  N   UNL A   1      35.658  22.610  23.617  1.00  0.00    -0.216 N 
ATOM     32  O   UNL A   1      34.397  24.182  22.409  1.00  0.00    -0.246 OA
ATOM     33  C   UNL A   1      36.997  23.052  23.349  1.00  0.00     0.179 C 
ENDBRANCH  21  23
ENDBRANCH  15  21
ENDBRANCH   5   7
ENDBRANCH   4   5
ENDBRANCH   3   4
ENDBRANCH   2   3
ENDBRANCH   1   2
BRANCH   1  34
ATOM     34  C   UNL A   1      34.379  34.342  28.999  1.00  0.00     0.202 C 
BRANCH  34  35
ATOM     35  C   UNL A   1      35.835  33.974  28.757  1.00  0.00     0.261 C 
BRANCH  35  36
ATOM     36  O   UNL A   1      36.456  33.496  29.940  1.00  0.00    -0.460 OA
BRANCH  36  37
ATOM     37  C   UNL A   1      36.317  32.164  30.137  1.00  0.00     0.338 C 
ATOM     38  O   UNL A   1      35.407  31.598  30.717  1.00  0.00    -0.246 OA
BRANCH  37  39
ATOM     39  C   UNL A   1      37.532  31.503  29.654  1.00  0.00     0.060 A 
ATOM     40  C   UNL A   1      37.385  30.188  29.214  1.00  0.00     0.016 A 
ATOM     41  C   UNL A   1      38.788  32.064  29.932  1.00  0.00     0.016 A 
ATOM     42  C   UNL A   1      38.477  29.357  29.294  1.00  0.00     0.010 A 
ATOM     43  C   UNL A   1      39.871  31.229  30.028  1.00  0.00     0.010 A 
ATOM     44  C   UNL A   1      39.674  29.872  29.802  1.00  0.00    -0.014 A 
BRANCH  44  45
ATOM     45  C   UNL A   1      40.789  28.969  29.977  1.00  0.00     0.031 A 
ATOM     46  C   UNL A   1      41.039  28.696  31.405  1.00  0.00     0.074 A 
ATOM     47  C   UNL A   1      41.425  28.390  28.941  1.00  0.00     0.049 A 
ATOM     48  N   UNL A   1      41.996  29.161  32.133  1.00  0.00    -0.248 NA
ATOM     49  C   UNL A   1      39.967  28.038  32.173  1.00  0.00     0.031 C 
ATOM     50  C   UNL A   1      41.076  28.433  27.518  1.00  0.00     0.029 A 
ATOM     51  N   UNL A   1      42.497  27.557  28.960  1.00  0.00    -0.354 N 
ATOM     52  C   UNL A   1      41.791  28.613  33.391  1.00  0.00     0.074 A 
ATOM     53  C   UNL A   1      40.423  28.177  33.417  1.00  0.00     0.031 C 
ATOM     54  C   UNL A   1      41.784  27.489  26.852  1.00  0.00     0.029 A 
ATOM     55  C   UNL A   1      42.729  26.873  27.769  1.00  0.00     0.049 A 
ATOM     56  H   UNL A   1      43.068  27.446  29.755  1.00  0.00     0.167 HD
ATOM     57  C   UNL A   1      42.850  28.265  34.169  1.00  0.00     0.034 A 
ATOM     58  C   UNL A   1      43.600  25.841  27.576  1.00  0.00     0.034 A 
ATOM     59  C   UNL A   1      44.053  28.940  33.729  1.00  0.00     0.049 A 
ATOM     60  C   UNL A   1      44.600  25.929  28.672  1.00  0.00     0.074 A 
ATOM     61  C   UNL A   1      44.428  30.263  33.596  1.00  0.00     0.029 A 
ATOM     62  N   UNL A   1      44.938  28.222  32.953  1.00  0.00    -0.354 N 
ATOM     63  N   UNL A   1      45.433  26.927  28.792  1.00  0.00    -0.248 NA
ATOM     64  C   UNL A   1      44.334  25.202  29.906  1.00  0.00     0.031 C 
ATOM     65  C   UNL A   1      45.196  30.312  32.394  1.00  0.00     0.029 A 
ATOM     66  C   UNL A   1      45.321  29.013  31.896  1.00  0.00     0.049 A 
ATOM     67  H   UNL A   1      45.244  27.303  33.127  1.00  0.00     0.167 HD
ATOM     68  C   UNL A   1      45.446  27.230  30.146  1.00  0.00     0.074 A 
ATOM     69  C   UNL A   1      44.830  26.071  30.795  1.00  0.00     0.031 C 
ATOM     70  C   UNL A   1      45.682  28.504  30.582  1.00  0.00     0.034 A 
BRANCH  57  71
ATOM     71  C   UNL A   1      42.885  27.011  35.015  1.00  0.00     0.023 A 
ATOM     72  C   UNL A   1      43.661  25.943  34.531  1.00  0.00     0.031 A 
ATOM     73  C   UNL A   1      41.998  26.693  36.073  1.00  0.00     0.131 A 
ATOM     74  C   UNL A   1      43.464  24.636  35.004  1.00  0.00     0.055 A 
ATOM     75  C   UNL A   1      41.854  25.402  36.586  1.00  0.00     0.041 A 
ATOM     76  F   UNL A   1      41.151  27.573  36.615  1.00  0.00    -0.206 F 
ATOM     77  C   UNL A   1      42.564  24.356  36.028  1.00  0.00     0.022 A 
BRANCH  74  78
ATOM     78  S   UNL A   1      44.272  23.279  34.125  1.00  0.00     0.124 S 
ATOM     79  O   UNL A   1      45.575  23.860  33.823  1.00  0.00    -0.237 OA
ATOM     80  O   UNL A   1      44.254  22.220  35.129  1.00  0.00    -0.237 OA
ATOM     81  O   UNL A   1      43.402  23.060  32.972  1.00  0.00    -0.744 OA
ENDBRANCH  74  78
ENDBRANCH  57  71
BRANCH  58  82
ATOM     82  C   UNL A   1      43.355  24.606  26.770  1.00  0.00     0.023 A 
ATOM     83  C   UNL A   1      44.328  23.987  25.951  1.00  0.00     0.031 A 
ATOM     84  C   UNL A   1      42.167  23.872  26.997  1.00  0.00     0.131 A 
ATOM     85  C   UNL A   1      44.084  22.703  25.396  1.00  0.00     0.055 A 
ATOM     86  C   UNL A   1      41.934  22.608  26.450  1.00  0.00     0.041 A 
ATOM     87  F   UNL A   1      41.221  24.326  27.835  1.00  0.00    -0.206 F 
ATOM     88  C   UNL A   1      42.895  22.015  25.650  1.00  0.00     0.022 A 
BRANCH  85  89
ATOM     89  S   UNL A   1      45.339  21.864  24.364  1.00  0.00     0.124 S 
ATOM     90  O   UNL A   1      46.218  21.266  25.361  1.00  0.00    -0.237 OA
ATOM     91  O   UNL A   1      44.527  20.943  23.575  1.00  0.00    -0.237 OA
ATOM     92  O   UNL A   1      45.939  22.958  23.598  1.00  0.00    -0.744 OA
ENDBRANCH  85  89
ENDBRANCH  58  82
BRANCH  70  93
ATOM     93  C   UNL A   1      46.192  29.515  29.570  1.00  0.00     0.023 A 
ATOM     94  C   UNL A   1      45.378  30.400  28.821  1.00  0.00     0.031 A 
ATOM     95  C   UNL A   1      47.585  29.658  29.454  1.00  0.00     0.131 A 
ATOM     96  C   UNL A   1      45.972  31.371  27.987  1.00  0.00     0.055 A 
ATOM     97  C   UNL A   1      48.167  30.634  28.646  1.00  0.00     0.041 A 
ATOM     98  F   UNL A   1      48.410  28.867  30.158  1.00  0.00    -0.206 F 
ATOM     99  C   UNL A   1      47.363  31.492  27.906  1.00  0.00     0.022 A 
BRANCH  96 100
ATOM    100  S   UNL A   1      44.944  32.495  26.982  1.00  0.00     0.124 S 
ATOM    101  O   UNL A   1      45.558  33.799  27.198  1.00  0.00    -0.237 OA
ATOM    102  O   UNL A   1      45.082  31.938  25.639  1.00  0.00    -0.237 OA
ATOM    103  O   UNL A   1      43.608  32.348  27.563  1.00  0.00    -0.744 OA
ENDBRANCH  96 100
ENDBRANCH  70  93
ENDBRANCH  44  45
ENDBRANCH  37  39
ENDBRANCH  36  37
ENDBRANCH  35  36
ENDBRANCH  34  35
ENDBRANCH   1  34
TORSDOF 22
ENDMDL
MODEL 3
REMARK VINA RESULT:     -11.5      2.203      7.166
REMARK SMILES CC(C)CCn1nc(C(=O)OCCOCCOC(=O)c2ccc(-c3c4nc(c(-c5cc(S(=O)(=O)[O-])ccc5F)c5ccc([nH]5)c(-c5cc(S(=O)(=O)[O-])ccc5F)c5nc(c(-c6cc(S(=O)(=O)[O-])ccc6F)c6ccc3[nH]6)C=C5)C=C4)cc2)c2c1CCN(C(=O)[C@@H]1CCc3nn(C)c(=O)n3C1)C2
REMARK SMILES IDX 14 1 13 2 12 3 11 4 9 5 10 6 8 7 6 8 7 9 84 10 83 11 85 12
REMARK SMILES IDX 101 13 86 14 87 15 5 16 4 17 2 18 1 19 3 20 88 21 89 22
REMARK SMILES IDX 90 23 91 24 100 25 92 26 99 27 93 28 97 29 94 30 95 31 98 32
REMARK SMILES IDX 96 33 15 34 16 35 17 36 18 37 19 38 20 39 21 40 82 41 22 42
REMARK SMILES IDX 81 43 23 44 24 45 25 46 75 47 26 48 80 49 74 50 76 51 27 52
REMARK SMILES IDX 79 53 73 54 72 55 28 57 60 58 40 59 59 60 41 61 44 62 58 63
REMARK SMILES IDX 77 64 42 65 43 66 57 68 78 69 45 70 29 71 30 72 38 73 31 74
REMARK SMILES IDX 37 75 39 76 36 77 32 78 33 79 34 80 35 81 61 82 62 83 70 84
REMARK SMILES IDX 63 85 69 86 71 87 68 88 64 89 65 90 66 91 67 92 46 93 47 94
REMARK SMILES IDX 55 95 48 96 54 97 56 98 53 99 49 100 50 101 51 102 52 103
REMARK H PARENT 76 56 44 67
REMARK Flexibility Score: inf
ROOT
ATOM      1  O   UNL A   1      34.340  32.368  27.385  1.00  0.00    -0.374 OA
ENDROOT
BRANCH   1   2
ATOM      2  C   UNL A   1      33.376  31.336  27.591  1.00  0.00     0.202 C 
BRANCH   2   3
ATOM      3  C   UNL A   1      33.621  30.029  26.839  1.00  0.00     0.261 C 
BRANCH   3   4
ATOM      4  O   UNL A   1      33.086  30.109  25.512  1.00  0.00    -0.458 OA
BRANCH   4   5
ATOM      5  C   UNL A   1      33.296  29.010  24.723  1.00  0.00     0.359 C 
ATOM      6  O   UNL A   1      34.353  28.416  24.635  1.00  0.00    -0.244 OA
BRANCH   5   7
ATOM      7  C   UNL A   1      32.053  28.607  24.043  1.00  0.00     0.175 A 
ATOM      8  N   UNL A   1      30.263  28.789  22.893  1.00  0.00    -0.268 N 
ATOM      9  N   UNL A   1      31.369  29.465  23.253  1.00  0.00    -0.165 NA
ATOM     10  C   UNL A   1      30.142  27.630  23.589  1.00  0.00     0.046 A 
ATOM     11  C   UNL A   1      31.392  27.348  24.095  1.00  0.00     0.028 A 
ATOM     12  C   UNL A   1      28.945  26.797  23.822  1.00  0.00     0.078 C 
ATOM     13  C   UNL A   1      31.768  26.038  24.715  1.00  0.00     0.159 C 
ATOM     14  C   UNL A   1      29.326  25.732  24.872  1.00  0.00     0.126 C 
ATOM     15  N   UNL A   1      30.620  25.101  24.596  1.00  0.00    -0.338 N 
BRANCH   8  16
ATOM     16  C   UNL A   1      29.399  29.324  21.856  1.00  0.00     0.145 C 
BRANCH  16  17
ATOM     17  C   UNL A   1      28.986  30.784  22.047  1.00  0.00     0.027 C 
BRANCH  17  18
ATOM     18  C   UNL A   1      28.698  31.160  23.511  1.00  0.00    -0.016 C 
ATOM     19  C   UNL A   1      29.384  32.469  23.895  1.00  0.00     0.007 C 
ATOM     20  C   UNL A   1      27.191  31.248  23.746  1.00  0.00     0.007 C 
ENDBRANCH  17  18
ENDBRANCH  16  17
ENDBRANCH   8  16
BRANCH  15  21
ATOM     21  C   UNL A   1      30.909  23.757  24.459  1.00  0.00     0.227 C 
ATOM     22  O   UNL A   1      31.055  23.295  23.317  1.00  0.00    -0.274 OA
BRANCH  21  23
ATOM     23  C   UNL A   1      31.015  22.745  25.624  1.00  0.00     0.099 C 
ATOM     24  C   UNL A   1      31.489  23.295  26.975  1.00  0.00     0.023 C 
ATOM     25  C   UNL A   1      31.613  21.380  25.320  1.00  0.00     0.142 C 
ATOM     26  C   UNL A   1      32.988  23.216  27.231  1.00  0.00     0.078 C 
ATOM     27  N   UNL A   1      33.010  21.299  25.666  1.00  0.00    -0.278 N 
ATOM     28  C   UNL A   1      33.692  22.122  26.486  1.00  0.00     0.133 A 
ATOM     29  C   UNL A   1      33.941  20.506  25.047  1.00  0.00     0.345 A 
ATOM     30  N   UNL A   1      34.986  21.968  26.456  1.00  0.00    -0.155 NA
ATOM     31  N   UNL A   1      35.170  20.952  25.540  1.00  0.00    -0.216 N 
ATOM     32  O   UNL A   1      33.745  19.664  24.187  1.00  0.00    -0.246 OA
ATOM     33  C   UNL A   1      36.460  20.563  25.045  1.00  0.00     0.179 C 
ENDBRANCH  21  23
ENDBRANCH  15  21
ENDBRANCH   5   7
ENDBRANCH   4   5
ENDBRANCH   3   4
ENDBRANCH   2   3
ENDBRANCH   1   2
BRANCH   1  34
ATOM     34  C   UNL A   1      35.610  32.277  28.026  1.00  0.00     0.202 C 
BRANCH  34  35
ATOM     35  C   UNL A   1      35.706  31.463  29.307  1.00  0.00     0.261 C 
BRANCH  35  36
ATOM     36  O   UNL A   1      36.039  30.110  29.041  1.00  0.00    -0.460 OA
BRANCH  36  37
ATOM     37  C   UNL A   1      36.727  29.505  30.038  1.00  0.00     0.338 C 
ATOM     38  O   UNL A   1      36.539  29.622  31.236  1.00  0.00    -0.246 OA
BRANCH  37  39
ATOM     39  C   UNL A   1      37.850  28.779  29.440  1.00  0.00     0.060 A 
ATOM     40  C   UNL A   1      38.420  27.773  30.222  1.00  0.00     0.016 A 
ATOM     41  C   UNL A   1      38.490  29.297  28.304  1.00  0.00     0.016 A 
ATOM     42  C   UNL A   1      39.742  27.464  30.008  1.00  0.00     0.010 A 
ATOM     43  C   UNL A   1      39.813  29.000  28.105  1.00  0.00     0.010 A 
ATOM     44  C   UNL A   1      40.442  28.163  29.020  1.00  0.00    -0.014 A 
BRANCH  44  45
ATOM     45  C   UNL A   1      41.856  27.904  28.868  1.00  0.00     0.031 A 
ATOM     46  C   UNL A   1      42.094  26.671  28.094  1.00  0.00     0.074 A 
ATOM     47  C   UNL A   1      42.802  28.760  29.299  1.00  0.00     0.049 A 
ATOM     48  N   UNL A   1      42.482  25.527  28.548  1.00  0.00    -0.248 NA
ATOM     49  C   UNL A   1      41.607  26.630  26.704  1.00  0.00     0.031 C 
ATOM     50  C   UNL A   1      42.629  30.103  29.858  1.00  0.00     0.029 A 
ATOM     51  N   UNL A   1      44.152  28.627  29.252  1.00  0.00    -0.354 N 
ATOM     52  C   UNL A   1      42.555  24.704  27.434  1.00  0.00     0.074 A 
ATOM     53  C   UNL A   1      41.764  25.339  26.417  1.00  0.00     0.031 C 
ATOM     54  C   UNL A   1      43.827  30.736  29.886  1.00  0.00     0.029 A 
ATOM     55  C   UNL A   1      44.865  29.802  29.481  1.00  0.00     0.049 A 
ATOM     56  H   UNL A   1      44.594  27.766  29.071  1.00  0.00     0.167 HD
ATOM     57  C   UNL A   1      43.525  23.756  27.344  1.00  0.00     0.034 A 
ATOM     58  C   UNL A   1      46.202  29.995  29.297  1.00  0.00     0.034 A 
ATOM     59  C   UNL A   1      44.075  23.459  28.650  1.00  0.00     0.049 A 
ATOM     60  C   UNL A   1      46.826  28.647  29.324  1.00  0.00     0.074 A 
ATOM     61  C   UNL A   1      43.550  22.985  29.837  1.00  0.00     0.029 A 
ATOM     62  N   UNL A   1      45.278  24.043  28.983  1.00  0.00    -0.354 N 
ATOM     63  N   UNL A   1      46.837  27.894  30.391  1.00  0.00    -0.248 NA
ATOM     64  C   UNL A   1      46.966  27.927  28.065  1.00  0.00     0.031 C 
ATOM     65  C   UNL A   1      44.220  23.720  30.860  1.00  0.00     0.029 A 
ATOM     66  C   UNL A   1      45.173  24.546  30.258  1.00  0.00     0.049 A 
ATOM     67  H   UNL A   1      46.075  24.092  28.407  1.00  0.00     0.167 HD
ATOM     68  C   UNL A   1      46.539  26.616  29.938  1.00  0.00     0.074 A 
ATOM     69  C   UNL A   1      46.729  26.679  28.488  1.00  0.00     0.031 C 
ATOM     70  C   UNL A   1      45.887  25.719  30.737  1.00  0.00     0.034 A 
BRANCH  57  71
ATOM     71  C   UNL A   1      44.262  23.439  26.060  1.00  0.00     0.023 A 
ATOM     72  C   UNL A   1      44.239  22.099  25.634  1.00  0.00     0.031 A 
ATOM     73  C   UNL A   1      45.206  24.273  25.412  1.00  0.00     0.131 A 
ATOM     74  C   UNL A   1      45.182  21.622  24.708  1.00  0.00     0.055 A 
ATOM     75  C   UNL A   1      46.097  23.806  24.443  1.00  0.00     0.041 A 
ATOM     76  F   UNL A   1      45.397  25.556  25.730  1.00  0.00    -0.206 F 
ATOM     77  C   UNL A   1      46.113  22.466  24.111  1.00  0.00     0.022 A 
BRANCH  74  78
ATOM     78  S   UNL A   1      45.288  19.837  24.443  1.00  0.00     0.124 S 
ATOM     79  O   UNL A   1      46.729  19.644  24.321  1.00  0.00    -0.237 OA
ATOM     80  O   UNL A   1      44.667  19.317  25.657  1.00  0.00    -0.237 OA
ATOM     81  O   UNL A   1      44.524  19.634  23.214  1.00  0.00    -0.744 OA
ENDBRANCH  74  78
ENDBRANCH  57  71
BRANCH  58  82
ATOM     82  C   UNL A   1      46.856  31.202  28.704  1.00  0.00     0.023 A 
ATOM     83  C   UNL A   1      46.297  31.975  27.660  1.00  0.00     0.031 A 
ATOM     84  C   UNL A   1      47.986  31.750  29.355  1.00  0.00     0.131 A 
ATOM     85  C   UNL A   1      46.874  33.224  27.307  1.00  0.00     0.055 A 
ATOM     86  C   UNL A   1      48.547  32.980  29.004  1.00  0.00     0.041 A 
ATOM     87  F   UNL A   1      48.535  31.143  30.419  1.00  0.00    -0.206 F 
ATOM     88  C   UNL A   1      47.990  33.726  27.981  1.00  0.00     0.022 A 
BRANCH  85  89
ATOM     89  S   UNL A   1      46.150  34.261  25.986  1.00  0.00     0.124 S 
ATOM     90  O   UNL A   1      45.173  33.364  25.381  1.00  0.00    -0.237 OA
ATOM     91  O   UNL A   1      45.617  35.393  26.737  1.00  0.00    -0.237 OA
ATOM     92  O   UNL A   1      47.296  34.579  25.134  1.00  0.00    -0.744 OA
ENDBRANCH  85  89
ENDBRANCH  58  82
BRANCH  70  93
ATOM     93  C   UNL A   1      45.739  26.059  32.210  1.00  0.00     0.023 A 
ATOM     94  C   UNL A   1      44.577  26.607  32.806  1.00  0.00     0.031 A 
ATOM     95  C   UNL A   1      46.797  25.698  33.060  1.00  0.00     0.131 A 
ATOM     96  C   UNL A   1      44.517  26.783  34.205  1.00  0.00     0.055 A 
ATOM     97  C   UNL A   1      46.724  25.852  34.444  1.00  0.00     0.041 A 
ATOM     98  F   UNL A   1      47.915  25.149  32.558  1.00  0.00    -0.206 F 
ATOM     99  C   UNL A   1      45.585  26.399  35.022  1.00  0.00     0.022 A 
BRANCH  96 100
ATOM    100  S   UNL A   1      43.047  27.524  34.993  1.00  0.00     0.124 S 
ATOM    101  O   UNL A   1      42.039  27.476  33.940  1.00  0.00    -0.237 OA
ATOM    102  O   UNL A   1      42.820  26.644  36.136  1.00  0.00    -0.237 OA
ATOM    103  O   UNL A   1      43.492  28.872  35.347  1.00  0.00    -0.744 OA
ENDBRANCH  96 100
ENDBRANCH  70  93
ENDBRANCH  44  45
ENDBRANCH  37  39
ENDBRANCH  36  37
ENDBRANCH  35  36
ENDBRANCH  34  35
ENDBRANCH   1  34
TORSDOF 22
ENDMDL
