MODEL 1
REMARK VINA RESULT:      -8.5      0.000      0.000
REMARK SMILES Cc1ccc(N)cc1S(=O)(=O)Nc1cccc(C(=O)OCCOCCOC(=O)c2ccc(-c3c4nc(c(-c5cc(S(=O)(=O)[O-])ccc5F)c5ccc([nH]5)c(-c5cc(S(=O)(=O)[O-])ccc5F)c5nc(c(-c6cc(S(=O)(=O)[O-])ccc6F)c6ccc3[nH]6)C=C5)C=C4)cc2)c1
REMARK SMILES IDX 22 1 21 2 20 3 18 4 19 5 17 6 13 7 14 8 92 9 15 10 16 11
REMARK SMILES IDX 12 12 9 14 10 15 11 16 8 17 1 18 2 19 3 20 4 21 7 22 5 23
REMARK SMILES IDX 6 24 23 27 24 28 25 29 26 30 27 31 28 32 29 33 30 34 91 35
REMARK SMILES IDX 31 36 90 37 32 38 33 39 34 40 84 41 35 42 89 43 83 44 85 45
REMARK SMILES IDX 36 46 88 47 82 48 81 49 37 51 69 52 49 53 68 54 50 55 53 56
REMARK SMILES IDX 67 57 86 58 51 59 52 60 66 62 87 63 54 64 38 65 39 66 47 67
REMARK SMILES IDX 40 68 46 69 48 70 45 71 41 72 42 73 43 74 44 75 70 76 71 77
REMARK SMILES IDX 79 78 72 79 78 80 80 81 77 82 73 83 74 84 75 85 76 86 55 87
REMARK SMILES IDX 56 88 64 89 57 90 63 91 65 92 62 93 58 94 59 95 60 96 61 97
REMARK H PARENT 12 13 6 25 6 26 85 50 53 61
REMARK Flexibility Score: inf
ROOT
ATOM      1  C   UNL A   1      36.606  33.389  31.601  1.00  0.00     0.202 C 
ENDROOT
BRANCH   1   2
ATOM      2  C   UNL A   1      37.562  32.841  32.665  1.00  0.00     0.261 C 
BRANCH   2   3
ATOM      3  O   UNL A   1      36.939  31.843  33.489  1.00  0.00    -0.460 OA
BRANCH   3   4
ATOM      4  C   UNL A   1      37.774  31.241  34.365  1.00  0.00     0.338 C 
ATOM      5  O   UNL A   1      37.775  31.339  35.580  1.00  0.00    -0.246 OA
BRANCH   4   6
ATOM      6  C   UNL A   1      38.654  30.288  33.662  1.00  0.00     0.062 A 
ATOM      7  C   UNL A   1      40.771  29.191  33.565  1.00  0.00     0.050 A 
ATOM      8  C   UNL A   1      40.180  28.124  32.869  1.00  0.00     0.027 A 
ATOM      9  C   UNL A   1      40.037  30.342  33.835  1.00  0.00     0.042 A 
ATOM     10  C   UNL A   1      38.818  28.133  32.582  1.00  0.00     0.003 A 
ATOM     11  C   UNL A   1      38.043  29.195  33.030  1.00  0.00     0.016 A 
BRANCH   7  12
ATOM     12  N   UNL A   1      42.000  28.887  34.205  1.00  0.00    -0.280 N 
ATOM     13  H   UNL A   1      42.178  29.361  35.050  1.00  0.00     0.180 HD
BRANCH  12  14
ATOM     14  S   UNL A   1      43.175  27.823  33.698  1.00  0.00     0.262 S 
ATOM     15  O   UNL A   1      44.439  28.351  34.179  1.00  0.00    -0.201 OA
ATOM     16  O   UNL A   1      42.932  27.649  32.284  1.00  0.00    -0.201 OA
BRANCH  14  17
ATOM     17  C   UNL A   1      42.957  26.212  34.450  1.00  0.00     0.092 A 
ATOM     18  C   UNL A   1      45.035  24.963  33.525  1.00  0.00     0.046 C 
ATOM     19  C   UNL A   1      43.691  25.045  34.184  1.00  0.00    -0.030 A 
ATOM     20  C   UNL A   1      43.142  23.819  34.608  1.00  0.00     0.007 A 
ATOM     21  C   UNL A   1      42.008  23.771  35.423  1.00  0.00     0.026 A 
ATOM     22  C   UNL A   1      41.842  26.146  35.313  1.00  0.00     0.048 A 
ATOM     23  C   UNL A   1      41.412  24.944  35.867  1.00  0.00     0.033 A 
BRANCH  23  24
ATOM     24  N   UNL A   1      40.327  24.909  36.722  1.00  0.00    -0.399 N 
ATOM     25  H   UNL A   1      39.599  24.265  36.567  1.00  0.00     0.156 HD
ATOM     26  H   UNL A   1      40.282  25.529  37.486  1.00  0.00     0.156 HD
ENDBRANCH  23  24
ENDBRANCH  14  17
ENDBRANCH  12  14
ENDBRANCH   7  12
ENDBRANCH   4   6
ENDBRANCH   3   4
ENDBRANCH   2   3
ENDBRANCH   1   2
BRANCH   1  27
ATOM     27  O   UNL A   1      36.929  33.201  30.225  1.00  0.00    -0.374 OA
BRANCH  27  28
ATOM     28  C   UNL A   1      36.157  33.863  29.230  1.00  0.00     0.202 C 
BRANCH  28  29
ATOM     29  C   UNL A   1      34.729  33.391  28.912  1.00  0.00     0.261 C 
BRANCH  29  30
ATOM     30  O   UNL A   1      34.426  32.047  29.304  1.00  0.00    -0.460 OA
BRANCH  30  31
ATOM     31  C   UNL A   1      34.473  31.157  28.277  1.00  0.00     0.338 C 
ATOM     32  O   UNL A   1      33.658  31.037  27.378  1.00  0.00    -0.246 OA
BRANCH  31  33
ATOM     33  C   UNL A   1      35.755  30.429  28.280  1.00  0.00     0.060 A 
ATOM     34  C   UNL A   1      36.116  29.767  29.460  1.00  0.00     0.016 A 
ATOM     35  C   UNL A   1      36.638  30.500  27.202  1.00  0.00     0.016 A 
ATOM     36  C   UNL A   1      37.387  29.216  29.588  1.00  0.00     0.010 A 
ATOM     37  C   UNL A   1      37.921  29.956  27.337  1.00  0.00     0.010 A 
ATOM     38  C   UNL A   1      38.313  29.349  28.545  1.00  0.00    -0.014 A 
BRANCH  38  39
ATOM     39  C   UNL A   1      39.735  29.009  28.800  1.00  0.00     0.031 A 
ATOM     40  C   UNL A   1      40.563  29.941  29.643  1.00  0.00     0.074 A 
ATOM     41  C   UNL A   1      40.260  27.859  28.341  1.00  0.00     0.049 A 
ATOM     42  N   UNL A   1      41.820  29.852  29.993  1.00  0.00    -0.248 NA
ATOM     43  C   UNL A   1      39.877  31.136  30.157  1.00  0.00     0.031 C 
ATOM     44  C   UNL A   1      39.536  26.856  27.560  1.00  0.00     0.029 A 
ATOM     45  N   UNL A   1      41.522  27.340  28.469  1.00  0.00    -0.354 N 
ATOM     46  C   UNL A   1      42.079  30.979  30.766  1.00  0.00     0.074 A 
ATOM     47  C   UNL A   1      40.858  31.756  30.796  1.00  0.00     0.031 C 
ATOM     48  C   UNL A   1      40.371  25.842  27.275  1.00  0.00     0.029 A 
ATOM     49  C   UNL A   1      41.695  26.140  27.819  1.00  0.00     0.049 A 
ATOM     50  H   UNL A   1      42.239  27.785  28.978  1.00  0.00     0.167 HD
ATOM     51  C   UNL A   1      43.226  31.330  31.399  1.00  0.00     0.034 A 
ATOM     52  C   UNL A   1      42.800  25.384  27.665  1.00  0.00     0.034 A 
ATOM     53  C   UNL A   1      44.440  30.548  31.344  1.00  0.00     0.049 A 
ATOM     54  C   UNL A   1      44.090  25.835  28.306  1.00  0.00     0.074 A 
ATOM     55  C   UNL A   1      45.659  30.805  31.947  1.00  0.00     0.029 A 
ATOM     56  N   UNL A   1      44.592  29.364  30.633  1.00  0.00    -0.354 N 
ATOM     57  N   UNL A   1      44.325  26.903  29.035  1.00  0.00    -0.248 NA
ATOM     58  C   UNL A   1      45.262  24.973  28.111  1.00  0.00     0.031 C 
ATOM     59  C   UNL A   1      46.565  29.818  31.543  1.00  0.00     0.029 A 
ATOM     60  C   UNL A   1      45.892  28.896  30.757  1.00  0.00     0.049 A 
ATOM     61  H   UNL A   1      43.881  28.922  30.117  1.00  0.00     0.167 HD
ATOM     62  C   UNL A   1      45.662  26.819  29.414  1.00  0.00     0.074 A 
ATOM     63  C   UNL A   1      46.177  25.592  28.842  1.00  0.00     0.031 C 
ATOM     64  C   UNL A   1      46.396  27.674  30.173  1.00  0.00     0.034 A 
BRANCH  51  65
ATOM     65  C   UNL A   1      43.230  32.640  32.151  1.00  0.00     0.023 A 
ATOM     66  C   UNL A   1      42.823  32.727  33.494  1.00  0.00     0.031 A 
ATOM     67  C   UNL A   1      43.610  33.829  31.501  1.00  0.00     0.131 A 
ATOM     68  C   UNL A   1      42.731  33.982  34.119  1.00  0.00     0.055 A 
ATOM     69  C   UNL A   1      43.595  35.063  32.154  1.00  0.00     0.041 A 
ATOM     70  F   UNL A   1      43.985  33.813  30.212  1.00  0.00    -0.206 F 
ATOM     71  C   UNL A   1      43.138  35.147  33.465  1.00  0.00     0.022 A 
BRANCH  68  72
ATOM     72  S   UNL A   1      41.929  34.088  35.743  1.00  0.00     0.124 S 
ATOM     73  O   UNL A   1      41.881  35.533  35.955  1.00  0.00    -0.237 OA
ATOM     74  O   UNL A   1      40.648  33.432  35.506  1.00  0.00    -0.237 OA
ATOM     75  O   UNL A   1      42.844  33.367  36.625  1.00  0.00    -0.744 OA
ENDBRANCH  68  72
ENDBRANCH  51  65
BRANCH  52  76
ATOM     76  C   UNL A   1      42.753  24.141  26.842  1.00  0.00     0.023 A 
ATOM     77  C   UNL A   1      42.061  23.001  27.280  1.00  0.00     0.031 A 
ATOM     78  C   UNL A   1      43.447  24.062  25.621  1.00  0.00     0.131 A 
ATOM     79  C   UNL A   1      42.115  21.818  26.527  1.00  0.00     0.055 A 
ATOM     80  C   UNL A   1      43.454  22.899  24.849  1.00  0.00     0.041 A 
ATOM     81  F   UNL A   1      44.125  25.122  25.154  1.00  0.00    -0.206 F 
ATOM     82  C   UNL A   1      42.795  21.763  25.309  1.00  0.00     0.022 A 
BRANCH  79  83
ATOM     83  S   UNL A   1      41.347  20.320  27.204  1.00  0.00     0.124 S 
ATOM     84  O   UNL A   1      40.820  20.805  28.474  1.00  0.00    -0.237 OA
ATOM     85  O   UNL A   1      40.361  19.996  26.179  1.00  0.00    -0.237 OA
ATOM     86  O   UNL A   1      42.464  19.383  27.308  1.00  0.00    -0.744 OA
ENDBRANCH  79  83
ENDBRANCH  52  76
BRANCH  64  87
ATOM     87  C   UNL A   1      47.823  27.275  30.472  1.00  0.00     0.023 A 
ATOM     88  C   UNL A   1      48.158  26.486  31.586  1.00  0.00     0.031 A 
ATOM     89  C   UNL A   1      48.865  27.706  29.630  1.00  0.00     0.131 A 
ATOM     90  C   UNL A   1      49.506  26.205  31.863  1.00  0.00     0.055 A 
ATOM     91  C   UNL A   1      50.197  27.369  29.876  1.00  0.00     0.041 A 
ATOM     92  F   UNL A   1      48.604  28.464  28.553  1.00  0.00    -0.206 F 
ATOM     93  C   UNL A   1      50.525  26.627  31.006  1.00  0.00     0.022 A 
BRANCH  90  94
ATOM     94  S   UNL A   1      49.920  25.369  33.419  1.00  0.00     0.124 S 
ATOM     95  O   UNL A   1      49.956  23.969  33.012  1.00  0.00    -0.237 OA
ATOM     96  O   UNL A   1      51.207  25.967  33.761  1.00  0.00    -0.237 OA
ATOM     97  O   UNL A   1      48.816  25.729  34.306  1.00  0.00    -0.744 OA
ENDBRANCH  90  94
ENDBRANCH  64  87
ENDBRANCH  38  39
ENDBRANCH  31  33
ENDBRANCH  30  31
ENDBRANCH  29  30
ENDBRANCH  28  29
ENDBRANCH  27  28
ENDBRANCH   1  27
TORSDOF 21
ENDMDL
MODEL 2
REMARK VINA RESULT:      -8.4      4.131      6.859
REMARK SMILES Cc1ccc(N)cc1S(=O)(=O)Nc1cccc(C(=O)OCCOCCOC(=O)c2ccc(-c3c4nc(c(-c5cc(S(=O)(=O)[O-])ccc5F)c5ccc([nH]5)c(-c5cc(S(=O)(=O)[O-])ccc5F)c5nc(c(-c6cc(S(=O)(=O)[O-])ccc6F)c6ccc3[nH]6)C=C5)C=C4)cc2)c1
REMARK SMILES IDX 22 1 21 2 20 3 18 4 19 5 17 6 13 7 14 8 92 9 15 10 16 11
REMARK SMILES IDX 12 12 9 14 10 15 11 16 8 17 1 18 2 19 3 20 4 21 7 22 5 23
REMARK SMILES IDX 6 24 23 27 24 28 25 29 26 30 27 31 28 32 29 33 30 34 91 35
REMARK SMILES IDX 31 36 90 37 32 38 33 39 34 40 84 41 35 42 89 43 83 44 85 45
REMARK SMILES IDX 36 46 88 47 82 48 81 49 37 51 69 52 49 53 68 54 50 55 53 56
REMARK SMILES IDX 67 57 86 58 51 59 52 60 66 62 87 63 54 64 38 65 39 66 47 67
REMARK SMILES IDX 40 68 46 69 48 70 45 71 41 72 42 73 43 74 44 75 70 76 71 77
REMARK SMILES IDX 79 78 72 79 78 80 80 81 77 82 73 83 74 84 75 85 76 86 55 87
REMARK SMILES IDX 56 88 64 89 57 90 63 91 65 92 62 93 58 94 59 95 60 96 61 97
REMARK H PARENT 12 13 6 25 6 26 85 50 53 61
REMARK Flexibility Score: inf
ROOT
ATOM      1  C   UNL A   1      31.710  32.125  26.742  1.00  0.00     0.202 C 
ENDROOT
BRANCH   1   2
ATOM      2  C   UNL A   1      32.650  30.919  26.829  1.00  0.00     0.261 C 
BRANCH   2   3
ATOM      3  O   UNL A   1      32.267  29.868  25.929  1.00  0.00    -0.460 OA
BRANCH   3   4
ATOM      4  C   UNL A   1      31.838  28.740  26.537  1.00  0.00     0.338 C 
ATOM      5  O   UNL A   1      31.674  28.554  27.731  1.00  0.00    -0.246 OA
BRANCH   4   6
ATOM      6  C   UNL A   1      31.433  27.739  25.532  1.00  0.00     0.062 A 
ATOM      7  C   UNL A   1      30.695  25.514  25.084  1.00  0.00     0.050 A 
ATOM      8  C   UNL A   1      30.079  25.962  23.904  1.00  0.00     0.027 A 
ATOM      9  C   UNL A   1      31.497  26.376  25.824  1.00  0.00     0.042 A 
ATOM     10  C   UNL A   1      30.127  27.307  23.546  1.00  0.00     0.003 A 
ATOM     11  C   UNL A   1      30.760  28.207  24.393  1.00  0.00     0.016 A 
BRANCH   7  12
ATOM     12  N   UNL A   1      30.205  24.284  25.591  1.00  0.00    -0.280 N 
ATOM     13  H   UNL A   1      29.228  24.161  25.565  1.00  0.00     0.180 HD
BRANCH  12  14
ATOM     14  S   UNL A   1      31.086  23.022  26.224  1.00  0.00     0.262 S 
ATOM     15  O   UNL A   1      30.325  21.815  25.954  1.00  0.00    -0.201 OA
ATOM     16  O   UNL A   1      31.386  23.423  27.580  1.00  0.00    -0.201 OA
BRANCH  14  17
ATOM     17  C   UNL A   1      32.661  22.849  25.389  1.00  0.00     0.092 A 
ATOM     18  C   UNL A   1      31.877  22.592  22.929  1.00  0.00     0.046 C 
ATOM     19  C   UNL A   1      32.875  22.509  24.044  1.00  0.00    -0.030 A 
ATOM     20  C   UNL A   1      34.167  22.081  23.678  1.00  0.00     0.007 A 
ATOM     21  C   UNL A   1      35.242  22.167  24.566  1.00  0.00     0.026 A 
ATOM     22  C   UNL A   1      33.767  22.973  26.256  1.00  0.00     0.048 A 
ATOM     23  C   UNL A   1      35.067  22.713  25.830  1.00  0.00     0.033 A 
BRANCH  23  24
ATOM     24  N   UNL A   1      36.135  22.858  26.695  1.00  0.00    -0.399 N 
ATOM     25  H   UNL A   1      36.002  22.745  27.664  1.00  0.00     0.156 HD
ATOM     26  H   UNL A   1      37.028  23.075  26.342  1.00  0.00     0.156 HD
ENDBRANCH  23  24
ENDBRANCH  14  17
ENDBRANCH  12  14
ENDBRANCH   7  12
ENDBRANCH   4   6
ENDBRANCH   3   4
ENDBRANCH   2   3
ENDBRANCH   1   2
BRANCH   1  27
ATOM     27  O   UNL A   1      32.097  33.346  27.368  1.00  0.00    -0.374 OA
BRANCH  27  28
ATOM     28  C   UNL A   1      33.425  33.490  27.856  1.00  0.00     0.202 C 
BRANCH  28  29
ATOM     29  C   UNL A   1      33.719  34.416  29.048  1.00  0.00     0.261 C 
BRANCH  29  30
ATOM     30  O   UNL A   1      34.977  34.198  29.699  1.00  0.00    -0.460 OA
BRANCH  30  31
ATOM     31  C   UNL A   1      34.952  33.182  30.601  1.00  0.00     0.338 C 
ATOM     32  O   UNL A   1      34.043  32.906  31.365  1.00  0.00    -0.246 OA
BRANCH  31  33
ATOM     33  C   UNL A   1      36.131  32.312  30.435  1.00  0.00     0.060 A 
ATOM     34  C   UNL A   1      36.154  31.115  31.161  1.00  0.00     0.016 A 
ATOM     35  C   UNL A   1      37.240  32.718  29.691  1.00  0.00     0.016 A 
ATOM     36  C   UNL A   1      37.311  30.340  31.188  1.00  0.00     0.010 A 
ATOM     37  C   UNL A   1      38.405  31.944  29.730  1.00  0.00     0.010 A 
ATOM     38  C   UNL A   1      38.457  30.775  30.512  1.00  0.00    -0.014 A 
BRANCH  38  39
ATOM     39  C   UNL A   1      39.749  30.092  30.777  1.00  0.00     0.031 A 
ATOM     40  C   UNL A   1      40.594  30.563  31.930  1.00  0.00     0.074 A 
ATOM     41  C   UNL A   1      40.130  29.033  30.041  1.00  0.00     0.049 A 
ATOM     42  N   UNL A   1      41.753  30.125  32.347  1.00  0.00    -0.248 NA
ATOM     43  C   UNL A   1      40.054  31.683  32.717  1.00  0.00     0.031 C 
ATOM     44  C   UNL A   1      39.366  28.457  28.935  1.00  0.00     0.029 A 
ATOM     45  N   UNL A   1      41.254  28.252  30.119  1.00  0.00    -0.354 N 
ATOM     46  C   UNL A   1      42.086  30.914  33.443  1.00  0.00     0.074 A 
ATOM     47  C   UNL A   1      41.024  31.886  33.597  1.00  0.00     0.031 C 
ATOM     48  C   UNL A   1      40.049  27.413  28.433  1.00  0.00     0.029 A 
ATOM     49  C   UNL A   1      41.311  27.271  29.156  1.00  0.00     0.049 A 
ATOM     50  H   UNL A   1      41.955  28.380  30.799  1.00  0.00     0.167 HD
ATOM     51  C   UNL A   1      43.172  30.832  34.250  1.00  0.00     0.034 A 
ATOM     52  C   UNL A   1      42.281  26.377  28.880  1.00  0.00     0.034 A 
ATOM     53  C   UNL A   1      44.230  29.865  34.070  1.00  0.00     0.049 A 
ATOM     54  C   UNL A   1      43.523  26.358  29.738  1.00  0.00     0.074 A 
ATOM     55  C   UNL A   1      45.375  29.688  34.827  1.00  0.00     0.029 A 
ATOM     56  N   UNL A   1      44.279  28.920  33.052  1.00  0.00    -0.354 N 
ATOM     57  N   UNL A   1      43.829  27.109  30.772  1.00  0.00    -0.248 NA
ATOM     58  C   UNL A   1      44.547  25.361  29.396  1.00  0.00     0.031 C 
ATOM     59  C   UNL A   1      46.148  28.688  34.227  1.00  0.00     0.029 A 
ATOM     60  C   UNL A   1      45.448  28.178  33.144  1.00  0.00     0.049 A 
ATOM     61  H   UNL A   1      43.585  28.794  32.366  1.00  0.00     0.167 HD
ATOM     62  C   UNL A   1      45.063  26.650  31.224  1.00  0.00     0.074 A 
ATOM     63  C   UNL A   1      45.438  25.551  30.358  1.00  0.00     0.031 C 
ATOM     64  C   UNL A   1      45.816  27.091  32.267  1.00  0.00     0.034 A 
BRANCH  51  65
ATOM     65  C   UNL A   1      43.291  31.852  35.358  1.00  0.00     0.023 A 
ATOM     66  C   UNL A   1      42.551  31.745  36.549  1.00  0.00     0.031 A 
ATOM     67  C   UNL A   1      44.129  32.972  35.204  1.00  0.00     0.131 A 
ATOM     68  C   UNL A   1      42.604  32.775  37.502  1.00  0.00     0.055 A 
ATOM     69  C   UNL A   1      44.241  33.951  36.192  1.00  0.00     0.041 A 
ATOM     70  F   UNL A   1      44.843  33.141  34.080  1.00  0.00    -0.206 F 
ATOM     71  C   UNL A   1      43.462  33.865  37.343  1.00  0.00     0.022 A 
BRANCH  68  72
ATOM     72  S   UNL A   1      41.423  32.747  38.879  1.00  0.00     0.124 S 
ATOM     73  O   UNL A   1      41.454  34.139  39.324  1.00  0.00    -0.237 OA
ATOM     74  O   UNL A   1      40.192  32.311  38.230  1.00  0.00    -0.237 OA
ATOM     75  O   UNL A   1      42.008  31.789  39.814  1.00  0.00    -0.744 OA
ENDBRANCH  68  72
ENDBRANCH  51  65
BRANCH  52  76
ATOM     76  C   UNL A   1      42.142  25.449  27.721  1.00  0.00     0.023 A 
ATOM     77  C   UNL A   1      41.414  24.254  27.826  1.00  0.00     0.031 A 
ATOM     78  C   UNL A   1      42.783  25.724  26.499  1.00  0.00     0.131 A 
ATOM     79  C   UNL A   1      41.381  23.357  26.746  1.00  0.00     0.055 A 
ATOM     80  C   UNL A   1      42.704  24.854  25.411  1.00  0.00     0.041 A 
ATOM     81  F   UNL A   1      43.493  26.853  26.344  1.00  0.00    -0.206 F 
ATOM     82  C   UNL A   1      42.009  23.656  25.535  1.00  0.00     0.022 A 
BRANCH  79  83
ATOM     83  S   UNL A   1      40.569  21.751  26.973  1.00  0.00     0.124 S 
ATOM     84  O   UNL A   1      40.685  21.561  28.415  1.00  0.00    -0.237 OA
ATOM     85  O   UNL A   1      39.228  22.015  26.464  1.00  0.00    -0.237 OA
ATOM     86  O   UNL A   1      41.375  20.845  26.157  1.00  0.00    -0.744 OA
ENDBRANCH  79  83
ENDBRANCH  52  76
BRANCH  64  87
ATOM     87  C   UNL A   1      47.095  26.340  32.556  1.00  0.00     0.023 A 
ATOM     88  C   UNL A   1      47.155  25.309  33.509  1.00  0.00     0.031 A 
ATOM     89  C   UNL A   1      48.279  26.677  31.872  1.00  0.00     0.131 A 
ATOM     90  C   UNL A   1      48.384  24.692  33.797  1.00  0.00     0.055 A 
ATOM     91  C   UNL A   1      49.483  26.016  32.117  1.00  0.00     0.041 A 
ATOM     92  F   UNL A   1      48.282  27.656  30.953  1.00  0.00    -0.206 F 
ATOM     93  C   UNL A   1      49.543  25.028  33.094  1.00  0.00     0.022 A 
BRANCH  90  94
ATOM     94  S   UNL A   1      48.469  23.518  35.177  1.00  0.00     0.124 S 
ATOM     95  O   UNL A   1      49.899  23.484  35.460  1.00  0.00    -0.237 OA
ATOM     96  O   UNL A   1      47.634  24.163  36.186  1.00  0.00    -0.237 OA
ATOM     97  O   UNL A   1      47.918  22.287  34.614  1.00  0.00    -0.744 OA
ENDBRANCH  90  94
ENDBRANCH  64  87
ENDBRANCH  38  39
ENDBRANCH  31  33
ENDBRANCH  30  31
ENDBRANCH  29  30
ENDBRANCH  28  29
ENDBRANCH  27  28
ENDBRANCH   1  27
TORSDOF 21
ENDMDL
MODEL 3
REMARK VINA RESULT:      -8.3      5.383     11.334
REMARK SMILES Cc1ccc(N)cc1S(=O)(=O)Nc1cccc(C(=O)OCCOCCOC(=O)c2ccc(-c3c4nc(c(-c5cc(S(=O)(=O)[O-])ccc5F)c5ccc([nH]5)c(-c5cc(S(=O)(=O)[O-])ccc5F)c5nc(c(-c6cc(S(=O)(=O)[O-])ccc6F)c6ccc3[nH]6)C=C5)C=C4)cc2)c1
REMARK SMILES IDX 22 1 21 2 20 3 18 4 19 5 17 6 13 7 14 8 92 9 15 10 16 11
REMARK SMILES IDX 12 12 9 14 10 15 11 16 8 17 1 18 2 19 3 20 4 21 7 22 5 23
REMARK SMILES IDX 6 24 23 27 24 28 25 29 26 30 27 31 28 32 29 33 30 34 91 35
REMARK SMILES IDX 31 36 90 37 32 38 33 39 34 40 84 41 35 42 89 43 83 44 85 45
REMARK SMILES IDX 36 46 88 47 82 48 81 49 37 51 69 52 49 53 68 54 50 55 53 56
REMARK SMILES IDX 67 57 86 58 51 59 52 60 66 62 87 63 54 64 38 65 39 66 47 67
REMARK SMILES IDX 40 68 46 69 48 70 45 71 41 72 42 73 43 74 44 75 70 76 71 77
REMARK SMILES IDX 79 78 72 79 78 80 80 81 77 82 73 83 74 84 75 85 76 86 55 87
REMARK SMILES IDX 56 88 64 89 57 90 63 91 65 92 62 93 58 94 59 95 60 96 61 97
REMARK H PARENT 12 13 6 25 6 26 85 50 53 61
REMARK Flexibility Score: inf
ROOT
ATOM      1  C   UNL A   1      39.585  21.098  26.120  1.00  0.00     0.202 C 
ENDROOT
BRANCH   1   2
ATOM      2  C   UNL A   1      39.243  22.590  26.050  1.00  0.00     0.261 C 
BRANCH   2   3
ATOM      3  O   UNL A   1      37.899  22.857  26.477  1.00  0.00    -0.460 OA
BRANCH   3   4
ATOM      4  C   UNL A   1      36.981  22.826  25.485  1.00  0.00     0.338 C 
ATOM      5  O   UNL A   1      37.017  23.415  24.418  1.00  0.00    -0.246 OA
BRANCH   4   6
ATOM      6  C   UNL A   1      35.930  21.838  25.791  1.00  0.00     0.062 A 
ATOM      7  C   UNL A   1      33.747  21.417  26.659  1.00  0.00     0.050 A 
ATOM      8  C   UNL A   1      33.654  20.270  25.856  1.00  0.00     0.027 A 
ATOM      9  C   UNL A   1      34.944  22.122  26.736  1.00  0.00     0.042 A 
ATOM     10  C   UNL A   1      34.697  19.914  25.005  1.00  0.00     0.003 A 
ATOM     11  C   UNL A   1      35.816  20.734  24.933  1.00  0.00     0.016 A 
BRANCH   7  12
ATOM     12  N   UNL A   1      32.508  21.943  27.107  1.00  0.00    -0.280 N 
ATOM     13  H   UNL A   1      32.202  21.642  27.993  1.00  0.00     0.180 HD
BRANCH  12  14
ATOM     14  S   UNL A   1      31.509  23.010  26.310  1.00  0.00     0.262 S 
ATOM     15  O   UNL A   1      31.217  24.076  27.251  1.00  0.00    -0.201 OA
ATOM     16  O   UNL A   1      30.450  22.190  25.765  1.00  0.00    -0.201 OA
BRANCH  14  17
ATOM     17  C   UNL A   1      32.342  23.755  24.911  1.00  0.00     0.092 A 
ATOM     18  C   UNL A   1      32.161  21.843  23.167  1.00  0.00     0.046 C 
ATOM     19  C   UNL A   1      32.707  23.129  23.709  1.00  0.00    -0.030 A 
ATOM     20  C   UNL A   1      33.655  23.782  22.896  1.00  0.00     0.007 A 
ATOM     21  C   UNL A   1      34.080  25.083  23.173  1.00  0.00     0.026 A 
ATOM     22  C   UNL A   1      32.746  25.086  25.148  1.00  0.00     0.048 A 
ATOM     23  C   UNL A   1      33.546  25.783  24.247  1.00  0.00     0.033 A 
BRANCH  23  24
ATOM     24  N   UNL A   1      33.913  27.092  24.495  1.00  0.00    -0.399 N 
ATOM     25  H   UNL A   1      33.244  27.811  24.431  1.00  0.00     0.156 HD
ATOM     26  H   UNL A   1      34.844  27.305  24.734  1.00  0.00     0.156 HD
ENDBRANCH  23  24
ENDBRANCH  14  17
ENDBRANCH  12  14
ENDBRANCH   7  12
ENDBRANCH   4   6
ENDBRANCH   3   4
ENDBRANCH   2   3
ENDBRANCH   1   2
BRANCH   1  27
ATOM     27  O   UNL A   1      40.909  20.712  26.478  1.00  0.00    -0.374 OA
BRANCH  27  28
ATOM     28  C   UNL A   1      41.253  19.332  26.498  1.00  0.00     0.202 C 
BRANCH  28  29
ATOM     29  C   UNL A   1      42.611  18.861  25.953  1.00  0.00     0.261 C 
BRANCH  29  30
ATOM     30  O   UNL A   1      43.095  19.575  24.810  1.00  0.00    -0.460 OA
BRANCH  30  31
ATOM     31  C   UNL A   1      44.265  20.231  25.033  1.00  0.00     0.338 C 
ATOM     32  O   UNL A   1      45.381  19.863  24.709  1.00  0.00    -0.246 OA
BRANCH  31  33
ATOM     33  C   UNL A   1      44.010  21.570  25.594  1.00  0.00     0.060 A 
ATOM     34  C   UNL A   1      43.769  22.611  24.688  1.00  0.00     0.016 A 
ATOM     35  C   UNL A   1      44.132  21.827  26.960  1.00  0.00     0.016 A 
ATOM     36  C   UNL A   1      43.701  23.925  25.141  1.00  0.00     0.010 A 
ATOM     37  C   UNL A   1      44.074  23.150  27.412  1.00  0.00     0.010 A 
ATOM     38  C   UNL A   1      43.900  24.207  26.498  1.00  0.00    -0.014 A 
BRANCH  38  39
ATOM     39  C   UNL A   1      44.102  25.617  26.917  1.00  0.00     0.031 A 
ATOM     40  C   UNL A   1      45.469  26.229  26.766  1.00  0.00     0.074 A 
ATOM     41  C   UNL A   1      43.071  26.355  27.364  1.00  0.00     0.049 A 
ATOM     42  N   UNL A   1      45.879  27.434  27.066  1.00  0.00    -0.248 NA
ATOM     43  C   UNL A   1      46.512  25.360  26.200  1.00  0.00     0.031 C 
ATOM     44  C   UNL A   1      41.693  25.883  27.501  1.00  0.00     0.029 A 
ATOM     45  N   UNL A   1      43.023  27.660  27.781  1.00  0.00    -0.354 N 
ATOM     46  C   UNL A   1      47.229  27.470  26.730  1.00  0.00     0.074 A 
ATOM     47  C   UNL A   1      47.574  26.150  26.243  1.00  0.00     0.031 C 
ATOM     48  C   UNL A   1      40.935  26.886  27.975  1.00  0.00     0.029 A 
ATOM     49  C   UNL A   1      41.778  28.057  28.210  1.00  0.00     0.049 A 
ATOM     50  H   UNL A   1      43.806  28.258  27.775  1.00  0.00     0.167 HD
ATOM     51  C   UNL A   1      48.097  28.508  26.812  1.00  0.00     0.034 A 
ATOM     52  C   UNL A   1      41.373  29.224  28.750  1.00  0.00     0.034 A 
ATOM     53  C   UNL A   1      47.737  29.813  27.316  1.00  0.00     0.049 A 
ATOM     54  C   UNL A   1      42.376  30.341  28.913  1.00  0.00     0.074 A 
ATOM     55  C   UNL A   1      48.533  30.938  27.442  1.00  0.00     0.029 A 
ATOM     56  N   UNL A   1      46.478  30.163  27.790  1.00  0.00    -0.354 N 
ATOM     57  N   UNL A   1      43.650  30.365  28.592  1.00  0.00    -0.248 NA
ATOM     58  C   UNL A   1      41.882  31.592  29.502  1.00  0.00     0.031 C 
ATOM     59  C   UNL A   1      47.777  31.943  28.058  1.00  0.00     0.029 A 
ATOM     60  C   UNL A   1      46.485  31.476  28.238  1.00  0.00     0.049 A 
ATOM     61  H   UNL A   1      45.696  29.566  27.805  1.00  0.00     0.167 HD
ATOM     62  C   UNL A   1      44.099  31.644  28.908  1.00  0.00     0.074 A 
ATOM     63  C   UNL A   1      42.957  32.364  29.433  1.00  0.00     0.031 C 
ATOM     64  C   UNL A   1      45.340  32.180  28.769  1.00  0.00     0.034 A 
BRANCH  51  65
ATOM     65  C   UNL A   1      49.528  28.249  26.402  1.00  0.00     0.023 A 
ATOM     66  C   UNL A   1      49.977  28.474  25.088  1.00  0.00     0.031 A 
ATOM     67  C   UNL A   1      50.449  27.729  27.330  1.00  0.00     0.131 A 
ATOM     68  C   UNL A   1      51.283  28.110  24.721  1.00  0.00     0.055 A 
ATOM     69  C   UNL A   1      51.771  27.447  26.980  1.00  0.00     0.041 A 
ATOM     70  F   UNL A   1      50.073  27.471  28.593  1.00  0.00    -0.206 F 
ATOM     71  C   UNL A   1      52.189  27.621  25.664  1.00  0.00     0.022 A 
BRANCH  68  72
ATOM     72  S   UNL A   1      51.732  28.141  22.964  1.00  0.00     0.124 S 
ATOM     73  O   UNL A   1      53.165  27.857  23.020  1.00  0.00    -0.237 OA
ATOM     74  O   UNL A   1      50.893  27.087  22.405  1.00  0.00    -0.237 OA
ATOM     75  O   UNL A   1      51.390  29.498  22.546  1.00  0.00    -0.744 OA
ENDBRANCH  68  72
ENDBRANCH  51  65
BRANCH  52  76
ATOM     76  C   UNL A   1      39.965  29.392  29.212  1.00  0.00     0.023 A 
ATOM     77  C   UNL A   1      39.639  29.388  30.577  1.00  0.00     0.031 A 
ATOM     78  C   UNL A   1      38.915  29.510  28.283  1.00  0.00     0.131 A 
ATOM     79  C   UNL A   1      38.294  29.454  30.974  1.00  0.00     0.055 A 
ATOM     80  C   UNL A   1      37.583  29.628  28.686  1.00  0.00     0.041 A 
ATOM     81  F   UNL A   1      39.170  29.519  26.965  1.00  0.00    -0.206 F 
ATOM     82  C   UNL A   1      37.266  29.588  30.039  1.00  0.00     0.022 A 
BRANCH  79  83
ATOM     83  S   UNL A   1      37.898  29.281  32.736  1.00  0.00     0.124 S 
ATOM     84  O   UNL A   1      37.774  27.834  32.872  1.00  0.00    -0.237 OA
ATOM     85  O   UNL A   1      39.064  29.889  33.369  1.00  0.00    -0.237 OA
ATOM     86  O   UNL A   1      36.652  30.031  32.880  1.00  0.00    -0.744 OA
ENDBRANCH  79  83
ENDBRANCH  52  76
BRANCH  64  87
ATOM     87  C   UNL A   1      45.506  33.635  29.142  1.00  0.00     0.023 A 
ATOM     88  C   UNL A   1      45.239  34.673  28.232  1.00  0.00     0.031 A 
ATOM     89  C   UNL A   1      45.954  33.985  30.430  1.00  0.00     0.131 A 
ATOM     90  C   UNL A   1      45.480  36.006  28.602  1.00  0.00     0.055 A 
ATOM     91  C   UNL A   1      46.130  35.315  30.811  1.00  0.00     0.041 A 
ATOM     92  F   UNL A   1      46.227  33.035  31.340  1.00  0.00    -0.206 F 
ATOM     93  C   UNL A   1      45.908  36.334  29.891  1.00  0.00     0.022 A 
BRANCH  90  94
ATOM     94  S   UNL A   1      45.330  37.301  27.341  1.00  0.00     0.124 S 
ATOM     95  O   UNL A   1      46.151  36.769  26.259  1.00  0.00    -0.237 OA
ATOM     96  O   UNL A   1      43.892  37.331  27.094  1.00  0.00    -0.237 OA
ATOM     97  O   UNL A   1      45.869  38.488  28.001  1.00  0.00    -0.744 OA
ENDBRANCH  90  94
ENDBRANCH  64  87
ENDBRANCH  38  39
ENDBRANCH  31  33
ENDBRANCH  30  31
ENDBRANCH  29  30
ENDBRANCH  28  29
ENDBRANCH  27  28
ENDBRANCH   1  27
TORSDOF 21
ENDMDL
