MODEL 1
REMARK VINA RESULT:     -12.3      0.000      0.000
REMARK SMILES Cc1cc(NC(=O)c2ccc(Br)cc2N)ccc1C(=O)OCCOCCOC(=O)c1ccc(-c2c3nc(c(-c4cc(S(=O)(=O)[O-])ccc4F)c4ccc([nH]4)c(-c4cc(S(=O)(=O)[O-])ccc4F)c4nc(c(-c5cc(S(=O)(=O)[O-])ccc5F)c5ccc2[nH]5)C=C4)C=C3)cc1
REMARK SMILES IDX 24 1 23 2 22 3 21 4 19 5 20 6 18 7 1 8 2 9 3 10 4 11 17 12
REMARK SMILES IDX 16 13 5 14 6 15 7 17 8 18 9 19 14 20 10 21 13 22 11 23 12 24
REMARK SMILES IDX 15 25 25 28 26 29 27 30 28 31 29 32 30 33 31 34 92 35 32 36
REMARK SMILES IDX 91 37 33 38 34 39 35 40 85 41 36 42 90 43 84 44 86 45 37 46
REMARK SMILES IDX 89 47 83 48 82 49 38 51 70 52 50 53 69 54 51 55 54 56 68 57
REMARK SMILES IDX 87 58 52 59 53 60 67 62 88 63 55 64 39 65 40 66 48 67 41 68
REMARK SMILES IDX 47 69 49 70 46 71 42 72 43 73 44 74 45 75 71 76 72 77 80 78
REMARK SMILES IDX 73 79 79 80 81 81 78 82 74 83 75 84 76 85 77 86 56 87 57 88
REMARK SMILES IDX 65 89 58 90 64 91 66 92 63 93 59 94 60 95 61 96 62 97
REMARK H PARENT 5 16 15 26 15 27 86 50 54 61
REMARK Flexibility Score: inf
ROOT
ATOM      1  O   UNL A   1      32.617  30.485  25.939  1.00  0.00    -0.374 OA
ENDROOT
BRANCH   1   2
ATOM      2  C   UNL A   1      32.385  29.196  25.386  1.00  0.00     0.202 C 
BRANCH   2   3
ATOM      3  C   UNL A   1      31.087  29.313  24.657  1.00  0.00     0.261 C 
BRANCH   3   4
ATOM      4  O   UNL A   1      31.232  29.318  23.228  1.00  0.00    -0.460 OA
BRANCH   4   5
ATOM      5  C   UNL A   1      30.365  28.652  22.442  1.00  0.00     0.338 C 
ATOM      6  O   UNL A   1      29.577  29.125  21.651  1.00  0.00    -0.246 OA
BRANCH   5   7
ATOM      7  C   UNL A   1      30.601  27.197  22.663  1.00  0.00     0.063 A 
ATOM      8  C   UNL A   1      28.436  26.738  24.035  1.00  0.00     0.045 C 
ATOM      9  C   UNL A   1      29.790  26.381  23.484  1.00  0.00    -0.035 A 
ATOM     10  C   UNL A   1      30.178  25.068  23.710  1.00  0.00     0.030 A 
ATOM     11  C   UNL A   1      31.180  24.491  22.950  1.00  0.00     0.041 A 
ATOM     12  C   UNL A   1      31.744  26.647  22.056  1.00  0.00     0.018 A 
ATOM     13  C   UNL A   1      32.034  25.287  22.192  1.00  0.00     0.027 A 
BRANCH  11  14
ATOM     14  N   UNL A   1      31.209  23.100  22.804  1.00  0.00    -0.322 N 
ATOM     15  C   UNL A   1      32.290  22.254  23.024  1.00  0.00     0.257 C 
ATOM     16  H   UNL A   1      30.371  22.673  22.512  1.00  0.00     0.170 HD
ATOM     17  O   UNL A   1      32.248  21.108  22.571  1.00  0.00    -0.269 OA
BRANCH  15  18
ATOM     18  C   UNL A   1      33.500  22.667  23.826  1.00  0.00     0.063 A 
ATOM     19  C   UNL A   1      34.677  22.877  23.081  1.00  0.00     0.017 A 
ATOM     20  C   UNL A   1      33.530  22.846  25.232  1.00  0.00     0.045 A 
ATOM     21  C   UNL A   1      35.873  23.236  23.708  1.00  0.00     0.016 A 
ATOM     22  C   UNL A   1      34.750  23.193  25.843  1.00  0.00     0.042 A 
ATOM     23  C   UNL A   1      35.905  23.386  25.088  1.00  0.00     0.020 A 
ATOM     24  Br  UNL A   1      37.534  23.808  25.954  1.00  0.00    -0.051 Br
BRANCH  20  25
ATOM     25  N   UNL A   1      32.465  22.550  26.087  1.00  0.00    -0.398 N 
ATOM     26  H   UNL A   1      32.587  21.903  26.819  1.00  0.00     0.156 HD
ATOM     27  H   UNL A   1      31.593  22.986  25.955  1.00  0.00     0.156 HD
ENDBRANCH  20  25
ENDBRANCH  15  18
ENDBRANCH  11  14
ENDBRANCH   5   7
ENDBRANCH   4   5
ENDBRANCH   3   4
ENDBRANCH   2   3
ENDBRANCH   1   2
BRANCH   1  28
ATOM     28  C   UNL A   1      33.364  30.495  27.135  1.00  0.00     0.202 C 
BRANCH  28  29
ATOM     29  C   UNL A   1      33.551  31.909  27.702  1.00  0.00     0.261 C 
BRANCH  29  30
ATOM     30  O   UNL A   1      34.927  32.088  28.101  1.00  0.00    -0.460 OA
BRANCH  30  31
ATOM     31  C   UNL A   1      35.250  31.669  29.358  1.00  0.00     0.338 C 
ATOM     32  O   UNL A   1      34.925  32.232  30.390  1.00  0.00    -0.246 OA
BRANCH  31  33
ATOM     33  C   UNL A   1      36.200  30.520  29.282  1.00  0.00     0.060 A 
ATOM     34  C   UNL A   1      36.424  29.699  30.406  1.00  0.00     0.016 A 
ATOM     35  C   UNL A   1      37.067  30.450  28.192  1.00  0.00     0.016 A 
ATOM     36  C   UNL A   1      37.597  28.927  30.497  1.00  0.00     0.010 A 
ATOM     37  C   UNL A   1      38.253  29.762  28.323  1.00  0.00     0.010 A 
ATOM     38  C   UNL A   1      38.551  29.030  29.486  1.00  0.00    -0.014 A 
BRANCH  38  39
ATOM     39  C   UNL A   1      39.951  28.591  29.558  1.00  0.00     0.031 A 
ATOM     40  C   UNL A   1      40.274  27.217  29.121  1.00  0.00     0.074 A 
ATOM     41  C   UNL A   1      40.949  29.507  29.670  1.00  0.00     0.049 A 
ATOM     42  N   UNL A   1      41.454  26.717  29.179  1.00  0.00    -0.248 NA
ATOM     43  C   UNL A   1      39.293  26.259  28.610  1.00  0.00     0.031 C 
ATOM     44  C   UNL A   1      42.333  29.432  29.193  1.00  0.00     0.029 A 
ATOM     45  N   UNL A   1      40.904  30.766  30.267  1.00  0.00    -0.354 N 
ATOM     46  C   UNL A   1      41.473  25.579  28.416  1.00  0.00     0.074 A 
ATOM     47  C   UNL A   1      40.086  25.259  28.206  1.00  0.00     0.031 C 
ATOM     48  C   UNL A   1      43.056  30.435  29.728  1.00  0.00     0.029 A 
ATOM     49  C   UNL A   1      42.195  31.141  30.665  1.00  0.00     0.049 A 
ATOM     50  H   UNL A   1      40.092  31.309  30.389  1.00  0.00     0.167 HD
ATOM     51  C   UNL A   1      42.680  25.141  27.967  1.00  0.00     0.034 A 
ATOM     52  C   UNL A   1      42.436  31.451  31.967  1.00  0.00     0.034 A 
ATOM     53  C   UNL A   1      43.770  25.891  28.621  1.00  0.00     0.049 A 
ATOM     54  C   UNL A   1      43.282  30.313  32.504  1.00  0.00     0.074 A 
ATOM     55  C   UNL A   1      44.705  26.814  28.188  1.00  0.00     0.029 A 
ATOM     56  N   UNL A   1      43.794  25.949  30.018  1.00  0.00    -0.354 N 
ATOM     57  N   UNL A   1      43.331  29.138  31.923  1.00  0.00    -0.248 NA
ATOM     58  C   UNL A   1      44.248  30.434  33.587  1.00  0.00     0.031 C 
ATOM     59  C   UNL A   1      45.190  27.511  29.341  1.00  0.00     0.029 A 
ATOM     60  C   UNL A   1      44.587  26.982  30.475  1.00  0.00     0.049 A 
ATOM     61  H   UNL A   1      43.304  25.327  30.605  1.00  0.00     0.167 HD
ATOM     62  C   UNL A   1      44.368  28.417  32.425  1.00  0.00     0.074 A 
ATOM     63  C   UNL A   1      44.879  29.248  33.507  1.00  0.00     0.031 C 
ATOM     64  C   UNL A   1      44.758  27.212  31.910  1.00  0.00     0.034 A 
BRANCH  51  65
ATOM     65  C   UNL A   1      42.905  24.148  26.845  1.00  0.00     0.023 A 
ATOM     66  C   UNL A   1      42.344  22.858  26.962  1.00  0.00     0.031 A 
ATOM     67  C   UNL A   1      43.706  24.345  25.696  1.00  0.00     0.131 A 
ATOM     68  C   UNL A   1      42.567  21.864  25.988  1.00  0.00     0.055 A 
ATOM     69  C   UNL A   1      43.880  23.374  24.699  1.00  0.00     0.041 A 
ATOM     70  F   UNL A   1      44.417  25.458  25.490  1.00  0.00    -0.206 F 
ATOM     71  C   UNL A   1      43.311  22.122  24.842  1.00  0.00     0.022 A 
BRANCH  68  72
ATOM     72  S   UNL A   1      41.906  20.198  26.259  1.00  0.00     0.124 S 
ATOM     73  O   UNL A   1      42.377  19.899  27.608  1.00  0.00    -0.237 OA
ATOM     74  O   UNL A   1      40.470  20.403  26.104  1.00  0.00    -0.237 OA
ATOM     75  O   UNL A   1      42.533  19.407  25.201  1.00  0.00    -0.744 OA
ENDBRANCH  68  72
ENDBRANCH  51  65
BRANCH  52  76
ATOM     76  C   UNL A   1      41.257  32.179  32.568  1.00  0.00     0.023 A 
ATOM     77  C   UNL A   1      40.471  31.501  33.552  1.00  0.00     0.031 A 
ATOM     78  C   UNL A   1      41.204  33.583  32.574  1.00  0.00     0.131 A 
ATOM     79  C   UNL A   1      39.766  32.222  34.544  1.00  0.00     0.055 A 
ATOM     80  C   UNL A   1      40.525  34.289  33.581  1.00  0.00     0.041 A 
ATOM     81  F   UNL A   1      41.929  34.296  31.701  1.00  0.00    -0.206 F 
ATOM     82  C   UNL A   1      39.839  33.614  34.590  1.00  0.00     0.022 A 
BRANCH  79  83
ATOM     83  S   UNL A   1      38.904  31.362  35.912  1.00  0.00     0.124 S 
ATOM     84  O   UNL A   1      39.620  31.850  37.084  1.00  0.00    -0.237 OA
ATOM     85  O   UNL A   1      37.527  31.820  35.788  1.00  0.00    -0.237 OA
ATOM     86  O   UNL A   1      39.090  29.947  35.600  1.00  0.00    -0.744 OA
ENDBRANCH  79  83
ENDBRANCH  52  76
BRANCH  64  87
ATOM     87  C   UNL A   1      45.406  26.159  32.767  1.00  0.00     0.023 A 
ATOM     88  C   UNL A   1      44.638  25.245  33.497  1.00  0.00     0.031 A 
ATOM     89  C   UNL A   1      46.801  25.943  32.780  1.00  0.00     0.131 A 
ATOM     90  C   UNL A   1      45.237  24.274  34.303  1.00  0.00     0.055 A 
ATOM     91  C   UNL A   1      47.392  24.892  33.486  1.00  0.00     0.041 A 
ATOM     92  F   UNL A   1      47.649  26.724  32.096  1.00  0.00    -0.206 F 
ATOM     93  C   UNL A   1      46.610  24.065  34.280  1.00  0.00     0.022 A 
BRANCH  90  94
ATOM     94  S   UNL A   1      44.167  23.403  35.468  1.00  0.00     0.124 S 
ATOM     95  O   UNL A   1      44.833  22.105  35.565  1.00  0.00    -0.237 OA
ATOM     96  O   UNL A   1      44.246  24.241  36.660  1.00  0.00    -0.237 OA
ATOM     97  O   UNL A   1      42.870  23.387  34.796  1.00  0.00    -0.744 OA
ENDBRANCH  90  94
ENDBRANCH  64  87
ENDBRANCH  38  39
ENDBRANCH  31  33
ENDBRANCH  30  31
ENDBRANCH  29  30
ENDBRANCH  28  29
ENDBRANCH   1  28
TORSDOF 20
ENDMDL
MODEL 2
REMARK VINA RESULT:     -12.1      4.357      9.941
REMARK SMILES Cc1cc(NC(=O)c2ccc(Br)cc2N)ccc1C(=O)OCCOCCOC(=O)c1ccc(-c2c3nc(c(-c4cc(S(=O)(=O)[O-])ccc4F)c4ccc([nH]4)c(-c4cc(S(=O)(=O)[O-])ccc4F)c4nc(c(-c5cc(S(=O)(=O)[O-])ccc5F)c5ccc2[nH]5)C=C4)C=C3)cc1
REMARK SMILES IDX 24 1 23 2 22 3 21 4 19 5 20 6 18 7 1 8 2 9 3 10 4 11 17 12
REMARK SMILES IDX 16 13 5 14 6 15 7 17 8 18 9 19 14 20 10 21 13 22 11 23 12 24
REMARK SMILES IDX 15 25 25 28 26 29 27 30 28 31 29 32 30 33 31 34 92 35 32 36
REMARK SMILES IDX 91 37 33 38 34 39 35 40 85 41 36 42 90 43 84 44 86 45 37 46
REMARK SMILES IDX 89 47 83 48 82 49 38 51 70 52 50 53 69 54 51 55 54 56 68 57
REMARK SMILES IDX 87 58 52 59 53 60 67 62 88 63 55 64 39 65 40 66 48 67 41 68
REMARK SMILES IDX 47 69 49 70 46 71 42 72 43 73 44 74 45 75 71 76 72 77 80 78
REMARK SMILES IDX 73 79 79 80 81 81 78 82 74 83 75 84 76 85 77 86 56 87 57 88
REMARK SMILES IDX 65 89 58 90 64 91 66 92 63 93 59 94 60 95 61 96 62 97
REMARK H PARENT 5 16 15 26 15 27 86 50 54 61
REMARK Flexibility Score: inf
ROOT
ATOM      1  O   UNL A   1      37.884  20.888  25.211  1.00  0.00    -0.374 OA
ENDROOT
BRANCH   1   2
ATOM      2  C   UNL A   1      36.490  20.664  25.044  1.00  0.00     0.202 C 
BRANCH   2   3
ATOM      3  C   UNL A   1      35.825  21.685  25.907  1.00  0.00     0.261 C 
BRANCH   3   4
ATOM      4  O   UNL A   1      34.806  22.434  25.226  1.00  0.00    -0.460 OA
BRANCH   4   5
ATOM      5  C   UNL A   1      33.515  22.058  25.283  1.00  0.00     0.338 C 
ATOM      6  O   UNL A   1      33.030  21.192  25.981  1.00  0.00    -0.246 OA
BRANCH   5   7
ATOM      7  C   UNL A   1      32.754  22.963  24.375  1.00  0.00     0.063 A 
ATOM      8  C   UNL A   1      30.594  23.108  25.821  1.00  0.00     0.045 C 
ATOM      9  C   UNL A   1      31.402  23.323  24.570  1.00  0.00    -0.035 A 
ATOM     10  C   UNL A   1      30.764  24.075  23.593  1.00  0.00     0.030 A 
ATOM     11  C   UNL A   1      31.494  24.680  22.585  1.00  0.00     0.041 A 
ATOM     12  C   UNL A   1      33.432  23.417  23.229  1.00  0.00     0.018 A 
ATOM     13  C   UNL A   1      32.805  24.285  22.331  1.00  0.00     0.027 A 
BRANCH  11  14
ATOM     14  N   UNL A   1      30.971  25.810  21.948  1.00  0.00    -0.322 N 
ATOM     15  C   UNL A   1      30.976  27.119  22.419  1.00  0.00     0.257 C 
ATOM     16  H   UNL A   1      30.550  25.662  21.070  1.00  0.00     0.170 HD
ATOM     17  O   UNL A   1      30.223  27.941  21.893  1.00  0.00    -0.269 OA
BRANCH  15  18
ATOM     18  C   UNL A   1      31.891  27.584  23.524  1.00  0.00     0.063 A 
ATOM     19  C   UNL A   1      31.330  27.579  24.817  1.00  0.00     0.017 A 
ATOM     20  C   UNL A   1      33.230  28.018  23.353  1.00  0.00     0.045 A 
ATOM     21  C   UNL A   1      32.065  28.013  25.924  1.00  0.00     0.016 A 
ATOM     22  C   UNL A   1      33.945  28.465  24.480  1.00  0.00     0.042 A 
ATOM     23  C   UNL A   1      33.368  28.461  25.748  1.00  0.00     0.020 A 
ATOM     24  Br  UNL A   1      34.350  29.112  27.229  1.00  0.00    -0.051 Br
BRANCH  20  25
ATOM     25  N   UNL A   1      33.851  28.183  22.113  1.00  0.00    -0.398 N 
ATOM     26  H   UNL A   1      34.786  27.898  21.988  1.00  0.00     0.156 HD
ATOM     27  H   UNL A   1      33.356  28.587  21.364  1.00  0.00     0.156 HD
ENDBRANCH  20  25
ENDBRANCH  15  18
ENDBRANCH  11  14
ENDBRANCH   5   7
ENDBRANCH   4   5
ENDBRANCH   3   4
ENDBRANCH   2   3
ENDBRANCH   1   2
BRANCH   1  28
ATOM     28  C   UNL A   1      38.228  22.162  25.706  1.00  0.00     0.202 C 
BRANCH  28  29
ATOM     29  C   UNL A   1      39.553  22.156  26.481  1.00  0.00     0.261 C 
BRANCH  29  30
ATOM     30  O   UNL A   1      40.160  23.463  26.403  1.00  0.00    -0.460 OA
BRANCH  30  31
ATOM     31  C   UNL A   1      40.597  23.996  27.580  1.00  0.00     0.338 C 
ATOM     32  O   UNL A   1      41.177  23.380  28.456  1.00  0.00    -0.246 OA
BRANCH  31  33
ATOM     33  C   UNL A   1      40.110  25.402  27.711  1.00  0.00     0.060 A 
ATOM     34  C   UNL A   1      40.479  26.379  26.763  1.00  0.00     0.016 A 
ATOM     35  C   UNL A   1      39.538  25.793  28.920  1.00  0.00     0.016 A 
ATOM     36  C   UNL A   1      40.414  27.745  27.093  1.00  0.00     0.010 A 
ATOM     37  C   UNL A   1      39.559  27.126  29.270  1.00  0.00     0.010 A 
ATOM     38  C   UNL A   1      40.033  28.109  28.383  1.00  0.00    -0.014 A 
BRANCH  38  39
ATOM     39  C   UNL A   1      40.230  29.421  29.015  1.00  0.00     0.031 A 
ATOM     40  C   UNL A   1      39.128  30.403  28.940  1.00  0.00     0.074 A 
ATOM     41  C   UNL A   1      41.217  29.595  29.932  1.00  0.00     0.049 A 
ATOM     42  N   UNL A   1      39.207  31.589  29.421  1.00  0.00    -0.248 NA
ATOM     43  C   UNL A   1      37.843  30.157  28.284  1.00  0.00     0.031 C 
ATOM     44  C   UNL A   1      41.270  30.513  31.073  1.00  0.00     0.029 A 
ATOM     45  N   UNL A   1      42.440  28.930  30.024  1.00  0.00    -0.354 N 
ATOM     46  C   UNL A   1      37.941  32.112  29.475  1.00  0.00     0.074 A 
ATOM     47  C   UNL A   1      37.156  31.252  28.630  1.00  0.00     0.031 C 
ATOM     48  C   UNL A   1      42.521  30.550  31.573  1.00  0.00     0.029 A 
ATOM     49  C   UNL A   1      43.361  29.739  30.705  1.00  0.00     0.049 A 
ATOM     50  H   UNL A   1      42.627  28.032  29.666  1.00  0.00     0.167 HD
ATOM     51  C   UNL A   1      37.721  33.140  30.339  1.00  0.00     0.034 A 
ATOM     52  C   UNL A   1      44.534  30.075  30.108  1.00  0.00     0.034 A 
ATOM     53  C   UNL A   1      39.001  33.635  30.880  1.00  0.00     0.049 A 
ATOM     54  C   UNL A   1      44.420  31.555  29.798  1.00  0.00     0.074 A 
ATOM     55  C   UNL A   1      39.600  33.610  32.127  1.00  0.00     0.029 A 
ATOM     56  N   UNL A   1      40.008  34.000  29.981  1.00  0.00    -0.354 N 
ATOM     57  N   UNL A   1      43.266  32.174  29.733  1.00  0.00    -0.248 NA
ATOM     58  C   UNL A   1      45.546  32.476  29.716  1.00  0.00     0.031 C 
ATOM     59  C   UNL A   1      41.001  33.838  31.940  1.00  0.00     0.029 A 
ATOM     60  C   UNL A   1      41.247  34.048  30.589  1.00  0.00     0.049 A 
ATOM     61  H   UNL A   1      39.852  34.201  29.029  1.00  0.00     0.167 HD
ATOM     62  C   UNL A   1      43.461  33.519  29.737  1.00  0.00     0.074 A 
ATOM     63  C   UNL A   1      44.909  33.661  29.668  1.00  0.00     0.031 C 
ATOM     64  C   UNL A   1      42.438  34.421  29.825  1.00  0.00     0.034 A 
BRANCH  51  65
ATOM     65  C   UNL A   1      36.368  33.622  30.821  1.00  0.00     0.023 A 
ATOM     66  C   UNL A   1      35.485  34.203  29.885  1.00  0.00     0.031 A 
ATOM     67  C   UNL A   1      35.905  33.631  32.158  1.00  0.00     0.131 A 
ATOM     68  C   UNL A   1      34.237  34.731  30.274  1.00  0.00     0.055 A 
ATOM     69  C   UNL A   1      34.641  34.105  32.535  1.00  0.00     0.041 A 
ATOM     70  F   UNL A   1      36.662  33.242  33.189  1.00  0.00    -0.206 F 
ATOM     71  C   UNL A   1      33.797  34.663  31.592  1.00  0.00     0.022 A 
BRANCH  68  72
ATOM     72  S   UNL A   1      33.204  35.560  29.037  1.00  0.00     0.124 S 
ATOM     73  O   UNL A   1      32.328  36.378  29.870  1.00  0.00    -0.237 OA
ATOM     74  O   UNL A   1      34.190  36.275  28.235  1.00  0.00    -0.237 OA
ATOM     75  O   UNL A   1      32.540  34.451  28.352  1.00  0.00    -0.744 OA
ENDBRANCH  68  72
ENDBRANCH  51  65
BRANCH  52  76
ATOM     76  C   UNL A   1      45.059  28.926  29.279  1.00  0.00     0.023 A 
ATOM     77  C   UNL A   1      45.224  29.125  27.873  1.00  0.00     0.031 A 
ATOM     78  C   UNL A   1      45.820  27.902  29.867  1.00  0.00     0.131 A 
ATOM     79  C   UNL A   1      46.190  28.393  27.142  1.00  0.00     0.055 A 
ATOM     80  C   UNL A   1      46.797  27.202  29.139  1.00  0.00     0.041 A 
ATOM     81  F   UNL A   1      45.743  27.666  31.184  1.00  0.00    -0.206 F 
ATOM     82  C   UNL A   1      47.013  27.471  27.788  1.00  0.00     0.022 A 
BRANCH  79  83
ATOM     83  S   UNL A   1      46.533  28.764  25.382  1.00  0.00     0.124 S 
ATOM     84  O   UNL A   1      46.319  30.204  25.321  1.00  0.00    -0.237 OA
ATOM     85  O   UNL A   1      47.912  28.331  25.206  1.00  0.00    -0.237 OA
ATOM     86  O   UNL A   1      45.558  27.947  24.663  1.00  0.00    -0.744 OA
ENDBRANCH  79  83
ENDBRANCH  52  76
BRANCH  64  87
ATOM     87  C   UNL A   1      42.539  35.792  29.214  1.00  0.00     0.023 A 
ATOM     88  C   UNL A   1      43.354  36.779  29.778  1.00  0.00     0.031 A 
ATOM     89  C   UNL A   1      41.938  36.118  27.979  1.00  0.00     0.131 A 
ATOM     90  C   UNL A   1      43.440  38.056  29.219  1.00  0.00     0.055 A 
ATOM     91  C   UNL A   1      42.128  37.353  27.354  1.00  0.00     0.041 A 
ATOM     92  F   UNL A   1      41.162  35.251  27.313  1.00  0.00    -0.206 F 
ATOM     93  C   UNL A   1      42.860  38.346  27.990  1.00  0.00     0.022 A 
BRANCH  90  94
ATOM     94  S   UNL A   1      44.219  39.339  30.223  1.00  0.00     0.124 S 
ATOM     95  O   UNL A   1      43.606  40.550  29.680  1.00  0.00    -0.237 OA
ATOM     96  O   UNL A   1      43.806  38.978  31.576  1.00  0.00    -0.237 OA
ATOM     97  O   UNL A   1      45.642  39.181  29.939  1.00  0.00    -0.744 OA
ENDBRANCH  90  94
ENDBRANCH  64  87
ENDBRANCH  38  39
ENDBRANCH  31  33
ENDBRANCH  30  31
ENDBRANCH  29  30
ENDBRANCH  28  29
ENDBRANCH   1  28
TORSDOF 20
ENDMDL
MODEL 3
REMARK VINA RESULT:     -11.8      5.510     11.621
REMARK SMILES Cc1cc(NC(=O)c2ccc(Br)cc2N)ccc1C(=O)OCCOCCOC(=O)c1ccc(-c2c3nc(c(-c4cc(S(=O)(=O)[O-])ccc4F)c4ccc([nH]4)c(-c4cc(S(=O)(=O)[O-])ccc4F)c4nc(c(-c5cc(S(=O)(=O)[O-])ccc5F)c5ccc2[nH]5)C=C4)C=C3)cc1
REMARK SMILES IDX 24 1 23 2 22 3 21 4 19 5 20 6 18 7 1 8 2 9 3 10 4 11 17 12
REMARK SMILES IDX 16 13 5 14 6 15 7 17 8 18 9 19 14 20 10 21 13 22 11 23 12 24
REMARK SMILES IDX 15 25 25 28 26 29 27 30 28 31 29 32 30 33 31 34 92 35 32 36
REMARK SMILES IDX 91 37 33 38 34 39 35 40 85 41 36 42 90 43 84 44 86 45 37 46
REMARK SMILES IDX 89 47 83 48 82 49 38 51 70 52 50 53 69 54 51 55 54 56 68 57
REMARK SMILES IDX 87 58 52 59 53 60 67 62 88 63 55 64 39 65 40 66 48 67 41 68
REMARK SMILES IDX 47 69 49 70 46 71 42 72 43 73 44 74 45 75 71 76 72 77 80 78
REMARK SMILES IDX 73 79 79 80 81 81 78 82 74 83 75 84 76 85 77 86 56 87 57 88
REMARK SMILES IDX 65 89 58 90 64 91 66 92 63 93 59 94 60 95 61 96 62 97
REMARK H PARENT 5 16 15 26 15 27 86 50 54 61
REMARK Flexibility Score: inf
ROOT
ATOM      1  O   UNL A   1      38.118  20.988  25.227  1.00  0.00    -0.374 OA
ENDROOT
BRANCH   1   2
ATOM      2  C   UNL A   1      38.827  19.770  25.039  1.00  0.00     0.202 C 
BRANCH   2   3
ATOM      3  C   UNL A   1      39.828  19.726  26.146  1.00  0.00     0.261 C 
BRANCH   3   4
ATOM      4  O   UNL A   1      41.102  19.196  25.746  1.00  0.00    -0.460 OA
BRANCH   4   5
ATOM      5  C   UNL A   1      42.192  19.354  26.519  1.00  0.00     0.338 C 
ATOM      6  O   UNL A   1      42.421  18.822  27.585  1.00  0.00    -0.246 OA
BRANCH   5   7
ATOM      7  C   UNL A   1      43.123  20.258  25.785  1.00  0.00     0.063 A 
ATOM      8  C   UNL A   1      42.187  22.496  26.728  1.00  0.00     0.045 C 
ATOM      9  C   UNL A   1      43.026  21.667  25.794  1.00  0.00    -0.035 A 
ATOM     10  C   UNL A   1      43.876  22.399  24.977  1.00  0.00     0.030 A 
ATOM     11  C   UNL A   1      44.961  21.793  24.369  1.00  0.00     0.041 A 
ATOM     12  C   UNL A   1      44.107  19.637  24.994  1.00  0.00     0.018 A 
ATOM     13  C   UNL A   1      45.036  20.405  24.287  1.00  0.00     0.027 A 
BRANCH  11  14
ATOM     14  N   UNL A   1      46.063  22.574  24.006  1.00  0.00    -0.322 N 
ATOM     15  C   UNL A   1      46.412  23.822  24.509  1.00  0.00     0.257 C 
ATOM     16  H   UNL A   1      46.656  22.199  23.315  1.00  0.00     0.170 HD
ATOM     17  O   UNL A   1      47.227  24.506  23.886  1.00  0.00    -0.269 OA
BRANCH  15  18
ATOM     18  C   UNL A   1      45.864  24.361  25.807  1.00  0.00     0.063 A 
ATOM     19  C   UNL A   1      46.483  23.874  26.975  1.00  0.00     0.017 A 
ATOM     20  C   UNL A   1      44.798  25.289  25.925  1.00  0.00     0.045 A 
ATOM     21  C   UNL A   1      46.050  24.275  28.242  1.00  0.00     0.016 A 
ATOM     22  C   UNL A   1      44.369  25.666  27.212  1.00  0.00     0.042 A 
ATOM     23  C   UNL A   1      44.989  25.164  28.354  1.00  0.00     0.020 A 
ATOM     24  Br  UNL A   1      44.352  25.663  30.064  1.00  0.00    -0.051 Br
BRANCH  20  25
ATOM     25  N   UNL A   1      44.029  25.746  24.851  1.00  0.00    -0.398 N 
ATOM     26  H   UNL A   1      43.193  26.238  25.018  1.00  0.00     0.156 HD
ATOM     27  H   UNL A   1      44.323  25.574  23.927  1.00  0.00     0.156 HD
ENDBRANCH  20  25
ENDBRANCH  15  18
ENDBRANCH  11  14
ENDBRANCH   5   7
ENDBRANCH   4   5
ENDBRANCH   3   4
ENDBRANCH   2   3
ENDBRANCH   1   2
BRANCH   1  28
ATOM     28  C   UNL A   1      38.765  21.933  26.049  1.00  0.00     0.202 C 
BRANCH  28  29
ATOM     29  C   UNL A   1      38.005  23.264  26.129  1.00  0.00     0.261 C 
BRANCH  29  30
ATOM     30  O   UNL A   1      38.678  24.147  27.052  1.00  0.00    -0.460 OA
BRANCH  30  31
ATOM     31  C   UNL A   1      39.567  25.025  26.507  1.00  0.00     0.338 C 
ATOM     32  O   UNL A   1      39.985  24.982  25.363  1.00  0.00    -0.246 OA
BRANCH  31  33
ATOM     33  C   UNL A   1      40.086  25.943  27.565  1.00  0.00     0.060 A 
ATOM     34  C   UNL A   1      39.363  26.139  28.760  1.00  0.00     0.016 A 
ATOM     35  C   UNL A   1      41.126  26.811  27.236  1.00  0.00     0.016 A 
ATOM     36  C   UNL A   1      39.584  27.289  29.541  1.00  0.00     0.010 A 
ATOM     37  C   UNL A   1      41.277  27.977  27.955  1.00  0.00     0.010 A 
ATOM     38  C   UNL A   1      40.485  28.249  29.085  1.00  0.00    -0.014 A 
BRANCH  38  39
ATOM     39  C   UNL A   1      40.597  29.636  29.557  1.00  0.00     0.031 A 
ATOM     40  C   UNL A   1      39.428  30.524  29.394  1.00  0.00     0.074 A 
ATOM     41  C   UNL A   1      41.582  29.984  30.425  1.00  0.00     0.049 A 
ATOM     42  N   UNL A   1      39.428  31.761  29.733  1.00  0.00    -0.248 NA
ATOM     43  C   UNL A   1      38.154  30.116  28.799  1.00  0.00     0.031 C 
ATOM     44  C   UNL A   1      41.586  31.030  31.452  1.00  0.00     0.029 A 
ATOM     45  N   UNL A   1      42.850  29.420  30.566  1.00  0.00    -0.354 N 
ATOM     46  C   UNL A   1      38.130  32.199  29.754  1.00  0.00     0.074 A 
ATOM     47  C   UNL A   1      37.396  31.194  29.032  1.00  0.00     0.031 C 
ATOM     48  C   UNL A   1      42.838  31.211  31.916  1.00  0.00     0.029 A 
ATOM     49  C   UNL A   1      43.721  30.364  31.129  1.00  0.00     0.049 A 
ATOM     50  H   UNL A   1      43.096  28.502  30.310  1.00  0.00     0.167 HD
ATOM     51  C   UNL A   1      37.849  33.303  30.499  1.00  0.00     0.034 A 
ATOM     52  C   UNL A   1      44.859  30.709  30.470  1.00  0.00     0.034 A 
ATOM     53  C   UNL A   1      39.099  33.944  30.951  1.00  0.00     0.049 A 
ATOM     54  C   UNL A   1      44.636  32.131  29.995  1.00  0.00     0.074 A 
ATOM     55  C   UNL A   1      39.715  34.106  32.178  1.00  0.00     0.029 A 
ATOM     56  N   UNL A   1      40.064  34.271  29.993  1.00  0.00    -0.354 N 
ATOM     57  N   UNL A   1      43.439  32.657  29.885  1.00  0.00    -0.248 NA
ATOM     58  C   UNL A   1      45.692  33.112  29.781  1.00  0.00     0.031 C 
ATOM     59  C   UNL A   1      41.093  34.407  31.935  1.00  0.00     0.029 A 
ATOM     60  C   UNL A   1      41.305  34.474  30.564  1.00  0.00     0.049 A 
ATOM     61  H   UNL A   1      39.880  34.347  29.028  1.00  0.00     0.167 HD
ATOM     62  C   UNL A   1      43.539  34.003  29.728  1.00  0.00     0.074 A 
ATOM     63  C   UNL A   1      44.972  34.237  29.612  1.00  0.00     0.031 C 
ATOM     64  C   UNL A   1      42.455  34.837  29.735  1.00  0.00     0.034 A 
BRANCH  51  65
ATOM     65  C   UNL A   1      36.472  33.743  30.952  1.00  0.00     0.023 A 
ATOM     66  C   UNL A   1      35.597  34.311  30.001  1.00  0.00     0.031 A 
ATOM     67  C   UNL A   1      35.977  33.724  32.277  1.00  0.00     0.131 A 
ATOM     68  C   UNL A   1      34.327  34.802  30.365  1.00  0.00     0.055 A 
ATOM     69  C   UNL A   1      34.691  34.160  32.628  1.00  0.00     0.041 A 
ATOM     70  F   UNL A   1      36.718  33.342  33.322  1.00  0.00    -0.206 F 
ATOM     71  C   UNL A   1      33.856  34.706  31.670  1.00  0.00     0.022 A 
BRANCH  68  72
ATOM     72  S   UNL A   1      33.303  35.618  29.111  1.00  0.00     0.124 S 
ATOM     73  O   UNL A   1      32.557  34.495  28.549  1.00  0.00    -0.237 OA
ATOM     74  O   UNL A   1      32.538  36.572  29.906  1.00  0.00    -0.237 OA
ATOM     75  O   UNL A   1      34.285  36.216  28.207  1.00  0.00    -0.744 OA
ENDBRANCH  68  72
ENDBRANCH  51  65
BRANCH  52  76
ATOM     76  C   UNL A   1      45.452  29.510  29.769  1.00  0.00     0.023 A 
ATOM     77  C   UNL A   1      45.338  29.433  28.345  1.00  0.00     0.031 A 
ATOM     78  C   UNL A   1      46.486  28.767  30.361  1.00  0.00     0.131 A 
ATOM     79  C   UNL A   1      46.292  28.727  27.575  1.00  0.00     0.055 A 
ATOM     80  C   UNL A   1      47.446  28.094  29.585  1.00  0.00     0.041 A 
ATOM     81  F   UNL A   1      46.679  28.803  31.687  1.00  0.00    -0.206 F 
ATOM     82  C   UNL A   1      47.376  28.104  28.193  1.00  0.00     0.022 A 
BRANCH  79  83
ATOM     83  S   UNL A   1      46.257  28.770  25.744  1.00  0.00     0.124 S 
ATOM     84  O   UNL A   1      44.849  28.530  25.456  1.00  0.00    -0.237 OA
ATOM     85  O   UNL A   1      46.740  30.106  25.426  1.00  0.00    -0.237 OA
ATOM     86  O   UNL A   1      47.174  27.699  25.359  1.00  0.00    -0.744 OA
ENDBRANCH  79  83
ENDBRANCH  52  76
BRANCH  64  87
ATOM     87  C   UNL A   1      42.450  36.131  28.968  1.00  0.00     0.023 A 
ATOM     88  C   UNL A   1      42.984  37.301  29.516  1.00  0.00     0.031 A 
ATOM     89  C   UNL A   1      42.039  36.212  27.619  1.00  0.00     0.131 A 
ATOM     90  C   UNL A   1      42.970  38.506  28.810  1.00  0.00     0.055 A 
ATOM     91  C   UNL A   1      42.144  37.387  26.872  1.00  0.00     0.041 A 
ATOM     92  F   UNL A   1      41.542  35.155  26.962  1.00  0.00    -0.206 F 
ATOM     93  C   UNL A   1      42.584  38.556  27.476  1.00  0.00     0.022 A 
BRANCH  90  94
ATOM     94  S   UNL A   1      43.342  40.007  29.743  1.00  0.00     0.124 S 
ATOM     95  O   UNL A   1      42.047  40.685  29.740  1.00  0.00    -0.237 OA
ATOM     96  O   UNL A   1      43.774  39.480  31.034  1.00  0.00    -0.237 OA
ATOM     97  O   UNL A   1      44.384  40.654  28.950  1.00  0.00    -0.744 OA
ENDBRANCH  90  94
ENDBRANCH  64  87
ENDBRANCH  38  39
ENDBRANCH  31  33
ENDBRANCH  30  31
ENDBRANCH  29  30
ENDBRANCH  28  29
ENDBRANCH   1  28
TORSDOF 20
ENDMDL
