MODEL 1
REMARK VINA RESULT:     -11.1      0.000      0.000
REMARK SMILES [NH3+]Cc1c(-c2ccccc2)c(C(=O)OCCOCCOC(=O)c2ccc(-c3c4nc(c(-c5cc(S(=O)(=O)[O-])ccc5F)c5ccc([nH]5)c(-c5cc(S(=O)(=O)[O-])ccc5F)c5nc(c(-c6cc(S(=O)(=O)[O-])ccc6F)c6ccc3[nH]6)C=C5)C=C4)cc2)c2ccccn12
REMARK SMILES IDX 18 1 17 2 16 3 15 4 14 5 12 6 13 7 11 8 3 9 4 10 91 11 86 12
REMARK SMILES IDX 90 13 87 14 89 15 88 16 2 17 1 18 5 22 6 23 10 24 7 25 9 26
REMARK SMILES IDX 8 27 19 28 20 29 21 30 22 31 23 32 24 33 85 34 25 35 84 36
REMARK SMILES IDX 26 37 27 38 28 39 78 40 29 41 83 42 77 43 79 44 30 45 82 46
REMARK SMILES IDX 76 47 75 48 31 50 63 51 43 52 62 53 44 54 47 55 61 56 80 57
REMARK SMILES IDX 45 58 46 59 60 61 81 62 48 63 32 64 33 65 41 66 34 67 40 68
REMARK SMILES IDX 42 69 39 70 35 71 36 72 37 73 38 74 64 75 65 76 73 77 66 78
REMARK SMILES IDX 72 79 74 80 71 81 67 82 68 83 69 84 70 85 49 86 50 87 58 88
REMARK SMILES IDX 51 89 57 90 59 91 56 92 52 93 53 94 54 95 55 96
REMARK H PARENT 1 19 1 20 1 21 79 49 47 60
REMARK Flexibility Score: inf
ROOT
ATOM      1  C   UNL A   1      31.113  31.537  25.909  1.00  0.00     0.202 C 
ENDROOT
BRANCH   1   2
ATOM      2  O   UNL A   1      32.042  30.462  25.772  1.00  0.00    -0.374 OA
BRANCH   2   3
ATOM      3  C   UNL A   1      31.704  29.247  26.450  1.00  0.00     0.202 C 
BRANCH   3   4
ATOM      4  C   UNL A   1      32.866  28.626  27.231  1.00  0.00     0.261 C 
BRANCH   4   5
ATOM      5  O   UNL A   1      33.420  27.536  26.473  1.00  0.00    -0.460 OA
BRANCH   5   6
ATOM      6  C   UNL A   1      32.614  26.453  26.294  1.00  0.00     0.341 C 
ATOM      7  O   UNL A   1      31.704  26.136  27.054  1.00  0.00    -0.246 OA
BRANCH   6   8
ATOM      8  C   UNL A   1      32.873  25.760  25.033  1.00  0.00     0.093 A 
ATOM      9  C   UNL A   1      32.671  25.097  22.841  1.00  0.00     0.086 A 
ATOM     10  C   UNL A   1      32.125  25.914  23.826  1.00  0.00     0.024 A 
ATOM     11  N   UNL A   1      33.774  24.467  23.405  1.00  0.00    -0.314 N 
ATOM     12  C   UNL A   1      33.911  24.893  24.732  1.00  0.00     0.061 A 
ATOM     13  C   UNL A   1      34.664  23.552  22.827  1.00  0.00     0.092 A 
ATOM     14  C   UNL A   1      35.025  24.384  25.473  1.00  0.00     0.027 A 
ATOM     15  C   UNL A   1      35.683  23.051  23.543  1.00  0.00     0.018 A 
ATOM     16  C   UNL A   1      35.868  23.503  24.907  1.00  0.00     0.004 A 
BRANCH   9  17
ATOM     17  C   UNL A   1      32.251  24.963  21.410  1.00  0.00     0.315 C 
BRANCH  17  18
ATOM     18  N   UNL A   1      32.798  26.004  20.551  1.00  0.00    -0.353 N 
ATOM     19  H   UNL A   1      33.563  25.620  19.997  1.00  0.00     0.344 HD
ATOM     20  H   UNL A   1      33.146  26.770  21.126  1.00  0.00     0.344 HD
ATOM     21  H   UNL A   1      32.067  26.350  19.929  1.00  0.00     0.344 HD
ENDBRANCH  17  18
ENDBRANCH   9  17
BRANCH  10  22
ATOM     22  C   UNL A   1      31.070  26.879  23.567  1.00  0.00    -0.015 A 
ATOM     23  C   UNL A   1      29.735  26.512  23.786  1.00  0.00     0.009 A 
ATOM     24  C   UNL A   1      31.367  28.140  23.047  1.00  0.00     0.009 A 
ATOM     25  C   UNL A   1      28.702  27.396  23.471  1.00  0.00     0.001 A 
ATOM     26  C   UNL A   1      30.332  29.026  22.741  1.00  0.00     0.001 A 
ATOM     27  C   UNL A   1      29.003  28.653  22.949  1.00  0.00     0.000 A 
ENDBRANCH  10  22
ENDBRANCH   6   8
ENDBRANCH   5   6
ENDBRANCH   4   5
ENDBRANCH   3   4
ENDBRANCH   2   3
ENDBRANCH   1   2
BRANCH   1  28
ATOM     28  C   UNL A   1      31.662  32.790  26.598  1.00  0.00     0.261 C 
BRANCH  28  29
ATOM     29  O   UNL A   1      32.574  32.455  27.654  1.00  0.00    -0.460 OA
BRANCH  29  30
ATOM     30  C   UNL A   1      33.523  33.396  27.886  1.00  0.00     0.338 C 
ATOM     31  O   UNL A   1      33.357  34.603  27.945  1.00  0.00    -0.246 OA
BRANCH  30  32
ATOM     32  C   UNL A   1      34.803  32.745  28.231  1.00  0.00     0.060 A 
ATOM     33  C   UNL A   1      34.760  31.382  28.551  1.00  0.00     0.016 A 
ATOM     34  C   UNL A   1      36.012  33.447  28.285  1.00  0.00     0.016 A 
ATOM     35  C   UNL A   1      35.913  30.730  28.979  1.00  0.00     0.010 A 
ATOM     36  C   UNL A   1      37.168  32.791  28.722  1.00  0.00     0.010 A 
ATOM     37  C   UNL A   1      37.114  31.440  29.106  1.00  0.00    -0.014 A 
BRANCH  37  38
ATOM     38  C   UNL A   1      38.258  30.797  29.796  1.00  0.00     0.031 A 
ATOM     39  C   UNL A   1      38.528  31.156  31.232  1.00  0.00     0.074 A 
ATOM     40  C   UNL A   1      39.008  29.873  29.170  1.00  0.00     0.049 A 
ATOM     41  N   UNL A   1      39.449  30.704  32.042  1.00  0.00    -0.248 NA
ATOM     42  C   UNL A   1      37.639  32.164  31.829  1.00  0.00     0.031 C 
ATOM     43  C   UNL A   1      38.818  29.421  27.793  1.00  0.00     0.029 A 
ATOM     44  N   UNL A   1      40.081  29.144  29.618  1.00  0.00    -0.354 N 
ATOM     45  C   UNL A   1      39.245  31.364  33.250  1.00  0.00     0.074 A 
ATOM     46  C   UNL A   1      38.143  32.279  33.048  1.00  0.00     0.031 C 
ATOM     47  C   UNL A   1      39.749  28.497  27.505  1.00  0.00     0.029 A 
ATOM     48  C   UNL A   1      40.615  28.307  28.668  1.00  0.00     0.049 A 
ATOM     49  H   UNL A   1      40.435  29.215  30.534  1.00  0.00     0.167 HD
ATOM     50  C   UNL A   1      39.909  31.210  34.422  1.00  0.00     0.034 A 
ATOM     51  C   UNL A   1      41.685  27.491  28.729  1.00  0.00     0.034 A 
ATOM     52  C   UNL A   1      41.020  30.308  34.604  1.00  0.00     0.049 A 
ATOM     53  C   UNL A   1      42.456  27.390  30.022  1.00  0.00     0.074 A 
ATOM     54  C   UNL A   1      41.760  30.067  35.748  1.00  0.00     0.029 A 
ATOM     55  N   UNL A   1      41.559  29.505  33.606  1.00  0.00    -0.354 N 
ATOM     56  N   UNL A   1      42.242  28.006  31.163  1.00  0.00    -0.248 NA
ATOM     57  C   UNL A   1      43.606  26.475  30.039  1.00  0.00     0.031 C 
ATOM     58  C   UNL A   1      42.784  29.169  35.426  1.00  0.00     0.029 A 
ATOM     59  C   UNL A   1      42.642  28.794  34.099  1.00  0.00     0.049 A 
ATOM     60  H   UNL A   1      41.222  29.450  32.683  1.00  0.00     0.167 HD
ATOM     61  C   UNL A   1      43.214  27.531  32.040  1.00  0.00     0.074 A 
ATOM     62  C   UNL A   1      44.005  26.569  31.299  1.00  0.00     0.031 C 
ATOM     63  C   UNL A   1      43.430  27.851  33.341  1.00  0.00     0.034 A 
BRANCH  50  64
ATOM     64  C   UNL A   1      39.474  32.080  35.576  1.00  0.00     0.023 A 
ATOM     65  C   UNL A   1      40.075  33.327  35.828  1.00  0.00     0.031 A 
ATOM     66  C   UNL A   1      38.478  31.636  36.462  1.00  0.00     0.131 A 
ATOM     67  C   UNL A   1      39.725  34.053  36.977  1.00  0.00     0.055 A 
ATOM     68  C   UNL A   1      38.081  32.398  37.563  1.00  0.00     0.041 A 
ATOM     69  F   UNL A   1      37.886  30.445  36.286  1.00  0.00    -0.206 F 
ATOM     70  C   UNL A   1      38.716  33.607  37.835  1.00  0.00     0.022 A 
BRANCH  67  71
ATOM     71  S   UNL A   1      40.702  35.517  37.412  1.00  0.00     0.124 S 
ATOM     72  O   UNL A   1      41.023  35.252  38.813  1.00  0.00    -0.237 OA
ATOM     73  O   UNL A   1      41.819  35.440  36.476  1.00  0.00    -0.237 OA
ATOM     74  O   UNL A   1      39.777  36.625  37.189  1.00  0.00    -0.744 OA
ENDBRANCH  67  71
ENDBRANCH  50  64
BRANCH  51  75
ATOM     75  C   UNL A   1      42.122  26.728  27.526  1.00  0.00     0.023 A 
ATOM     76  C   UNL A   1      41.859  25.355  27.397  1.00  0.00     0.031 A 
ATOM     77  C   UNL A   1      42.857  27.360  26.506  1.00  0.00     0.131 A 
ATOM     78  C   UNL A   1      42.366  24.648  26.295  1.00  0.00     0.055 A 
ATOM     79  C   UNL A   1      43.319  26.662  25.389  1.00  0.00     0.041 A 
ATOM     80  F   UNL A   1      43.132  28.671  26.580  1.00  0.00    -0.206 F 
ATOM     81  C   UNL A   1      43.084  25.294  25.285  1.00  0.00     0.022 A 
BRANCH  78  82
ATOM     82  S   UNL A   1      42.135  22.851  26.233  1.00  0.00     0.124 S 
ATOM     83  O   UNL A   1      42.931  22.409  27.373  1.00  0.00    -0.237 OA
ATOM     84  O   UNL A   1      40.687  22.727  26.375  1.00  0.00    -0.237 OA
ATOM     85  O   UNL A   1      42.663  22.484  24.921  1.00  0.00    -0.744 OA
ENDBRANCH  78  82
ENDBRANCH  51  75
BRANCH  63  86
ATOM     86  C   UNL A   1      44.544  27.121  34.049  1.00  0.00     0.023 A 
ATOM     87  C   UNL A   1      44.386  25.805  34.517  1.00  0.00     0.031 A 
ATOM     88  C   UNL A   1      45.778  27.759  34.268  1.00  0.00     0.131 A 
ATOM     89  C   UNL A   1      45.426  25.187  35.228  1.00  0.00     0.055 A 
ATOM     90  C   UNL A   1      46.827  27.121  34.930  1.00  0.00     0.041 A 
ATOM     91  F   UNL A   1      45.982  29.016  33.841  1.00  0.00    -0.206 F 
ATOM     92  C   UNL A   1      46.651  25.833  35.425  1.00  0.00     0.022 A 
BRANCH  89  93
ATOM     93  S   UNL A   1      45.129  23.559  35.970  1.00  0.00     0.124 S 
ATOM     94  O   UNL A   1      45.293  23.839  37.393  1.00  0.00    -0.237 OA
ATOM     95  O   UNL A   1      43.769  23.261  35.532  1.00  0.00    -0.237 OA
ATOM     96  O   UNL A   1      46.168  22.718  35.379  1.00  0.00    -0.744 OA
ENDBRANCH  89  93
ENDBRANCH  63  86
ENDBRANCH  37  38
ENDBRANCH  30  32
ENDBRANCH  29  30
ENDBRANCH  28  29
ENDBRANCH   1  28
TORSDOF 20
ENDMDL
MODEL 2
REMARK VINA RESULT:     -11.1      1.308      1.650
REMARK SMILES [NH3+]Cc1c(-c2ccccc2)c(C(=O)OCCOCCOC(=O)c2ccc(-c3c4nc(c(-c5cc(S(=O)(=O)[O-])ccc5F)c5ccc([nH]5)c(-c5cc(S(=O)(=O)[O-])ccc5F)c5nc(c(-c6cc(S(=O)(=O)[O-])ccc6F)c6ccc3[nH]6)C=C5)C=C4)cc2)c2ccccn12
REMARK SMILES IDX 18 1 17 2 16 3 15 4 14 5 12 6 13 7 11 8 3 9 4 10 91 11 86 12
REMARK SMILES IDX 90 13 87 14 89 15 88 16 2 17 1 18 5 22 6 23 10 24 7 25 9 26
REMARK SMILES IDX 8 27 19 28 20 29 21 30 22 31 23 32 24 33 85 34 25 35 84 36
REMARK SMILES IDX 26 37 27 38 28 39 78 40 29 41 83 42 77 43 79 44 30 45 82 46
REMARK SMILES IDX 76 47 75 48 31 50 63 51 43 52 62 53 44 54 47 55 61 56 80 57
REMARK SMILES IDX 45 58 46 59 60 61 81 62 48 63 32 64 33 65 41 66 34 67 40 68
REMARK SMILES IDX 42 69 39 70 35 71 36 72 37 73 38 74 64 75 65 76 73 77 66 78
REMARK SMILES IDX 72 79 74 80 71 81 67 82 68 83 69 84 70 85 49 86 50 87 58 88
REMARK SMILES IDX 51 89 57 90 59 91 56 92 52 93 53 94 54 95 55 96
REMARK H PARENT 1 19 1 20 1 21 79 49 47 60
REMARK Flexibility Score: inf
ROOT
ATOM      1  C   UNL A   1      31.229  31.859  26.458  1.00  0.00     0.202 C 
ENDROOT
BRANCH   1   2
ATOM      2  O   UNL A   1      32.068  30.829  25.934  1.00  0.00    -0.374 OA
BRANCH   2   3
ATOM      3  C   UNL A   1      31.725  29.489  26.302  1.00  0.00     0.202 C 
BRANCH   3   4
ATOM      4  C   UNL A   1      32.751  28.812  27.216  1.00  0.00     0.261 C 
BRANCH   4   5
ATOM      5  O   UNL A   1      33.297  27.661  26.547  1.00  0.00    -0.460 OA
BRANCH   5   6
ATOM      6  C   UNL A   1      32.434  26.636  26.304  1.00  0.00     0.341 C 
ATOM      7  O   UNL A   1      31.446  26.389  26.988  1.00  0.00    -0.246 OA
BRANCH   6   8
ATOM      8  C   UNL A   1      32.745  25.918  25.070  1.00  0.00     0.093 A 
ATOM      9  C   UNL A   1      32.620  25.193  22.892  1.00  0.00     0.086 A 
ATOM     10  C   UNL A   1      32.026  26.021  23.840  1.00  0.00     0.024 A 
ATOM     11  N   UNL A   1      33.723  24.608  23.501  1.00  0.00    -0.314 N 
ATOM     12  C   UNL A   1      33.814  25.072  24.819  1.00  0.00     0.061 A 
ATOM     13  C   UNL A   1      34.652  23.702  22.970  1.00  0.00     0.092 A 
ATOM     14  C   UNL A   1      34.919  24.612  25.602  1.00  0.00     0.027 A 
ATOM     15  C   UNL A   1      35.664  23.248  23.726  1.00  0.00     0.018 A 
ATOM     16  C   UNL A   1      35.801  23.739  25.082  1.00  0.00     0.004 A 
BRANCH   9  17
ATOM     17  C   UNL A   1      32.242  25.011  21.454  1.00  0.00     0.315 C 
BRANCH  17  18
ATOM     18  N   UNL A   1      32.797  26.036  20.580  1.00  0.00    -0.353 N 
ATOM     19  H   UNL A   1      32.098  26.761  20.422  1.00  0.00     0.344 HD
ATOM     20  H   UNL A   1      33.059  25.616  19.689  1.00  0.00     0.344 HD
ATOM     21  H   UNL A   1      33.621  26.447  21.019  1.00  0.00     0.344 HD
ENDBRANCH  17  18
ENDBRANCH   9  17
BRANCH  10  22
ATOM     22  C   UNL A   1      30.953  26.950  23.527  1.00  0.00    -0.015 A 
ATOM     23  C   UNL A   1      31.271  28.232  23.060  1.00  0.00     0.009 A 
ATOM     24  C   UNL A   1      29.620  26.601  23.745  1.00  0.00     0.009 A 
ATOM     25  C   UNL A   1      30.260  29.166  22.827  1.00  0.00     0.001 A 
ATOM     26  C   UNL A   1      28.609  27.533  23.502  1.00  0.00     0.001 A 
ATOM     27  C   UNL A   1      28.929  28.814  23.048  1.00  0.00     0.000 A 
ENDBRANCH  10  22
ENDBRANCH   6   8
ENDBRANCH   5   6
ENDBRANCH   4   5
ENDBRANCH   3   4
ENDBRANCH   2   3
ENDBRANCH   1   2
BRANCH   1  28
ATOM     28  C   UNL A   1      31.967  33.024  27.126  1.00  0.00     0.261 C 
BRANCH  28  29
ATOM     29  O   UNL A   1      33.082  32.566  27.904  1.00  0.00    -0.460 OA
BRANCH  29  30
ATOM     30  C   UNL A   1      34.089  33.468  28.012  1.00  0.00     0.338 C 
ATOM     31  O   UNL A   1      33.989  34.683  27.991  1.00  0.00    -0.246 OA
BRANCH  30  32
ATOM     32  C   UNL A   1      35.354  32.774  28.329  1.00  0.00     0.060 A 
ATOM     33  C   UNL A   1      35.272  31.409  28.635  1.00  0.00     0.016 A 
ATOM     34  C   UNL A   1      36.584  33.437  28.372  1.00  0.00     0.016 A 
ATOM     35  C   UNL A   1      36.411  30.716  29.038  1.00  0.00     0.010 A 
ATOM     36  C   UNL A   1      37.726  32.740  28.784  1.00  0.00     0.010 A 
ATOM     37  C   UNL A   1      37.635  31.387  29.154  1.00  0.00    -0.014 A 
BRANCH  37  38
ATOM     38  C   UNL A   1      38.769  30.701  29.819  1.00  0.00     0.031 A 
ATOM     39  C   UNL A   1      39.106  31.075  31.237  1.00  0.00     0.074 A 
ATOM     40  C   UNL A   1      39.450  29.728  29.189  1.00  0.00     0.049 A 
ATOM     41  N   UNL A   1      40.031  30.593  32.026  1.00  0.00    -0.248 NA
ATOM     42  C   UNL A   1      38.290  32.137  31.842  1.00  0.00     0.031 C 
ATOM     43  C   UNL A   1      39.190  29.259  27.829  1.00  0.00     0.029 A 
ATOM     44  N   UNL A   1      40.501  28.955  29.616  1.00  0.00    -0.354 N 
ATOM     45  C   UNL A   1      39.902  31.286  33.225  1.00  0.00     0.074 A 
ATOM     46  C   UNL A   1      38.841  32.252  33.041  1.00  0.00     0.031 C 
ATOM     47  C   UNL A   1      40.064  28.283  27.530  1.00  0.00     0.029 A 
ATOM     48  C   UNL A   1      40.958  28.073  28.667  1.00  0.00     0.049 A 
ATOM     49  H   UNL A   1      40.889  29.026  30.518  1.00  0.00     0.167 HD
ATOM     50  C   UNL A   1      40.597  31.122  34.378  1.00  0.00     0.034 A 
ATOM     51  C   UNL A   1      41.989  27.205  28.710  1.00  0.00     0.034 A 
ATOM     52  C   UNL A   1      41.667  30.169  34.541  1.00  0.00     0.049 A 
ATOM     53  C   UNL A   1      42.798  27.092  29.979  1.00  0.00     0.074 A 
ATOM     54  C   UNL A   1      42.434  29.913  35.665  1.00  0.00     0.029 A 
ATOM     55  N   UNL A   1      42.131  29.320  33.544  1.00  0.00    -0.354 N 
ATOM     56  N   UNL A   1      42.654  27.740  31.112  1.00  0.00    -0.248 NA
ATOM     57  C   UNL A   1      43.900  26.120  29.977  1.00  0.00     0.031 C 
ATOM     58  C   UNL A   1      43.400  28.958  35.329  1.00  0.00     0.029 A 
ATOM     59  C   UNL A   1      43.194  28.565  34.016  1.00  0.00     0.049 A 
ATOM     60  H   UNL A   1      41.760  29.263  32.634  1.00  0.00     0.167 HD
ATOM     61  C   UNL A   1      43.631  27.234  31.966  1.00  0.00     0.074 A 
ATOM     62  C   UNL A   1      44.347  26.219  31.220  1.00  0.00     0.031 C 
ATOM     63  C   UNL A   1      43.907  27.568  33.252  1.00  0.00     0.034 A 
BRANCH  50  64
ATOM     64  C   UNL A   1      40.246  32.036  35.526  1.00  0.00     0.023 A 
ATOM     65  C   UNL A   1      39.207  31.727  36.424  1.00  0.00     0.031 A 
ATOM     66  C   UNL A   1      40.928  33.252  35.700  1.00  0.00     0.131 A 
ATOM     67  C   UNL A   1      38.834  32.656  37.408  1.00  0.00     0.055 A 
ATOM     68  C   UNL A   1      40.600  34.139  36.728  1.00  0.00     0.041 A 
ATOM     69  F   UNL A   1      41.912  33.610  34.860  1.00  0.00    -0.206 F 
ATOM     70  C   UNL A   1      39.538  33.850  37.580  1.00  0.00     0.022 A 
BRANCH  67  71
ATOM     71  S   UNL A   1      37.327  32.345  38.368  1.00  0.00     0.124 S 
ATOM     72  O   UNL A   1      36.333  33.101  37.610  1.00  0.00    -0.237 OA
ATOM     73  O   UNL A   1      37.208  30.893  38.307  1.00  0.00    -0.237 OA
ATOM     74  O   UNL A   1      37.643  32.890  39.687  1.00  0.00    -0.744 OA
ENDBRANCH  67  71
ENDBRANCH  50  64
BRANCH  51  75
ATOM     75  C   UNL A   1      42.344  26.398  27.510  1.00  0.00     0.023 A 
ATOM     76  C   UNL A   1      41.969  25.050  27.399  1.00  0.00     0.031 A 
ATOM     77  C   UNL A   1      43.115  26.957  26.474  1.00  0.00     0.131 A 
ATOM     78  C   UNL A   1      42.401  24.293  26.298  1.00  0.00     0.055 A 
ATOM     79  C   UNL A   1      43.504  26.213  25.359  1.00  0.00     0.041 A 
ATOM     80  F   UNL A   1      43.498  28.242  26.531  1.00  0.00    -0.206 F 
ATOM     81  C   UNL A   1      43.156  24.868  25.272  1.00  0.00     0.022 A 
BRANCH  78  82
ATOM     82  S   UNL A   1      42.022  22.520  26.259  1.00  0.00     0.124 S 
ATOM     83  O   UNL A   1      40.564  22.525  26.295  1.00  0.00    -0.237 OA
ATOM     84  O   UNL A   1      42.632  22.109  24.998  1.00  0.00    -0.237 OA
ATOM     85  O   UNL A   1      42.676  22.005  27.460  1.00  0.00    -0.744 OA
ENDBRANCH  78  82
ENDBRANCH  51  75
BRANCH  63  86
ATOM     86  C   UNL A   1      45.007  26.798  33.938  1.00  0.00     0.023 A 
ATOM     87  C   UNL A   1      44.731  25.717  34.795  1.00  0.00     0.031 A 
ATOM     88  C   UNL A   1      46.352  27.160  33.740  1.00  0.00     0.131 A 
ATOM     89  C   UNL A   1      45.781  25.070  35.463  1.00  0.00     0.055 A 
ATOM     90  C   UNL A   1      47.395  26.479  34.367  1.00  0.00     0.041 A 
ATOM     91  F   UNL A   1      46.671  28.183  32.931  1.00  0.00    -0.206 F 
ATOM     92  C   UNL A   1      47.113  25.436  35.243  1.00  0.00     0.022 A 
BRANCH  89  93
ATOM     93  S   UNL A   1      45.380  23.799  36.693  1.00  0.00     0.124 S 
ATOM     94  O   UNL A   1      46.666  23.597  37.352  1.00  0.00    -0.237 OA
ATOM     95  O   UNL A   1      44.350  24.454  37.493  1.00  0.00    -0.237 OA
ATOM     96  O   UNL A   1      44.914  22.674  35.885  1.00  0.00    -0.744 OA
ENDBRANCH  89  93
ENDBRANCH  63  86
ENDBRANCH  37  38
ENDBRANCH  30  32
ENDBRANCH  29  30
ENDBRANCH  28  29
ENDBRANCH   1  28
TORSDOF 20
ENDMDL
MODEL 3
REMARK VINA RESULT:     -11.0      4.935     10.503
REMARK SMILES [NH3+]Cc1c(-c2ccccc2)c(C(=O)OCCOCCOC(=O)c2ccc(-c3c4nc(c(-c5cc(S(=O)(=O)[O-])ccc5F)c5ccc([nH]5)c(-c5cc(S(=O)(=O)[O-])ccc5F)c5nc(c(-c6cc(S(=O)(=O)[O-])ccc6F)c6ccc3[nH]6)C=C5)C=C4)cc2)c2ccccn12
REMARK SMILES IDX 18 1 17 2 16 3 15 4 14 5 12 6 13 7 11 8 3 9 4 10 91 11 86 12
REMARK SMILES IDX 90 13 87 14 89 15 88 16 2 17 1 18 5 22 6 23 10 24 7 25 9 26
REMARK SMILES IDX 8 27 19 28 20 29 21 30 22 31 23 32 24 33 85 34 25 35 84 36
REMARK SMILES IDX 26 37 27 38 28 39 78 40 29 41 83 42 77 43 79 44 30 45 82 46
REMARK SMILES IDX 76 47 75 48 31 50 63 51 43 52 62 53 44 54 47 55 61 56 80 57
REMARK SMILES IDX 45 58 46 59 60 61 81 62 48 63 32 64 33 65 41 66 34 67 40 68
REMARK SMILES IDX 42 69 39 70 35 71 36 72 37 73 38 74 64 75 65 76 73 77 66 78
REMARK SMILES IDX 72 79 74 80 71 81 67 82 68 83 69 84 70 85 49 86 50 87 58 88
REMARK SMILES IDX 51 89 57 90 59 91 56 92 52 93 53 94 54 95 55 96
REMARK H PARENT 1 19 1 20 1 21 79 49 47 60
REMARK Flexibility Score: inf
ROOT
ATOM      1  C   UNL A   1      37.353  19.634  24.901  1.00  0.00     0.202 C 
ENDROOT
BRANCH   1   2
ATOM      2  O   UNL A   1      36.700  20.848  25.272  1.00  0.00    -0.374 OA
BRANCH   2   3
ATOM      3  C   UNL A   1      37.116  22.026  24.572  1.00  0.00     0.202 C 
BRANCH   3   4
ATOM      4  C   UNL A   1      36.062  22.584  23.612  1.00  0.00     0.261 C 
BRANCH   4   5
ATOM      5  O   UNL A   1      35.679  23.903  24.041  1.00  0.00    -0.460 OA
BRANCH   5   6
ATOM      6  C   UNL A   1      34.520  24.396  23.521  1.00  0.00     0.341 C 
ATOM      7  O   UNL A   1      34.313  24.551  22.322  1.00  0.00    -0.246 OA
BRANCH   6   8
ATOM      8  C   UNL A   1      33.496  24.622  24.539  1.00  0.00     0.093 A 
ATOM      9  C   UNL A   1      31.808  24.214  26.046  1.00  0.00     0.086 A 
ATOM     10  C   UNL A   1      32.650  23.622  25.109  1.00  0.00     0.024 A 
ATOM     11  N   UNL A   1      32.146  25.562  26.098  1.00  0.00    -0.314 N 
ATOM     12  C   UNL A   1      33.193  25.802  25.200  1.00  0.00     0.061 A 
ATOM     13  C   UNL A   1      31.598  26.583  26.885  1.00  0.00     0.092 A 
ATOM     14  C   UNL A   1      33.714  27.134  25.139  1.00  0.00     0.027 A 
ATOM     15  C   UNL A   1      32.069  27.837  26.793  1.00  0.00     0.018 A 
ATOM     16  C   UNL A   1      33.175  28.106  25.898  1.00  0.00     0.004 A 
BRANCH   9  17
ATOM     17  C   UNL A   1      30.790  23.555  26.925  1.00  0.00     0.315 C 
BRANCH  17  18
ATOM     18  N   UNL A   1      29.428  23.993  26.654  1.00  0.00    -0.353 N 
ATOM     19  H   UNL A   1      29.443  24.947  26.295  1.00  0.00     0.344 HD
ATOM     20  H   UNL A   1      28.884  23.962  27.516  1.00  0.00     0.344 HD
ATOM     21  H   UNL A   1      29.004  23.375  25.962  1.00  0.00     0.344 HD
ENDBRANCH  17  18
ENDBRANCH   9  17
BRANCH  10  22
ATOM     22  C   UNL A   1      32.733  22.186  24.907  1.00  0.00    -0.015 A 
ATOM     23  C   UNL A   1      32.266  21.634  23.706  1.00  0.00     0.009 A 
ATOM     24  C   UNL A   1      33.212  21.349  25.916  1.00  0.00     0.009 A 
ATOM     25  C   UNL A   1      32.265  20.250  23.522  1.00  0.00     0.001 A 
ATOM     26  C   UNL A   1      33.219  19.965  25.726  1.00  0.00     0.001 A 
ATOM     27  C   UNL A   1      32.742  19.418  24.533  1.00  0.00     0.000 A 
ENDBRANCH  10  22
ENDBRANCH   6   8
ENDBRANCH   5   6
ENDBRANCH   4   5
ENDBRANCH   3   4
ENDBRANCH   2   3
ENDBRANCH   1   2
BRANCH   1  28
ATOM     28  C   UNL A   1      38.877  19.637  25.060  1.00  0.00     0.261 C 
BRANCH  28  29
ATOM     29  O   UNL A   1      39.272  20.138  26.345  1.00  0.00    -0.460 OA
BRANCH  29  30
ATOM     30  C   UNL A   1      40.599  20.396  26.455  1.00  0.00     0.338 C 
ATOM     31  O   UNL A   1      41.515  19.701  26.050  1.00  0.00    -0.246 OA
BRANCH  30  32
ATOM     32  C   UNL A   1      40.804  21.752  27.004  1.00  0.00     0.060 A 
ATOM     33  C   UNL A   1      40.216  22.817  26.309  1.00  0.00     0.016 A 
ATOM     34  C   UNL A   1      41.584  21.992  28.140  1.00  0.00     0.016 A 
ATOM     35  C   UNL A   1      40.450  24.128  26.716  1.00  0.00     0.010 A 
ATOM     36  C   UNL A   1      41.823  23.311  28.542  1.00  0.00     0.010 A 
ATOM     37  C   UNL A   1      41.287  24.384  27.809  1.00  0.00    -0.014 A 
BRANCH  37  38
ATOM     38  C   UNL A   1      41.722  25.777  28.069  1.00  0.00     0.031 A 
ATOM     39  C   UNL A   1      43.067  26.220  27.559  1.00  0.00     0.074 A 
ATOM     40  C   UNL A   1      40.913  26.645  28.702  1.00  0.00     0.049 A 
ATOM     41  N   UNL A   1      43.642  27.390  27.641  1.00  0.00    -0.248 NA
ATOM     42  C   UNL A   1      43.867  25.201  26.864  1.00  0.00     0.031 C 
ATOM     43  C   UNL A   1      39.577  26.337  29.210  1.00  0.00     0.029 A 
ATOM     44  N   UNL A   1      41.098  27.966  29.021  1.00  0.00    -0.354 N 
ATOM     45  C   UNL A   1      44.869  27.253  27.001  1.00  0.00     0.074 A 
ATOM     46  C   UNL A   1      44.971  25.874  26.577  1.00  0.00     0.031 C 
ATOM     47  C   UNL A   1      39.064  27.438  29.784  1.00  0.00     0.029 A 
ATOM     48  C   UNL A   1      40.043  28.522  29.705  1.00  0.00     0.049 A 
ATOM     49  H   UNL A   1      41.910  28.469  28.782  1.00  0.00     0.167 HD
ATOM     50  C   UNL A   1      45.818  28.195  26.775  1.00  0.00     0.034 A 
ATOM     51  C   UNL A   1      39.893  29.759  30.217  1.00  0.00     0.034 A 
ATOM     52  C   UNL A   1      45.713  29.563  27.221  1.00  0.00     0.049 A 
ATOM     53  C   UNL A   1      40.994  30.772  30.020  1.00  0.00     0.074 A 
ATOM     54  C   UNL A   1      46.609  30.603  27.043  1.00  0.00     0.029 A 
ATOM     55  N   UNL A   1      44.648  30.080  27.948  1.00  0.00    -0.354 N 
ATOM     56  N   UNL A   1      42.142  30.634  29.396  1.00  0.00    -0.248 NA
ATOM     57  C   UNL A   1      40.773  32.109  30.586  1.00  0.00     0.031 C 
ATOM     58  C   UNL A   1      46.117  31.727  27.715  1.00  0.00     0.029 A 
ATOM     59  C   UNL A   1      44.880  31.412  28.254  1.00  0.00     0.049 A 
ATOM     60  H   UNL A   1      43.845  29.573  28.210  1.00  0.00     0.167 HD
ATOM     61  C   UNL A   1      42.766  31.877  29.472  1.00  0.00     0.074 A 
ATOM     62  C   UNL A   1      41.862  32.752  30.190  1.00  0.00     0.031 C 
ATOM     63  C   UNL A   1      43.973  32.265  28.985  1.00  0.00     0.034 A 
BRANCH  50  64
ATOM     64  C   UNL A   1      47.069  27.751  26.058  1.00  0.00     0.023 A 
ATOM     65  C   UNL A   1      47.249  27.975  24.681  1.00  0.00     0.031 A 
ATOM     66  C   UNL A   1      48.075  27.056  26.750  1.00  0.00     0.131 A 
ATOM     67  C   UNL A   1      48.372  27.444  24.027  1.00  0.00     0.055 A 
ATOM     68  C   UNL A   1      49.226  26.596  26.107  1.00  0.00     0.041 A 
ATOM     69  F   UNL A   1      47.948  26.794  28.060  1.00  0.00    -0.206 F 
ATOM     70  C   UNL A   1      49.373  26.775  24.735  1.00  0.00     0.022 A 
BRANCH  67  71
ATOM     71  S   UNL A   1      48.438  27.518  22.216  1.00  0.00     0.124 S 
ATOM     72  O   UNL A   1      49.633  28.330  21.997  1.00  0.00    -0.237 OA
ATOM     73  O   UNL A   1      48.545  26.111  21.846  1.00  0.00    -0.237 OA
ATOM     74  O   UNL A   1      47.179  28.164  21.853  1.00  0.00    -0.744 OA
ENDBRANCH  67  71
ENDBRANCH  50  64
BRANCH  51  75
ATOM     75  C   UNL A   1      38.673  30.109  30.998  1.00  0.00     0.023 A 
ATOM     76  C   UNL A   1      37.643  30.879  30.436  1.00  0.00     0.031 A 
ATOM     77  C   UNL A   1      38.547  29.715  32.343  1.00  0.00     0.131 A 
ATOM     78  C   UNL A   1      36.551  31.268  31.229  1.00  0.00     0.055 A 
ATOM     79  C   UNL A   1      37.438  30.067  33.114  1.00  0.00     0.041 A 
ATOM     80  F   UNL A   1      39.503  28.976  32.926  1.00  0.00    -0.206 F 
ATOM     81  C   UNL A   1      36.436  30.859  32.560  1.00  0.00     0.022 A 
BRANCH  78  82
ATOM     82  S   UNL A   1      35.312  32.384  30.515  1.00  0.00     0.124 S 
ATOM     83  O   UNL A   1      36.074  33.619  30.366  1.00  0.00    -0.237 OA
ATOM     84  O   UNL A   1      34.961  31.693  29.278  1.00  0.00    -0.237 OA
ATOM     85  O   UNL A   1      34.259  32.417  31.527  1.00  0.00    -0.744 OA
ENDBRANCH  78  82
ENDBRANCH  51  75
BRANCH  63  86
ATOM     86  C   UNL A   1      44.358  33.710  29.185  1.00  0.00     0.023 A 
ATOM     87  C   UNL A   1      43.774  34.742  28.430  1.00  0.00     0.031 A 
ATOM     88  C   UNL A   1      45.334  34.055  30.138  1.00  0.00     0.131 A 
ATOM     89  C   UNL A   1      44.209  36.065  28.603  1.00  0.00     0.055 A 
ATOM     90  C   UNL A   1      45.725  35.378  30.342  1.00  0.00     0.041 A 
ATOM     91  F   UNL A   1      45.922  33.108  30.886  1.00  0.00    -0.206 F 
ATOM     92  C   UNL A   1      45.171  36.391  29.563  1.00  0.00     0.022 A 
BRANCH  89  93
ATOM     93  S   UNL A   1      43.565  37.347  27.493  1.00  0.00     0.124 S 
ATOM     94  O   UNL A   1      44.739  38.188  27.285  1.00  0.00    -0.237 OA
ATOM     95  O   UNL A   1      43.127  36.568  26.339  1.00  0.00    -0.237 OA
ATOM     96  O   UNL A   1      42.489  37.962  28.268  1.00  0.00    -0.744 OA
ENDBRANCH  89  93
ENDBRANCH  63  86
ENDBRANCH  37  38
ENDBRANCH  30  32
ENDBRANCH  29  30
ENDBRANCH  28  29
ENDBRANCH   1  28
TORSDOF 20
ENDMDL
