MODEL 1
REMARK VINA RESULT:      -9.9      0.000      0.000
REMARK SMILES CN(CC(=O)NCC(=O)OCCOCCOC(=O)c1ccc(-c2c3nc(c(-c4cc(S(=O)(=O)[O-])ccc4F)c4ccc([nH]4)c(-c4cc(S(=O)(=O)[O-])ccc4F)c4nc(c(-c5cc(S(=O)(=O)[O-])ccc5F)c5ccc2[nH]5)C=C4)C=C3)cc1)c1ncccn1
REMARK SMILES IDX 12 1 11 2 10 3 8 4 9 5 7 6 6 7 4 8 5 9 3 11 2 12 1 13 82 14
REMARK SMILES IDX 83 15 87 16 84 17 86 18 85 19 13 20 14 21 15 22 16 23 17 24
REMARK SMILES IDX 18 25 19 26 20 27 81 28 21 29 80 30 22 31 23 32 24 33 74 34
REMARK SMILES IDX 25 35 79 36 73 37 75 38 26 39 78 40 72 41 71 42 27 44 59 45
REMARK SMILES IDX 39 46 58 47 40 48 43 49 57 50 76 51 41 52 42 53 56 55 77 56
REMARK SMILES IDX 44 57 28 58 29 59 37 60 30 61 36 62 38 63 35 64 31 65 32 66
REMARK SMILES IDX 33 67 34 68 60 69 61 70 69 71 62 72 68 73 70 74 67 75 63 76
REMARK SMILES IDX 64 77 65 78 66 79 45 80 46 81 54 82 47 83 53 84 55 85 52 86
REMARK SMILES IDX 48 87 49 88 50 89 51 90
REMARK H PARENT 6 10 75 43 43 54
REMARK Flexibility Score: inf
ROOT
ATOM      1  C   UNL A   1      35.586  21.180  25.770  1.00  0.00     0.202 C 
ENDROOT
BRANCH   1   2
ATOM      2  C   UNL A   1      34.476  21.887  24.990  1.00  0.00     0.261 C 
BRANCH   2   3
ATOM      3  O   UNL A   1      33.701  20.933  24.250  1.00  0.00    -0.462 OA
BRANCH   3   4
ATOM      4  C   UNL A   1      32.503  20.600  24.788  1.00  0.00     0.325 C 
ATOM      5  O   UNL A   1      32.255  19.550  25.373  1.00  0.00    -0.250 OA
BRANCH   4   6
ATOM      6  C   UNL A   1      31.496  21.747  24.744  1.00  0.00     0.238 C 
BRANCH   6   7
ATOM      7  N   UNL A   1      31.049  22.366  25.981  1.00  0.00    -0.344 N 
ATOM      8  C   UNL A   1      31.046  23.701  26.283  1.00  0.00     0.240 C 
ATOM      9  O   UNL A   1      30.377  24.071  27.251  1.00  0.00    -0.273 OA
ATOM     10  H   UNL A   1      30.713  21.758  26.678  1.00  0.00     0.164 HD
BRANCH   8  11
ATOM     11  C   UNL A   1      31.760  24.684  25.344  1.00  0.00     0.219 C 
BRANCH  11  12
ATOM     12  N   UNL A   1      31.519  26.083  25.699  1.00  0.00    -0.335 N 
ATOM     13  C   UNL A   1      32.479  26.814  26.497  1.00  0.00     0.147 C 
BRANCH  12  14
ATOM     14  C   UNL A   1      30.769  26.815  24.789  1.00  0.00     0.225 A 
ATOM     15  N   UNL A   1      31.189  28.044  24.455  1.00  0.00    -0.221 NA
ATOM     16  N   UNL A   1      29.630  26.288  24.308  1.00  0.00    -0.221 NA
ATOM     17  C   UNL A   1      30.420  28.775  23.629  1.00  0.00     0.117 A 
ATOM     18  C   UNL A   1      28.875  27.065  23.503  1.00  0.00     0.117 A 
ATOM     19  C   UNL A   1      29.225  28.335  23.127  1.00  0.00     0.040 A 
ENDBRANCH  12  14
ENDBRANCH  11  12
ENDBRANCH   8  11
ENDBRANCH   6   7
ENDBRANCH   4   6
ENDBRANCH   3   4
ENDBRANCH   2   3
ENDBRANCH   1   2
BRANCH   1  20
ATOM     20  O   UNL A   1      36.861  21.111  25.125  1.00  0.00    -0.374 OA
BRANCH  20  21
ATOM     21  C   UNL A   1      37.283  19.837  24.639  1.00  0.00     0.202 C 
BRANCH  21  22
ATOM     22  C   UNL A   1      38.573  19.243  25.221  1.00  0.00     0.261 C 
BRANCH  22  23
ATOM     23  O   UNL A   1      39.006  19.892  26.427  1.00  0.00    -0.460 OA
BRANCH  23  24
ATOM     24  C   UNL A   1      40.338  20.130  26.493  1.00  0.00     0.338 C 
ATOM     25  O   UNL A   1      41.233  19.407  26.071  1.00  0.00    -0.246 OA
BRANCH  24  26
ATOM     26  C   UNL A   1      40.598  21.492  26.995  1.00  0.00     0.060 A 
ATOM     27  C   UNL A   1      39.912  22.549  26.385  1.00  0.00     0.016 A 
ATOM     28  C   UNL A   1      41.557  21.744  27.977  1.00  0.00     0.016 A 
ATOM     29  C   UNL A   1      40.210  23.869  26.724  1.00  0.00     0.010 A 
ATOM     30  C   UNL A   1      41.863  23.071  28.306  1.00  0.00     0.010 A 
ATOM     31  C   UNL A   1      41.212  24.141  27.663  1.00  0.00    -0.014 A 
BRANCH  31  32
ATOM     32  C   UNL A   1      41.683  25.537  27.862  1.00  0.00     0.031 A 
ATOM     33  C   UNL A   1      43.058  25.915  27.378  1.00  0.00     0.074 A 
ATOM     34  C   UNL A   1      40.896  26.462  28.442  1.00  0.00     0.049 A 
ATOM     35  N   UNL A   1      43.702  27.046  27.506  1.00  0.00    -0.248 NA
ATOM     36  C   UNL A   1      43.801  24.876  26.651  1.00  0.00     0.031 C 
ATOM     37  C   UNL A   1      39.519  26.243  28.884  1.00  0.00     0.029 A 
ATOM     38  N   UNL A   1      41.147  27.770  28.772  1.00  0.00    -0.354 N 
ATOM     39  C   UNL A   1      44.927  26.857  26.874  1.00  0.00     0.074 A 
ATOM     40  C   UNL A   1      44.951  25.485  26.409  1.00  0.00     0.031 C 
ATOM     41  C   UNL A   1      39.061  27.368  29.460  1.00  0.00     0.029 A 
ATOM     42  C   UNL A   1      40.115  28.379  29.447  1.00  0.00     0.049 A 
ATOM     43  H   UNL A   1      41.989  28.230  28.546  1.00  0.00     0.167 HD
ATOM     44  C   UNL A   1      45.932  27.748  26.683  1.00  0.00     0.034 A 
ATOM     45  C   UNL A   1      40.039  29.603  30.010  1.00  0.00     0.034 A 
ATOM     46  C   UNL A   1      45.897  29.110  27.154  1.00  0.00     0.049 A 
ATOM     47  C   UNL A   1      41.212  30.545  29.882  1.00  0.00     0.074 A 
ATOM     48  C   UNL A   1      46.853  30.100  27.002  1.00  0.00     0.029 A 
ATOM     49  N   UNL A   1      44.856  29.676  27.877  1.00  0.00    -0.354 N 
ATOM     50  N   UNL A   1      42.363  30.353  29.278  1.00  0.00    -0.248 NA
ATOM     51  C   UNL A   1      41.070  31.873  30.496  1.00  0.00     0.031 C 
ATOM     52  C   UNL A   1      46.423  31.238  27.693  1.00  0.00     0.029 A 
ATOM     53  C   UNL A   1      45.161  30.987  28.209  1.00  0.00     0.049 A 
ATOM     54  H   UNL A   1      44.020  29.213  28.120  1.00  0.00     0.167 HD
ATOM     55  C   UNL A   1      43.062  31.553  29.404  1.00  0.00     0.074 A 
ATOM     56  C   UNL A   1      42.203  32.459  30.137  1.00  0.00     0.031 C 
ATOM     57  C   UNL A   1      44.298  31.879  28.945  1.00  0.00     0.034 A 
BRANCH  44  58
ATOM     58  C   UNL A   1      47.168  27.255  25.972  1.00  0.00     0.023 A 
ATOM     59  C   UNL A   1      48.194  26.576  26.654  1.00  0.00     0.031 A 
ATOM     60  C   UNL A   1      47.336  27.491  24.596  1.00  0.00     0.131 A 
ATOM     61  C   UNL A   1      49.370  26.222  25.975  1.00  0.00     0.055 A 
ATOM     62  C   UNL A   1      48.475  27.066  23.909  1.00  0.00     0.041 A 
ATOM     63  F   UNL A   1      46.401  28.154  23.898  1.00  0.00    -0.206 F 
ATOM     64  C   UNL A   1      49.508  26.441  24.602  1.00  0.00     0.022 A 
BRANCH  61  65
ATOM     65  S   UNL A   1      50.773  25.599  26.940  1.00  0.00     0.124 S 
ATOM     66  O   UNL A   1      51.088  26.751  27.781  1.00  0.00    -0.237 OA
ATOM     67  O   UNL A   1      50.198  24.446  27.624  1.00  0.00    -0.237 OA
ATOM     68  O   UNL A   1      51.776  25.286  25.924  1.00  0.00    -0.744 OA
ENDBRANCH  61  65
ENDBRANCH  44  58
BRANCH  45  69
ATOM     69  C   UNL A   1      38.828  30.006  30.780  1.00  0.00     0.023 A 
ATOM     70  C   UNL A   1      37.852  30.843  30.218  1.00  0.00     0.031 A 
ATOM     71  C   UNL A   1      38.663  29.608  32.120  1.00  0.00     0.131 A 
ATOM     72  C   UNL A   1      36.783  31.299  31.006  1.00  0.00     0.055 A 
ATOM     73  C   UNL A   1      37.571  30.023  32.884  1.00  0.00     0.041 A 
ATOM     74  F   UNL A   1      39.563  28.800  32.704  1.00  0.00    -0.206 F 
ATOM     75  C   UNL A   1      36.630  30.887  32.331  1.00  0.00     0.022 A 
BRANCH  72  76
ATOM     76  S   UNL A   1      35.639  32.515  30.296  1.00  0.00     0.124 S 
ATOM     77  O   UNL A   1      35.552  32.067  28.911  1.00  0.00    -0.237 OA
ATOM     78  O   UNL A   1      34.446  32.316  31.111  1.00  0.00    -0.237 OA
ATOM     79  O   UNL A   1      36.327  33.788  30.500  1.00  0.00    -0.744 OA
ENDBRANCH  72  76
ENDBRANCH  45  69
BRANCH  57  80
ATOM     80  C   UNL A   1      44.768  33.296  29.177  1.00  0.00     0.023 A 
ATOM     81  C   UNL A   1      44.571  34.310  28.224  1.00  0.00     0.031 A 
ATOM     82  C   UNL A   1      45.426  33.631  30.374  1.00  0.00     0.131 A 
ATOM     83  C   UNL A   1      45.071  35.600  28.463  1.00  0.00     0.055 A 
ATOM     84  C   UNL A   1      45.869  34.930  30.632  1.00  0.00     0.041 A 
ATOM     85  F   UNL A   1      45.642  32.702  31.319  1.00  0.00    -0.206 F 
ATOM     86  C   UNL A   1      45.704  35.919  29.667  1.00  0.00     0.022 A 
BRANCH  83  87
ATOM     87  S   UNL A   1      44.957  36.837  27.142  1.00  0.00     0.124 S 
ATOM     88  O   UNL A   1      43.569  36.700  26.716  1.00  0.00    -0.237 OA
ATOM     89  O   UNL A   1      45.291  38.073  27.843  1.00  0.00    -0.237 OA
ATOM     90  O   UNL A   1      45.952  36.391  26.168  1.00  0.00    -0.744 OA
ENDBRANCH  83  87
ENDBRANCH  57  80
ENDBRANCH  31  32
ENDBRANCH  24  26
ENDBRANCH  23  24
ENDBRANCH  22  23
ENDBRANCH  21  22
ENDBRANCH  20  21
ENDBRANCH   1  20
TORSDOF 21
ENDMDL
MODEL 2
REMARK VINA RESULT:      -9.9      1.819      2.295
REMARK SMILES CN(CC(=O)NCC(=O)OCCOCCOC(=O)c1ccc(-c2c3nc(c(-c4cc(S(=O)(=O)[O-])ccc4F)c4ccc([nH]4)c(-c4cc(S(=O)(=O)[O-])ccc4F)c4nc(c(-c5cc(S(=O)(=O)[O-])ccc5F)c5ccc2[nH]5)C=C4)C=C3)cc1)c1ncccn1
REMARK SMILES IDX 12 1 11 2 10 3 8 4 9 5 7 6 6 7 4 8 5 9 3 11 2 12 1 13 82 14
REMARK SMILES IDX 83 15 87 16 84 17 86 18 85 19 13 20 14 21 15 22 16 23 17 24
REMARK SMILES IDX 18 25 19 26 20 27 81 28 21 29 80 30 22 31 23 32 24 33 74 34
REMARK SMILES IDX 25 35 79 36 73 37 75 38 26 39 78 40 72 41 71 42 27 44 59 45
REMARK SMILES IDX 39 46 58 47 40 48 43 49 57 50 76 51 41 52 42 53 56 55 77 56
REMARK SMILES IDX 44 57 28 58 29 59 37 60 30 61 36 62 38 63 35 64 31 65 32 66
REMARK SMILES IDX 33 67 34 68 60 69 61 70 69 71 62 72 68 73 70 74 67 75 63 76
REMARK SMILES IDX 64 77 65 78 66 79 45 80 46 81 54 82 47 83 53 84 55 85 52 86
REMARK SMILES IDX 48 87 49 88 50 89 51 90
REMARK H PARENT 6 10 75 43 43 54
REMARK Flexibility Score: inf
ROOT
ATOM      1  C   UNL A   1      36.507  22.011  25.255  1.00  0.00     0.202 C 
ENDROOT
BRANCH   1   2
ATOM      2  C   UNL A   1      35.170  22.591  24.790  1.00  0.00     0.261 C 
BRANCH   2   3
ATOM      3  O   UNL A   1      35.325  23.968  24.422  1.00  0.00    -0.462 OA
BRANCH   3   4
ATOM      4  C   UNL A   1      34.256  24.542  23.818  1.00  0.00     0.325 C 
ATOM      5  O   UNL A   1      33.577  24.025  22.936  1.00  0.00    -0.250 OA
BRANCH   4   6
ATOM      6  C   UNL A   1      33.858  25.870  24.459  1.00  0.00     0.238 C 
BRANCH   6   7
ATOM      7  N   UNL A   1      32.622  25.965  25.219  1.00  0.00    -0.344 N 
ATOM      8  C   UNL A   1      31.668  26.941  25.127  1.00  0.00     0.240 C 
ATOM      9  O   UNL A   1      30.565  26.718  25.632  1.00  0.00    -0.273 OA
ATOM     10  H   UNL A   1      32.455  25.248  25.873  1.00  0.00     0.164 HD
BRANCH   8  11
ATOM     11  C   UNL A   1      31.962  28.202  24.300  1.00  0.00     0.219 C 
BRANCH  11  12
ATOM     12  N   UNL A   1      31.246  28.223  23.025  1.00  0.00    -0.335 N 
ATOM     13  C   UNL A   1      30.926  26.988  22.342  1.00  0.00     0.147 C 
BRANCH  12  14
ATOM     14  C   UNL A   1      30.375  29.288  22.840  1.00  0.00     0.225 A 
ATOM     15  N   UNL A   1      30.060  30.047  23.900  1.00  0.00    -0.221 NA
ATOM     16  N   UNL A   1      29.845  29.495  21.623  1.00  0.00    -0.221 NA
ATOM     17  C   UNL A   1      29.161  31.033  23.729  1.00  0.00     0.117 A 
ATOM     18  C   UNL A   1      28.927  30.477  21.502  1.00  0.00     0.117 A 
ATOM     19  C   UNL A   1      28.540  31.286  22.537  1.00  0.00     0.040 A 
ENDBRANCH  12  14
ENDBRANCH  11  12
ENDBRANCH   8  11
ENDBRANCH   6   7
ENDBRANCH   4   6
ENDBRANCH   3   4
ENDBRANCH   2   3
ENDBRANCH   1   2
BRANCH   1  20
ATOM     20  O   UNL A   1      36.589  20.584  25.310  1.00  0.00    -0.374 OA
BRANCH  20  21
ATOM     21  C   UNL A   1      37.759  19.971  24.769  1.00  0.00     0.202 C 
BRANCH  21  22
ATOM     22  C   UNL A   1      38.822  19.469  25.756  1.00  0.00     0.261 C 
BRANCH  22  23
ATOM     23  O   UNL A   1      40.098  20.109  25.595  1.00  0.00    -0.460 OA
BRANCH  23  24
ATOM     24  C   UNL A   1      40.842  20.179  26.725  1.00  0.00     0.338 C 
ATOM     25  O   UNL A   1      41.461  19.261  27.251  1.00  0.00    -0.246 OA
BRANCH  24  26
ATOM     26  C   UNL A   1      40.970  21.576  27.177  1.00  0.00     0.060 A 
ATOM     27  C   UNL A   1      40.416  22.574  26.366  1.00  0.00     0.016 A 
ATOM     28  C   UNL A   1      41.695  21.916  28.321  1.00  0.00     0.016 A 
ATOM     29  C   UNL A   1      40.618  23.919  26.670  1.00  0.00     0.010 A 
ATOM     30  C   UNL A   1      41.905  23.268  28.618  1.00  0.00     0.010 A 
ATOM     31  C   UNL A   1      41.393  24.278  27.780  1.00  0.00    -0.014 A 
BRANCH  31  32
ATOM     32  C   UNL A   1      41.792  25.696  27.979  1.00  0.00     0.031 A 
ATOM     33  C   UNL A   1      43.153  26.140  27.510  1.00  0.00     0.074 A 
ATOM     34  C   UNL A   1      40.954  26.582  28.547  1.00  0.00     0.049 A 
ATOM     35  N   UNL A   1      43.739  27.301  27.642  1.00  0.00    -0.248 NA
ATOM     36  C   UNL A   1      43.955  25.135  26.796  1.00  0.00     0.031 C 
ATOM     37  C   UNL A   1      39.584  26.298  28.973  1.00  0.00     0.029 A 
ATOM     38  N   UNL A   1      41.137  27.903  28.875  1.00  0.00    -0.354 N 
ATOM     39  C   UNL A   1      44.980  27.170  27.025  1.00  0.00     0.074 A 
ATOM     40  C   UNL A   1      45.077  25.800  26.565  1.00  0.00     0.031 C 
ATOM     41  C   UNL A   1      39.065  27.400  29.540  1.00  0.00     0.029 A 
ATOM     42  C   UNL A   1      40.068  28.462  29.536  1.00  0.00     0.049 A 
ATOM     43  H   UNL A   1      41.957  28.402  28.658  1.00  0.00     0.167 HD
ATOM     44  C   UNL A   1      45.941  28.109  26.843  1.00  0.00     0.034 A 
ATOM     45  C   UNL A   1      39.925  29.682  30.093  1.00  0.00     0.034 A 
ATOM     46  C   UNL A   1      45.834  29.469  27.308  1.00  0.00     0.049 A 
ATOM     47  C   UNL A   1      41.052  30.680  29.975  1.00  0.00     0.074 A 
ATOM     48  C   UNL A   1      46.743  30.504  27.165  1.00  0.00     0.029 A 
ATOM     49  N   UNL A   1      44.758  29.985  28.018  1.00  0.00    -0.354 N 
ATOM     50  N   UNL A   1      42.219  30.544  29.386  1.00  0.00    -0.248 NA
ATOM     51  C   UNL A   1      40.838  32.001  30.583  1.00  0.00     0.031 C 
ATOM     52  C   UNL A   1      46.248  31.622  27.846  1.00  0.00     0.029 A 
ATOM     53  C   UNL A   1      44.994  31.311  28.348  1.00  0.00     0.049 A 
ATOM     54  H   UNL A   1      43.943  29.483  28.251  1.00  0.00     0.167 HD
ATOM     55  C   UNL A   1      42.856  31.777  29.516  1.00  0.00     0.074 A 
ATOM     56  C   UNL A   1      41.945  32.642  30.236  1.00  0.00     0.031 C 
ATOM     57  C   UNL A   1      44.080  32.162  29.071  1.00  0.00     0.034 A 
BRANCH  44  58
ATOM     58  C   UNL A   1      47.208  27.675  26.148  1.00  0.00     0.023 A 
ATOM     59  C   UNL A   1      47.413  27.895  24.774  1.00  0.00     0.031 A 
ATOM     60  C   UNL A   1      48.217  27.005  26.864  1.00  0.00     0.131 A 
ATOM     61  C   UNL A   1      48.561  27.389  24.147  1.00  0.00     0.055 A 
ATOM     62  C   UNL A   1      49.393  26.572  26.250  1.00  0.00     0.041 A 
ATOM     63  F   UNL A   1      48.067  26.746  28.173  1.00  0.00    -0.206 F 
ATOM     64  C   UNL A   1      49.564  26.750  24.880  1.00  0.00     0.022 A 
BRANCH  61  65
ATOM     65  S   UNL A   1      48.660  27.453  22.337  1.00  0.00     0.124 S 
ATOM     66  O   UNL A   1      48.651  26.034  21.991  1.00  0.00    -0.237 OA
ATOM     67  O   UNL A   1      47.462  28.205  21.982  1.00  0.00    -0.237 OA
ATOM     68  O   UNL A   1      49.927  28.139  22.087  1.00  0.00    -0.744 OA
ENDBRANCH  61  65
ENDBRANCH  44  58
BRANCH  45  69
ATOM     69  C   UNL A   1      38.686  30.028  30.848  1.00  0.00     0.023 A 
ATOM     70  C   UNL A   1      37.679  30.817  30.272  1.00  0.00     0.031 A 
ATOM     71  C   UNL A   1      38.524  29.623  32.185  1.00  0.00     0.131 A 
ATOM     72  C   UNL A   1      36.579  31.222  31.045  1.00  0.00     0.055 A 
ATOM     73  C   UNL A   1      37.404  29.987  32.935  1.00  0.00     0.041 A 
ATOM     74  F   UNL A   1      39.453  28.860  32.782  1.00  0.00    -0.206 F 
ATOM     75  C   UNL A   1      36.430  30.804  32.369  1.00  0.00     0.022 A 
BRANCH  72  76
ATOM     76  S   UNL A   1      35.388  32.381  30.319  1.00  0.00     0.124 S 
ATOM     77  O   UNL A   1      34.957  31.657  29.129  1.00  0.00    -0.237 OA
ATOM     78  O   UNL A   1      34.403  32.507  31.387  1.00  0.00    -0.237 OA
ATOM     79  O   UNL A   1      36.188  33.578  30.068  1.00  0.00    -0.744 OA
ENDBRANCH  72  76
ENDBRANCH  45  69
BRANCH  57  80
ATOM     80  C   UNL A   1      44.477  33.601  29.303  1.00  0.00     0.023 A 
ATOM     81  C   UNL A   1      44.252  34.598  28.340  1.00  0.00     0.031 A 
ATOM     82  C   UNL A   1      45.093  33.974  30.512  1.00  0.00     0.131 A 
ATOM     83  C   UNL A   1      44.685  35.912  28.580  1.00  0.00     0.055 A 
ATOM     84  C   UNL A   1      45.468  35.293  30.769  1.00  0.00     0.041 A 
ATOM     85  F   UNL A   1      45.333  33.061  31.466  1.00  0.00    -0.206 F 
ATOM     86  C   UNL A   1      45.276  36.268  29.796  1.00  0.00     0.022 A 
BRANCH  83  87
ATOM     87  S   UNL A   1      44.540  37.135  27.249  1.00  0.00     0.124 S 
ATOM     88  O   UNL A   1      44.752  38.389  27.965  1.00  0.00    -0.237 OA
ATOM     89  O   UNL A   1      45.607  36.733  26.338  1.00  0.00    -0.237 OA
ATOM     90  O   UNL A   1      43.184  36.931  26.742  1.00  0.00    -0.744 OA
ENDBRANCH  83  87
ENDBRANCH  57  80
ENDBRANCH  31  32
ENDBRANCH  24  26
ENDBRANCH  23  24
ENDBRANCH  22  23
ENDBRANCH  21  22
ENDBRANCH  20  21
ENDBRANCH   1  20
TORSDOF 21
ENDMDL
MODEL 3
REMARK VINA RESULT:      -9.6      5.392     10.816
REMARK SMILES CN(CC(=O)NCC(=O)OCCOCCOC(=O)c1ccc(-c2c3nc(c(-c4cc(S(=O)(=O)[O-])ccc4F)c4ccc([nH]4)c(-c4cc(S(=O)(=O)[O-])ccc4F)c4nc(c(-c5cc(S(=O)(=O)[O-])ccc5F)c5ccc2[nH]5)C=C4)C=C3)cc1)c1ncccn1
REMARK SMILES IDX 12 1 11 2 10 3 8 4 9 5 7 6 6 7 4 8 5 9 3 11 2 12 1 13 82 14
REMARK SMILES IDX 83 15 87 16 84 17 86 18 85 19 13 20 14 21 15 22 16 23 17 24
REMARK SMILES IDX 18 25 19 26 20 27 81 28 21 29 80 30 22 31 23 32 24 33 74 34
REMARK SMILES IDX 25 35 79 36 73 37 75 38 26 39 78 40 72 41 71 42 27 44 59 45
REMARK SMILES IDX 39 46 58 47 40 48 43 49 57 50 76 51 41 52 42 53 56 55 77 56
REMARK SMILES IDX 44 57 28 58 29 59 37 60 30 61 36 62 38 63 35 64 31 65 32 66
REMARK SMILES IDX 33 67 34 68 60 69 61 70 69 71 62 72 68 73 70 74 67 75 63 76
REMARK SMILES IDX 64 77 65 78 66 79 45 80 46 81 54 82 47 83 53 84 55 85 52 86
REMARK SMILES IDX 48 87 49 88 50 89 51 90
REMARK H PARENT 6 10 75 43 43 54
REMARK Flexibility Score: inf
ROOT
ATOM      1  C   UNL A   1      32.871  29.648  27.314  1.00  0.00     0.202 C 
ENDROOT
BRANCH   1   2
ATOM      2  C   UNL A   1      31.764  28.610  27.509  1.00  0.00     0.261 C 
BRANCH   2   3
ATOM      3  O   UNL A   1      32.157  27.349  26.950  1.00  0.00    -0.462 OA
BRANCH   3   4
ATOM      4  C   UNL A   1      31.238  26.739  26.163  1.00  0.00     0.325 C 
ATOM      5  O   UNL A   1      30.485  25.838  26.520  1.00  0.00    -0.250 OA
BRANCH   4   6
ATOM      6  C   UNL A   1      31.104  27.396  24.792  1.00  0.00     0.238 C 
BRANCH   6   7
ATOM      7  N   UNL A   1      32.228  28.119  24.222  1.00  0.00    -0.344 N 
ATOM      8  C   UNL A   1      33.367  27.586  23.682  1.00  0.00     0.240 C 
ATOM      9  O   UNL A   1      34.079  28.323  22.996  1.00  0.00    -0.273 OA
ATOM     10  H   UNL A   1      32.163  29.102  24.225  1.00  0.00     0.164 HD
BRANCH   8  11
ATOM     11  C   UNL A   1      33.641  26.083  23.845  1.00  0.00     0.219 C 
BRANCH  11  12
ATOM     12  N   UNL A   1      32.827  25.259  22.951  1.00  0.00    -0.335 N 
ATOM     13  C   UNL A   1      32.822  25.506  21.525  1.00  0.00     0.147 C 
BRANCH  12  14
ATOM     14  C   UNL A   1      32.615  23.951  23.365  1.00  0.00     0.225 A 
ATOM     15  N   UNL A   1      32.579  23.695  24.681  1.00  0.00    -0.221 NA
ATOM     16  N   UNL A   1      32.498  22.984  22.440  1.00  0.00    -0.221 NA
ATOM     17  C   UNL A   1      32.447  22.415  25.074  1.00  0.00     0.117 A 
ATOM     18  C   UNL A   1      32.393  21.712  22.877  1.00  0.00     0.117 A 
ATOM     19  C   UNL A   1      32.364  21.365  24.202  1.00  0.00     0.040 A 
ENDBRANCH  12  14
ENDBRANCH  11  12
ENDBRANCH   8  11
ENDBRANCH   6   7
ENDBRANCH   4   6
ENDBRANCH   3   4
ENDBRANCH   2   3
ENDBRANCH   1   2
BRANCH   1  20
ATOM     20  O   UNL A   1      32.688  30.568  26.235  1.00  0.00    -0.374 OA
BRANCH  20  21
ATOM     21  C   UNL A   1      31.546  31.424  26.289  1.00  0.00     0.202 C 
BRANCH  21  22
ATOM     22  C   UNL A   1      31.732  32.825  26.889  1.00  0.00     0.261 C 
BRANCH  22  23
ATOM     23  O   UNL A   1      33.110  33.208  27.025  1.00  0.00    -0.460 OA
BRANCH  23  24
ATOM     24  C   UNL A   1      33.363  34.048  28.058  1.00  0.00     0.338 C 
ATOM     25  O   UNL A   1      32.710  35.035  28.376  1.00  0.00    -0.246 OA
BRANCH  24  26
ATOM     26  C   UNL A   1      34.457  33.524  28.896  1.00  0.00     0.060 A 
ATOM     27  C   UNL A   1      35.769  33.821  28.510  1.00  0.00     0.016 A 
ATOM     28  C   UNL A   1      34.213  32.684  29.984  1.00  0.00     0.016 A 
ATOM     29  C   UNL A   1      36.847  33.247  29.183  1.00  0.00     0.010 A 
ATOM     30  C   UNL A   1      35.297  32.101  30.651  1.00  0.00     0.010 A 
ATOM     31  C   UNL A   1      36.619  32.355  30.238  1.00  0.00    -0.014 A 
BRANCH  31  32
ATOM     32  C   UNL A   1      37.750  31.577  30.810  1.00  0.00     0.031 A 
ATOM     33  C   UNL A   1      38.218  31.895  32.204  1.00  0.00     0.074 A 
ATOM     34  C   UNL A   1      38.337  30.588  30.111  1.00  0.00     0.049 A 
ATOM     35  N   UNL A   1      39.224  31.400  32.876  1.00  0.00    -0.248 NA
ATOM     36  C   UNL A   1      37.443  32.908  32.937  1.00  0.00     0.031 C 
ATOM     37  C   UNL A   1      37.928  30.131  28.784  1.00  0.00     0.029 A 
ATOM     38  N   UNL A   1      39.416  29.796  30.418  1.00  0.00    -0.354 N 
ATOM     39  C   UNL A   1      39.205  32.038  34.113  1.00  0.00     0.074 A 
ATOM     40  C   UNL A   1      38.116  32.991  34.075  1.00  0.00     0.031 C 
ATOM     41  C   UNL A   1      38.768  29.165  28.375  1.00  0.00     0.029 A 
ATOM     42  C   UNL A   1      39.786  28.947  29.401  1.00  0.00     0.049 A 
ATOM     43  H   UNL A   1      39.880  29.832  31.285  1.00  0.00     0.167 HD
ATOM     44  C   UNL A   1      40.008  31.835  35.186  1.00  0.00     0.034 A 
ATOM     45  C   UNL A   1      40.838  28.109  29.300  1.00  0.00     0.034 A 
ATOM     46  C   UNL A   1      41.092  30.885  35.211  1.00  0.00     0.049 A 
ATOM     47  C   UNL A   1      41.787  27.978  30.467  1.00  0.00     0.074 A 
ATOM     48  C   UNL A   1      41.958  30.590  36.251  1.00  0.00     0.029 A 
ATOM     49  N   UNL A   1      41.468  30.079  34.145  1.00  0.00    -0.354 N 
ATOM     50  N   UNL A   1      41.754  28.585  31.631  1.00  0.00    -0.248 NA
ATOM     51  C   UNL A   1      42.906  27.036  30.312  1.00  0.00     0.031 C 
ATOM     52  C   UNL A   1      42.898  29.661  35.791  1.00  0.00     0.029 A 
ATOM     53  C   UNL A   1      42.572  29.315  34.489  1.00  0.00     0.049 A 
ATOM     54  H   UNL A   1      41.015  30.053  33.270  1.00  0.00     0.167 HD
ATOM     55  C   UNL A   1      42.821  28.064  32.361  1.00  0.00     0.074 A 
ATOM     56  C   UNL A   1      43.475  27.094  31.507  1.00  0.00     0.031 C 
ATOM     57  C   UNL A   1      43.219  28.354  33.627  1.00  0.00     0.034 A 
BRANCH  44  58
ATOM     58  C   UNL A   1      39.766  32.695  36.403  1.00  0.00     0.023 A 
ATOM     59  C   UNL A   1      38.929  32.274  37.452  1.00  0.00     0.031 A 
ATOM     60  C   UNL A   1      40.359  33.966  36.503  1.00  0.00     0.131 A 
ATOM     61  C   UNL A   1      38.653  33.144  38.518  1.00  0.00     0.055 A 
ATOM     62  C   UNL A   1      40.141  34.795  37.605  1.00  0.00     0.041 A 
ATOM     63  F   UNL A   1      41.148  34.430  35.522  1.00  0.00    -0.206 F 
ATOM     64  C   UNL A   1      39.272  34.392  38.614  1.00  0.00     0.022 A 
BRANCH  61  65
ATOM     65  S   UNL A   1      37.364  32.677  39.706  1.00  0.00     0.124 S 
ATOM     66  O   UNL A   1      37.846  31.378  40.169  1.00  0.00    -0.237 OA
ATOM     67  O   UNL A   1      37.422  33.763  40.677  1.00  0.00    -0.237 OA
ATOM     68  O   UNL A   1      36.149  32.629  38.894  1.00  0.00    -0.744 OA
ENDBRANCH  61  65
ENDBRANCH  44  58
BRANCH  45  69
ATOM     69  C   UNL A   1      41.082  27.351  28.039  1.00  0.00     0.023 A 
ATOM     70  C   UNL A   1      40.859  25.968  27.966  1.00  0.00     0.031 A 
ATOM     71  C   UNL A   1      41.605  27.995  26.903  1.00  0.00     0.131 A 
ATOM     72  C   UNL A   1      41.208  25.263  26.803  1.00  0.00     0.055 A 
ATOM     73  C   UNL A   1      41.903  27.299  25.730  1.00  0.00     0.041 A 
ATOM     74  F   UNL A   1      41.829  29.319  26.916  1.00  0.00    -0.206 F 
ATOM     75  C   UNL A   1      41.718  25.920  25.682  1.00  0.00     0.022 A 
BRANCH  72  76
ATOM     76  S   UNL A   1      41.067  23.454  26.809  1.00  0.00     0.124 S 
ATOM     77  O   UNL A   1      41.517  23.126  28.157  1.00  0.00    -0.237 OA
ATOM     78  O   UNL A   1      39.646  23.263  26.542  1.00  0.00    -0.237 OA
ATOM     79  O   UNL A   1      41.963  23.040  25.732  1.00  0.00    -0.744 OA
ENDBRANCH  72  76
ENDBRANCH  45  69
BRANCH  57  80
ATOM     80  C   UNL A   1      44.383  27.569  34.182  1.00  0.00     0.023 A 
ATOM     81  C   UNL A   1      44.203  26.353  34.863  1.00  0.00     0.031 A 
ATOM     82  C   UNL A   1      45.696  28.052  34.024  1.00  0.00     0.131 A 
ATOM     83  C   UNL A   1      45.313  25.685  35.405  1.00  0.00     0.055 A 
ATOM     84  C   UNL A   1      46.800  27.353  34.514  1.00  0.00     0.041 A 
ATOM     85  F   UNL A   1      45.926  29.208  33.383  1.00  0.00    -0.206 F 
ATOM     86  C   UNL A   1      46.611  26.169  35.220  1.00  0.00     0.022 A 
BRANCH  83  87
ATOM     87  S   UNL A   1      45.030  24.215  36.428  1.00  0.00     0.124 S 
ATOM     88  O   UNL A   1      44.087  23.455  35.615  1.00  0.00    -0.237 OA
ATOM     89  O   UNL A   1      46.372  23.652  36.542  1.00  0.00    -0.237 OA
ATOM     90  O   UNL A   1      44.481  24.761  37.668  1.00  0.00    -0.744 OA
ENDBRANCH  83  87
ENDBRANCH  57  80
ENDBRANCH  31  32
ENDBRANCH  24  26
ENDBRANCH  23  24
ENDBRANCH  22  23
ENDBRANCH  21  22
ENDBRANCH  20  21
ENDBRANCH   1  20
TORSDOF 21
ENDMDL
