MODEL 1
REMARK VINA RESULT:     -10.9      0.000      0.000
REMARK SMILES C[NH2+][C@]1(C(=O)OCCOCCOC(=O)c2ccc(-c3c4nc(c(-c5cc(S(=O)(=O)[O-])ccc5F)c5ccc([nH]5)c(-c5cc(S(=O)(=O)[O-])ccc5F)c5nc(c(-c6cc(S(=O)(=O)[O-])ccc6F)c6ccc3[nH]6)C=C5)C=C4)cc2)CCC[C@@H]1CC[N@H+]1CCC[C@H]([NH+](C)C)C1
REMARK SMILES IDX 8 1 7 2 6 3 4 4 5 5 3 6 78 7 81 8 79 9 80 10 2 11 1 12 82 15
REMARK SMILES IDX 83 16 84 17 85 18 92 19 86 21 88 22 87 23 89 24 90 25 91 26
REMARK SMILES IDX 9 28 10 29 11 30 12 31 13 32 14 33 15 34 16 35 77 36 17 37
REMARK SMILES IDX 76 38 18 39 19 40 20 41 70 42 21 43 75 44 69 45 71 46 22 47
REMARK SMILES IDX 74 48 68 49 67 50 23 52 55 53 35 54 54 55 36 56 39 57 53 58
REMARK SMILES IDX 72 59 37 60 38 61 52 63 73 64 40 65 24 66 25 67 33 68 26 69
REMARK SMILES IDX 32 70 34 71 31 72 27 73 28 74 29 75 30 76 56 77 57 78 65 79
REMARK SMILES IDX 58 80 64 81 66 82 63 83 59 84 60 85 61 86 62 87 41 88 42 89
REMARK SMILES IDX 50 90 43 91 49 92 51 93 48 94 44 95 45 96 46 97 47 98
REMARK H PARENT 2 13 2 14 84 20 89 27 71 51 39 62
REMARK Flexibility Score: inf
ROOT
ATOM      1  C   UNL A   1      30.232  27.846  24.102  1.00  0.00     0.202 C 
ENDROOT
BRANCH   1   2
ATOM      2  C   UNL A   1      29.862  26.470  24.662  1.00  0.00     0.261 C 
BRANCH   2   3
ATOM      3  O   UNL A   1      30.943  25.711  25.228  1.00  0.00    -0.459 OA
BRANCH   3   4
ATOM      4  C   UNL A   1      31.395  24.701  24.441  1.00  0.00     0.368 C 
ATOM      5  O   UNL A   1      30.660  23.936  23.814  1.00  0.00    -0.245 OA
BRANCH   4   6
ATOM      6  C   UNL A   1      32.932  24.565  24.397  1.00  0.00     0.197 C 
ATOM      7  C   UNL A   1      33.730  25.666  25.112  1.00  0.00     0.081 C 
ATOM      8  C   UNL A   1      33.336  23.336  25.272  1.00  0.00     0.068 C 
ATOM      9  C   UNL A   1      35.099  25.037  25.370  1.00  0.00     0.008 C 
ATOM     10  C   UNL A   1      34.854  23.523  25.450  1.00  0.00     0.011 C 
BRANCH   6  11
ATOM     11  N   UNL A   1      33.349  24.313  22.979  1.00  0.00    -0.334 N 
ATOM     12  C   UNL A   1      33.086  25.403  22.055  1.00  0.00     0.331 C 
ATOM     13  H   UNL A   1      34.351  24.129  22.973  1.00  0.00     0.347 HD
ATOM     14  H   UNL A   1      32.788  23.526  22.655  1.00  0.00     0.347 HD
ENDBRANCH   6  11
BRANCH   8  15
ATOM     15  C   UNL A   1      32.941  21.964  24.685  1.00  0.00     0.072 C 
BRANCH  15  16
ATOM     16  C   UNL A   1      33.192  20.739  25.583  1.00  0.00     0.262 C 
BRANCH  16  17
ATOM     17  N   UNL A   1      33.234  19.399  24.966  1.00  0.00    -0.330 N 
ATOM     18  C   UNL A   1      32.471  19.256  23.728  1.00  0.00     0.262 C 
ATOM     19  C   UNL A   1      34.631  19.004  24.714  1.00  0.00     0.327 C 
ATOM     20  H   UNL A   1      32.783  18.786  25.645  1.00  0.00     0.348 HD
ATOM     21  C   UNL A   1      32.500  17.845  23.136  1.00  0.00     0.068 C 
ATOM     22  C   UNL A   1      34.779  17.519  24.283  1.00  0.00     0.239 C 
ATOM     23  C   UNL A   1      33.899  17.253  23.044  1.00  0.00     0.077 C 
BRANCH  22  24
ATOM     24  N   UNL A   1      34.653  16.492  25.349  1.00  0.00    -0.333 N 
ATOM     25  C   UNL A   1      33.659  15.475  24.999  1.00  0.00     0.332 C 
ATOM     26  C   UNL A   1      35.895  15.834  25.747  1.00  0.00     0.332 C 
ATOM     27  H   UNL A   1      34.347  17.030  26.159  1.00  0.00     0.348 HD
ENDBRANCH  22  24
ENDBRANCH  16  17
ENDBRANCH  15  16
ENDBRANCH   8  15
ENDBRANCH   4   6
ENDBRANCH   3   4
ENDBRANCH   2   3
ENDBRANCH   1   2
BRANCH   1  28
ATOM     28  O   UNL A   1      31.264  28.595  24.735  1.00  0.00    -0.374 OA
BRANCH  28  29
ATOM     29  C   UNL A   1      31.197  30.016  24.698  1.00  0.00     0.202 C 
BRANCH  29  30
ATOM     30  C   UNL A   1      31.379  30.795  26.002  1.00  0.00     0.261 C 
BRANCH  30  31
ATOM     31  O   UNL A   1      32.620  30.497  26.657  1.00  0.00    -0.460 OA
BRANCH  31  32
ATOM     32  C   UNL A   1      33.214  31.575  27.221  1.00  0.00     0.338 C 
ATOM     33  O   UNL A   1      32.673  32.640  27.508  1.00  0.00    -0.246 OA
BRANCH  32  34
ATOM     34  C   UNL A   1      34.586  31.250  27.646  1.00  0.00     0.060 A 
ATOM     35  C   UNL A   1      34.890  29.896  27.837  1.00  0.00     0.016 A 
ATOM     36  C   UNL A   1      35.528  32.239  27.931  1.00  0.00     0.016 A 
ATOM     37  C   UNL A   1      36.109  29.527  28.394  1.00  0.00     0.010 A 
ATOM     38  C   UNL A   1      36.749  31.870  28.501  1.00  0.00     0.010 A 
ATOM     39  C   UNL A   1      37.020  30.517  28.781  1.00  0.00    -0.014 A 
BRANCH  39  40
ATOM     40  C   UNL A   1      38.148  30.143  29.665  1.00  0.00     0.031 A 
ATOM     41  C   UNL A   1      39.168  29.165  29.145  1.00  0.00     0.074 A 
ATOM     42  C   UNL A   1      38.290  30.703  30.879  1.00  0.00     0.049 A 
ATOM     43  N   UNL A   1      40.222  28.667  29.737  1.00  0.00    -0.248 NA
ATOM     44  C   UNL A   1      38.965  28.683  27.770  1.00  0.00     0.031 C 
ATOM     45  C   UNL A   1      37.392  31.704  31.454  1.00  0.00     0.029 A 
ATOM     46  N   UNL A   1      39.241  30.506  31.845  1.00  0.00    -0.354 N 
ATOM     47  C   UNL A   1      40.807  27.812  28.808  1.00  0.00     0.074 A 
ATOM     48  C   UNL A   1      39.966  27.829  27.631  1.00  0.00     0.031 C 
ATOM     49  C   UNL A   1      37.834  32.028  32.681  1.00  0.00     0.029 A 
ATOM     50  C   UNL A   1      39.019  31.231  32.992  1.00  0.00     0.049 A 
ATOM     51  H   UNL A   1      40.012  29.904  31.729  1.00  0.00     0.167 HD
ATOM     52  C   UNL A   1      41.946  27.087  28.928  1.00  0.00     0.034 A 
ATOM     53  C   UNL A   1      39.684  31.227  34.165  1.00  0.00     0.034 A 
ATOM     54  C   UNL A   1      42.761  27.076  30.118  1.00  0.00     0.049 A 
ATOM     55  C   UNL A   1      40.899  30.341  34.308  1.00  0.00     0.074 A 
ATOM     56  C   UNL A   1      43.937  26.385  30.352  1.00  0.00     0.029 A 
ATOM     57  N   UNL A   1      42.477  27.782  31.280  1.00  0.00    -0.354 N 
ATOM     58  N   UNL A   1      41.444  29.536  33.425  1.00  0.00    -0.248 NA
ATOM     59  C   UNL A   1      41.592  30.372  35.601  1.00  0.00     0.031 C 
ATOM     60  C   UNL A   1      44.323  26.615  31.677  1.00  0.00     0.029 A 
ATOM     61  C   UNL A   1      43.435  27.516  32.246  1.00  0.00     0.049 A 
ATOM     62  H   UNL A   1      41.708  28.384  31.400  1.00  0.00     0.167 HD
ATOM     63  C   UNL A   1      42.563  28.988  34.049  1.00  0.00     0.074 A 
ATOM     64  C   UNL A   1      42.620  29.567  35.376  1.00  0.00     0.031 C 
ATOM     65  C   UNL A   1      43.467  28.095  33.569  1.00  0.00     0.034 A 
BRANCH  52  66
ATOM     66  C   UNL A   1      42.332  26.208  27.762  1.00  0.00     0.023 A 
ATOM     67  C   UNL A   1      41.829  24.902  27.617  1.00  0.00     0.031 A 
ATOM     68  C   UNL A   1      43.248  26.668  26.801  1.00  0.00     0.131 A 
ATOM     69  C   UNL A   1      42.299  24.081  26.580  1.00  0.00     0.055 A 
ATOM     70  C   UNL A   1      43.651  25.874  25.726  1.00  0.00     0.041 A 
ATOM     71  F   UNL A   1      43.782  27.896  26.899  1.00  0.00    -0.206 F 
ATOM     72  C   UNL A   1      43.188  24.566  25.619  1.00  0.00     0.022 A 
BRANCH  69  73
ATOM     73  S   UNL A   1      41.846  22.324  26.589  1.00  0.00     0.124 S 
ATOM     74  O   UNL A   1      42.492  21.846  25.370  1.00  0.00    -0.237 OA
ATOM     75  O   UNL A   1      42.422  21.856  27.845  1.00  0.00    -0.237 OA
ATOM     76  O   UNL A   1      40.385  22.346  26.543  1.00  0.00    -0.744 OA
ENDBRANCH  69  73
ENDBRANCH  52  66
BRANCH  53  77
ATOM     77  C   UNL A   1      39.199  32.049  35.310  1.00  0.00     0.023 A 
ATOM     78  C   UNL A   1      39.651  33.363  35.508  1.00  0.00     0.031 A 
ATOM     79  C   UNL A   1      38.309  31.509  36.257  1.00  0.00     0.131 A 
ATOM     80  C   UNL A   1      39.247  34.077  36.647  1.00  0.00     0.055 A 
ATOM     81  C   UNL A   1      37.869  32.242  37.359  1.00  0.00     0.041 A 
ATOM     82  F   UNL A   1      37.847  30.256  36.118  1.00  0.00    -0.206 F 
ATOM     83  C   UNL A   1      38.349  33.530  37.567  1.00  0.00     0.022 A 
BRANCH  80  84
ATOM     84  S   UNL A   1      39.983  35.706  36.956  1.00  0.00     0.124 S 
ATOM     85  O   UNL A   1      39.285  36.123  38.166  1.00  0.00    -0.237 OA
ATOM     86  O   UNL A   1      41.396  35.375  37.110  1.00  0.00    -0.237 OA
ATOM     87  O   UNL A   1      39.651  36.463  35.750  1.00  0.00    -0.744 OA
ENDBRANCH  80  84
ENDBRANCH  53  77
BRANCH  65  88
ATOM     88  C   UNL A   1      44.616  27.729  34.476  1.00  0.00     0.023 A 
ATOM     89  C   UNL A   1      44.549  26.632  35.353  1.00  0.00     0.031 A 
ATOM     90  C   UNL A   1      45.795  28.496  34.467  1.00  0.00     0.131 A 
ATOM     91  C   UNL A   1      45.617  26.367  36.223  1.00  0.00     0.055 A 
ATOM     92  C   UNL A   1      46.878  28.190  35.290  1.00  0.00     0.041 A 
ATOM     93  F   UNL A   1      45.914  29.556  33.650  1.00  0.00    -0.206 F 
ATOM     94  C   UNL A   1      46.787  27.128  36.186  1.00  0.00     0.022 A 
BRANCH  91  95
ATOM     95  S   UNL A   1      45.420  25.068  37.473  1.00  0.00     0.124 S 
ATOM     96  O   UNL A   1      45.731  23.863  36.711  1.00  0.00    -0.237 OA
ATOM     97  O   UNL A   1      46.401  25.454  38.483  1.00  0.00    -0.237 OA
ATOM     98  O   UNL A   1      44.023  25.196  37.886  1.00  0.00    -0.744 OA
ENDBRANCH  91  95
ENDBRANCH  65  88
ENDBRANCH  39  40
ENDBRANCH  32  34
ENDBRANCH  31  32
ENDBRANCH  30  31
ENDBRANCH  29  30
ENDBRANCH  28  29
ENDBRANCH   1  28
TORSDOF 22
ENDMDL
MODEL 2
REMARK VINA RESULT:     -10.4      1.991      7.856
REMARK SMILES C[NH2+][C@]1(C(=O)OCCOCCOC(=O)c2ccc(-c3c4nc(c(-c5cc(S(=O)(=O)[O-])ccc5F)c5ccc([nH]5)c(-c5cc(S(=O)(=O)[O-])ccc5F)c5nc(c(-c6cc(S(=O)(=O)[O-])ccc6F)c6ccc3[nH]6)C=C5)C=C4)cc2)CCC[C@@H]1CC[N@H+]1CCC[C@H]([NH+](C)C)C1
REMARK SMILES IDX 8 1 7 2 6 3 4 4 5 5 3 6 78 7 81 8 79 9 80 10 2 11 1 12 82 15
REMARK SMILES IDX 83 16 84 17 85 18 92 19 86 21 88 22 87 23 89 24 90 25 91 26
REMARK SMILES IDX 9 28 10 29 11 30 12 31 13 32 14 33 15 34 16 35 77 36 17 37
REMARK SMILES IDX 76 38 18 39 19 40 20 41 70 42 21 43 75 44 69 45 71 46 22 47
REMARK SMILES IDX 74 48 68 49 67 50 23 52 55 53 35 54 54 55 36 56 39 57 53 58
REMARK SMILES IDX 72 59 37 60 38 61 52 63 73 64 40 65 24 66 25 67 33 68 26 69
REMARK SMILES IDX 32 70 34 71 31 72 27 73 28 74 29 75 30 76 56 77 57 78 65 79
REMARK SMILES IDX 58 80 64 81 66 82 63 83 59 84 60 85 61 86 62 87 41 88 42 89
REMARK SMILES IDX 50 90 43 91 49 92 51 93 48 94 44 95 45 96 46 97 47 98
REMARK H PARENT 2 13 2 14 84 20 89 27 71 51 39 62
REMARK Flexibility Score: inf
ROOT
ATOM      1  C   UNL A   1      30.924  27.550  24.696  1.00  0.00     0.202 C 
ENDROOT
BRANCH   1   2
ATOM      2  C   UNL A   1      30.568  26.685  25.908  1.00  0.00     0.261 C 
BRANCH   2   3
ATOM      3  O   UNL A   1      31.539  25.691  26.276  1.00  0.00    -0.459 OA
BRANCH   3   4
ATOM      4  C   UNL A   1      31.653  24.663  25.397  1.00  0.00     0.368 C 
ATOM      5  O   UNL A   1      30.693  24.083  24.886  1.00  0.00    -0.245 OA
BRANCH   4   6
ATOM      6  C   UNL A   1      33.107  24.248  25.084  1.00  0.00     0.197 C 
ATOM      7  C   UNL A   1      34.144  25.383  25.056  1.00  0.00     0.081 C 
ATOM      8  C   UNL A   1      33.649  23.427  26.297  1.00  0.00     0.068 C 
ATOM      9  C   UNL A   1      35.485  24.679  25.259  1.00  0.00     0.008 C 
ATOM     10  C   UNL A   1      35.168  23.397  26.041  1.00  0.00     0.011 C 
BRANCH   6  11
ATOM     11  N   UNL A   1      33.104  23.376  23.866  1.00  0.00    -0.334 N 
ATOM     12  C   UNL A   1      33.140  24.084  22.598  1.00  0.00     0.331 C 
ATOM     13  H   UNL A   1      33.922  22.768  23.911  1.00  0.00     0.347 HD
ATOM     14  H   UNL A   1      32.219  22.870  23.882  1.00  0.00     0.347 HD
ENDBRANCH   6  11
BRANCH   8  15
ATOM     15  C   UNL A   1      33.017  22.030  26.468  1.00  0.00     0.072 C 
BRANCH  15  16
ATOM     16  C   UNL A   1      33.983  20.831  26.414  1.00  0.00     0.262 C 
BRANCH  16  17
ATOM     17  N   UNL A   1      33.598  19.641  25.632  1.00  0.00    -0.330 N 
ATOM     18  C   UNL A   1      32.558  19.859  24.629  1.00  0.00     0.262 C 
ATOM     19  C   UNL A   1      34.784  19.067  24.972  1.00  0.00     0.327 C 
ATOM     20  H   UNL A   1      33.197  18.999  26.316  1.00  0.00     0.348 HD
ATOM     21  C   UNL A   1      32.152  18.597  23.865  1.00  0.00     0.068 C 
ATOM     22  C   UNL A   1      34.512  17.682  24.321  1.00  0.00     0.239 C 
ATOM     23  C   UNL A   1      33.335  17.803  23.331  1.00  0.00     0.077 C 
BRANCH  22  24
ATOM     24  N   UNL A   1      34.420  16.514  25.233  1.00  0.00    -0.333 N 
ATOM     25  C   UNL A   1      33.295  15.647  24.883  1.00  0.00     0.332 C 
ATOM     26  C   UNL A   1      35.632  15.706  25.353  1.00  0.00     0.332 C 
ATOM     27  H   UNL A   1      34.276  16.940  26.148  1.00  0.00     0.348 HD
ENDBRANCH  22  24
ENDBRANCH  16  17
ENDBRANCH  15  16
ENDBRANCH   8  15
ENDBRANCH   4   6
ENDBRANCH   3   4
ENDBRANCH   2   3
ENDBRANCH   1   2
BRANCH   1  28
ATOM     28  O   UNL A   1      32.084  28.373  24.750  1.00  0.00    -0.374 OA
BRANCH  28  29
ATOM     29  C   UNL A   1      32.083  29.496  25.624  1.00  0.00     0.202 C 
BRANCH  29  30
ATOM     30  C   UNL A   1      32.803  29.384  26.969  1.00  0.00     0.261 C 
BRANCH  30  31
ATOM     31  O   UNL A   1      34.196  29.714  26.880  1.00  0.00    -0.460 OA
BRANCH  31  32
ATOM     32  C   UNL A   1      34.546  30.806  27.601  1.00  0.00     0.338 C 
ATOM     33  O   UNL A   1      33.890  31.837  27.730  1.00  0.00    -0.246 OA
BRANCH  32  34
ATOM     34  C   UNL A   1      35.752  30.536  28.401  1.00  0.00     0.060 A 
ATOM     35  C   UNL A   1      36.963  31.053  27.923  1.00  0.00     0.016 A 
ATOM     36  C   UNL A   1      35.722  29.733  29.541  1.00  0.00     0.016 A 
ATOM     37  C   UNL A   1      38.162  30.702  28.533  1.00  0.00     0.010 A 
ATOM     38  C   UNL A   1      36.926  29.370  30.149  1.00  0.00     0.010 A 
ATOM     39  C   UNL A   1      38.151  29.812  29.615  1.00  0.00    -0.014 A 
BRANCH  39  40
ATOM     40  C   UNL A   1      39.426  29.188  30.038  1.00  0.00     0.031 A 
ATOM     41  C   UNL A   1      40.130  29.750  31.244  1.00  0.00     0.074 A 
ATOM     42  C   UNL A   1      39.915  28.113  29.396  1.00  0.00     0.049 A 
ATOM     43  N   UNL A   1      41.263  29.393  31.788  1.00  0.00    -0.248 NA
ATOM     44  C   UNL A   1      39.460  30.869  31.925  1.00  0.00     0.031 C 
ATOM     45  C   UNL A   1      39.282  27.454  28.254  1.00  0.00     0.029 A 
ATOM     46  N   UNL A   1      41.058  27.389  29.614  1.00  0.00    -0.354 N 
ATOM     47  C   UNL A   1      41.445  30.245  32.873  1.00  0.00     0.074 A 
ATOM     48  C   UNL A   1      40.326  31.161  32.883  1.00  0.00     0.031 C 
ATOM     49  C   UNL A   1      40.054  26.425  27.865  1.00  0.00     0.029 A 
ATOM     50  C   UNL A   1      41.250  26.377  28.704  1.00  0.00     0.049 A 
ATOM     51  H   UNL A   1      41.682  27.575  30.353  1.00  0.00     0.167 HD
ATOM     52  C   UNL A   1      42.452  30.253  33.781  1.00  0.00     0.034 A 
ATOM     53  C   UNL A   1      42.287  25.528  28.554  1.00  0.00     0.034 A 
ATOM     54  C   UNL A   1      43.566  29.338  33.743  1.00  0.00     0.049 A 
ATOM     55  C   UNL A   1      43.443  25.616  29.522  1.00  0.00     0.074 A 
ATOM     56  C   UNL A   1      44.641  29.250  34.611  1.00  0.00     0.029 A 
ATOM     57  N   UNL A   1      43.754  28.359  32.776  1.00  0.00    -0.354 N 
ATOM     58  N   UNL A   1      43.606  26.424  30.544  1.00  0.00    -0.248 NA
ATOM     59  C   UNL A   1      44.547  24.670  29.322  1.00  0.00     0.031 C 
ATOM     60  C   UNL A   1      45.513  28.268  34.127  1.00  0.00     0.029 A 
ATOM     61  C   UNL A   1      44.944  27.685  33.005  1.00  0.00     0.049 A 
ATOM     62  H   UNL A   1      43.133  28.170  32.036  1.00  0.00     0.167 HD
ATOM     63  C   UNL A   1      44.819  26.062  31.126  1.00  0.00     0.074 A 
ATOM     64  C   UNL A   1      45.335  24.955  30.348  1.00  0.00     0.031 C 
ATOM     65  C   UNL A   1      45.447  26.590  32.209  1.00  0.00     0.034 A 
BRANCH  52  66
ATOM     66  C   UNL A   1      42.414  31.323  34.846  1.00  0.00     0.023 A 
ATOM     67  C   UNL A   1      42.911  32.619  34.617  1.00  0.00     0.031 A 
ATOM     68  C   UNL A   1      41.907  31.032  36.125  1.00  0.00     0.131 A 
ATOM     69  C   UNL A   1      42.957  33.549  35.668  1.00  0.00     0.055 A 
ATOM     70  C   UNL A   1      41.882  31.986  37.144  1.00  0.00     0.041 A 
ATOM     71  F   UNL A   1      41.442  29.806  36.412  1.00  0.00    -0.206 F 
ATOM     72  C   UNL A   1      42.423  33.249  36.923  1.00  0.00     0.022 A 
BRANCH  69  73
ATOM     73  S   UNL A   1      43.856  35.104  35.414  1.00  0.00     0.124 S 
ATOM     74  O   UNL A   1      44.628  35.203  36.651  1.00  0.00    -0.237 OA
ATOM     75  O   UNL A   1      44.621  34.832  34.203  1.00  0.00    -0.237 OA
ATOM     76  O   UNL A   1      42.793  36.096  35.271  1.00  0.00    -0.744 OA
ENDBRANCH  69  73
ENDBRANCH  52  66
BRANCH  53  77
ATOM     77  C   UNL A   1      42.309  24.554  27.425  1.00  0.00     0.023 A 
ATOM     78  C   UNL A   1      41.596  23.347  27.490  1.00  0.00     0.031 A 
ATOM     79  C   UNL A   1      43.088  24.797  26.280  1.00  0.00     0.131 A 
ATOM     80  C   UNL A   1      41.712  22.410  26.451  1.00  0.00     0.055 A 
ATOM     81  C   UNL A   1      43.157  23.886  25.225  1.00  0.00     0.041 A 
ATOM     82  F   UNL A   1      43.792  25.936  26.166  1.00  0.00    -0.206 F 
ATOM     83  C   UNL A   1      42.477  22.677  25.313  1.00  0.00     0.022 A 
BRANCH  80  84
ATOM     84  S   UNL A   1      40.913  20.793  26.648  1.00  0.00     0.124 S 
ATOM     85  O   UNL A   1      39.638  21.007  25.972  1.00  0.00    -0.237 OA
ATOM     86  O   UNL A   1      41.856  19.906  25.976  1.00  0.00    -0.237 OA
ATOM     87  O   UNL A   1      40.830  20.629  28.098  1.00  0.00    -0.744 OA
ENDBRANCH  80  84
ENDBRANCH  53  77
BRANCH  65  88
ATOM     88  C   UNL A   1      46.741  25.939  32.635  1.00  0.00     0.023 A 
ATOM     89  C   UNL A   1      46.772  24.897  33.577  1.00  0.00     0.031 A 
ATOM     90  C   UNL A   1      47.963  26.376  32.092  1.00  0.00     0.131 A 
ATOM     91  C   UNL A   1      48.003  24.365  33.991  1.00  0.00     0.055 A 
ATOM     92  C   UNL A   1      49.179  25.801  32.461  1.00  0.00     0.041 A 
ATOM     93  F   UNL A   1      47.993  27.369  31.188  1.00  0.00    -0.206 F 
ATOM     94  C   UNL A   1      49.205  24.799  33.426  1.00  0.00     0.022 A 
BRANCH  91  95
ATOM     95  S   UNL A   1      48.020  23.161  35.347  1.00  0.00     0.124 S 
ATOM     96  O   UNL A   1      49.326  23.404  35.952  1.00  0.00    -0.237 OA
ATOM     97  O   UNL A   1      46.865  23.567  36.141  1.00  0.00    -0.237 OA
ATOM     98  O   UNL A   1      47.882  21.875  34.666  1.00  0.00    -0.744 OA
ENDBRANCH  91  95
ENDBRANCH  65  88
ENDBRANCH  39  40
ENDBRANCH  32  34
ENDBRANCH  31  32
ENDBRANCH  30  31
ENDBRANCH  29  30
ENDBRANCH  28  29
ENDBRANCH   1  28
TORSDOF 22
ENDMDL
MODEL 3
REMARK VINA RESULT:     -10.2      2.759      8.016
REMARK SMILES C[NH2+][C@]1(C(=O)OCCOCCOC(=O)c2ccc(-c3c4nc(c(-c5cc(S(=O)(=O)[O-])ccc5F)c5ccc([nH]5)c(-c5cc(S(=O)(=O)[O-])ccc5F)c5nc(c(-c6cc(S(=O)(=O)[O-])ccc6F)c6ccc3[nH]6)C=C5)C=C4)cc2)CCC[C@@H]1CC[N@H+]1CCC[C@H]([NH+](C)C)C1
REMARK SMILES IDX 8 1 7 2 6 3 4 4 5 5 3 6 78 7 81 8 79 9 80 10 2 11 1 12 82 15
REMARK SMILES IDX 83 16 84 17 85 18 92 19 86 21 88 22 87 23 89 24 90 25 91 26
REMARK SMILES IDX 9 28 10 29 11 30 12 31 13 32 14 33 15 34 16 35 77 36 17 37
REMARK SMILES IDX 76 38 18 39 19 40 20 41 70 42 21 43 75 44 69 45 71 46 22 47
REMARK SMILES IDX 74 48 68 49 67 50 23 52 55 53 35 54 54 55 36 56 39 57 53 58
REMARK SMILES IDX 72 59 37 60 38 61 52 63 73 64 40 65 24 66 25 67 33 68 26 69
REMARK SMILES IDX 32 70 34 71 31 72 27 73 28 74 29 75 30 76 56 77 57 78 65 79
REMARK SMILES IDX 58 80 64 81 66 82 63 83 59 84 60 85 61 86 62 87 41 88 42 89
REMARK SMILES IDX 50 90 43 91 49 92 51 93 48 94 44 95 45 96 46 97 47 98
REMARK H PARENT 2 13 2 14 84 20 89 27 71 51 39 62
REMARK Flexibility Score: inf
ROOT
ATOM      1  C   UNL A   1      31.163  28.093  24.603  1.00  0.00     0.202 C 
ENDROOT
BRANCH   1   2
ATOM      2  C   UNL A   1      30.856  27.138  25.759  1.00  0.00     0.261 C 
BRANCH   2   3
ATOM      3  O   UNL A   1      31.966  26.366  26.247  1.00  0.00    -0.459 OA
BRANCH   3   4
ATOM      4  C   UNL A   1      31.804  25.021  26.147  1.00  0.00     0.368 C 
ATOM      5  O   UNL A   1      31.157  24.345  26.949  1.00  0.00    -0.245 OA
BRANCH   4   6
ATOM      6  C   UNL A   1      32.517  24.380  24.937  1.00  0.00     0.197 C 
ATOM      7  C   UNL A   1      33.224  25.349  23.976  1.00  0.00     0.081 C 
ATOM      8  C   UNL A   1      33.753  23.585  25.467  1.00  0.00     0.068 C 
ATOM      9  C   UNL A   1      34.237  24.477  23.235  1.00  0.00     0.008 C 
ATOM     10  C   UNL A   1      34.565  23.318  24.186  1.00  0.00     0.011 C 
BRANCH   6  11
ATOM     11  N   UNL A   1      31.570  23.425  24.275  1.00  0.00    -0.334 N 
ATOM     12  C   UNL A   1      30.513  24.044  23.493  1.00  0.00     0.331 C 
ATOM     13  H   UNL A   1      32.110  22.824  23.655  1.00  0.00     0.347 HD
ATOM     14  H   UNL A   1      31.104  22.920  25.029  1.00  0.00     0.347 HD
ENDBRANCH   6  11
BRANCH   8  15
ATOM     15  C   UNL A   1      33.410  22.311  26.266  1.00  0.00     0.072 C 
BRANCH  15  16
ATOM     16  C   UNL A   1      34.397  21.136  26.135  1.00  0.00     0.262 C 
BRANCH  16  17
ATOM     17  N   UNL A   1      33.931  19.878  25.523  1.00  0.00    -0.330 N 
ATOM     18  C   UNL A   1      32.834  20.015  24.567  1.00  0.00     0.262 C 
ATOM     19  C   UNL A   1      35.056  19.191  24.864  1.00  0.00     0.327 C 
ATOM     20  H   UNL A   1      33.557  19.333  26.301  1.00  0.00     0.348 HD
ATOM     21  C   UNL A   1      32.346  18.688  23.981  1.00  0.00     0.068 C 
ATOM     22  C   UNL A   1      34.705  17.751  24.397  1.00  0.00     0.239 C 
ATOM     23  C   UNL A   1      33.470  17.797  23.473  1.00  0.00     0.077 C 
BRANCH  22  24
ATOM     24  N   UNL A   1      34.641  16.700  25.443  1.00  0.00    -0.333 N 
ATOM     25  C   UNL A   1      33.281  16.180  25.599  1.00  0.00     0.332 C 
ATOM     26  C   UNL A   1      35.567  15.581  25.277  1.00  0.00     0.332 C 
ATOM     27  H   UNL A   1      34.939  17.188  26.287  1.00  0.00     0.348 HD
ENDBRANCH  22  24
ENDBRANCH  16  17
ENDBRANCH  15  16
ENDBRANCH   8  15
ENDBRANCH   4   6
ENDBRANCH   3   4
ENDBRANCH   2   3
ENDBRANCH   1   2
BRANCH   1  28
ATOM     28  O   UNL A   1      32.203  29.053  24.756  1.00  0.00    -0.374 OA
BRANCH  28  29
ATOM     29  C   UNL A   1      32.135  29.963  25.848  1.00  0.00     0.202 C 
BRANCH  29  30
ATOM     30  C   UNL A   1      32.964  29.673  27.101  1.00  0.00     0.261 C 
BRANCH  30  31
ATOM     31  O   UNL A   1      34.325  30.111  26.978  1.00  0.00    -0.460 OA
BRANCH  31  32
ATOM     32  C   UNL A   1      34.649  31.128  27.811  1.00  0.00     0.338 C 
ATOM     33  O   UNL A   1      33.974  32.129  28.039  1.00  0.00    -0.246 OA
BRANCH  32  34
ATOM     34  C   UNL A   1      35.853  30.797  28.592  1.00  0.00     0.060 A 
ATOM     35  C   UNL A   1      37.014  31.530  28.315  1.00  0.00     0.016 A 
ATOM     36  C   UNL A   1      35.875  29.747  29.510  1.00  0.00     0.016 A 
ATOM     37  C   UNL A   1      38.224  31.164  28.892  1.00  0.00     0.010 A 
ATOM     38  C   UNL A   1      37.093  29.371  30.083  1.00  0.00     0.010 A 
ATOM     39  C   UNL A   1      38.278  30.046  29.734  1.00  0.00    -0.014 A 
BRANCH  39  40
ATOM     40  C   UNL A   1      39.600  29.468  30.070  1.00  0.00     0.031 A 
ATOM     41  C   UNL A   1      40.393  30.101  31.182  1.00  0.00     0.074 A 
ATOM     42  C   UNL A   1      40.057  28.374  29.437  1.00  0.00     0.049 A 
ATOM     43  N   UNL A   1      41.578  29.793  31.639  1.00  0.00    -0.248 NA
ATOM     44  C   UNL A   1      39.759  31.238  31.868  1.00  0.00     0.031 C 
ATOM     45  C   UNL A   1      39.343  27.650  28.387  1.00  0.00     0.029 A 
ATOM     46  N   UNL A   1      41.232  27.685  29.585  1.00  0.00    -0.354 N 
ATOM     47  C   UNL A   1      41.834  30.699  32.664  1.00  0.00     0.074 A 
ATOM     48  C   UNL A   1      40.698  31.592  32.732  1.00  0.00     0.031 C 
ATOM     49  C   UNL A   1      40.102  26.619  27.978  1.00  0.00     0.029 A 
ATOM     50  C   UNL A   1      41.367  26.634  28.708  1.00  0.00     0.049 A 
ATOM     51  H   UNL A   1      41.914  27.918  30.256  1.00  0.00     0.167 HD
ATOM     52  C   UNL A   1      42.916  30.771  33.478  1.00  0.00     0.034 A 
ATOM     53  C   UNL A   1      42.408  25.801  28.506  1.00  0.00     0.034 A 
ATOM     54  C   UNL A   1      44.044  29.877  33.383  1.00  0.00     0.049 A 
ATOM     55  C   UNL A   1      43.642  25.958  29.363  1.00  0.00     0.074 A 
ATOM     56  C   UNL A   1      45.193  29.852  34.154  1.00  0.00     0.029 A 
ATOM     57  N   UNL A   1      44.171  28.857  32.448  1.00  0.00    -0.354 N 
ATOM     58  N   UNL A   1      43.875  26.817  30.329  1.00  0.00    -0.248 NA
ATOM     59  C   UNL A   1      44.747  25.026  29.108  1.00  0.00     0.031 C 
ATOM     60  C   UNL A   1      46.043  28.866  33.640  1.00  0.00     0.029 A 
ATOM     61  C   UNL A   1      45.392  28.219  32.601  1.00  0.00     0.049 A 
ATOM     62  H   UNL A   1      43.492  28.621  31.776  1.00  0.00     0.167 HD
ATOM     63  C   UNL A   1      45.143  26.507  30.816  1.00  0.00     0.074 A 
ATOM     64  C   UNL A   1      45.615  25.375  30.046  1.00  0.00     0.031 C 
ATOM     65  C   UNL A   1      45.850  27.098  31.813  1.00  0.00     0.034 A 
BRANCH  52  66
ATOM     66  C   UNL A   1      42.946  31.889  34.492  1.00  0.00     0.023 A 
ATOM     67  C   UNL A   1      42.484  31.711  35.809  1.00  0.00     0.031 A 
ATOM     68  C   UNL A   1      43.408  33.165  34.126  1.00  0.00     0.131 A 
ATOM     69  C   UNL A   1      42.428  32.806  36.686  1.00  0.00     0.055 A 
ATOM     70  C   UNL A   1      43.425  34.231  35.027  1.00  0.00     0.041 A 
ATOM     71  F   UNL A   1      43.838  33.403  32.876  1.00  0.00    -0.206 F 
ATOM     72  C   UNL A   1      42.918  34.059  36.312  1.00  0.00     0.022 A 
BRANCH  69  73
ATOM     73  S   UNL A   1      41.571  32.606  38.273  1.00  0.00     0.124 S 
ATOM     74  O   UNL A   1      41.706  33.940  38.851  1.00  0.00    -0.237 OA
ATOM     75  O   UNL A   1      40.226  32.222  37.858  1.00  0.00    -0.237 OA
ATOM     76  O   UNL A   1      42.338  31.561  38.948  1.00  0.00    -0.744 OA
ENDBRANCH  69  73
ENDBRANCH  52  66
BRANCH  53  77
ATOM     77  C   UNL A   1      42.354  24.775  27.425  1.00  0.00     0.023 A 
ATOM     78  C   UNL A   1      41.556  23.627  27.549  1.00  0.00     0.031 A 
ATOM     79  C   UNL A   1      43.144  24.906  26.268  1.00  0.00     0.131 A 
ATOM     80  C   UNL A   1      41.599  22.636  26.556  1.00  0.00     0.055 A 
ATOM     81  C   UNL A   1      43.142  23.943  25.259  1.00  0.00     0.041 A 
ATOM     82  F   UNL A   1      43.928  25.984  26.100  1.00  0.00    -0.206 F 
ATOM     83  C   UNL A   1      42.376  22.792  25.406  1.00  0.00     0.022 A 
BRANCH  80  84
ATOM     84  S   UNL A   1      40.686  21.093  26.830  1.00  0.00     0.124 S 
ATOM     85  O   UNL A   1      41.434  20.153  26.003  1.00  0.00    -0.237 OA
ATOM     86  O   UNL A   1      40.811  20.920  28.273  1.00  0.00    -0.237 OA
ATOM     87  O   UNL A   1      39.339  21.405  26.357  1.00  0.00    -0.744 OA
ENDBRANCH  80  84
ENDBRANCH  53  77
BRANCH  65  88
ATOM     88  C   UNL A   1      47.192  26.495  32.152  1.00  0.00     0.023 A 
ATOM     89  C   UNL A   1      48.377  26.927  31.532  1.00  0.00     0.031 A 
ATOM     90  C   UNL A   1      47.282  25.465  33.105  1.00  0.00     0.131 A 
ATOM     91  C   UNL A   1      49.593  26.294  31.831  1.00  0.00     0.055 A 
ATOM     92  C   UNL A   1      48.503  24.881  33.445  1.00  0.00     0.041 A 
ATOM     93  F   UNL A   1      46.181  25.011  33.728  1.00  0.00    -0.206 F 
ATOM     94  C   UNL A   1      49.666  25.286  32.796  1.00  0.00     0.022 A 
BRANCH  91  95
ATOM     95  S   UNL A   1      51.067  26.742  30.875  1.00  0.00     0.124 S 
ATOM     96  O   UNL A   1      51.064  25.734  29.820  1.00  0.00    -0.237 OA
ATOM     97  O   UNL A   1      50.764  28.107  30.454  1.00  0.00    -0.237 OA
ATOM     98  O   UNL A   1      52.156  26.622  31.844  1.00  0.00    -0.744 OA
ENDBRANCH  91  95
ENDBRANCH  65  88
ENDBRANCH  39  40
ENDBRANCH  32  34
ENDBRANCH  31  32
ENDBRANCH  30  31
ENDBRANCH  29  30
ENDBRANCH  28  29
ENDBRANCH   1  28
TORSDOF 22
ENDMDL
