MODEL 1
REMARK VINA RESULT:     -10.3      0.000      0.000
REMARK SMILES C[NH+](C)CCCNC(=O)[C@@H]1[C@@H](C(=O)OCCOCCOC(=O)c2ccc(-c3c4nc(c(-c5cc(S(=O)(=O)[O-])ccc5F)c5ccc([nH]5)c(-c5cc(S(=O)(=O)[O-])ccc5F)c5nc(c(-c6cc(S(=O)(=O)[O-])ccc6F)c6ccc3[nH]6)C=C5)C=C4)cc2)C1(C)C
REMARK SMILES IDX 16 1 15 2 14 3 12 4 13 5 11 6 10 7 86 8 87 9 88 10 8 11 7 12
REMARK SMILES IDX 9 14 6 15 5 16 4 17 2 18 1 19 3 20 17 22 18 23 19 24 20 25
REMARK SMILES IDX 21 26 22 27 23 28 24 29 85 30 25 31 84 32 26 33 27 34 28 35
REMARK SMILES IDX 78 36 29 37 83 38 77 39 79 40 30 41 82 42 76 43 75 44 31 46
REMARK SMILES IDX 63 47 43 48 62 49 44 50 47 51 61 52 80 53 45 54 46 55 60 57
REMARK SMILES IDX 81 58 48 59 32 60 33 61 41 62 34 63 40 64 42 65 39 66 35 67
REMARK SMILES IDX 36 68 37 69 38 70 64 71 65 72 73 73 66 74 72 75 74 76 71 77
REMARK SMILES IDX 67 78 68 79 69 80 70 81 49 82 50 83 58 84 51 85 57 86 59 87
REMARK SMILES IDX 56 88 52 89 53 90 54 91 55 92
REMARK H PARENT 7 13 2 21 79 45 47 56
REMARK Flexibility Score: inf
ROOT
ATOM      1  C   UNL A   1      34.076  18.723  24.316  1.00  0.00     0.202 C 
ENDROOT
BRANCH   1   2
ATOM      2  C   UNL A   1      33.059  19.042  25.414  1.00  0.00     0.261 C 
BRANCH   2   3
ATOM      3  O   UNL A   1      31.974  19.830  24.907  1.00  0.00    -0.463 OA
BRANCH   3   4
ATOM      4  C   UNL A   1      32.325  21.067  24.483  1.00  0.00     0.310 C 
ATOM      5  O   UNL A   1      32.040  21.564  23.403  1.00  0.00    -0.252 OA
BRANCH   4   6
ATOM      6  C   UNL A   1      33.084  21.860  25.473  1.00  0.00     0.118 C 
ATOM      7  C   UNL A   1      32.613  23.291  25.625  1.00  0.00     0.100 C 
ATOM      8  C   UNL A   1      34.076  23.015  25.384  1.00  0.00    -0.009 C 
ATOM      9  C   UNL A   1      34.603  23.580  24.084  1.00  0.00     0.013 C 
ATOM     10  C   UNL A   1      35.049  23.186  26.531  1.00  0.00     0.013 C 
BRANCH   7  11
ATOM     11  C   UNL A   1      31.903  23.580  26.889  1.00  0.00     0.224 C 
ATOM     12  N   UNL A   1      30.997  24.607  26.875  1.00  0.00    -0.356 N 
ATOM     13  H   UNL A   1      30.450  24.718  27.685  1.00  0.00     0.163 HD
ATOM     14  O   UNL A   1      32.063  22.894  27.893  1.00  0.00    -0.275 OA
BRANCH  12  15
ATOM     15  C   UNL A   1      30.751  25.556  25.799  1.00  0.00     0.121 C 
BRANCH  15  16
ATOM     16  C   UNL A   1      31.522  26.857  25.925  1.00  0.00     0.083 C 
BRANCH  16  17
ATOM     17  C   UNL A   1      32.658  27.090  24.925  1.00  0.00     0.263 C 
BRANCH  17  18
ATOM     18  N   UNL A   1      32.422  27.914  23.738  1.00  0.00    -0.340 N 
ATOM     19  C   UNL A   1      33.489  28.853  23.422  1.00  0.00     0.332 C 
ATOM     20  C   UNL A   1      32.012  27.150  22.564  1.00  0.00     0.332 C 
ATOM     21  H   UNL A   1      31.625  28.488  24.012  1.00  0.00     0.347 HD
ENDBRANCH  17  18
ENDBRANCH  16  17
ENDBRANCH  15  16
ENDBRANCH  12  15
ENDBRANCH   7  11
ENDBRANCH   4   6
ENDBRANCH   3   4
ENDBRANCH   2   3
ENDBRANCH   1   2
BRANCH   1  22
ATOM     22  O   UNL A   1      35.453  18.676  24.682  1.00  0.00    -0.374 OA
BRANCH  22  23
ATOM     23  C   UNL A   1      36.199  19.892  24.714  1.00  0.00     0.202 C 
BRANCH  23  24
ATOM     24  C   UNL A   1      37.711  19.835  24.967  1.00  0.00     0.261 C 
BRANCH  24  25
ATOM     25  O   UNL A   1      38.264  21.051  25.497  1.00  0.00    -0.460 OA
BRANCH  25  26
ATOM     26  C   UNL A   1      39.458  20.889  26.125  1.00  0.00     0.338 C 
ATOM     27  O   UNL A   1      40.171  19.900  26.094  1.00  0.00    -0.246 OA
BRANCH  26  28
ATOM     28  C   UNL A   1      39.900  22.162  26.724  1.00  0.00     0.060 A 
ATOM     29  C   UNL A   1      39.379  23.347  26.186  1.00  0.00     0.016 A 
ATOM     30  C   UNL A   1      40.879  22.203  27.717  1.00  0.00     0.016 A 
ATOM     31  C   UNL A   1      39.875  24.580  26.601  1.00  0.00     0.010 A 
ATOM     32  C   UNL A   1      41.383  23.443  28.126  1.00  0.00     0.010 A 
ATOM     33  C   UNL A   1      40.910  24.634  27.542  1.00  0.00    -0.014 A 
BRANCH  33  34
ATOM     34  C   UNL A   1      41.614  25.919  27.788  1.00  0.00     0.031 A 
ATOM     35  C   UNL A   1      40.905  26.995  28.566  1.00  0.00     0.074 A 
ATOM     36  C   UNL A   1      42.871  26.115  27.351  1.00  0.00     0.049 A 
ATOM     37  N   UNL A   1      41.286  28.216  28.834  1.00  0.00    -0.248 NA
ATOM     38  C   UNL A   1      39.584  26.641  29.110  1.00  0.00     0.031 C 
ATOM     39  C   UNL A   1      43.681  25.125  26.643  1.00  0.00     0.029 A 
ATOM     40  N   UNL A   1      43.684  27.218  27.434  1.00  0.00    -0.354 N 
ATOM     41  C   UNL A   1      40.249  28.784  29.568  1.00  0.00     0.074 A 
ATOM     42  C   UNL A   1      39.209  27.782  29.669  1.00  0.00     0.031 C 
ATOM     43  C   UNL A   1      44.873  25.671  26.346  1.00  0.00     0.029 A 
ATOM     44  C   UNL A   1      44.893  27.061  26.798  1.00  0.00     0.049 A 
ATOM     45  H   UNL A   1      43.425  28.043  27.905  1.00  0.00     0.167 HD
ATOM     46  C   UNL A   1      40.176  30.024  30.112  1.00  0.00     0.034 A 
ATOM     47  C   UNL A   1      45.886  27.948  26.579  1.00  0.00     0.034 A 
ATOM     48  C   UNL A   1      41.221  31.013  29.996  1.00  0.00     0.049 A 
ATOM     49  C   UNL A   1      45.742  29.354  27.111  1.00  0.00     0.074 A 
ATOM     50  C   UNL A   1      41.254  32.296  30.512  1.00  0.00     0.029 A 
ATOM     51  N   UNL A   1      42.412  30.833  29.305  1.00  0.00    -0.354 N 
ATOM     52  N   UNL A   1      44.754  29.884  27.796  1.00  0.00    -0.248 NA
ATOM     53  C   UNL A   1      46.852  30.281  26.848  1.00  0.00     0.031 C 
ATOM     54  C   UNL A   1      42.427  32.917  30.070  1.00  0.00     0.029 A 
ATOM     55  C   UNL A   1      43.171  31.993  29.354  1.00  0.00     0.049 A 
ATOM     56  H   UNL A   1      42.680  30.003  28.847  1.00  0.00     0.167 HD
ATOM     57  C   UNL A   1      45.145  31.191  28.079  1.00  0.00     0.074 A 
ATOM     58  C   UNL A   1      46.458  31.367  27.497  1.00  0.00     0.031 C 
ATOM     59  C   UNL A   1      44.482  32.156  28.768  1.00  0.00     0.034 A 
BRANCH  46  60
ATOM     60  C   UNL A   1      38.901  30.394  30.832  1.00  0.00     0.023 A 
ATOM     61  C   UNL A   1      37.814  30.985  30.165  1.00  0.00     0.031 A 
ATOM     62  C   UNL A   1      38.782  30.176  32.217  1.00  0.00     0.131 A 
ATOM     63  C   UNL A   1      36.688  31.400  30.893  1.00  0.00     0.055 A 
ATOM     64  C   UNL A   1      37.625  30.514  32.921  1.00  0.00     0.041 A 
ATOM     65  F   UNL A   1      39.796  29.638  32.913  1.00  0.00    -0.206 F 
ATOM     66  C   UNL A   1      36.574  31.144  32.261  1.00  0.00     0.022 A 
BRANCH  63  67
ATOM     67  S   UNL A   1      35.438  32.412  30.054  1.00  0.00     0.124 S 
ATOM     68  O   UNL A   1      35.097  31.570  28.909  1.00  0.00    -0.237 OA
ATOM     69  O   UNL A   1      34.406  32.550  31.075  1.00  0.00    -0.237 OA
ATOM     70  O   UNL A   1      36.157  33.640  29.722  1.00  0.00    -0.744 OA
ENDBRANCH  63  67
ENDBRANCH  46  60
BRANCH  47  71
ATOM     71  C   UNL A   1      47.086  27.556  25.783  1.00  0.00     0.023 A 
ATOM     72  C   UNL A   1      47.213  27.918  24.433  1.00  0.00     0.031 A 
ATOM     73  C   UNL A   1      48.096  26.755  26.348  1.00  0.00     0.131 A 
ATOM     74  C   UNL A   1      48.297  27.440  23.680  1.00  0.00     0.055 A 
ATOM     75  C   UNL A   1      49.203  26.332  25.611  1.00  0.00     0.041 A 
ATOM     76  F   UNL A   1      48.025  26.377  27.635  1.00  0.00    -0.206 F 
ATOM     77  C   UNL A   1      49.300  26.662  24.263  1.00  0.00     0.022 A 
BRANCH  74  78
ATOM     78  S   UNL A   1      48.327  27.769  21.896  1.00  0.00     0.124 S 
ATOM     79  O   UNL A   1      46.991  28.311  21.674  1.00  0.00    -0.237 OA
ATOM     80  O   UNL A   1      49.432  28.715  21.783  1.00  0.00    -0.237 OA
ATOM     81  O   UNL A   1      48.572  26.452  21.313  1.00  0.00    -0.744 OA
ENDBRANCH  74  78
ENDBRANCH  47  71
BRANCH  59  82
ATOM     82  C   UNL A   1      45.198  33.467  28.991  1.00  0.00     0.023 A 
ATOM     83  C   UNL A   1      45.088  34.542  28.091  1.00  0.00     0.031 A 
ATOM     84  C   UNL A   1      46.002  33.642  30.132  1.00  0.00     0.131 A 
ATOM     85  C   UNL A   1      45.810  35.723  28.322  1.00  0.00     0.055 A 
ATOM     86  C   UNL A   1      46.667  34.842  30.390  1.00  0.00     0.041 A 
ATOM     87  F   UNL A   1      46.146  32.649  31.025  1.00  0.00    -0.206 F 
ATOM     88  C   UNL A   1      46.583  35.887  29.475  1.00  0.00     0.022 A 
BRANCH  85  89
ATOM     89  S   UNL A   1      45.798  37.017  27.050  1.00  0.00     0.124 S 
ATOM     90  O   UNL A   1      44.370  37.285  26.904  1.00  0.00    -0.237 OA
ATOM     91  O   UNL A   1      46.585  38.075  27.673  1.00  0.00    -0.237 OA
ATOM     92  O   UNL A   1      46.428  36.372  25.898  1.00  0.00    -0.744 OA
ENDBRANCH  85  89
ENDBRANCH  59  82
ENDBRANCH  33  34
ENDBRANCH  26  28
ENDBRANCH  25  26
ENDBRANCH  24  25
ENDBRANCH  23  24
ENDBRANCH  22  23
ENDBRANCH   1  22
TORSDOF 22
ENDMDL
MODEL 2
REMARK VINA RESULT:      -9.9      1.950      3.001
REMARK SMILES C[NH+](C)CCCNC(=O)[C@@H]1[C@@H](C(=O)OCCOCCOC(=O)c2ccc(-c3c4nc(c(-c5cc(S(=O)(=O)[O-])ccc5F)c5ccc([nH]5)c(-c5cc(S(=O)(=O)[O-])ccc5F)c5nc(c(-c6cc(S(=O)(=O)[O-])ccc6F)c6ccc3[nH]6)C=C5)C=C4)cc2)C1(C)C
REMARK SMILES IDX 16 1 15 2 14 3 12 4 13 5 11 6 10 7 86 8 87 9 88 10 8 11 7 12
REMARK SMILES IDX 9 14 6 15 5 16 4 17 2 18 1 19 3 20 17 22 18 23 19 24 20 25
REMARK SMILES IDX 21 26 22 27 23 28 24 29 85 30 25 31 84 32 26 33 27 34 28 35
REMARK SMILES IDX 78 36 29 37 83 38 77 39 79 40 30 41 82 42 76 43 75 44 31 46
REMARK SMILES IDX 63 47 43 48 62 49 44 50 47 51 61 52 80 53 45 54 46 55 60 57
REMARK SMILES IDX 81 58 48 59 32 60 33 61 41 62 34 63 40 64 42 65 39 66 35 67
REMARK SMILES IDX 36 68 37 69 38 70 64 71 65 72 73 73 66 74 72 75 74 76 71 77
REMARK SMILES IDX 67 78 68 79 69 80 70 81 49 82 50 83 58 84 51 85 57 86 59 87
REMARK SMILES IDX 56 88 52 89 53 90 54 91 55 92
REMARK H PARENT 7 13 2 21 79 45 47 56
REMARK Flexibility Score: inf
ROOT
ATOM      1  C   UNL A   1      35.394  23.948  25.522  1.00  0.00     0.202 C 
ENDROOT
BRANCH   1   2
ATOM      2  C   UNL A   1      34.329  24.995  25.190  1.00  0.00     0.261 C 
BRANCH   2   3
ATOM      3  O   UNL A   1      34.311  26.048  26.163  1.00  0.00    -0.463 OA
BRANCH   3   4
ATOM      4  C   UNL A   1      33.463  27.064  25.878  1.00  0.00     0.310 C 
ATOM      5  O   UNL A   1      33.328  28.091  26.528  1.00  0.00    -0.252 OA
BRANCH   4   6
ATOM      6  C   UNL A   1      32.686  26.881  24.633  1.00  0.00     0.118 C 
ATOM      7  C   UNL A   1      31.576  27.892  24.431  1.00  0.00     0.100 C 
ATOM      8  C   UNL A   1      31.269  26.419  24.315  1.00  0.00    -0.009 C 
ATOM      9  C   UNL A   1      30.291  25.912  25.351  1.00  0.00     0.013 C 
ATOM     10  C   UNL A   1      31.020  25.833  22.942  1.00  0.00     0.013 C 
BRANCH   7  11
ATOM     11  C   UNL A   1      31.830  28.889  23.370  1.00  0.00     0.224 C 
ATOM     12  N   UNL A   1      30.860  29.833  23.157  1.00  0.00    -0.356 N 
ATOM     13  H   UNL A   1      31.087  30.557  22.530  1.00  0.00     0.163 HD
ATOM     14  O   UNL A   1      32.886  28.919  22.748  1.00  0.00    -0.275 OA
BRANCH  12  15
ATOM     15  C   UNL A   1      29.533  29.888  23.750  1.00  0.00     0.121 C 
BRANCH  15  16
ATOM     16  C   UNL A   1      28.797  31.194  23.513  1.00  0.00     0.083 C 
BRANCH  16  17
ATOM     17  C   UNL A   1      29.233  32.027  22.305  1.00  0.00     0.263 C 
BRANCH  17  18
ATOM     18  N   UNL A   1      28.591  31.816  21.006  1.00  0.00    -0.340 N 
ATOM     19  C   UNL A   1      27.939  30.523  20.848  1.00  0.00     0.332 C 
ATOM     20  C   UNL A   1      27.720  32.912  20.595  1.00  0.00     0.332 C 
ATOM     21  H   UNL A   1      29.380  31.805  20.360  1.00  0.00     0.347 HD
ENDBRANCH  17  18
ENDBRANCH  16  17
ENDBRANCH  15  16
ENDBRANCH  12  15
ENDBRANCH   7  11
ENDBRANCH   4   6
ENDBRANCH   3   4
ENDBRANCH   2   3
ENDBRANCH   1   2
BRANCH   1  22
ATOM     22  O   UNL A   1      36.008  23.260  24.434  1.00  0.00    -0.374 OA
BRANCH  22  23
ATOM     23  C   UNL A   1      35.972  21.834  24.415  1.00  0.00     0.202 C 
BRANCH  23  24
ATOM     24  C   UNL A   1      36.960  21.050  25.289  1.00  0.00     0.261 C 
BRANCH  24  25
ATOM     25  O   UNL A   1      38.340  21.252  24.943  1.00  0.00    -0.460 OA
BRANCH  25  26
ATOM     26  C   UNL A   1      39.211  20.958  25.944  1.00  0.00     0.338 C 
ATOM     27  O   UNL A   1      39.689  19.866  26.200  1.00  0.00    -0.246 OA
BRANCH  26  28
ATOM     28  C   UNL A   1      39.674  22.195  26.601  1.00  0.00     0.060 A 
ATOM     29  C   UNL A   1      39.139  23.409  26.146  1.00  0.00     0.016 A 
ATOM     30  C   UNL A   1      40.683  22.179  27.563  1.00  0.00     0.016 A 
ATOM     31  C   UNL A   1      39.650  24.617  26.615  1.00  0.00     0.010 A 
ATOM     32  C   UNL A   1      41.202  23.394  28.026  1.00  0.00     0.010 A 
ATOM     33  C   UNL A   1      40.715  24.617  27.525  1.00  0.00    -0.014 A 
BRANCH  33  34
ATOM     34  C   UNL A   1      41.429  25.885  27.821  1.00  0.00     0.031 A 
ATOM     35  C   UNL A   1      40.704  26.964  28.581  1.00  0.00     0.074 A 
ATOM     36  C   UNL A   1      42.708  26.064  27.446  1.00  0.00     0.049 A 
ATOM     37  N   UNL A   1      41.093  28.174  28.884  1.00  0.00    -0.248 NA
ATOM     38  C   UNL A   1      39.353  26.627  29.059  1.00  0.00     0.031 C 
ATOM     39  C   UNL A   1      43.532  25.069  26.762  1.00  0.00     0.029 A 
ATOM     40  N   UNL A   1      43.535  27.151  27.581  1.00  0.00    -0.354 N 
ATOM     41  C   UNL A   1      40.033  28.751  29.577  1.00  0.00     0.074 A 
ATOM     42  C   UNL A   1      38.973  27.766  29.616  1.00  0.00     0.031 C 
ATOM     43  C   UNL A   1      44.746  25.597  26.527  1.00  0.00     0.029 A 
ATOM     44  C   UNL A   1      44.769  26.981  26.999  1.00  0.00     0.049 A 
ATOM     45  H   UNL A   1      43.270  27.974  28.051  1.00  0.00     0.167 HD
ATOM     46  C   UNL A   1      39.957  29.985  30.135  1.00  0.00     0.034 A 
ATOM     47  C   UNL A   1      45.787  27.852  26.838  1.00  0.00     0.034 A 
ATOM     48  C   UNL A   1      41.023  30.956  30.080  1.00  0.00     0.049 A 
ATOM     49  C   UNL A   1      45.643  29.254  27.384  1.00  0.00     0.074 A 
ATOM     50  C   UNL A   1      41.055  32.230  30.616  1.00  0.00     0.029 A 
ATOM     51  N   UNL A   1      42.242  30.763  29.442  1.00  0.00    -0.354 N 
ATOM     52  N   UNL A   1      44.634  29.792  28.029  1.00  0.00    -0.248 NA
ATOM     53  C   UNL A   1      46.780  30.163  27.185  1.00  0.00     0.031 C 
ATOM     54  C   UNL A   1      42.258  32.836  30.237  1.00  0.00     0.029 A 
ATOM     55  C   UNL A   1      43.018  31.909  29.543  1.00  0.00     0.049 A 
ATOM     56  H   UNL A   1      42.516  29.935  28.986  1.00  0.00     0.167 HD
ATOM     57  C   UNL A   1      45.034  31.088  28.349  1.00  0.00     0.074 A 
ATOM     58  C   UNL A   1      46.375  31.248  27.831  1.00  0.00     0.031 C 
ATOM     59  C   UNL A   1      44.357  32.055  29.021  1.00  0.00     0.034 A 
BRANCH  46  60
ATOM     60  C   UNL A   1      38.657  30.368  30.801  1.00  0.00     0.023 A 
ATOM     61  C   UNL A   1      37.611  30.986  30.092  1.00  0.00     0.031 A 
ATOM     62  C   UNL A   1      38.470  30.134  32.176  1.00  0.00     0.131 A 
ATOM     63  C   UNL A   1      36.460  31.412  30.773  1.00  0.00     0.055 A 
ATOM     64  C   UNL A   1      37.289  30.484  32.830  1.00  0.00     0.041 A 
ATOM     65  F   UNL A   1      39.442  29.570  32.910  1.00  0.00    -0.206 F 
ATOM     66  C   UNL A   1      36.280  31.141  32.131  1.00  0.00     0.022 A 
BRANCH  63  67
ATOM     67  S   UNL A   1      35.268  32.455  29.891  1.00  0.00     0.124 S 
ATOM     68  O   UNL A   1      34.273  32.709  30.931  1.00  0.00    -0.237 OA
ATOM     69  O   UNL A   1      36.082  33.598  29.494  1.00  0.00    -0.237 OA
ATOM     70  O   UNL A   1      34.810  31.604  28.796  1.00  0.00    -0.744 OA
ENDBRANCH  63  67
ENDBRANCH  46  60
BRANCH  47  71
ATOM     71  C   UNL A   1      47.016  27.449  26.094  1.00  0.00     0.023 A 
ATOM     72  C   UNL A   1      47.201  27.807  24.749  1.00  0.00     0.031 A 
ATOM     73  C   UNL A   1      47.996  26.642  26.701  1.00  0.00     0.131 A 
ATOM     74  C   UNL A   1      48.311  27.319  24.042  1.00  0.00     0.055 A 
ATOM     75  C   UNL A   1      49.128  26.209  26.011  1.00  0.00     0.041 A 
ATOM     76  F   UNL A   1      47.869  26.267  27.984  1.00  0.00    -0.206 F 
ATOM     77  C   UNL A   1      49.283  26.535  24.667  1.00  0.00     0.022 A 
BRANCH  74  78
ATOM     78  S   UNL A   1      48.416  27.644  22.260  1.00  0.00     0.124 S 
ATOM     79  O   UNL A   1      47.164  28.350  22.015  1.00  0.00    -0.237 OA
ATOM     80  O   UNL A   1      49.633  28.443  22.171  1.00  0.00    -0.237 OA
ATOM     81  O   UNL A   1      48.504  26.306  21.677  1.00  0.00    -0.744 OA
ENDBRANCH  74  78
ENDBRANCH  47  71
BRANCH  59  82
ATOM     82  C   UNL A   1      45.085  33.350  29.295  1.00  0.00     0.023 A 
ATOM     83  C   UNL A   1      44.949  34.476  28.463  1.00  0.00     0.031 A 
ATOM     84  C   UNL A   1      45.928  33.457  30.416  1.00  0.00     0.131 A 
ATOM     85  C   UNL A   1      45.682  35.640  28.737  1.00  0.00     0.055 A 
ATOM     86  C   UNL A   1      46.605  34.639  30.720  1.00  0.00     0.041 A 
ATOM     87  F   UNL A   1      46.098  32.414  31.245  1.00  0.00    -0.206 F 
ATOM     88  C   UNL A   1      46.494  35.736  29.870  1.00  0.00     0.022 A 
BRANCH  85  89
ATOM     89  S   UNL A   1      45.632  37.006  27.543  1.00  0.00     0.124 S 
ATOM     90  O   UNL A   1      46.761  36.689  26.673  1.00  0.00    -0.237 OA
ATOM     91  O   UNL A   1      44.308  36.854  26.951  1.00  0.00    -0.237 OA
ATOM     92  O   UNL A   1      45.806  38.196  28.375  1.00  0.00    -0.744 OA
ENDBRANCH  85  89
ENDBRANCH  59  82
ENDBRANCH  33  34
ENDBRANCH  26  28
ENDBRANCH  25  26
ENDBRANCH  24  25
ENDBRANCH  23  24
ENDBRANCH  22  23
ENDBRANCH   1  22
TORSDOF 22
ENDMDL
MODEL 3
REMARK VINA RESULT:      -9.8      4.991     10.410
REMARK SMILES C[NH+](C)CCCNC(=O)[C@@H]1[C@@H](C(=O)OCCOCCOC(=O)c2ccc(-c3c4nc(c(-c5cc(S(=O)(=O)[O-])ccc5F)c5ccc([nH]5)c(-c5cc(S(=O)(=O)[O-])ccc5F)c5nc(c(-c6cc(S(=O)(=O)[O-])ccc6F)c6ccc3[nH]6)C=C5)C=C4)cc2)C1(C)C
REMARK SMILES IDX 16 1 15 2 14 3 12 4 13 5 11 6 10 7 86 8 87 9 88 10 8 11 7 12
REMARK SMILES IDX 9 14 6 15 5 16 4 17 2 18 1 19 3 20 17 22 18 23 19 24 20 25
REMARK SMILES IDX 21 26 22 27 23 28 24 29 85 30 25 31 84 32 26 33 27 34 28 35
REMARK SMILES IDX 78 36 29 37 83 38 77 39 79 40 30 41 82 42 76 43 75 44 31 46
REMARK SMILES IDX 63 47 43 48 62 49 44 50 47 51 61 52 80 53 45 54 46 55 60 57
REMARK SMILES IDX 81 58 48 59 32 60 33 61 41 62 34 63 40 64 42 65 39 66 35 67
REMARK SMILES IDX 36 68 37 69 38 70 64 71 65 72 73 73 66 74 72 75 74 76 71 77
REMARK SMILES IDX 67 78 68 79 69 80 70 81 49 82 50 83 58 84 51 85 57 86 59 87
REMARK SMILES IDX 56 88 52 89 53 90 54 91 55 92
REMARK H PARENT 7 13 2 21 79 45 47 56
REMARK Flexibility Score: inf
ROOT
ATOM      1  C   UNL A   1      30.635  27.167  24.917  1.00  0.00     0.202 C 
ENDROOT
BRANCH   1   2
ATOM      2  C   UNL A   1      30.207  25.861  25.588  1.00  0.00     0.261 C 
BRANCH   2   3
ATOM      3  O   UNL A   1      31.109  25.495  26.641  1.00  0.00    -0.463 OA
BRANCH   3   4
ATOM      4  C   UNL A   1      31.366  24.169  26.727  1.00  0.00     0.310 C 
ATOM      5  O   UNL A   1      30.707  23.348  27.349  1.00  0.00    -0.252 OA
BRANCH   4   6
ATOM      6  C   UNL A   1      32.537  23.721  25.942  1.00  0.00     0.118 C 
ATOM      7  C   UNL A   1      32.522  22.251  25.578  1.00  0.00     0.100 C 
ATOM      8  C   UNL A   1      33.746  22.839  26.235  1.00  0.00    -0.009 C 
ATOM      9  C   UNL A   1      34.056  22.252  27.593  1.00  0.00     0.013 C 
ATOM     10  C   UNL A   1      34.987  23.062  25.398  1.00  0.00     0.013 C 
BRANCH   7  11
ATOM     11  C   UNL A   1      32.262  21.969  24.150  1.00  0.00     0.224 C 
ATOM     12  N   UNL A   1      32.543  20.704  23.703  1.00  0.00    -0.356 N 
ATOM     13  H   UNL A   1      32.262  20.494  22.785  1.00  0.00     0.163 HD
ATOM     14  O   UNL A   1      31.756  22.802  23.407  1.00  0.00    -0.275 OA
BRANCH  12  15
ATOM     15  C   UNL A   1      33.212  19.636  24.431  1.00  0.00     0.121 C 
BRANCH  15  16
ATOM     16  C   UNL A   1      32.495  18.299  24.376  1.00  0.00     0.083 C 
BRANCH  16  17
ATOM     17  C   UNL A   1      33.276  17.117  23.795  1.00  0.00     0.263 C 
BRANCH  17  18
ATOM     18  N   UNL A   1      33.546  15.945  24.630  1.00  0.00    -0.340 N 
ATOM     19  C   UNL A   1      34.866  15.920  25.243  1.00  0.00     0.332 C 
ATOM     20  C   UNL A   1      32.495  15.659  25.601  1.00  0.00     0.332 C 
ATOM     21  H   UNL A   1      33.544  15.179  23.956  1.00  0.00     0.347 HD
ENDBRANCH  17  18
ENDBRANCH  16  17
ENDBRANCH  15  16
ENDBRANCH  12  15
ENDBRANCH   7  11
ENDBRANCH   4   6
ENDBRANCH   3   4
ENDBRANCH   2   3
ENDBRANCH   1   2
BRANCH   1  22
ATOM     22  O   UNL A   1      31.849  27.771  25.358  1.00  0.00    -0.374 OA
BRANCH  22  23
ATOM     23  C   UNL A   1      32.160  29.092  24.918  1.00  0.00     0.202 C 
BRANCH  23  24
ATOM     24  C   UNL A   1      32.121  30.246  25.929  1.00  0.00     0.261 C 
BRANCH  24  25
ATOM     25  O   UNL A   1      33.053  30.107  27.014  1.00  0.00    -0.460 OA
BRANCH  25  26
ATOM     26  C   UNL A   1      33.671  31.266  27.365  1.00  0.00     0.338 C 
ATOM     27  O   UNL A   1      33.170  32.377  27.407  1.00  0.00    -0.246 OA
BRANCH  26  28
ATOM     28  C   UNL A   1      35.023  30.989  27.884  1.00  0.00     0.060 A 
ATOM     29  C   UNL A   1      35.320  29.669  28.249  1.00  0.00     0.016 A 
ATOM     30  C   UNL A   1      35.944  32.012  28.109  1.00  0.00     0.016 A 
ATOM     31  C   UNL A   1      36.520  29.373  28.891  1.00  0.00     0.010 A 
ATOM     32  C   UNL A   1      37.146  31.715  28.763  1.00  0.00     0.010 A 
ATOM     33  C   UNL A   1      37.421  30.402  29.191  1.00  0.00    -0.014 A 
BRANCH  33  34
ATOM     34  C   UNL A   1      38.566  30.135  30.099  1.00  0.00     0.031 A 
ATOM     35  C   UNL A   1      39.671  29.231  29.623  1.00  0.00     0.074 A 
ATOM     36  C   UNL A   1      38.635  30.709  31.314  1.00  0.00     0.049 A 
ATOM     37  N   UNL A   1      40.723  28.794  30.265  1.00  0.00    -0.248 NA
ATOM     38  C   UNL A   1      39.569  28.754  28.235  1.00  0.00     0.031 C 
ATOM     39  C   UNL A   1      37.658  31.651  31.858  1.00  0.00     0.029 A 
ATOM     40  N   UNL A   1      39.567  30.576  32.312  1.00  0.00    -0.354 N 
ATOM     41  C   UNL A   1      41.404  27.980  29.365  1.00  0.00     0.074 A 
ATOM     42  C   UNL A   1      40.624  27.957  28.146  1.00  0.00     0.031 C 
ATOM     43  C   UNL A   1      38.038  32.002  33.099  1.00  0.00     0.029 A 
ATOM     44  C   UNL A   1      39.255  31.275  33.455  1.00  0.00     0.049 A 
ATOM     45  H   UNL A   1      40.382  30.032  32.219  1.00  0.00     0.167 HD
ATOM     46  C   UNL A   1      42.576  27.319  29.539  1.00  0.00     0.034 A 
ATOM     47  C   UNL A   1      39.864  31.299  34.658  1.00  0.00     0.034 A 
ATOM     48  C   UNL A   1      43.337  27.348  30.764  1.00  0.00     0.049 A 
ATOM     49  C   UNL A   1      41.117  30.479  34.861  1.00  0.00     0.074 A 
ATOM     50  C   UNL A   1      44.538  26.722  31.047  1.00  0.00     0.029 A 
ATOM     51  N   UNL A   1      42.965  28.031  31.915  1.00  0.00    -0.354 N 
ATOM     52  N   UNL A   1      41.748  29.706  34.007  1.00  0.00    -0.248 NA
ATOM     53  C   UNL A   1      41.744  30.541  36.188  1.00  0.00     0.031 C 
ATOM     54  C   UNL A   1      44.852  26.962  32.389  1.00  0.00     0.029 A 
ATOM     55  C   UNL A   1      43.897  27.814  32.920  1.00  0.00     0.049 A 
ATOM     56  H   UNL A   1      42.159  28.589  32.006  1.00  0.00     0.167 HD
ATOM     57  C   UNL A   1      42.867  29.225  34.683  1.00  0.00     0.074 A 
ATOM     58  C   UNL A   1      42.827  29.798  36.011  1.00  0.00     0.031 C 
ATOM     59  C   UNL A   1      43.846  28.393  34.243  1.00  0.00     0.034 A 
BRANCH  46  60
ATOM     60  C   UNL A   1      43.070  26.467  28.395  1.00  0.00     0.023 A 
ATOM     61  C   UNL A   1      44.174  26.843  27.609  1.00  0.00     0.031 A 
ATOM     62  C   UNL A   1      42.408  25.269  28.066  1.00  0.00     0.131 A 
ATOM     63  C   UNL A   1      44.538  26.069  26.497  1.00  0.00     0.055 A 
ATOM     64  C   UNL A   1      42.827  24.460  27.009  1.00  0.00     0.041 A 
ATOM     65  F   UNL A   1      41.333  24.871  28.764  1.00  0.00    -0.206 F 
ATOM     66  C   UNL A   1      43.890  24.866  26.207  1.00  0.00     0.022 A 
BRANCH  63  67
ATOM     67  S   UNL A   1      45.774  26.731  25.346  1.00  0.00     0.124 S 
ATOM     68  O   UNL A   1      46.085  25.555  24.538  1.00  0.00    -0.237 OA
ATOM     69  O   UNL A   1      45.038  27.794  24.671  1.00  0.00    -0.237 OA
ATOM     70  O   UNL A   1      46.854  27.179  26.223  1.00  0.00    -0.744 OA
ENDBRANCH  63  67
ENDBRANCH  46  60
BRANCH  47  71
ATOM     71  C   UNL A   1      39.284  32.089  35.783  1.00  0.00     0.023 A 
ATOM     72  C   UNL A   1      38.578  31.462  36.823  1.00  0.00     0.031 A 
ATOM     73  C   UNL A   1      39.371  33.493  35.800  1.00  0.00     0.131 A 
ATOM     74  C   UNL A   1      37.946  32.239  37.807  1.00  0.00     0.055 A 
ATOM     75  C   UNL A   1      38.791  34.258  36.813  1.00  0.00     0.041 A 
ATOM     76  F   UNL A   1      40.030  34.146  34.829  1.00  0.00    -0.206 F 
ATOM     77  C   UNL A   1      38.060  33.631  37.818  1.00  0.00     0.022 A 
BRANCH  74  78
ATOM     78  S   UNL A   1      36.888  31.407  39.022  1.00  0.00     0.124 S 
ATOM     79  O   UNL A   1      35.686  32.231  38.980  1.00  0.00    -0.237 OA
ATOM     80  O   UNL A   1      36.770  30.069  38.453  1.00  0.00    -0.237 OA
ATOM     81  O   UNL A   1      37.662  31.491  40.259  1.00  0.00    -0.744 OA
ENDBRANCH  74  78
ENDBRANCH  47  71
BRANCH  59  82
ATOM     82  C   UNL A   1      44.993  28.109  35.184  1.00  0.00     0.023 A 
ATOM     83  C   UNL A   1      46.147  28.912  35.221  1.00  0.00     0.031 A 
ATOM     84  C   UNL A   1      44.922  27.014  36.065  1.00  0.00     0.131 A 
ATOM     85  C   UNL A   1      47.202  28.578  36.083  1.00  0.00     0.055 A 
ATOM     86  C   UNL A   1      45.948  26.725  36.966  1.00  0.00     0.041 A 
ATOM     87  F   UNL A   1      43.845  26.212  36.072  1.00  0.00    -0.206 F 
ATOM     88  C   UNL A   1      47.103  27.502  36.969  1.00  0.00     0.022 A 
BRANCH  85  89
ATOM     89  S   UNL A   1      48.751  29.517  35.972  1.00  0.00     0.124 S 
ATOM     90  O   UNL A   1      49.740  28.455  35.819  1.00  0.00    -0.237 OA
ATOM     91  O   UNL A   1      48.526  30.353  34.798  1.00  0.00    -0.237 OA
ATOM     92  O   UNL A   1      48.807  30.238  37.244  1.00  0.00    -0.744 OA
ENDBRANCH  85  89
ENDBRANCH  59  82
ENDBRANCH  33  34
ENDBRANCH  26  28
ENDBRANCH  25  26
ENDBRANCH  24  25
ENDBRANCH  23  24
ENDBRANCH  22  23
ENDBRANCH   1  22
TORSDOF 22
ENDMDL
