MODEL 1
REMARK VINA RESULT:     -10.8      0.000      0.000
REMARK SMILES O=C(OCCOCCOC(=O)c1csc(C[NH2+][C@H]2CCSc3ccc(F)cc32)c1)c1ccc(-c2c3nc(c(-c4cc(S(=O)(=O)[O-])ccc4F)c4ccc([nH]4)c(-c4cc(S(=O)(=O)[O-])ccc4F)c4nc(c(-c5cc(S(=O)(=O)[O-])ccc5F)c5ccc2[nH]5)C=C4)C=C3)cc1
REMARK SMILES IDX 6 1 5 2 4 3 3 4 2 5 1 6 30 7 31 8 92 9 32 10 91 11 33 12
REMARK SMILES IDX 34 13 35 14 85 15 36 16 90 17 84 18 86 19 37 20 89 21 83 22
REMARK SMILES IDX 82 23 38 25 70 26 50 27 69 28 51 29 54 30 68 31 87 32 52 33
REMARK SMILES IDX 53 34 67 36 88 37 55 38 39 39 40 40 48 41 41 42 47 43 49 44
REMARK SMILES IDX 46 45 42 46 43 47 44 48 45 49 71 50 72 51 80 52 73 53 79 54
REMARK SMILES IDX 81 55 78 56 74 57 75 58 76 59 77 60 56 61 57 62 65 63 58 64
REMARK SMILES IDX 64 65 66 66 63 67 59 68 60 69 61 70 62 71 7 72 8 73 9 74
REMARK SMILES IDX 10 75 11 76 12 77 13 78 29 79 14 80 15 81 16 82 17 83 18 86
REMARK SMILES IDX 19 87 28 88 20 89 22 90 27 91 21 92 23 93 25 94 24 95 26 96
REMARK H PARENT 86 24 54 35 17 84 17 85
REMARK Flexibility Score: inf
ROOT
ATOM      1  O   UNL A   1      36.428  22.794  23.737  1.00  0.00    -0.374 OA
ENDROOT
BRANCH   1   2
ATOM      2  C   UNL A   1      36.409  21.694  24.644  1.00  0.00     0.202 C 
BRANCH   2   3
ATOM      3  C   UNL A   1      37.754  20.987  24.778  1.00  0.00     0.261 C 
BRANCH   3   4
ATOM      4  O   UNL A   1      38.360  21.195  26.062  1.00  0.00    -0.460 OA
BRANCH   4   5
ATOM      5  C   UNL A   1      39.592  21.634  26.402  1.00  0.00     0.338 C 
ATOM      6  O   UNL A   1      40.500  20.800  26.399  1.00  0.00    -0.246 OA
BRANCH   5   7
ATOM      7  C   UNL A   1      39.945  23.036  26.818  1.00  0.00     0.060 A 
ATOM      8  C   UNL A   1      40.833  23.147  27.908  1.00  0.00     0.016 A 
ATOM      9  C   UNL A   1      39.505  24.225  26.227  1.00  0.00     0.016 A 
ATOM     10  C   UNL A   1      41.257  24.392  28.386  1.00  0.00     0.010 A 
ATOM     11  C   UNL A   1      39.915  25.474  26.708  1.00  0.00     0.010 A 
ATOM     12  C   UNL A   1      40.801  25.564  27.781  1.00  0.00    -0.014 A 
BRANCH  12  13
ATOM     13  C   UNL A   1      41.353  26.878  28.164  1.00  0.00     0.031 A 
ATOM     14  C   UNL A   1      42.776  27.236  27.877  1.00  0.00     0.074 A 
ATOM     15  C   UNL A   1      40.546  27.724  28.831  1.00  0.00     0.049 A 
ATOM     16  N   UNL A   1      43.377  28.384  28.037  1.00  0.00    -0.248 NA
ATOM     17  C   UNL A   1      43.640  26.168  27.351  1.00  0.00     0.031 C 
ATOM     18  C   UNL A   1      39.166  27.423  29.217  1.00  0.00     0.029 A 
ATOM     19  N   UNL A   1      40.760  28.988  29.310  1.00  0.00    -0.354 N 
ATOM     20  C   UNL A   1      44.683  28.193  27.605  1.00  0.00     0.074 A 
ATOM     21  C   UNL A   1      44.801  26.801  27.226  1.00  0.00     0.031 C 
ATOM     22  C   UNL A   1      38.655  28.476  29.869  1.00  0.00     0.029 A 
ATOM     23  C   UNL A   1      39.665  29.527  29.942  1.00  0.00     0.049 A 
ATOM     24  H   UNL A   1      41.616  29.465  29.210  1.00  0.00     0.167 HD
ATOM     25  C   UNL A   1      45.676  29.110  27.521  1.00  0.00     0.034 A 
ATOM     26  C   UNL A   1      39.486  30.746  30.491  1.00  0.00     0.034 A 
ATOM     27  C   UNL A   1      45.528  30.481  27.943  1.00  0.00     0.049 A 
ATOM     28  C   UNL A   1      40.592  31.758  30.353  1.00  0.00     0.074 A 
ATOM     29  C   UNL A   1      46.450  31.509  27.864  1.00  0.00     0.029 A 
ATOM     30  N   UNL A   1      44.388  31.014  28.532  1.00  0.00    -0.354 N 
ATOM     31  N   UNL A   1      41.777  31.610  29.808  1.00  0.00    -0.248 NA
ATOM     32  C   UNL A   1      40.330  33.110  30.862  1.00  0.00     0.031 C 
ATOM     33  C   UNL A   1      45.887  32.646  28.448  1.00  0.00     0.029 A 
ATOM     34  C   UNL A   1      44.590  32.348  28.837  1.00  0.00     0.049 A 
ATOM     35  H   UNL A   1      43.557  30.514  28.708  1.00  0.00     0.167 HD
ATOM     36  C   UNL A   1      42.386  32.859  29.867  1.00  0.00     0.074 A 
ATOM     37  C   UNL A   1      41.432  33.752  30.495  1.00  0.00     0.031 C 
ATOM     38  C   UNL A   1      43.618  33.231  29.438  1.00  0.00     0.034 A 
BRANCH  25  39
ATOM     39  C   UNL A   1      46.998  28.696  26.922  1.00  0.00     0.023 A 
ATOM     40  C   UNL A   1      47.108  28.434  25.544  1.00  0.00     0.031 A 
ATOM     41  C   UNL A   1      48.110  28.424  27.741  1.00  0.00     0.131 A 
ATOM     42  C   UNL A   1      48.292  27.885  25.032  1.00  0.00     0.055 A 
ATOM     43  C   UNL A   1      49.298  27.912  27.220  1.00  0.00     0.041 A 
ATOM     44  F   UNL A   1      48.054  28.653  29.063  1.00  0.00    -0.206 F 
ATOM     45  C   UNL A   1      49.389  27.628  25.861  1.00  0.00     0.022 A 
BRANCH  42  46
ATOM     46  S   UNL A   1      48.441  27.434  23.281  1.00  0.00     0.124 S 
ATOM     47  O   UNL A   1      48.260  25.984  23.327  1.00  0.00    -0.237 OA
ATOM     48  O   UNL A   1      47.341  28.180  22.679  1.00  0.00    -0.237 OA
ATOM     49  O   UNL A   1      49.781  27.879  22.917  1.00  0.00    -0.744 OA
ENDBRANCH  42  46
ENDBRANCH  25  39
BRANCH  26  50
ATOM     50  C   UNL A   1      38.155  31.080  31.072  1.00  0.00     0.023 A 
ATOM     51  C   UNL A   1      37.166  31.724  30.304  1.00  0.00     0.031 A 
ATOM     52  C   UNL A   1      37.911  30.892  32.443  1.00  0.00     0.131 A 
ATOM     53  C   UNL A   1      36.007  32.207  30.927  1.00  0.00     0.055 A 
ATOM     54  C   UNL A   1      36.730  31.323  33.047  1.00  0.00     0.041 A 
ATOM     55  F   UNL A   1      38.836  30.305  33.219  1.00  0.00    -0.206 F 
ATOM     56  C   UNL A   1      35.778  32.000  32.291  1.00  0.00     0.022 A 
BRANCH  53  57
ATOM     57  S   UNL A   1      34.828  33.247  30.020  1.00  0.00     0.124 S 
ATOM     58  O   UNL A   1      35.716  34.164  29.311  1.00  0.00    -0.237 OA
ATOM     59  O   UNL A   1      34.139  32.267  29.184  1.00  0.00    -0.237 OA
ATOM     60  O   UNL A   1      34.013  33.843  31.072  1.00  0.00    -0.744 OA
ENDBRANCH  53  57
ENDBRANCH  26  50
BRANCH  38  61
ATOM     61  C   UNL A   1      44.025  34.675  29.599  1.00  0.00     0.023 A 
ATOM     62  C   UNL A   1      43.730  35.601  28.581  1.00  0.00     0.031 A 
ATOM     63  C   UNL A   1      44.818  35.098  30.679  1.00  0.00     0.131 A 
ATOM     64  C   UNL A   1      44.249  36.900  28.651  1.00  0.00     0.055 A 
ATOM     65  C   UNL A   1      45.302  36.403  30.762  1.00  0.00     0.041 A 
ATOM     66  F   UNL A   1      45.135  34.244  31.666  1.00  0.00    -0.206 F 
ATOM     67  C   UNL A   1      45.028  37.307  29.739  1.00  0.00     0.022 A 
BRANCH  64  68
ATOM     68  S   UNL A   1      44.005  38.078  27.294  1.00  0.00     0.124 S 
ATOM     69  O   UNL A   1      42.927  37.447  26.538  1.00  0.00    -0.237 OA
ATOM     70  O   UNL A   1      43.635  39.299  28.007  1.00  0.00    -0.237 OA
ATOM     71  O   UNL A   1      45.300  38.116  26.621  1.00  0.00    -0.744 OA
ENDBRANCH  64  68
ENDBRANCH  38  61
ENDBRANCH  12  13
ENDBRANCH   5   7
ENDBRANCH   4   5
ENDBRANCH   3   4
ENDBRANCH   2   3
ENDBRANCH   1   2
BRANCH   1  72
ATOM     72  C   UNL A   1      35.167  23.078  23.116  1.00  0.00     0.202 C 
BRANCH  72  73
ATOM     73  C   UNL A   1      34.658  24.483  23.460  1.00  0.00     0.261 C 
BRANCH  73  74
ATOM     74  O   UNL A   1      34.009  25.059  22.313  1.00  0.00    -0.460 OA
BRANCH  74  75
ATOM     75  C   UNL A   1      33.656  26.373  22.452  1.00  0.00     0.339 C 
ATOM     76  O   UNL A   1      33.863  27.248  21.633  1.00  0.00    -0.246 OA
BRANCH  75  77
ATOM     77  C   UNL A   1      32.810  26.574  23.627  1.00  0.00     0.071 A 
ATOM     78  C   UNL A   1      33.042  27.484  24.638  1.00  0.00     0.081 A 
ATOM     79  C   UNL A   1      31.667  25.764  23.930  1.00  0.00     0.037 A 
ATOM     80  S   UNL A   1      31.949  27.306  25.942  1.00  0.00    -0.142 S 
ATOM     81  C   UNL A   1      31.139  26.001  25.186  1.00  0.00     0.060 A 
BRANCH  81  82
ATOM     82  C   UNL A   1      29.985  25.245  25.803  1.00  0.00     0.308 C 
BRANCH  82  83
ATOM     83  N   UNL A   1      30.195  23.806  25.898  1.00  0.00    -0.336 N 
ATOM     84  H   UNL A   1      29.790  23.381  25.064  1.00  0.00     0.347 HD
ATOM     85  H   UNL A   1      29.758  23.534  26.778  1.00  0.00     0.347 HD
BRANCH  83  86
ATOM     86  C   UNL A   1      31.590  23.334  26.005  1.00  0.00     0.215 C 
ATOM     87  C   UNL A   1      32.041  23.231  27.475  1.00  0.00     0.081 C 
ATOM     88  C   UNL A   1      31.953  22.132  25.130  1.00  0.00     0.026 A 
ATOM     89  C   UNL A   1      33.493  22.830  27.604  1.00  0.00     0.081 C 
ATOM     90  C   UNL A   1      32.846  21.122  25.552  1.00  0.00     0.017 A 
ATOM     91  C   UNL A   1      31.526  22.096  23.784  1.00  0.00     0.050 A 
ATOM     92  S   UNL A   1      33.651  21.088  27.147  1.00  0.00    -0.125 SA
ATOM     93  C   UNL A   1      33.215  20.081  24.678  1.00  0.00     0.018 A 
ATOM     94  C   UNL A   1      31.928  21.073  22.925  1.00  0.00     0.123 A 
ATOM     95  C   UNL A   1      32.759  20.057  23.363  1.00  0.00     0.040 A 
ATOM     96  F   UNL A   1      31.529  21.092  21.646  1.00  0.00    -0.207 F 
ENDBRANCH  83  86
ENDBRANCH  82  83
ENDBRANCH  81  82
ENDBRANCH  75  77
ENDBRANCH  74  75
ENDBRANCH  73  74
ENDBRANCH  72  73
ENDBRANCH   1  72
TORSDOF 20
ENDMDL
MODEL 2
REMARK VINA RESULT:     -10.5      2.159      3.682
REMARK SMILES O=C(OCCOCCOC(=O)c1csc(C[NH2+][C@H]2CCSc3ccc(F)cc32)c1)c1ccc(-c2c3nc(c(-c4cc(S(=O)(=O)[O-])ccc4F)c4ccc([nH]4)c(-c4cc(S(=O)(=O)[O-])ccc4F)c4nc(c(-c5cc(S(=O)(=O)[O-])ccc5F)c5ccc2[nH]5)C=C4)C=C3)cc1
REMARK SMILES IDX 6 1 5 2 4 3 3 4 2 5 1 6 30 7 31 8 92 9 32 10 91 11 33 12
REMARK SMILES IDX 34 13 35 14 85 15 36 16 90 17 84 18 86 19 37 20 89 21 83 22
REMARK SMILES IDX 82 23 38 25 70 26 50 27 69 28 51 29 54 30 68 31 87 32 52 33
REMARK SMILES IDX 53 34 67 36 88 37 55 38 39 39 40 40 48 41 41 42 47 43 49 44
REMARK SMILES IDX 46 45 42 46 43 47 44 48 45 49 71 50 72 51 80 52 73 53 79 54
REMARK SMILES IDX 81 55 78 56 74 57 75 58 76 59 77 60 56 61 57 62 65 63 58 64
REMARK SMILES IDX 64 65 66 66 63 67 59 68 60 69 61 70 62 71 7 72 8 73 9 74
REMARK SMILES IDX 10 75 11 76 12 77 13 78 29 79 14 80 15 81 16 82 17 83 18 86
REMARK SMILES IDX 19 87 28 88 20 89 22 90 27 91 21 92 23 93 25 94 24 95 26 96
REMARK H PARENT 86 24 54 35 17 84 17 85
REMARK Flexibility Score: inf
ROOT
ATOM      1  O   UNL A   1      37.296  21.568  25.745  1.00  0.00    -0.374 OA
ENDROOT
BRANCH   1   2
ATOM      2  C   UNL A   1      38.722  21.542  25.742  1.00  0.00     0.202 C 
BRANCH   2   3
ATOM      3  C   UNL A   1      39.308  20.140  25.612  1.00  0.00     0.261 C 
BRANCH   3   4
ATOM      4  O   UNL A   1      40.544  19.992  26.326  1.00  0.00    -0.460 OA
BRANCH   4   5
ATOM      5  C   UNL A   1      41.752  20.567  26.138  1.00  0.00     0.338 C 
ATOM      6  O   UNL A   1      42.570  19.936  25.464  1.00  0.00    -0.246 OA
BRANCH   5   7
ATOM      7  C   UNL A   1      42.199  21.886  26.708  1.00  0.00     0.060 A 
ATOM      8  C   UNL A   1      42.452  22.906  25.768  1.00  0.00     0.016 A 
ATOM      9  C   UNL A   1      42.366  22.205  28.059  1.00  0.00     0.016 A 
ATOM     10  C   UNL A   1      42.857  24.186  26.163  1.00  0.00     0.010 A 
ATOM     11  C   UNL A   1      42.782  23.479  28.462  1.00  0.00     0.010 A 
ATOM     12  C   UNL A   1      43.020  24.478  27.518  1.00  0.00    -0.014 A 
BRANCH  12  13
ATOM     13  C   UNL A   1      43.292  25.858  27.968  1.00  0.00     0.031 A 
ATOM     14  C   UNL A   1      44.679  26.417  27.959  1.00  0.00     0.074 A 
ATOM     15  C   UNL A   1      42.257  26.576  28.440  1.00  0.00     0.049 A 
ATOM     16  N   UNL A   1      45.067  27.640  28.204  1.00  0.00    -0.248 NA
ATOM     17  C   UNL A   1      45.772  25.486  27.642  1.00  0.00     0.031 C 
ATOM     18  C   UNL A   1      40.885  26.078  28.554  1.00  0.00     0.029 A 
ATOM     19  N   UNL A   1      42.190  27.857  28.918  1.00  0.00    -0.354 N 
ATOM     20  C   UNL A   1      46.447  27.639  28.044  1.00  0.00     0.074 A 
ATOM     21  C   UNL A   1      46.833  26.280  27.732  1.00  0.00     0.031 C 
ATOM     22  C   UNL A   1      40.110  27.045  29.064  1.00  0.00     0.029 A 
ATOM     23  C   UNL A   1      40.927  28.231  29.307  1.00  0.00     0.049 A 
ATOM     24  H   UNL A   1      42.972  28.453  28.977  1.00  0.00     0.167 HD
ATOM     25  C   UNL A   1      47.297  28.690  28.133  1.00  0.00     0.034 A 
ATOM     26  C   UNL A   1      40.471  29.410  29.777  1.00  0.00     0.034 A 
ATOM     27  C   UNL A   1      46.874  30.024  28.482  1.00  0.00     0.049 A 
ATOM     28  C   UNL A   1      41.427  30.571  29.834  1.00  0.00     0.074 A 
ATOM     29  C   UNL A   1      47.639  31.175  28.559  1.00  0.00     0.029 A 
ATOM     30  N   UNL A   1      45.576  30.386  28.819  1.00  0.00    -0.354 N 
ATOM     31  N   UNL A   1      42.706  30.597  29.538  1.00  0.00    -0.248 NA
ATOM     32  C   UNL A   1      40.880  31.870  30.246  1.00  0.00     0.031 C 
ATOM     33  C   UNL A   1      46.816  32.218  28.990  1.00  0.00     0.029 A 
ATOM     34  C   UNL A   1      45.522  31.735  29.123  1.00  0.00     0.049 A 
ATOM     35  H   UNL A   1      44.807  29.772  28.841  1.00  0.00     0.167 HD
ATOM     36  C   UNL A   1      43.107  31.921  29.684  1.00  0.00     0.074 A 
ATOM     37  C   UNL A   1      41.931  32.665  30.087  1.00  0.00     0.031 C 
ATOM     38  C   UNL A   1      44.335  32.467  29.497  1.00  0.00     0.034 A 
BRANCH  25  39
ATOM     39  C   UNL A   1      48.756  28.472  27.819  1.00  0.00     0.023 A 
ATOM     40  C   UNL A   1      49.237  28.636  26.506  1.00  0.00     0.031 A 
ATOM     41  C   UNL A   1      49.638  27.965  28.790  1.00  0.00     0.131 A 
ATOM     42  C   UNL A   1      50.552  28.265  26.195  1.00  0.00     0.055 A 
ATOM     43  C   UNL A   1      50.957  27.630  28.482  1.00  0.00     0.041 A 
ATOM     44  F   UNL A   1      49.227  27.787  30.057  1.00  0.00    -0.206 F 
ATOM     45  C   UNL A   1      51.416  27.768  27.177  1.00  0.00     0.022 A 
BRANCH  42  46
ATOM     46  S   UNL A   1      51.181  28.360  24.495  1.00  0.00     0.124 S 
ATOM     47  O   UNL A   1      52.246  27.359  24.511  1.00  0.00    -0.237 OA
ATOM     48  O   UNL A   1      50.002  28.002  23.714  1.00  0.00    -0.237 OA
ATOM     49  O   UNL A   1      51.631  29.741  24.365  1.00  0.00    -0.744 OA
ENDBRANCH  42  46
ENDBRANCH  25  39
BRANCH  26  50
ATOM     50  C   UNL A   1      39.017  29.547  30.075  1.00  0.00     0.023 A 
ATOM     51  C   UNL A   1      38.162  30.263  29.216  1.00  0.00     0.031 A 
ATOM     52  C   UNL A   1      38.496  29.091  31.298  1.00  0.00     0.131 A 
ATOM     53  C   UNL A   1      36.851  30.549  29.619  1.00  0.00     0.055 A 
ATOM     54  C   UNL A   1      37.173  29.328  31.670  1.00  0.00     0.041 A 
ATOM     55  F   UNL A   1      39.281  28.426  32.160  1.00  0.00    -0.206 F 
ATOM     56  C   UNL A   1      36.347  30.076  30.835  1.00  0.00     0.022 A 
BRANCH  53  57
ATOM     57  S   UNL A   1      35.801  31.668  28.648  1.00  0.00     0.124 S 
ATOM     58  O   UNL A   1      35.462  30.840  27.495  1.00  0.00    -0.237 OA
ATOM     59  O   UNL A   1      34.705  31.936  29.575  1.00  0.00    -0.237 OA
ATOM     60  O   UNL A   1      36.672  32.806  28.374  1.00  0.00    -0.744 OA
ENDBRANCH  53  57
ENDBRANCH  26  50
BRANCH  38  61
ATOM     61  C   UNL A   1      44.493  33.954  29.697  1.00  0.00     0.023 A 
ATOM     62  C   UNL A   1      44.199  34.836  28.640  1.00  0.00     0.031 A 
ATOM     63  C   UNL A   1      45.061  34.480  30.869  1.00  0.00     0.131 A 
ATOM     64  C   UNL A   1      44.501  36.197  28.766  1.00  0.00     0.055 A 
ATOM     65  C   UNL A   1      45.326  35.843  31.004  1.00  0.00     0.041 A 
ATOM     66  F   UNL A   1      45.370  33.674  31.898  1.00  0.00    -0.206 F 
ATOM     67  C   UNL A   1      45.057  36.706  29.944  1.00  0.00     0.022 A 
BRANCH  64  68
ATOM     68  S   UNL A   1      44.265  37.340  27.377  1.00  0.00     0.124 S 
ATOM     69  O   UNL A   1      43.898  38.576  28.065  1.00  0.00    -0.237 OA
ATOM     70  O   UNL A   1      45.585  37.344  26.751  1.00  0.00    -0.237 OA
ATOM     71  O   UNL A   1      43.201  36.725  26.590  1.00  0.00    -0.744 OA
ENDBRANCH  64  68
ENDBRANCH  38  61
ENDBRANCH  12  13
ENDBRANCH   5   7
ENDBRANCH   4   5
ENDBRANCH   3   4
ENDBRANCH   2   3
ENDBRANCH   1   2
BRANCH   1  72
ATOM     72  C   UNL A   1      36.677  20.493  25.026  1.00  0.00     0.202 C 
BRANCH  72  73
ATOM     73  C   UNL A   1      35.152  20.644  24.961  1.00  0.00     0.261 C 
BRANCH  73  74
ATOM     74  O   UNL A   1      34.774  21.955  25.412  1.00  0.00    -0.460 OA
BRANCH  74  75
ATOM     75  C   UNL A   1      33.955  21.972  26.508  1.00  0.00     0.339 C 
ATOM     76  O   UNL A   1      34.253  21.571  27.617  1.00  0.00    -0.246 OA
BRANCH  75  77
ATOM     77  C   UNL A   1      32.729  22.721  26.242  1.00  0.00     0.071 A 
ATOM     78  C   UNL A   1      31.714  22.951  27.149  1.00  0.00     0.081 A 
ATOM     79  C   UNL A   1      32.375  23.234  24.951  1.00  0.00     0.037 A 
ATOM     80  S   UNL A   1      30.352  23.698  26.433  1.00  0.00    -0.142 S 
ATOM     81  C   UNL A   1      31.086  23.729  24.887  1.00  0.00     0.060 A 
BRANCH  81  82
ATOM     82  C   UNL A   1      30.418  24.261  23.640  1.00  0.00     0.308 C 
BRANCH  82  83
ATOM     83  N   UNL A   1      30.438  25.714  23.525  1.00  0.00    -0.336 N 
ATOM     84  H   UNL A   1      29.879  26.090  24.290  1.00  0.00     0.347 HD
ATOM     85  H   UNL A   1      30.079  25.909  22.590  1.00  0.00     0.347 HD
BRANCH  83  86
ATOM     86  C   UNL A   1      31.757  26.376  23.571  1.00  0.00     0.215 C 
ATOM     87  C   UNL A   1      32.280  26.694  22.156  1.00  0.00     0.081 C 
ATOM     88  C   UNL A   1      31.892  27.515  24.583  1.00  0.00     0.026 A 
ATOM     89  C   UNL A   1      33.666  27.296  22.178  1.00  0.00     0.081 C 
ATOM     90  C   UNL A   1      32.660  28.674  24.331  1.00  0.00     0.017 A 
ATOM     91  C   UNL A   1      31.382  27.351  25.889  1.00  0.00     0.050 A 
ATOM     92  S   UNL A   1      33.550  28.984  22.812  1.00  0.00    -0.125 SA
ATOM     93  C   UNL A   1      32.825  29.656  25.327  1.00  0.00     0.018 A 
ATOM     94  C   UNL A   1      31.582  28.321  26.871  1.00  0.00     0.123 A 
ATOM     95  C   UNL A   1      32.289  29.480  26.599  1.00  0.00     0.040 A 
ATOM     96  F   UNL A   1      31.111  28.114  28.109  1.00  0.00    -0.207 F 
ENDBRANCH  83  86
ENDBRANCH  82  83
ENDBRANCH  81  82
ENDBRANCH  75  77
ENDBRANCH  74  75
ENDBRANCH  73  74
ENDBRANCH  72  73
ENDBRANCH   1  72
TORSDOF 20
ENDMDL
MODEL 3
REMARK VINA RESULT:     -10.4      4.770     10.004
REMARK SMILES O=C(OCCOCCOC(=O)c1csc(C[NH2+][C@H]2CCSc3ccc(F)cc32)c1)c1ccc(-c2c3nc(c(-c4cc(S(=O)(=O)[O-])ccc4F)c4ccc([nH]4)c(-c4cc(S(=O)(=O)[O-])ccc4F)c4nc(c(-c5cc(S(=O)(=O)[O-])ccc5F)c5ccc2[nH]5)C=C4)C=C3)cc1
REMARK SMILES IDX 6 1 5 2 4 3 3 4 2 5 1 6 30 7 31 8 92 9 32 10 91 11 33 12
REMARK SMILES IDX 34 13 35 14 85 15 36 16 90 17 84 18 86 19 37 20 89 21 83 22
REMARK SMILES IDX 82 23 38 25 70 26 50 27 69 28 51 29 54 30 68 31 87 32 52 33
REMARK SMILES IDX 53 34 67 36 88 37 55 38 39 39 40 40 48 41 41 42 47 43 49 44
REMARK SMILES IDX 46 45 42 46 43 47 44 48 45 49 71 50 72 51 80 52 73 53 79 54
REMARK SMILES IDX 81 55 78 56 74 57 75 58 76 59 77 60 56 61 57 62 65 63 58 64
REMARK SMILES IDX 64 65 66 66 63 67 59 68 60 69 61 70 62 71 7 72 8 73 9 74
REMARK SMILES IDX 10 75 11 76 12 77 13 78 29 79 14 80 15 81 16 82 17 83 18 86
REMARK SMILES IDX 19 87 28 88 20 89 22 90 27 91 21 92 23 93 25 94 24 95 26 96
REMARK H PARENT 86 24 54 35 17 84 17 85
REMARK Flexibility Score: inf
ROOT
ATOM      1  O   UNL A   1      33.212  30.784  26.257  1.00  0.00    -0.374 OA
ENDROOT
BRANCH   1   2
ATOM      2  C   UNL A   1      32.019  31.274  26.866  1.00  0.00     0.202 C 
BRANCH   2   3
ATOM      3  C   UNL A   1      31.787  32.765  26.648  1.00  0.00     0.261 C 
BRANCH   3   4
ATOM      4  O   UNL A   1      32.270  33.563  27.739  1.00  0.00    -0.460 OA
BRANCH   4   5
ATOM      5  C   UNL A   1      33.512  34.006  28.033  1.00  0.00     0.338 C 
ATOM      6  O   UNL A   1      33.768  35.177  27.741  1.00  0.00    -0.246 OA
BRANCH   5   7
ATOM      7  C   UNL A   1      34.617  33.190  28.646  1.00  0.00     0.060 A 
ATOM      8  C   UNL A   1      35.920  33.482  28.191  1.00  0.00     0.016 A 
ATOM      9  C   UNL A   1      34.488  32.200  29.625  1.00  0.00     0.016 A 
ATOM     10  C   UNL A   1      37.040  32.810  28.691  1.00  0.00     0.010 A 
ATOM     11  C   UNL A   1      35.603  31.515  30.121  1.00  0.00     0.010 A 
ATOM     12  C   UNL A   1      36.885  31.823  29.665  1.00  0.00    -0.014 A 
BRANCH  12  13
ATOM     13  C   UNL A   1      38.059  31.213  30.319  1.00  0.00     0.031 A 
ATOM     14  C   UNL A   1      38.412  31.532  31.736  1.00  0.00     0.074 A 
ATOM     15  C   UNL A   1      38.834  30.401  29.577  1.00  0.00     0.049 A 
ATOM     16  N   UNL A   1      39.332  30.992  32.490  1.00  0.00    -0.248 NA
ATOM     17  C   UNL A   1      37.641  32.599  32.392  1.00  0.00     0.031 C 
ATOM     18  C   UNL A   1      38.602  30.096  28.164  1.00  0.00     0.029 A 
ATOM     19  N   UNL A   1      39.966  29.697  29.891  1.00  0.00    -0.354 N 
ATOM     20  C   UNL A   1      39.236  31.628  33.720  1.00  0.00     0.074 A 
ATOM     21  C   UNL A   1      38.202  32.633  33.595  1.00  0.00     0.031 C 
ATOM     22  C   UNL A   1      39.560  29.262  27.733  1.00  0.00     0.029 A 
ATOM     23  C   UNL A   1      40.467  28.969  28.839  1.00  0.00     0.049 A 
ATOM     24  H   UNL A   1      40.379  29.711  30.785  1.00  0.00     0.167 HD
ATOM     25  C   UNL A   1      39.941  31.372  34.849  1.00  0.00     0.034 A 
ATOM     26  C   UNL A   1      41.523  28.132  28.781  1.00  0.00     0.034 A 
ATOM     27  C   UNL A   1      40.989  30.384  34.922  1.00  0.00     0.049 A 
ATOM     28  C   UNL A   1      42.268  27.837  30.055  1.00  0.00     0.074 A 
ATOM     29  C   UNL A   1      41.740  30.007  36.021  1.00  0.00     0.029 A 
ATOM     30  N   UNL A   1      41.441  29.622  33.852  1.00  0.00    -0.354 N 
ATOM     31  N   UNL A   1      42.075  28.337  31.254  1.00  0.00    -0.248 NA
ATOM     32  C   UNL A   1      43.344  26.841  29.987  1.00  0.00     0.031 C 
ATOM     33  C   UNL A   1      42.676  29.057  35.606  1.00  0.00     0.029 A 
ATOM     34  C   UNL A   1      42.470  28.792  34.260  1.00  0.00     0.049 A 
ATOM     35  H   UNL A   1      41.082  29.666  32.936  1.00  0.00     0.167 HD
ATOM     36  C   UNL A   1      42.973  27.684  32.092  1.00  0.00     0.074 A 
ATOM     37  C   UNL A   1      43.703  26.747  31.262  1.00  0.00     0.031 C 
ATOM     38  C   UNL A   1      43.169  27.844  33.425  1.00  0.00     0.034 A 
BRANCH  25  39
ATOM     39  C   UNL A   1      39.596  32.128  36.108  1.00  0.00     0.023 A 
ATOM     40  C   UNL A   1      38.707  31.578  37.052  1.00  0.00     0.031 A 
ATOM     41  C   UNL A   1      40.036  33.450  36.303  1.00  0.00     0.131 A 
ATOM     42  C   UNL A   1      38.262  32.359  38.127  1.00  0.00     0.055 A 
ATOM     43  C   UNL A   1      39.617  34.211  37.394  1.00  0.00     0.041 A 
ATOM     44  F   UNL A   1      40.880  34.022  35.429  1.00  0.00    -0.206 F 
ATOM     45  C   UNL A   1      38.716  33.670  38.306  1.00  0.00     0.022 A 
BRANCH  42  46
ATOM     46  S   UNL A   1      37.037  31.727  39.306  1.00  0.00     0.124 S 
ATOM     47  O   UNL A   1      37.801  31.707  40.553  1.00  0.00    -0.237 OA
ATOM     48  O   UNL A   1      35.991  32.741  39.233  1.00  0.00    -0.237 OA
ATOM     49  O   UNL A   1      36.685  30.415  38.776  1.00  0.00    -0.744 OA
ENDBRANCH  42  46
ENDBRANCH  25  39
BRANCH  26  50
ATOM     50  C   UNL A   1      41.808  27.428  27.499  1.00  0.00     0.023 A 
ATOM     51  C   UNL A   1      41.681  26.030  27.393  1.00  0.00     0.031 A 
ATOM     52  C   UNL A   1      42.353  28.127  26.410  1.00  0.00     0.131 A 
ATOM     53  C   UNL A   1      42.148  25.374  26.245  1.00  0.00     0.055 A 
ATOM     54  C   UNL A   1      42.763  27.477  25.246  1.00  0.00     0.041 A 
ATOM     55  F   UNL A   1      42.516  29.459  26.476  1.00  0.00    -0.206 F 
ATOM     56  C   UNL A   1      42.677  26.090  25.167  1.00  0.00     0.022 A 
BRANCH  53  57
ATOM     57  S   UNL A   1      42.220  23.562  26.173  1.00  0.00     0.124 S 
ATOM     58  O   UNL A   1      43.083  23.248  27.307  1.00  0.00    -0.237 OA
ATOM     59  O   UNL A   1      40.814  23.196  26.331  1.00  0.00    -0.237 OA
ATOM     60  O   UNL A   1      42.784  23.291  24.855  1.00  0.00    -0.744 OA
ENDBRANCH  53  57
ENDBRANCH  26  50
BRANCH  38  61
ATOM     61  C   UNL A   1      44.200  26.977  34.104  1.00  0.00     0.023 A 
ATOM     62  C   UNL A   1      45.552  27.368  34.104  1.00  0.00     0.031 A 
ATOM     63  C   UNL A   1      43.870  25.712  34.618  1.00  0.00     0.131 A 
ATOM     64  C   UNL A   1      46.531  26.490  34.584  1.00  0.00     0.055 A 
ATOM     65  C   UNL A   1      44.845  24.855  35.130  1.00  0.00     0.041 A 
ATOM     66  F   UNL A   1      42.595  25.290  34.626  1.00  0.00    -0.206 F 
ATOM     67  C   UNL A   1      46.184  25.238  35.103  1.00  0.00     0.022 A 
BRANCH  64  68
ATOM     68  S   UNL A   1      48.293  26.903  34.475  1.00  0.00     0.124 S 
ATOM     69  O   UNL A   1      48.266  28.361  34.564  1.00  0.00    -0.237 OA
ATOM     70  O   UNL A   1      48.845  26.218  35.642  1.00  0.00    -0.237 OA
ATOM     71  O   UNL A   1      48.704  26.364  33.182  1.00  0.00    -0.744 OA
ENDBRANCH  64  68
ENDBRANCH  38  61
ENDBRANCH  12  13
ENDBRANCH   5   7
ENDBRANCH   4   5
ENDBRANCH   3   4
ENDBRANCH   2   3
ENDBRANCH   1   2
BRANCH   1  72
ATOM     72  C   UNL A   1      33.906  29.788  27.019  1.00  0.00     0.202 C 
BRANCH  72  73
ATOM     73  C   UNL A   1      34.311  28.583  26.161  1.00  0.00     0.261 C 
BRANCH  73  74
ATOM     74  O   UNL A   1      33.158  28.064  25.477  1.00  0.00    -0.460 OA
BRANCH  74  75
ATOM     75  C   UNL A   1      33.290  27.969  24.119  1.00  0.00     0.339 C 
ATOM     76  O   UNL A   1      33.636  28.872  23.379  1.00  0.00    -0.246 OA
BRANCH  75  77
ATOM     77  C   UNL A   1      33.159  26.585  23.668  1.00  0.00     0.071 A 
ATOM     78  C   UNL A   1      33.486  26.114  22.413  1.00  0.00     0.081 A 
ATOM     79  C   UNL A   1      32.567  25.545  24.458  1.00  0.00     0.037 A 
ATOM     80  S   UNL A   1      33.021  24.484  22.183  1.00  0.00    -0.142 S 
ATOM     81  C   UNL A   1      32.365  24.368  23.760  1.00  0.00     0.060 A 
BRANCH  81  82
ATOM     82  C   UNL A   1      31.692  23.133  24.313  1.00  0.00     0.308 C 
BRANCH  82  83
ATOM     83  N   UNL A   1      32.076  22.805  25.681  1.00  0.00    -0.336 N 
ATOM     84  H   UNL A   1      31.219  22.724  26.228  1.00  0.00     0.347 HD
ATOM     85  H   UNL A   1      32.702  23.558  25.966  1.00  0.00     0.347 HD
BRANCH  83  86
ATOM     86  C   UNL A   1      32.852  21.566  25.884  1.00  0.00     0.215 C 
ATOM     87  C   UNL A   1      32.150  20.349  25.250  1.00  0.00     0.081 C 
ATOM     88  C   UNL A   1      34.352  21.669  25.603  1.00  0.00     0.026 A 
ATOM     89  C   UNL A   1      32.886  19.056  25.520  1.00  0.00     0.081 C 
ATOM     90  C   UNL A   1      35.096  20.614  25.029  1.00  0.00     0.017 A 
ATOM     91  C   UNL A   1      35.076  22.783  26.081  1.00  0.00     0.050 A 
ATOM     92  S   UNL A   1      34.402  19.042  24.535  1.00  0.00    -0.125 SA
ATOM     93  C   UNL A   1      36.491  20.724  24.869  1.00  0.00     0.018 A 
ATOM     94  C   UNL A   1      36.462  22.860  25.941  1.00  0.00     0.123 A 
ATOM     95  C   UNL A   1      37.175  21.846  25.327  1.00  0.00     0.040 A 
ATOM     96  F   UNL A   1      37.117  23.918  26.438  1.00  0.00    -0.207 F 
ENDBRANCH  83  86
ENDBRANCH  82  83
ENDBRANCH  81  82
ENDBRANCH  75  77
ENDBRANCH  74  75
ENDBRANCH  73  74
ENDBRANCH  72  73
ENDBRANCH   1  72
TORSDOF 20
ENDMDL
