MODEL 1
REMARK VINA RESULT:     -13.1      0.000      0.000
REMARK SMILES Cc1ccccc1C(=O)Nc1ccc(N2CCCCC2)cc1C(=O)OCCOCCOC(=O)c1ccc(-c2c3nc(c(-c4cc(S(=O)(=O)[O-])ccc4F)c4ccc([nH]4)c(-c4cc(S(=O)(=O)[O-])ccc4F)c4nc(c(-c5cc(S(=O)(=O)[O-])ccc5F)c5ccc2[nH]5)C=C4)C=C3)cc1
REMARK SMILES IDX 29 1 28 2 27 3 26 4 25 5 23 6 24 7 22 8 11 9 12 10 13 11
REMARK SMILES IDX 21 12 14 13 10 14 8 15 9 16 7 18 1 19 2 20 3 21 4 22 6 23
REMARK SMILES IDX 5 24 15 25 16 26 20 27 17 28 19 29 18 30 30 31 31 32 32 33
REMARK SMILES IDX 33 34 34 35 35 36 96 37 36 38 95 39 37 40 38 41 39 42 89 43
REMARK SMILES IDX 40 44 94 45 88 46 90 47 41 48 93 49 87 50 86 51 42 53 74 54
REMARK SMILES IDX 54 55 73 56 55 57 58 58 72 59 91 60 56 61 57 62 71 64 92 65
REMARK SMILES IDX 59 66 43 67 44 68 52 69 45 70 51 71 53 72 50 73 46 74 47 75
REMARK SMILES IDX 48 76 49 77 75 78 76 79 84 80 77 81 83 82 85 83 82 84 78 85
REMARK SMILES IDX 79 86 80 87 81 88 60 89 61 90 69 91 62 92 68 93 70 94 67 95
REMARK SMILES IDX 63 96 64 97 65 98 66 99
REMARK H PARENT 10 17 90 52 58 63
REMARK Flexibility Score: inf
ROOT
ATOM      1  C   UNL A   1      33.184  33.738  27.913  1.00  0.00     0.202 C 
ENDROOT
BRANCH   1   2
ATOM      2  O   UNL A   1      33.708  32.423  27.855  1.00  0.00    -0.374 OA
BRANCH   2   3
ATOM      3  C   UNL A   1      32.850  31.450  27.322  1.00  0.00     0.202 C 
BRANCH   3   4
ATOM      4  C   UNL A   1      33.487  30.130  26.939  1.00  0.00     0.261 C 
BRANCH   4   5
ATOM      5  O   UNL A   1      32.788  28.995  26.428  1.00  0.00    -0.460 OA
BRANCH   5   6
ATOM      6  C   UNL A   1      31.710  28.264  26.757  1.00  0.00     0.340 C 
ATOM      7  O   UNL A   1      31.164  28.084  27.814  1.00  0.00    -0.246 OA
BRANCH   6   8
ATOM      8  C   UNL A   1      31.202  27.930  25.395  1.00  0.00     0.085 A 
ATOM      9  C   UNL A   1      30.490  26.738  25.241  1.00  0.00     0.056 A 
ATOM     10  C   UNL A   1      29.592  26.601  24.179  1.00  0.00     0.029 A 
ATOM     11  C   UNL A   1      29.299  27.711  23.380  1.00  0.00     0.028 A 
ATOM     12  C   UNL A   1      30.979  29.003  24.504  1.00  0.00     0.043 A 
ATOM     13  C   UNL A   1      29.935  28.950  23.578  1.00  0.00     0.038 A 
BRANCH   9  14
ATOM     14  N   UNL A   1      30.637  25.685  26.129  1.00  0.00    -0.321 N 
ATOM     15  C   UNL A   1      31.502  24.622  26.210  1.00  0.00     0.255 C 
ATOM     16  O   UNL A   1      31.485  24.072  27.324  1.00  0.00    -0.269 OA
ATOM     17  H   UNL A   1      29.978  25.703  26.860  1.00  0.00     0.170 HD
BRANCH  15  18
ATOM     18  C   UNL A   1      32.333  23.950  25.118  1.00  0.00     0.043 A 
ATOM     19  C   UNL A   1      34.871  24.565  25.466  1.00  0.00     0.045 C 
ATOM     20  C   UNL A   1      33.699  23.982  24.747  1.00  0.00    -0.038 A 
ATOM     21  C   UNL A   1      34.117  23.321  23.553  1.00  0.00     0.004 A 
ATOM     22  C   UNL A   1      33.246  22.621  22.730  1.00  0.00     0.000 A 
ATOM     23  C   UNL A   1      31.483  23.195  24.249  1.00  0.00     0.014 A 
ATOM     24  C   UNL A   1      31.919  22.543  23.091  1.00  0.00     0.001 A 
ENDBRANCH  15  18
ENDBRANCH   9  14
BRANCH  13  25
ATOM     25  N   UNL A   1      29.405  30.100  22.987  1.00  0.00    -0.372 N 
ATOM     26  C   UNL A   1      28.379  29.830  21.958  1.00  0.00     0.116 C 
ATOM     27  C   UNL A   1      29.058  31.254  23.829  1.00  0.00     0.116 C 
ATOM     28  C   UNL A   1      28.303  31.024  21.010  1.00  0.00     0.021 C 
ATOM     29  C   UNL A   1      29.019  32.499  22.942  1.00  0.00     0.021 C 
ATOM     30  C   UNL A   1      28.060  32.331  21.763  1.00  0.00     0.004 C 
ENDBRANCH  13  25
ENDBRANCH   6   8
ENDBRANCH   5   6
ENDBRANCH   4   5
ENDBRANCH   3   4
ENDBRANCH   2   3
ENDBRANCH   1   2
BRANCH   1  31
ATOM     31  C   UNL A   1      33.612  34.561  29.146  1.00  0.00     0.261 C 
BRANCH  31  32
ATOM     32  O   UNL A   1      33.773  33.899  30.434  1.00  0.00    -0.460 OA
BRANCH  32  33
ATOM     33  C   UNL A   1      34.987  33.837  31.053  1.00  0.00     0.338 C 
ATOM     34  O   UNL A   1      35.329  34.567  31.970  1.00  0.00    -0.246 OA
BRANCH  33  35
ATOM     35  C   UNL A   1      35.762  32.649  30.632  1.00  0.00     0.060 A 
ATOM     36  C   UNL A   1      35.841  31.524  31.467  1.00  0.00     0.016 A 
ATOM     37  C   UNL A   1      36.608  32.786  29.537  1.00  0.00     0.016 A 
ATOM     38  C   UNL A   1      36.929  30.656  31.335  1.00  0.00     0.010 A 
ATOM     39  C   UNL A   1      37.746  32.010  29.504  1.00  0.00     0.010 A 
ATOM     40  C   UNL A   1      37.941  30.969  30.422  1.00  0.00    -0.014 A 
BRANCH  40  41
ATOM     41  C   UNL A   1      39.295  30.406  30.463  1.00  0.00     0.031 A 
ATOM     42  C   UNL A   1      39.600  29.111  29.817  1.00  0.00     0.074 A 
ATOM     43  C   UNL A   1      40.331  31.124  30.952  1.00  0.00     0.049 A 
ATOM     44  N   UNL A   1      40.657  28.421  30.080  1.00  0.00    -0.248 NA
ATOM     45  C   UNL A   1      38.711  28.427  28.884  1.00  0.00     0.031 C 
ATOM     46  C   UNL A   1      41.761  30.911  30.726  1.00  0.00     0.029 A 
ATOM     47  N   UNL A   1      40.292  32.217  31.814  1.00  0.00    -0.354 N 
ATOM     48  C   UNL A   1      40.768  27.440  29.129  1.00  0.00     0.074 A 
ATOM     49  C   UNL A   1      39.459  27.376  28.536  1.00  0.00     0.031 C 
ATOM     50  C   UNL A   1      42.465  31.691  31.557  1.00  0.00     0.029 A 
ATOM     51  C   UNL A   1      41.536  32.346  32.458  1.00  0.00     0.049 A 
ATOM     52  H   UNL A   1      39.515  32.806  31.951  1.00  0.00     0.167 HD
ATOM     53  C   UNL A   1      41.995  26.898  28.885  1.00  0.00     0.034 A 
ATOM     54  C   UNL A   1      41.603  32.280  33.820  1.00  0.00     0.034 A 
ATOM     55  C   UNL A   1      42.981  27.317  29.906  1.00  0.00     0.049 A 
ATOM     56  C   UNL A   1      42.116  30.925  34.295  1.00  0.00     0.074 A 
ATOM     57  C   UNL A   1      44.156  28.050  29.926  1.00  0.00     0.029 A 
ATOM     58  N   UNL A   1      42.654  27.130  31.243  1.00  0.00    -0.354 N 
ATOM     59  N   UNL A   1      42.765  30.077  33.539  1.00  0.00    -0.248 NA
ATOM     60  C   UNL A   1      41.871  30.385  35.633  1.00  0.00     0.031 C 
ATOM     61  C   UNL A   1      44.471  28.353  31.296  1.00  0.00     0.029 A 
ATOM     62  C   UNL A   1      43.518  27.768  32.110  1.00  0.00     0.049 A 
ATOM     63  H   UNL A   1      41.882  26.597  31.543  1.00  0.00     0.167 HD
ATOM     64  C   UNL A   1      42.839  28.864  34.169  1.00  0.00     0.074 A 
ATOM     65  C   UNL A   1      42.326  29.125  35.506  1.00  0.00     0.031 C 
ATOM     66  C   UNL A   1      43.229  27.711  33.543  1.00  0.00     0.034 A 
BRANCH  53  67
ATOM     67  C   UNL A   1      42.359  26.079  27.654  1.00  0.00     0.023 A 
ATOM     68  C   UNL A   1      41.934  24.735  27.585  1.00  0.00     0.031 A 
ATOM     69  C   UNL A   1      43.159  26.495  26.561  1.00  0.00     0.131 A 
ATOM     70  C   UNL A   1      42.293  23.898  26.506  1.00  0.00     0.055 A 
ATOM     71  C   UNL A   1      43.473  25.678  25.467  1.00  0.00     0.041 A 
ATOM     72  F   UNL A   1      43.735  27.696  26.489  1.00  0.00    -0.206 F 
ATOM     73  C   UNL A   1      43.046  24.367  25.436  1.00  0.00     0.022 A 
BRANCH  70  74
ATOM     74  S   UNL A   1      41.787  22.158  26.526  1.00  0.00     0.124 S 
ATOM     75  O   UNL A   1      42.118  21.760  27.889  1.00  0.00    -0.237 OA
ATOM     76  O   UNL A   1      40.368  22.244  26.199  1.00  0.00    -0.237 OA
ATOM     77  O   UNL A   1      42.622  21.551  25.488  1.00  0.00    -0.744 OA
ENDBRANCH  70  74
ENDBRANCH  53  67
BRANCH  54  78
ATOM     78  C   UNL A   1      40.571  33.160  34.452  1.00  0.00     0.023 A 
ATOM     79  C   UNL A   1      39.564  32.508  35.207  1.00  0.00     0.031 A 
ATOM     80  C   UNL A   1      40.812  34.515  34.721  1.00  0.00     0.131 A 
ATOM     81  C   UNL A   1      38.945  33.163  36.286  1.00  0.00     0.055 A 
ATOM     82  C   UNL A   1      40.181  35.169  35.788  1.00  0.00     0.041 A 
ATOM     83  F   UNL A   1      41.767  35.183  34.056  1.00  0.00    -0.206 F 
ATOM     84  C   UNL A   1      39.277  34.482  36.601  1.00  0.00     0.022 A 
BRANCH  81  85
ATOM     85  S   UNL A   1      37.952  32.211  37.491  1.00  0.00     0.124 S 
ATOM     86  O   UNL A   1      38.757  32.300  38.701  1.00  0.00    -0.237 OA
ATOM     87  O   UNL A   1      36.677  32.923  37.519  1.00  0.00    -0.237 OA
ATOM     88  O   UNL A   1      37.889  30.890  36.863  1.00  0.00    -0.744 OA
ENDBRANCH  81  85
ENDBRANCH  54  78
BRANCH  66  89
ATOM     89  C   UNL A   1      43.311  26.396  34.281  1.00  0.00     0.023 A 
ATOM     90  C   UNL A   1      44.541  25.744  34.452  1.00  0.00     0.031 A 
ATOM     91  C   UNL A   1      42.171  25.719  34.771  1.00  0.00     0.131 A 
ATOM     92  C   UNL A   1      44.616  24.527  35.149  1.00  0.00     0.055 A 
ATOM     93  C   UNL A   1      42.238  24.455  35.361  1.00  0.00     0.041 A 
ATOM     94  F   UNL A   1      40.952  26.277  34.754  1.00  0.00    -0.206 F 
ATOM     95  C   UNL A   1      43.469  23.855  35.569  1.00  0.00     0.022 A 
BRANCH  92  96
ATOM     96  S   UNL A   1      46.252  23.906  35.611  1.00  0.00     0.124 S 
ATOM     97  O   UNL A   1      45.981  23.169  36.840  1.00  0.00    -0.237 OA
ATOM     98  O   UNL A   1      46.593  23.093  34.446  1.00  0.00    -0.237 OA
ATOM     99  O   UNL A   1      47.049  25.119  35.772  1.00  0.00    -0.744 OA
ENDBRANCH  92  96
ENDBRANCH  66  89
ENDBRANCH  40  41
ENDBRANCH  33  35
ENDBRANCH  32  33
ENDBRANCH  31  32
ENDBRANCH   1  31
TORSDOF 20
ENDMDL
MODEL 2
REMARK VINA RESULT:     -12.9      4.492     10.653
REMARK SMILES Cc1ccccc1C(=O)Nc1ccc(N2CCCCC2)cc1C(=O)OCCOCCOC(=O)c1ccc(-c2c3nc(c(-c4cc(S(=O)(=O)[O-])ccc4F)c4ccc([nH]4)c(-c4cc(S(=O)(=O)[O-])ccc4F)c4nc(c(-c5cc(S(=O)(=O)[O-])ccc5F)c5ccc2[nH]5)C=C4)C=C3)cc1
REMARK SMILES IDX 29 1 28 2 27 3 26 4 25 5 23 6 24 7 22 8 11 9 12 10 13 11
REMARK SMILES IDX 21 12 14 13 10 14 8 15 9 16 7 18 1 19 2 20 3 21 4 22 6 23
REMARK SMILES IDX 5 24 15 25 16 26 20 27 17 28 19 29 18 30 30 31 31 32 32 33
REMARK SMILES IDX 33 34 34 35 35 36 96 37 36 38 95 39 37 40 38 41 39 42 89 43
REMARK SMILES IDX 40 44 94 45 88 46 90 47 41 48 93 49 87 50 86 51 42 53 74 54
REMARK SMILES IDX 54 55 73 56 55 57 58 58 72 59 91 60 56 61 57 62 71 64 92 65
REMARK SMILES IDX 59 66 43 67 44 68 52 69 45 70 51 71 53 72 50 73 46 74 47 75
REMARK SMILES IDX 48 76 49 77 75 78 76 79 84 80 77 81 83 82 85 83 82 84 78 85
REMARK SMILES IDX 79 86 80 87 81 88 60 89 61 90 69 91 62 92 68 93 70 94 67 95
REMARK SMILES IDX 63 96 64 97 65 98 66 99
REMARK H PARENT 10 17 90 52 58 63
REMARK Flexibility Score: inf
ROOT
ATOM      1  C   UNL A   1      40.142  21.538  26.123  1.00  0.00     0.202 C 
ENDROOT
BRANCH   1   2
ATOM      2  O   UNL A   1      38.764  21.863  26.174  1.00  0.00    -0.374 OA
BRANCH   2   3
ATOM      3  C   UNL A   1      37.919  21.048  25.407  1.00  0.00     0.202 C 
BRANCH   3   4
ATOM      4  C   UNL A   1      37.311  21.684  24.173  1.00  0.00     0.261 C 
BRANCH   4   5
ATOM      5  O   UNL A   1      35.936  22.036  24.021  1.00  0.00    -0.460 OA
BRANCH   5   6
ATOM      6  C   UNL A   1      35.052  22.858  24.611  1.00  0.00     0.340 C 
ATOM      7  O   UNL A   1      35.190  23.939  25.120  1.00  0.00    -0.246 OA
BRANCH   6   8
ATOM      8  C   UNL A   1      33.778  22.180  24.231  1.00  0.00     0.085 A 
ATOM      9  C   UNL A   1      33.200  22.520  23.006  1.00  0.00     0.056 A 
ATOM     10  C   UNL A   1      32.336  21.622  22.376  1.00  0.00     0.029 A 
ATOM     11  C   UNL A   1      32.188  20.331  22.897  1.00  0.00     0.028 A 
ATOM     12  C   UNL A   1      33.522  20.914  24.803  1.00  0.00     0.043 A 
ATOM     13  C   UNL A   1      32.837  19.936  24.080  1.00  0.00     0.038 A 
BRANCH   9  14
ATOM     14  N   UNL A   1      33.473  23.728  22.385  1.00  0.00    -0.321 N 
ATOM     15  C   UNL A   1      33.094  25.026  22.619  1.00  0.00     0.255 C 
ATOM     16  O   UNL A   1      33.797  25.851  22.009  1.00  0.00    -0.269 OA
ATOM     17  H   UNL A   1      34.070  23.634  21.608  1.00  0.00     0.170 HD
BRANCH  15  18
ATOM     18  C   UNL A   1      31.879  25.572  23.368  1.00  0.00     0.043 A 
ATOM     19  C   UNL A   1      31.723  24.404  25.724  1.00  0.00     0.045 C 
ATOM     20  C   UNL A   1      31.254  25.270  24.601  1.00  0.00    -0.038 A 
ATOM     21  C   UNL A   1      30.016  25.900  24.934  1.00  0.00     0.004 A 
ATOM     22  C   UNL A   1      29.390  26.822  24.107  1.00  0.00     0.000 A 
ATOM     23  C   UNL A   1      31.204  26.546  22.565  1.00  0.00     0.014 A 
ATOM     24  C   UNL A   1      29.999  27.161  22.919  1.00  0.00     0.001 A 
ENDBRANCH  15  18
ENDBRANCH   9  14
BRANCH  13  25
ATOM     25  N   UNL A   1      32.924  18.577  24.397  1.00  0.00    -0.372 N 
ATOM     26  C   UNL A   1      34.141  17.916  23.883  1.00  0.00     0.116 C 
ATOM     27  C   UNL A   1      32.575  18.125  25.752  1.00  0.00     0.116 C 
ATOM     28  C   UNL A   1      33.877  16.418  23.762  1.00  0.00     0.021 C 
ATOM     29  C   UNL A   1      32.243  16.634  25.688  1.00  0.00     0.021 C 
ATOM     30  C   UNL A   1      33.388  15.820  25.080  1.00  0.00     0.004 C 
ENDBRANCH  13  25
ENDBRANCH   6   8
ENDBRANCH   5   6
ENDBRANCH   4   5
ENDBRANCH   3   4
ENDBRANCH   2   3
ENDBRANCH   1   2
BRANCH   1  31
ATOM     31  C   UNL A   1      40.952  21.916  27.380  1.00  0.00     0.261 C 
BRANCH  31  32
ATOM     32  O   UNL A   1      41.007  23.306  27.812  1.00  0.00    -0.460 OA
BRANCH  32  33
ATOM     33  C   UNL A   1      41.408  24.297  26.965  1.00  0.00     0.338 C 
ATOM     34  O   UNL A   1      42.142  24.126  26.004  1.00  0.00    -0.246 OA
BRANCH  33  35
ATOM     35  C   UNL A   1      40.686  25.565  27.215  1.00  0.00     0.060 A 
ATOM     36  C   UNL A   1      40.939  26.692  26.420  1.00  0.00     0.016 A 
ATOM     37  C   UNL A   1      39.969  25.675  28.402  1.00  0.00     0.016 A 
ATOM     38  C   UNL A   1      40.675  27.963  26.940  1.00  0.00     0.010 A 
ATOM     39  C   UNL A   1      39.843  26.927  28.962  1.00  0.00     0.010 A 
ATOM     40  C   UNL A   1      40.230  28.078  28.261  1.00  0.00    -0.014 A 
BRANCH  40  41
ATOM     41  C   UNL A   1      40.309  29.308  29.056  1.00  0.00     0.031 A 
ATOM     42  C   UNL A   1      39.221  30.308  29.017  1.00  0.00     0.074 A 
ATOM     43  C   UNL A   1      41.297  29.488  29.962  1.00  0.00     0.049 A 
ATOM     44  N   UNL A   1      39.362  31.523  29.425  1.00  0.00    -0.248 NA
ATOM     45  C   UNL A   1      37.902  30.070  28.439  1.00  0.00     0.031 C 
ATOM     46  C   UNL A   1      41.326  30.421  31.088  1.00  0.00     0.029 A 
ATOM     47  N   UNL A   1      42.534  28.854  30.025  1.00  0.00    -0.354 N 
ATOM     48  C   UNL A   1      38.116  32.089  29.508  1.00  0.00     0.074 A 
ATOM     49  C   UNL A   1      37.283  31.219  28.720  1.00  0.00     0.031 C 
ATOM     50  C   UNL A   1      42.561  30.452  31.609  1.00  0.00     0.029 A 
ATOM     51  C   UNL A   1      43.427  29.649  30.767  1.00  0.00     0.049 A 
ATOM     52  H   UNL A   1      42.751  27.986  29.613  1.00  0.00     0.167 HD
ATOM     53  C   UNL A   1      37.931  33.153  30.339  1.00  0.00     0.034 A 
ATOM     54  C   UNL A   1      44.575  30.102  30.184  1.00  0.00     0.034 A 
ATOM     55  C   UNL A   1      39.223  33.676  30.839  1.00  0.00     0.049 A 
ATOM     56  C   UNL A   1      44.465  31.569  29.783  1.00  0.00     0.074 A 
ATOM     57  C   UNL A   1      39.847  33.799  32.068  1.00  0.00     0.029 A 
ATOM     58  N   UNL A   1      40.205  33.986  29.906  1.00  0.00    -0.354 N 
ATOM     59  N   UNL A   1      43.569  32.396  30.258  1.00  0.00    -0.248 NA
ATOM     60  C   UNL A   1      45.301  32.199  28.761  1.00  0.00     0.031 C 
ATOM     61  C   UNL A   1      41.231  34.115  31.838  1.00  0.00     0.029 A 
ATOM     62  C   UNL A   1      41.439  34.228  30.475  1.00  0.00     0.049 A 
ATOM     63  H   UNL A   1      40.037  34.028  28.937  1.00  0.00     0.167 HD
ATOM     64  C   UNL A   1      43.558  33.540  29.506  1.00  0.00     0.074 A 
ATOM     65  C   UNL A   1      44.707  33.398  28.624  1.00  0.00     0.031 C 
ATOM     66  C   UNL A   1      42.572  34.487  29.587  1.00  0.00     0.034 A 
BRANCH  53  67
ATOM     67  C   UNL A   1      36.578  33.666  30.814  1.00  0.00     0.023 A 
ATOM     68  C   UNL A   1      35.693  34.220  29.865  1.00  0.00     0.031 A 
ATOM     69  C   UNL A   1      36.111  33.720  32.151  1.00  0.00     0.131 A 
ATOM     70  C   UNL A   1      34.452  34.776  30.245  1.00  0.00     0.055 A 
ATOM     71  C   UNL A   1      34.858  34.227  32.520  1.00  0.00     0.041 A 
ATOM     72  F   UNL A   1      36.840  33.337  33.200  1.00  0.00    -0.206 F 
ATOM     73  C   UNL A   1      34.021  34.767  31.566  1.00  0.00     0.022 A 
BRANCH  70  74
ATOM     74  S   UNL A   1      33.403  35.550  28.985  1.00  0.00     0.124 S 
ATOM     75  O   UNL A   1      32.657  36.527  29.770  1.00  0.00    -0.237 OA
ATOM     76  O   UNL A   1      34.386  36.080  28.048  1.00  0.00    -0.237 OA
ATOM     77  O   UNL A   1      32.607  34.433  28.476  1.00  0.00    -0.744 OA
ENDBRANCH  70  74
ENDBRANCH  53  67
BRANCH  54  78
ATOM     78  C   UNL A   1      45.293  28.995  29.481  1.00  0.00     0.023 A 
ATOM     79  C   UNL A   1      45.252  29.017  28.064  1.00  0.00     0.031 A 
ATOM     80  C   UNL A   1      46.330  28.274  30.090  1.00  0.00     0.131 A 
ATOM     81  C   UNL A   1      46.303  28.465  27.311  1.00  0.00     0.055 A 
ATOM     82  C   UNL A   1      47.368  27.710  29.334  1.00  0.00     0.041 A 
ATOM     83  F   UNL A   1      46.437  28.231  31.427  1.00  0.00    -0.206 F 
ATOM     84  C   UNL A   1      47.380  27.842  27.945  1.00  0.00     0.022 A 
BRANCH  81  85
ATOM     85  S   UNL A   1      46.449  28.838  25.527  1.00  0.00     0.124 S 
ATOM     86  O   UNL A   1      47.782  28.346  25.211  1.00  0.00    -0.237 OA
ATOM     87  O   UNL A   1      45.339  28.099  24.932  1.00  0.00    -0.237 OA
ATOM     88  O   UNL A   1      46.285  30.293  25.501  1.00  0.00    -0.744 OA
ENDBRANCH  81  85
ENDBRANCH  54  78
BRANCH  66  89
ATOM     89  C   UNL A   1      42.607  35.742  28.749  1.00  0.00     0.023 A 
ATOM     90  C   UNL A   1      42.768  37.001  29.347  1.00  0.00     0.031 A 
ATOM     91  C   UNL A   1      42.412  35.737  27.349  1.00  0.00     0.131 A 
ATOM     92  C   UNL A   1      42.813  38.167  28.565  1.00  0.00     0.055 A 
ATOM     93  C   UNL A   1      42.342  36.907  26.590  1.00  0.00     0.041 A 
ATOM     94  F   UNL A   1      42.340  34.596  26.647  1.00  0.00    -0.206 F 
ATOM     95  C   UNL A   1      42.559  38.134  27.194  1.00  0.00     0.022 A 
BRANCH  92  96
ATOM     96  S   UNL A   1      43.340  39.707  29.354  1.00  0.00     0.124 S 
ATOM     97  O   UNL A   1      44.445  40.140  28.507  1.00  0.00    -0.237 OA
ATOM     98  O   UNL A   1      42.121  40.509  29.268  1.00  0.00    -0.237 OA
ATOM     99  O   UNL A   1      43.712  39.293  30.704  1.00  0.00    -0.744 OA
ENDBRANCH  92  96
ENDBRANCH  66  89
ENDBRANCH  40  41
ENDBRANCH  33  35
ENDBRANCH  32  33
ENDBRANCH  31  32
ENDBRANCH   1  31
TORSDOF 20
ENDMDL
MODEL 3
REMARK VINA RESULT:     -12.9      2.006      2.913
REMARK SMILES Cc1ccccc1C(=O)Nc1ccc(N2CCCCC2)cc1C(=O)OCCOCCOC(=O)c1ccc(-c2c3nc(c(-c4cc(S(=O)(=O)[O-])ccc4F)c4ccc([nH]4)c(-c4cc(S(=O)(=O)[O-])ccc4F)c4nc(c(-c5cc(S(=O)(=O)[O-])ccc5F)c5ccc2[nH]5)C=C4)C=C3)cc1
REMARK SMILES IDX 29 1 28 2 27 3 26 4 25 5 23 6 24 7 22 8 11 9 12 10 13 11
REMARK SMILES IDX 21 12 14 13 10 14 8 15 9 16 7 18 1 19 2 20 3 21 4 22 6 23
REMARK SMILES IDX 5 24 15 25 16 26 20 27 17 28 19 29 18 30 30 31 31 32 32 33
REMARK SMILES IDX 33 34 34 35 35 36 96 37 36 38 95 39 37 40 38 41 39 42 89 43
REMARK SMILES IDX 40 44 94 45 88 46 90 47 41 48 93 49 87 50 86 51 42 53 74 54
REMARK SMILES IDX 54 55 73 56 55 57 58 58 72 59 91 60 56 61 57 62 71 64 92 65
REMARK SMILES IDX 59 66 43 67 44 68 52 69 45 70 51 71 53 72 50 73 46 74 47 75
REMARK SMILES IDX 48 76 49 77 75 78 76 79 84 80 77 81 83 82 85 83 82 84 78 85
REMARK SMILES IDX 79 86 80 87 81 88 60 89 61 90 69 91 62 92 68 93 70 94 67 95
REMARK SMILES IDX 63 96 64 97 65 98 66 99
REMARK H PARENT 10 17 90 52 58 63
REMARK Flexibility Score: inf
ROOT
ATOM      1  C   UNL A   1      34.592  33.016  28.036  1.00  0.00     0.202 C 
ENDROOT
BRANCH   1   2
ATOM      2  O   UNL A   1      34.697  31.780  27.353  1.00  0.00    -0.374 OA
BRANCH   2   3
ATOM      3  C   UNL A   1      33.551  30.971  27.381  1.00  0.00     0.202 C 
BRANCH   3   4
ATOM      4  C   UNL A   1      33.748  29.516  27.007  1.00  0.00     0.261 C 
BRANCH   4   5
ATOM      5  O   UNL A   1      32.760  28.679  26.405  1.00  0.00    -0.460 OA
BRANCH   5   6
ATOM      6  C   UNL A   1      31.758  27.882  26.807  1.00  0.00     0.340 C 
ATOM      7  O   UNL A   1      31.299  27.671  27.899  1.00  0.00    -0.246 OA
BRANCH   6   8
ATOM      8  C   UNL A   1      31.178  27.510  25.483  1.00  0.00     0.085 A 
ATOM      9  C   UNL A   1      30.424  26.337  25.410  1.00  0.00     0.056 A 
ATOM     10  C   UNL A   1      29.476  26.186  24.395  1.00  0.00     0.029 A 
ATOM     11  C   UNL A   1      29.181  27.273  23.564  1.00  0.00     0.028 A 
ATOM     12  C   UNL A   1      30.948  28.554  24.559  1.00  0.00     0.043 A 
ATOM     13  C   UNL A   1      29.863  28.497  23.683  1.00  0.00     0.038 A 
BRANCH   9  14
ATOM     14  N   UNL A   1      30.579  25.315  26.333  1.00  0.00    -0.321 N 
ATOM     15  C   UNL A   1      31.313  24.156  26.356  1.00  0.00     0.255 C 
ATOM     16  O   UNL A   1      31.402  23.664  27.494  1.00  0.00    -0.269 OA
ATOM     17  H   UNL A   1      30.047  25.452  27.150  1.00  0.00     0.170 HD
BRANCH  15  18
ATOM     18  C   UNL A   1      31.880  23.333  25.200  1.00  0.00     0.043 A 
ATOM     19  C   UNL A   1      32.821  24.967  23.359  1.00  0.00     0.045 C 
ATOM     20  C   UNL A   1      32.424  23.644  23.931  1.00  0.00    -0.038 A 
ATOM     21  C   UNL A   1      32.734  22.588  23.021  1.00  0.00     0.004 A 
ATOM     22  C   UNL A   1      32.547  21.248  23.326  1.00  0.00     0.000 A 
ATOM     23  C   UNL A   1      31.730  21.936  25.471  1.00  0.00     0.014 A 
ATOM     24  C   UNL A   1      32.056  20.918  24.570  1.00  0.00     0.001 A 
ENDBRANCH  15  18
ENDBRANCH   9  14
BRANCH  13  25
ATOM     25  N   UNL A   1      29.342  29.639  23.069  1.00  0.00    -0.372 N 
ATOM     26  C   UNL A   1      29.425  30.859  23.898  1.00  0.00     0.116 C 
ATOM     27  C   UNL A   1      29.644  29.905  21.655  1.00  0.00     0.116 C 
ATOM     28  C   UNL A   1      28.363  31.850  23.429  1.00  0.00     0.021 C 
ATOM     29  C   UNL A   1      28.577  30.855  21.108  1.00  0.00     0.021 C 
ATOM     30  C   UNL A   1      28.479  32.140  21.934  1.00  0.00     0.004 C 
ENDBRANCH  13  25
ENDBRANCH   6   8
ENDBRANCH   5   6
ENDBRANCH   4   5
ENDBRANCH   3   4
ENDBRANCH   2   3
ENDBRANCH   1   2
BRANCH   1  31
ATOM     31  C   UNL A   1      35.687  33.278  29.091  1.00  0.00     0.261 C 
BRANCH  31  32
ATOM     32  O   UNL A   1      36.765  32.314  29.264  1.00  0.00    -0.460 OA
BRANCH  32  33
ATOM     33  C   UNL A   1      36.668  31.294  30.164  1.00  0.00     0.338 C 
ATOM     34  O   UNL A   1      35.917  31.295  31.127  1.00  0.00    -0.246 OA
BRANCH  33  35
ATOM     35  C   UNL A   1      37.420  30.096  29.727  1.00  0.00     0.060 A 
ATOM     36  C   UNL A   1      37.517  28.976  30.566  1.00  0.00     0.016 A 
ATOM     37  C   UNL A   1      38.230  30.219  28.603  1.00  0.00     0.016 A 
ATOM     38  C   UNL A   1      38.594  28.099  30.404  1.00  0.00     0.010 A 
ATOM     39  C   UNL A   1      39.360  29.434  28.538  1.00  0.00     0.010 A 
ATOM     40  C   UNL A   1      39.577  28.397  29.456  1.00  0.00    -0.014 A 
BRANCH  40  41
ATOM     41  C   UNL A   1      40.928  27.824  29.457  1.00  0.00     0.031 A 
ATOM     42  C   UNL A   1      41.168  26.446  28.977  1.00  0.00     0.074 A 
ATOM     43  C   UNL A   1      42.007  28.587  29.743  1.00  0.00     0.049 A 
ATOM     44  N   UNL A   1      42.242  25.782  29.242  1.00  0.00    -0.248 NA
ATOM     45  C   UNL A   1      40.196  25.650  28.235  1.00  0.00     0.031 C 
ATOM     46  C   UNL A   1      43.409  28.321  29.423  1.00  0.00     0.029 A 
ATOM     47  N   UNL A   1      42.049  29.792  30.439  1.00  0.00    -0.354 N 
ATOM     48  C   UNL A   1      42.263  24.674  28.434  1.00  0.00     0.074 A 
ATOM     49  C   UNL A   1      40.905  24.549  27.975  1.00  0.00     0.031 C 
ATOM     50  C   UNL A   1      44.188  29.199  30.068  1.00  0.00     0.029 A 
ATOM     51  C   UNL A   1      43.347  29.991  30.945  1.00  0.00     0.049 A 
ATOM     52  H   UNL A   1      41.290  30.407  30.560  1.00  0.00     0.167 HD
ATOM     53  C   UNL A   1      43.460  24.083  28.162  1.00  0.00     0.034 A 
ATOM     54  C   UNL A   1      43.537  30.118  32.291  1.00  0.00     0.034 A 
ATOM     55  C   UNL A   1      44.537  24.627  29.020  1.00  0.00     0.049 A 
ATOM     56  C   UNL A   1      44.086  28.836  32.908  1.00  0.00     0.074 A 
ATOM     57  C   UNL A   1      45.711  25.336  28.830  1.00  0.00     0.029 A 
ATOM     58  N   UNL A   1      44.331  24.638  30.394  1.00  0.00    -0.354 N 
ATOM     59  N   UNL A   1      44.661  27.879  32.226  1.00  0.00    -0.248 NA
ATOM     60  C   UNL A   1      43.961  28.496  34.325  1.00  0.00     0.031 C 
ATOM     61  C   UNL A   1      46.150  25.825  30.109  1.00  0.00     0.029 A 
ATOM     62  C   UNL A   1      45.273  25.378  31.080  1.00  0.00     0.049 A 
ATOM     63  H   UNL A   1      43.588  24.165  30.835  1.00  0.00     0.167 HD
ATOM     64  C   UNL A   1      44.787  26.766  33.014  1.00  0.00     0.074 A 
ATOM     65  C   UNL A   1      44.399  27.224  34.340  1.00  0.00     0.031 C 
ATOM     66  C   UNL A   1      45.115  25.530  32.527  1.00  0.00     0.034 A 
BRANCH  53  67
ATOM     67  C   UNL A   1      43.709  23.091  27.033  1.00  0.00     0.023 A 
ATOM     68  C   UNL A   1      43.041  21.848  27.065  1.00  0.00     0.031 A 
ATOM     69  C   UNL A   1      44.612  23.241  25.952  1.00  0.00     0.131 A 
ATOM     70  C   UNL A   1      43.275  20.855  26.089  1.00  0.00     0.055 A 
ATOM     71  C   UNL A   1      44.806  22.275  24.957  1.00  0.00     0.041 A 
ATOM     72  F   UNL A   1      45.406  24.302  25.801  1.00  0.00    -0.206 F 
ATOM     73  C   UNL A   1      44.142  21.068  25.024  1.00  0.00     0.022 A 
BRANCH  70  74
ATOM     74  S   UNL A   1      42.450  19.249  26.241  1.00  0.00     0.124 S 
ATOM     75  O   UNL A   1      41.272  19.431  25.401  1.00  0.00    -0.237 OA
ATOM     76  O   UNL A   1      43.468  18.330  25.744  1.00  0.00    -0.237 OA
ATOM     77  O   UNL A   1      42.174  19.145  27.674  1.00  0.00    -0.744 OA
ENDBRANCH  70  74
ENDBRANCH  53  67
BRANCH  54  78
ATOM     78  C   UNL A   1      42.570  31.095  32.880  1.00  0.00     0.023 A 
ATOM     79  C   UNL A   1      41.231  30.651  33.021  1.00  0.00     0.031 A 
ATOM     80  C   UNL A   1      42.989  32.164  33.686  1.00  0.00     0.131 A 
ATOM     81  C   UNL A   1      40.413  31.166  34.041  1.00  0.00     0.055 A 
ATOM     82  C   UNL A   1      42.163  32.686  34.691  1.00  0.00     0.041 A 
ATOM     83  F   UNL A   1      44.250  32.618  33.615  1.00  0.00    -0.206 F 
ATOM     84  C   UNL A   1      40.888  32.159  34.900  1.00  0.00     0.022 A 
BRANCH  81  85
ATOM     85  S   UNL A   1      38.847  30.327  34.473  1.00  0.00     0.124 S 
ATOM     86  O   UNL A   1      37.844  31.239  33.942  1.00  0.00    -0.237 OA
ATOM     87  O   UNL A   1      38.955  29.036  33.800  1.00  0.00    -0.237 OA
ATOM     88  O   UNL A   1      38.930  30.253  35.933  1.00  0.00    -0.744 OA
ENDBRANCH  81  85
ENDBRANCH  54  78
BRANCH  66  89
ATOM     89  C   UNL A   1      45.258  24.332  33.435  1.00  0.00     0.023 A 
ATOM     90  C   UNL A   1      46.525  23.888  33.843  1.00  0.00     0.031 A 
ATOM     91  C   UNL A   1      44.157  23.557  33.863  1.00  0.00     0.131 A 
ATOM     92  C   UNL A   1      46.656  22.781  34.697  1.00  0.00     0.055 A 
ATOM     93  C   UNL A   1      44.301  22.391  34.618  1.00  0.00     0.041 A 
ATOM     94  F   UNL A   1      42.891  23.928  33.620  1.00  0.00    -0.206 F 
ATOM     95  C   UNL A   1      45.556  22.002  35.055  1.00  0.00     0.022 A 
BRANCH  92  96
ATOM     96  S   UNL A   1      48.275  22.458  35.438  1.00  0.00     0.124 S 
ATOM     97  O   UNL A   1      49.197  22.982  34.437  1.00  0.00    -0.237 OA
ATOM     98  O   UNL A   1      48.183  23.224  36.680  1.00  0.00    -0.237 OA
ATOM     99  O   UNL A   1      48.294  21.008  35.608  1.00  0.00    -0.744 OA
ENDBRANCH  92  96
ENDBRANCH  66  89
ENDBRANCH  40  41
ENDBRANCH  33  35
ENDBRANCH  32  33
ENDBRANCH  31  32
ENDBRANCH   1  31
TORSDOF 20
ENDMDL
