MODEL 1
REMARK VINA RESULT:     -11.6      0.000      0.000
REMARK SMILES C[C@H](c1ccncc1)[N@H+]1[C@@H]2CC[C@H]1C[C@H](CC(=O)OCCOCCOC(=O)c1ccc(-c3c4nc(c(-c5cc(S(=O)(=O)[O-])ccc5F)c5ccc([nH]5)c(-c5cc(S(=O)(=O)[O-])ccc5F)c5nc(c(-c6cc(S(=O)(=O)[O-])ccc6F)c6ccc3[nH]6)C=C5)C=C4)cc1)C2
REMARK SMILES IDX 22 1 21 2 20 3 19 4 17 5 18 6 16 7 15 8 9 9 10 10 13 11
REMARK SMILES IDX 11 13 91 14 12 15 14 16 2 17 1 18 3 19 4 20 8 21 5 22 7 23
REMARK SMILES IDX 6 24 23 25 24 26 25 27 26 28 27 29 28 30 29 31 90 32 30 33
REMARK SMILES IDX 89 34 31 35 32 36 33 37 83 38 34 39 88 40 82 41 84 42 35 43
REMARK SMILES IDX 87 44 81 45 80 46 36 48 68 49 48 50 67 51 49 52 52 53 66 54
REMARK SMILES IDX 85 55 50 56 51 57 65 59 86 60 53 61 37 62 38 63 46 64 39 65
REMARK SMILES IDX 45 66 47 67 44 68 40 69 41 70 42 71 43 72 69 73 70 74 78 75
REMARK SMILES IDX 71 76 77 77 79 78 76 79 72 80 73 81 74 82 75 83 54 84 55 85
REMARK SMILES IDX 63 86 56 87 62 88 64 89 61 90 57 91 58 92 59 93 60 94
REMARK H PARENT 9 12 84 47 52 58
REMARK Flexibility Score: inf
ROOT
ATOM      1  O   UNL A   1      30.939  29.559  24.512  1.00  0.00    -0.374 OA
ENDROOT
BRANCH   1   2
ATOM      2  C   UNL A   1      30.893  28.187  24.115  1.00  0.00     0.202 C 
BRANCH   2   3
ATOM      3  C   UNL A   1      32.188  27.608  23.541  1.00  0.00     0.261 C 
BRANCH   3   4
ATOM      4  O   UNL A   1      31.890  26.492  22.682  1.00  0.00    -0.463 OA
BRANCH   4   5
ATOM      5  C   UNL A   1      32.951  25.783  22.234  1.00  0.00     0.306 C 
ATOM      6  O   UNL A   1      33.655  26.087  21.278  1.00  0.00    -0.252 OA
BRANCH   5   7
ATOM      7  C   UNL A   1      33.184  24.521  23.028  1.00  0.00     0.126 C 
BRANCH   7   8
ATOM      8  C   UNL A   1      34.562  24.311  23.701  1.00  0.00     0.012 C 
ATOM      9  N   UNL A   1      35.220  22.035  25.473  1.00  0.00    -0.324 N 
ATOM     10  C   UNL A   1      35.913  22.133  24.182  1.00  0.00     0.185 C 
ATOM     11  C   UNL A   1      35.359  23.404  26.006  1.00  0.00     0.185 C 
ATOM     12  H   UNL A   1      35.641  21.309  26.052  1.00  0.00     0.349 HD
ATOM     13  C   UNL A   1      37.230  22.785  24.604  1.00  0.00     0.071 C 
ATOM     14  C   UNL A   1      35.168  22.995  23.162  1.00  0.00     0.069 C 
ATOM     15  C   UNL A   1      36.847  23.691  25.766  1.00  0.00     0.071 C 
ATOM     16  C   UNL A   1      34.477  24.411  25.245  1.00  0.00     0.069 C 
BRANCH   9  17
ATOM     17  C   UNL A   1      33.845  21.488  25.501  1.00  0.00     0.212 C 
ATOM     18  C   UNL A   1      33.290  21.570  26.931  1.00  0.00     0.081 C 
BRANCH  17  19
ATOM     19  C   UNL A   1      33.743  20.065  24.963  1.00  0.00     0.012 A 
ATOM     20  C   UNL A   1      34.844  19.206  24.928  1.00  0.00     0.030 A 
ATOM     21  C   UNL A   1      32.548  19.630  24.373  1.00  0.00     0.030 A 
ATOM     22  C   UNL A   1      34.721  18.002  24.251  1.00  0.00     0.111 A 
ATOM     23  C   UNL A   1      32.531  18.417  23.706  1.00  0.00     0.111 A 
ATOM     24  N   UNL A   1      33.594  17.592  23.626  1.00  0.00    -0.265 NA
ENDBRANCH  17  19
ENDBRANCH   9  17
ENDBRANCH   7   8
ENDBRANCH   5   7
ENDBRANCH   4   5
ENDBRANCH   3   4
ENDBRANCH   2   3
ENDBRANCH   1   2
BRANCH   1  25
ATOM     25  C   UNL A   1      32.050  29.978  25.301  1.00  0.00     0.202 C 
BRANCH  25  26
ATOM     26  C   UNL A   1      31.784  31.052  26.367  1.00  0.00     0.261 C 
BRANCH  26  27
ATOM     27  O   UNL A   1      32.673  30.963  27.495  1.00  0.00    -0.460 OA
BRANCH  27  28
ATOM     28  C   UNL A   1      33.511  32.021  27.622  1.00  0.00     0.338 C 
ATOM     29  O   UNL A   1      33.189  33.204  27.665  1.00  0.00    -0.246 OA
BRANCH  28  30
ATOM     30  C   UNL A   1      34.889  31.574  27.902  1.00  0.00     0.060 A 
ATOM     31  C   UNL A   1      35.095  30.194  28.019  1.00  0.00     0.016 A 
ATOM     32  C   UNL A   1      35.937  32.468  28.135  1.00  0.00     0.016 A 
ATOM     33  C   UNL A   1      36.330  29.703  28.437  1.00  0.00     0.010 A 
ATOM     34  C   UNL A   1      37.179  31.971  28.559  1.00  0.00     0.010 A 
ATOM     35  C   UNL A   1      37.366  30.589  28.756  1.00  0.00    -0.014 A 
BRANCH  35  36
ATOM     36  C   UNL A   1      38.563  30.063  29.464  1.00  0.00     0.031 A 
ATOM     37  C   UNL A   1      38.847  30.541  30.865  1.00  0.00     0.074 A 
ATOM     38  C   UNL A   1      39.338  29.115  28.906  1.00  0.00     0.049 A 
ATOM     39  N   UNL A   1      39.812  30.202  31.681  1.00  0.00    -0.248 NA
ATOM     40  C   UNL A   1      37.912  31.532  31.418  1.00  0.00     0.031 C 
ATOM     41  C   UNL A   1      39.134  28.533  27.580  1.00  0.00     0.029 A 
ATOM     42  N   UNL A   1      40.449  28.468  29.390  1.00  0.00    -0.354 N 
ATOM     43  C   UNL A   1      39.604  30.939  32.843  1.00  0.00     0.074 A 
ATOM     44  C   UNL A   1      38.446  31.774  32.607  1.00  0.00     0.031 C 
ATOM     45  C   UNL A   1      40.089  27.612  27.358  1.00  0.00     0.029 A 
ATOM     46  C   UNL A   1      40.992  27.564  28.507  1.00  0.00     0.049 A 
ATOM     47  H   UNL A   1      40.821  28.636  30.286  1.00  0.00     0.167 HD
ATOM     48  C   UNL A   1      40.303  30.911  34.005  1.00  0.00     0.034 A 
ATOM     49  C   UNL A   1      42.099  26.800  28.606  1.00  0.00     0.034 A 
ATOM     50  C   UNL A   1      41.460  30.077  34.226  1.00  0.00     0.049 A 
ATOM     51  C   UNL A   1      42.915  26.851  29.876  1.00  0.00     0.074 A 
ATOM     52  C   UNL A   1      42.237  29.966  35.368  1.00  0.00     0.029 A 
ATOM     53  N   UNL A   1      42.016  29.219  33.287  1.00  0.00    -0.354 N 
ATOM     54  N   UNL A   1      42.703  27.550  30.969  1.00  0.00    -0.248 NA
ATOM     55  C   UNL A   1      44.111  26.000  29.932  1.00  0.00     0.031 C 
ATOM     56  C   UNL A   1      43.301  29.101  35.093  1.00  0.00     0.029 A 
ATOM     57  C   UNL A   1      43.143  28.603  33.809  1.00  0.00     0.049 A 
ATOM     58  H   UNL A   1      41.660  29.070  32.380  1.00  0.00     0.167 HD
ATOM     59  C   UNL A   1      43.722  27.193  31.852  1.00  0.00     0.074 A 
ATOM     60  C   UNL A   1      44.537  26.211  31.168  1.00  0.00     0.031 C 
ATOM     61  C   UNL A   1      43.955  27.630  33.116  1.00  0.00     0.034 A 
BRANCH  48  62
ATOM     62  C   UNL A   1      39.864  31.852  35.102  1.00  0.00     0.023 A 
ATOM     63  C   UNL A   1      39.088  31.415  36.190  1.00  0.00     0.031 A 
ATOM     64  C   UNL A   1      40.202  33.216  35.042  1.00  0.00     0.131 A 
ATOM     65  C   UNL A   1      38.617  32.342  37.133  1.00  0.00     0.055 A 
ATOM     66  C   UNL A   1      39.799  34.120  36.028  1.00  0.00     0.041 A 
ATOM     67  F   UNL A   1      40.920  33.697  34.015  1.00  0.00    -0.206 F 
ATOM     68  C   UNL A   1      38.989  33.687  37.073  1.00  0.00     0.022 A 
BRANCH  65  69
ATOM     69  S   UNL A   1      37.394  31.794  38.354  1.00  0.00     0.124 S 
ATOM     70  O   UNL A   1      37.132  30.425  37.916  1.00  0.00    -0.237 OA
ATOM     71  O   UNL A   1      38.119  31.935  39.612  1.00  0.00    -0.237 OA
ATOM     72  O   UNL A   1      36.282  32.723  38.166  1.00  0.00    -0.744 OA
ENDBRANCH  65  69
ENDBRANCH  48  62
BRANCH  49  73
ATOM     73  C   UNL A   1      42.534  25.948  27.461  1.00  0.00     0.023 A 
ATOM     74  C   UNL A   1      42.103  24.618  27.335  1.00  0.00     0.031 A 
ATOM     75  C   UNL A   1      43.439  26.441  26.504  1.00  0.00     0.131 A 
ATOM     76  C   UNL A   1      42.613  23.813  26.304  1.00  0.00     0.055 A 
ATOM     77  C   UNL A   1      43.901  25.652  25.449  1.00  0.00     0.041 A 
ATOM     78  F   UNL A   1      43.886  27.705  26.578  1.00  0.00    -0.206 F 
ATOM     79  C   UNL A   1      43.498  24.324  25.353  1.00  0.00     0.022 A 
BRANCH  76  80
ATOM     80  S   UNL A   1      42.170  22.053  26.274  1.00  0.00     0.124 S 
ATOM     81  O   UNL A   1      42.921  21.578  25.118  1.00  0.00    -0.237 OA
ATOM     82  O   UNL A   1      42.643  21.601  27.579  1.00  0.00    -0.237 OA
ATOM     83  O   UNL A   1      40.718  22.071  26.113  1.00  0.00    -0.744 OA
ENDBRANCH  76  80
ENDBRANCH  49  73
BRANCH  61  84
ATOM     84  C   UNL A   1      45.112  27.006  33.861  1.00  0.00     0.023 A 
ATOM     85  C   UNL A   1      44.994  25.767  34.517  1.00  0.00     0.031 A 
ATOM     86  C   UNL A   1      46.352  27.669  33.920  1.00  0.00     0.131 A 
ATOM     87  C   UNL A   1      46.079  25.257  35.248  1.00  0.00     0.055 A 
ATOM     88  C   UNL A   1      47.445  27.127  34.598  1.00  0.00     0.041 A 
ATOM     89  F   UNL A   1      46.521  28.855  33.315  1.00  0.00    -0.206 F 
ATOM     90  C   UNL A   1      47.309  25.922  35.278  1.00  0.00     0.022 A 
BRANCH  87  91
ATOM     91  S   UNL A   1      45.835  23.758  36.241  1.00  0.00     0.124 S 
ATOM     92  O   UNL A   1      44.471  23.379  35.886  1.00  0.00    -0.237 OA
ATOM     93  O   UNL A   1      46.890  22.881  35.744  1.00  0.00    -0.237 OA
ATOM     94  O   UNL A   1      46.012  24.224  37.614  1.00  0.00    -0.744 OA
ENDBRANCH  87  91
ENDBRANCH  61  84
ENDBRANCH  35  36
ENDBRANCH  28  30
ENDBRANCH  27  28
ENDBRANCH  26  27
ENDBRANCH  25  26
ENDBRANCH   1  25
TORSDOF 20
ENDMDL
MODEL 2
REMARK VINA RESULT:     -11.5      0.649      7.443
REMARK SMILES C[C@H](c1ccncc1)[N@H+]1[C@@H]2CC[C@H]1C[C@H](CC(=O)OCCOCCOC(=O)c1ccc(-c3c4nc(c(-c5cc(S(=O)(=O)[O-])ccc5F)c5ccc([nH]5)c(-c5cc(S(=O)(=O)[O-])ccc5F)c5nc(c(-c6cc(S(=O)(=O)[O-])ccc6F)c6ccc3[nH]6)C=C5)C=C4)cc1)C2
REMARK SMILES IDX 22 1 21 2 20 3 19 4 17 5 18 6 16 7 15 8 9 9 10 10 13 11
REMARK SMILES IDX 11 13 91 14 12 15 14 16 2 17 1 18 3 19 4 20 8 21 5 22 7 23
REMARK SMILES IDX 6 24 23 25 24 26 25 27 26 28 27 29 28 30 29 31 90 32 30 33
REMARK SMILES IDX 89 34 31 35 32 36 33 37 83 38 34 39 88 40 82 41 84 42 35 43
REMARK SMILES IDX 87 44 81 45 80 46 36 48 68 49 48 50 67 51 49 52 52 53 66 54
REMARK SMILES IDX 85 55 50 56 51 57 65 59 86 60 53 61 37 62 38 63 46 64 39 65
REMARK SMILES IDX 45 66 47 67 44 68 40 69 41 70 42 71 43 72 69 73 70 74 78 75
REMARK SMILES IDX 71 76 77 77 79 78 76 79 72 80 73 81 74 82 75 83 54 84 55 85
REMARK SMILES IDX 63 86 56 87 62 88 64 89 61 90 57 91 58 92 59 93 60 94
REMARK H PARENT 9 12 84 47 52 58
REMARK Flexibility Score: inf
ROOT
ATOM      1  O   UNL A   1      30.762  29.397  24.321  1.00  0.00    -0.374 OA
ENDROOT
BRANCH   1   2
ATOM      2  C   UNL A   1      30.716  28.240  23.483  1.00  0.00     0.202 C 
BRANCH   2   3
ATOM      3  C   UNL A   1      31.841  27.222  23.679  1.00  0.00     0.261 C 
BRANCH   3   4
ATOM      4  O   UNL A   1      32.687  27.192  22.514  1.00  0.00    -0.463 OA
BRANCH   4   5
ATOM      5  C   UNL A   1      33.035  25.967  22.060  1.00  0.00     0.306 C 
ATOM      6  O   UNL A   1      33.235  25.676  20.886  1.00  0.00    -0.252 OA
BRANCH   5   7
ATOM      7  C   UNL A   1      33.131  24.943  23.165  1.00  0.00     0.126 C 
BRANCH   7   8
ATOM      8  C   UNL A   1      34.532  24.565  23.707  1.00  0.00     0.012 C 
ATOM      9  N   UNL A   1      35.096  22.152  25.323  1.00  0.00    -0.324 N 
ATOM     10  C   UNL A   1      35.687  22.244  23.981  1.00  0.00     0.185 C 
ATOM     11  C   UNL A   1      35.419  23.473  25.895  1.00  0.00     0.185 C 
ATOM     12  H   UNL A   1      35.487  21.361  25.833  1.00  0.00     0.349 HD
ATOM     13  C   UNL A   1      37.094  22.741  24.312  1.00  0.00     0.071 C 
ATOM     14  C   UNL A   1      34.952  23.223  23.064  1.00  0.00     0.069 C 
ATOM     15  C   UNL A   1      36.904  23.623  25.538  1.00  0.00     0.071 C 
ATOM     16  C   UNL A   1      34.585  24.598  25.254  1.00  0.00     0.069 C 
BRANCH   9  17
ATOM     17  C   UNL A   1      33.679  21.744  25.448  1.00  0.00     0.212 C 
ATOM     18  C   UNL A   1      33.279  21.734  26.931  1.00  0.00     0.081 C 
BRANCH  17  19
ATOM     19  C   UNL A   1      33.372  20.400  24.797  1.00  0.00     0.012 A 
ATOM     20  C   UNL A   1      34.178  19.277  24.997  1.00  0.00     0.030 A 
ATOM     21  C   UNL A   1      32.321  20.301  23.873  1.00  0.00     0.030 A 
ATOM     22  C   UNL A   1      33.947  18.151  24.223  1.00  0.00     0.111 A 
ATOM     23  C   UNL A   1      32.183  19.136  23.136  1.00  0.00     0.111 A 
ATOM     24  N   UNL A   1      32.976  18.057  23.287  1.00  0.00    -0.265 NA
ENDBRANCH  17  19
ENDBRANCH   9  17
ENDBRANCH   7   8
ENDBRANCH   5   7
ENDBRANCH   4   5
ENDBRANCH   3   4
ENDBRANCH   2   3
ENDBRANCH   1   2
BRANCH   1  25
ATOM     25  C   UNL A   1      31.907  29.561  25.154  1.00  0.00     0.202 C 
BRANCH  25  26
ATOM     26  C   UNL A   1      31.841  30.659  26.225  1.00  0.00     0.261 C 
BRANCH  26  27
ATOM     27  O   UNL A   1      32.808  30.486  27.276  1.00  0.00    -0.460 OA
BRANCH  27  28
ATOM     28  C   UNL A   1      33.586  31.574  27.496  1.00  0.00     0.338 C 
ATOM     29  O   UNL A   1      33.209  32.740  27.553  1.00  0.00    -0.246 OA
BRANCH  28  30
ATOM     30  C   UNL A   1      34.960  31.177  27.859  1.00  0.00     0.060 A 
ATOM     31  C   UNL A   1      35.186  29.814  28.089  1.00  0.00     0.016 A 
ATOM     32  C   UNL A   1      35.983  32.107  28.062  1.00  0.00     0.016 A 
ATOM     33  C   UNL A   1      36.412  29.382  28.588  1.00  0.00     0.010 A 
ATOM     34  C   UNL A   1      37.216  31.670  28.568  1.00  0.00     0.010 A 
ATOM     35  C   UNL A   1      37.420  30.310  28.876  1.00  0.00    -0.014 A 
BRANCH  35  36
ATOM     36  C   UNL A   1      38.598  29.863  29.666  1.00  0.00     0.031 A 
ATOM     37  C   UNL A   1      39.518  28.827  29.074  1.00  0.00     0.074 A 
ATOM     38  C   UNL A   1      38.894  30.429  30.850  1.00  0.00     0.049 A 
ATOM     39  N   UNL A   1      40.614  28.308  29.567  1.00  0.00    -0.248 NA
ATOM     40  C   UNL A   1      39.150  28.308  27.748  1.00  0.00     0.031 C 
ATOM     41  C   UNL A   1      38.113  31.480  31.501  1.00  0.00     0.029 A 
ATOM     42  N   UNL A   1      39.938  30.204  31.714  1.00  0.00    -0.354 N 
ATOM     43  C   UNL A   1      41.067  27.402  28.613  1.00  0.00     0.074 A 
ATOM     44  C   UNL A   1      40.101  27.411  27.534  1.00  0.00     0.031 C 
ATOM     45  C   UNL A   1      38.707  31.809  32.661  1.00  0.00     0.029 A 
ATOM     46  C   UNL A   1      39.888  30.970  32.854  1.00  0.00     0.049 A 
ATOM     47  H   UNL A   1      40.655  29.553  31.532  1.00  0.00     0.167 HD
ATOM     48  C   UNL A   1      42.192  26.643  28.626  1.00  0.00     0.034 A 
ATOM     49  C   UNL A   1      40.693  30.981  33.937  1.00  0.00     0.034 A 
ATOM     50  C   UNL A   1      43.144  26.638  29.710  1.00  0.00     0.049 A 
ATOM     51  C   UNL A   1      41.892  30.063  33.970  1.00  0.00     0.074 A 
ATOM     52  C   UNL A   1      44.320  25.914  29.822  1.00  0.00     0.029 A 
ATOM     53  N   UNL A   1      43.029  27.385  30.876  1.00  0.00    -0.354 N 
ATOM     54  N   UNL A   1      42.310  29.214  33.059  1.00  0.00    -0.248 NA
ATOM     55  C   UNL A   1      42.734  30.115  35.174  1.00  0.00     0.031 C 
ATOM     56  C   UNL A   1      44.873  26.166  31.082  1.00  0.00     0.029 A 
ATOM     57  C   UNL A   1      44.091  27.112  31.725  1.00  0.00     0.049 A 
ATOM     58  H   UNL A   1      42.298  28.016  31.071  1.00  0.00     0.167 HD
ATOM     59  C   UNL A   1      43.484  28.659  33.567  1.00  0.00     0.074 A 
ATOM     60  C   UNL A   1      43.710  29.277  34.857  1.00  0.00     0.031 C 
ATOM     61  C   UNL A   1      44.304  27.729  33.013  1.00  0.00     0.034 A 
BRANCH  48  62
ATOM     62  C   UNL A   1      42.417  25.716  27.456  1.00  0.00     0.023 A 
ATOM     63  C   UNL A   1      41.867  24.422  27.415  1.00  0.00     0.031 A 
ATOM     64  C   UNL A   1      43.222  26.122  26.375  1.00  0.00     0.131 A 
ATOM     65  C   UNL A   1      42.185  23.558  26.355  1.00  0.00     0.055 A 
ATOM     66  C   UNL A   1      43.468  25.286  25.284  1.00  0.00     0.041 A 
ATOM     67  F   UNL A   1      43.794  27.336  26.369  1.00  0.00    -0.206 F 
ATOM     68  C   UNL A   1      42.961  23.991  25.277  1.00  0.00     0.022 A 
BRANCH  65  69
ATOM     69  S   UNL A   1      41.693  21.817  26.476  1.00  0.00     0.124 S 
ATOM     70  O   UNL A   1      41.781  21.586  27.916  1.00  0.00    -0.237 OA
ATOM     71  O   UNL A   1      40.348  21.829  25.912  1.00  0.00    -0.237 OA
ATOM     72  O   UNL A   1      42.699  21.120  25.679  1.00  0.00    -0.744 OA
ENDBRANCH  65  69
ENDBRANCH  48  62
BRANCH  49  73
ATOM     73  C   UNL A   1      40.379  31.859  35.102  1.00  0.00     0.023 A 
ATOM     74  C   UNL A   1      39.387  31.513  36.032  1.00  0.00     0.031 A 
ATOM     75  C   UNL A   1      41.034  33.093  35.266  1.00  0.00     0.131 A 
ATOM     76  C   UNL A   1      39.045  32.410  37.057  1.00  0.00     0.055 A 
ATOM     77  C   UNL A   1      40.728  33.957  36.318  1.00  0.00     0.041 A 
ATOM     78  F   UNL A   1      41.990  33.475  34.405  1.00  0.00    -0.206 F 
ATOM     79  C   UNL A   1      39.718  33.623  37.214  1.00  0.00     0.022 A 
BRANCH  76  80
ATOM     80  S   UNL A   1      37.641  32.008  38.133  1.00  0.00     0.124 S 
ATOM     81  O   UNL A   1      38.182  32.311  39.452  1.00  0.00    -0.237 OA
ATOM     82  O   UNL A   1      36.610  32.914  37.636  1.00  0.00    -0.237 OA
ATOM     83  O   UNL A   1      37.403  30.591  37.866  1.00  0.00    -0.744 OA
ENDBRANCH  76  80
ENDBRANCH  49  73
BRANCH  61  84
ATOM     84  C   UNL A   1      45.555  27.366  33.780  1.00  0.00     0.023 A 
ATOM     85  C   UNL A   1      45.540  26.431  34.830  1.00  0.00     0.031 A 
ATOM     86  C   UNL A   1      46.782  27.974  33.454  1.00  0.00     0.131 A 
ATOM     87  C   UNL A   1      46.716  26.172  35.553  1.00  0.00     0.055 A 
ATOM     88  C   UNL A   1      47.959  27.667  34.137  1.00  0.00     0.041 A 
ATOM     89  F   UNL A   1      46.855  28.876  32.462  1.00  0.00    -0.206 F 
ATOM     90  C   UNL A   1      47.929  26.772  35.201  1.00  0.00     0.022 A 
BRANCH  87  91
ATOM     91  S   UNL A   1      46.622  25.112  37.022  1.00  0.00     0.124 S 
ATOM     92  O   UNL A   1      47.656  25.686  37.877  1.00  0.00    -0.237 OA
ATOM     93  O   UNL A   1      45.245  25.313  37.464  1.00  0.00    -0.237 OA
ATOM     94  O   UNL A   1      46.917  23.779  36.502  1.00  0.00    -0.744 OA
ENDBRANCH  87  91
ENDBRANCH  61  84
ENDBRANCH  35  36
ENDBRANCH  28  30
ENDBRANCH  27  28
ENDBRANCH  26  27
ENDBRANCH  25  26
ENDBRANCH   1  25
TORSDOF 20
ENDMDL
MODEL 3
REMARK VINA RESULT:     -11.3      4.936     10.389
REMARK SMILES C[C@H](c1ccncc1)[N@H+]1[C@@H]2CC[C@H]1C[C@H](CC(=O)OCCOCCOC(=O)c1ccc(-c3c4nc(c(-c5cc(S(=O)(=O)[O-])ccc5F)c5ccc([nH]5)c(-c5cc(S(=O)(=O)[O-])ccc5F)c5nc(c(-c6cc(S(=O)(=O)[O-])ccc6F)c6ccc3[nH]6)C=C5)C=C4)cc1)C2
REMARK SMILES IDX 22 1 21 2 20 3 19 4 17 5 18 6 16 7 15 8 9 9 10 10 13 11
REMARK SMILES IDX 11 13 91 14 12 15 14 16 2 17 1 18 3 19 4 20 8 21 5 22 7 23
REMARK SMILES IDX 6 24 23 25 24 26 25 27 26 28 27 29 28 30 29 31 90 32 30 33
REMARK SMILES IDX 89 34 31 35 32 36 33 37 83 38 34 39 88 40 82 41 84 42 35 43
REMARK SMILES IDX 87 44 81 45 80 46 36 48 68 49 48 50 67 51 49 52 52 53 66 54
REMARK SMILES IDX 85 55 50 56 51 57 65 59 86 60 53 61 37 62 38 63 46 64 39 65
REMARK SMILES IDX 45 66 47 67 44 68 40 69 41 70 42 71 43 72 69 73 70 74 78 75
REMARK SMILES IDX 71 76 77 77 79 78 76 79 72 80 73 81 74 82 75 83 54 84 55 85
REMARK SMILES IDX 63 86 56 87 62 88 64 89 61 90 57 91 58 92 59 93 60 94
REMARK H PARENT 9 12 84 47 52 58
REMARK Flexibility Score: inf
ROOT
ATOM      1  O   UNL A   1      37.045  22.318  24.437  1.00  0.00    -0.374 OA
ENDROOT
BRANCH   1   2
ATOM      2  C   UNL A   1      36.093  23.196  25.041  1.00  0.00     0.202 C 
BRANCH   2   3
ATOM      3  C   UNL A   1      34.855  23.524  24.204  1.00  0.00     0.261 C 
BRANCH   3   4
ATOM      4  O   UNL A   1      33.664  23.325  24.988  1.00  0.00    -0.463 OA
BRANCH   4   5
ATOM      5  C   UNL A   1      32.652  24.194  24.768  1.00  0.00     0.306 C 
ATOM      6  O   UNL A   1      32.216  24.511  23.668  1.00  0.00    -0.252 OA
BRANCH   5   7
ATOM      7  C   UNL A   1      32.104  24.785  26.045  1.00  0.00     0.126 C 
BRANCH   7   8
ATOM      8  C   UNL A   1      32.578  26.195  26.473  1.00  0.00     0.012 C 
ATOM      9  N   UNL A   1      32.421  28.597  24.752  1.00  0.00    -0.324 N 
ATOM     10  C   UNL A   1      31.591  28.554  25.963  1.00  0.00     0.185 C 
ATOM     11  C   UNL A   1      33.741  28.184  25.265  1.00  0.00     0.185 C 
ATOM     12  H   UNL A   1      32.399  29.526  24.334  1.00  0.00     0.349 HD
ATOM     13  C   UNL A   1      32.449  29.362  26.936  1.00  0.00     0.071 C 
ATOM     14  C   UNL A   1      31.350  27.135  26.479  1.00  0.00     0.069 C 
ATOM     15  C   UNL A   1      33.882  29.053  26.523  1.00  0.00     0.071 C 
ATOM     16  C   UNL A   1      33.778  26.688  25.626  1.00  0.00     0.069 C 
BRANCH   9  17
ATOM     17  C   UNL A   1      31.960  27.867  23.550  1.00  0.00     0.212 C 
ATOM     18  C   UNL A   1      33.045  27.932  22.465  1.00  0.00     0.081 C 
BRANCH  17  19
ATOM     19  C   UNL A   1      30.624  28.365  23.008  1.00  0.00     0.012 A 
ATOM     20  C   UNL A   1      30.515  29.555  22.286  1.00  0.00     0.030 A 
ATOM     21  C   UNL A   1      29.444  27.683  23.338  1.00  0.00     0.030 A 
ATOM     22  C   UNL A   1      29.249  30.038  21.995  1.00  0.00     0.111 A 
ATOM     23  C   UNL A   1      28.225  28.256  23.017  1.00  0.00     0.111 A 
ATOM     24  N   UNL A   1      28.099  29.424  22.356  1.00  0.00    -0.265 NA
ENDBRANCH  17  19
ENDBRANCH   9  17
ENDBRANCH   7   8
ENDBRANCH   5   7
ENDBRANCH   4   5
ENDBRANCH   3   4
ENDBRANCH   2   3
ENDBRANCH   1   2
BRANCH   1  25
ATOM     25  C   UNL A   1      36.844  20.916  24.601  1.00  0.00     0.202 C 
BRANCH  25  26
ATOM     26  C   UNL A   1      38.093  20.055  24.842  1.00  0.00     0.261 C 
BRANCH  26  27
ATOM     27  O   UNL A   1      38.595  20.148  26.187  1.00  0.00    -0.460 OA
BRANCH  27  28
ATOM     28  C   UNL A   1      39.933  20.352  26.264  1.00  0.00     0.338 C 
ATOM     29  O   UNL A   1      40.805  19.672  25.732  1.00  0.00    -0.246 OA
BRANCH  28  30
ATOM     30  C   UNL A   1      40.237  21.634  26.926  1.00  0.00     0.060 A 
ATOM     31  C   UNL A   1      39.595  22.774  26.424  1.00  0.00     0.016 A 
ATOM     32  C   UNL A   1      41.185  21.749  27.946  1.00  0.00     0.016 A 
ATOM     33  C   UNL A   1      39.946  24.038  26.890  1.00  0.00     0.010 A 
ATOM     34  C   UNL A   1      41.540  23.024  28.411  1.00  0.00     0.010 A 
ATOM     35  C   UNL A   1      40.954  24.177  27.852  1.00  0.00    -0.014 A 
BRANCH  35  36
ATOM     36  C   UNL A   1      41.505  25.532  28.119  1.00  0.00     0.031 A 
ATOM     37  C   UNL A   1      42.884  25.869  27.614  1.00  0.00     0.074 A 
ATOM     38  C   UNL A   1      40.761  26.475  28.725  1.00  0.00     0.049 A 
ATOM     39  N   UNL A   1      43.554  26.989  27.707  1.00  0.00    -0.248 NA
ATOM     40  C   UNL A   1      43.601  24.795  26.908  1.00  0.00     0.031 C 
ATOM     41  C   UNL A   1      39.394  26.288  29.209  1.00  0.00     0.029 A 
ATOM     42  N   UNL A   1      41.049  27.783  29.030  1.00  0.00    -0.354 N 
ATOM     43  C   UNL A   1      44.772  26.756  27.073  1.00  0.00     0.074 A 
ATOM     44  C   UNL A   1      44.762  25.375  26.641  1.00  0.00     0.031 C 
ATOM     45  C   UNL A   1      38.961  27.442  29.749  1.00  0.00     0.029 A 
ATOM     46  C   UNL A   1      40.030  28.437  29.682  1.00  0.00     0.049 A 
ATOM     47  H   UNL A   1      41.906  28.212  28.802  1.00  0.00     0.167 HD
ATOM     48  C   UNL A   1      45.797  27.618  26.858  1.00  0.00     0.034 A 
ATOM     49  C   UNL A   1      39.972  29.688  30.184  1.00  0.00     0.034 A 
ATOM     50  C   UNL A   1      45.797  28.993  27.299  1.00  0.00     0.049 A 
ATOM     51  C   UNL A   1      41.161  30.604  30.010  1.00  0.00     0.074 A 
ATOM     52  C   UNL A   1      46.779  29.953  27.126  1.00  0.00     0.029 A 
ATOM     53  N   UNL A   1      44.771  29.602  28.009  1.00  0.00    -0.354 N 
ATOM     54  N   UNL A   1      42.304  30.372  29.406  1.00  0.00    -0.248 NA
ATOM     55  C   UNL A   1      41.045  31.955  30.576  1.00  0.00     0.031 C 
ATOM     56  C   UNL A   1      46.380  31.115  27.794  1.00  0.00     0.029 A 
ATOM     57  C   UNL A   1      45.111  30.912  28.311  1.00  0.00     0.049 A 
ATOM     58  H   UNL A   1      43.924  29.167  28.261  1.00  0.00     0.167 HD
ATOM     59  C   UNL A   1      43.026  31.561  29.489  1.00  0.00     0.074 A 
ATOM     60  C   UNL A   1      42.186  32.508  30.192  1.00  0.00     0.031 C 
ATOM     61  C   UNL A   1      44.268  31.847  29.020  1.00  0.00     0.034 A 
BRANCH  48  62
ATOM     62  C   UNL A   1      47.023  27.078  26.161  1.00  0.00     0.023 A 
ATOM     63  C   UNL A   1      48.023  26.372  26.856  1.00  0.00     0.031 A 
ATOM     64  C   UNL A   1      47.210  27.297  24.784  1.00  0.00     0.131 A 
ATOM     65  C   UNL A   1      49.192  25.976  26.189  1.00  0.00     0.055 A 
ATOM     66  C   UNL A   1      48.339  26.829  24.110  1.00  0.00     0.041 A 
ATOM     67  F   UNL A   1      46.303  27.985  24.074  1.00  0.00    -0.206 F 
ATOM     68  C   UNL A   1      49.346  26.177  24.815  1.00  0.00     0.022 A 
BRANCH  65  69
ATOM     69  S   UNL A   1      50.573  25.326  27.170  1.00  0.00     0.124 S 
ATOM     70  O   UNL A   1      50.912  26.479  28.000  1.00  0.00    -0.237 OA
ATOM     71  O   UNL A   1      49.963  24.197  27.862  1.00  0.00    -0.237 OA
ATOM     72  O   UNL A   1      51.573  24.978  26.163  1.00  0.00    -0.744 OA
ENDBRANCH  65  69
ENDBRANCH  48  62
BRANCH  49  73
ATOM     73  C   UNL A   1      38.767  30.146  30.934  1.00  0.00     0.023 A 
ATOM     74  C   UNL A   1      37.721  30.829  30.292  1.00  0.00     0.031 A 
ATOM     75  C   UNL A   1      38.673  29.956  32.324  1.00  0.00     0.131 A 
ATOM     76  C   UNL A   1      36.651  31.337  31.045  1.00  0.00     0.055 A 
ATOM     77  C   UNL A   1      37.580  30.415  33.061  1.00  0.00     0.041 A 
ATOM     78  F   UNL A   1      39.644  29.311  32.989  1.00  0.00    -0.206 F 
ATOM     79  C   UNL A   1      36.567  31.123  32.423  1.00  0.00     0.022 A 
BRANCH  76  80
ATOM     80  S   UNL A   1      35.410  32.364  30.211  1.00  0.00     0.124 S 
ATOM     81  O   UNL A   1      34.371  32.459  31.230  1.00  0.00    -0.237 OA
ATOM     82  O   UNL A   1      36.160  33.586  29.942  1.00  0.00    -0.237 OA
ATOM     83  O   UNL A   1      35.057  31.579  29.030  1.00  0.00    -0.744 OA
ENDBRANCH  76  80
ENDBRANCH  49  73
BRANCH  61  84
ATOM     84  C   UNL A   1      44.769  33.261  29.204  1.00  0.00     0.023 A 
ATOM     85  C   UNL A   1      44.499  34.275  28.269  1.00  0.00     0.031 A 
ATOM     86  C   UNL A   1      45.537  33.593  30.336  1.00  0.00     0.131 A 
ATOM     87  C   UNL A   1      45.039  35.558  28.453  1.00  0.00     0.055 A 
ATOM     88  C   UNL A   1      46.019  34.886  30.544  1.00  0.00     0.041 A 
ATOM     89  F   UNL A   1      45.829  32.665  31.261  1.00  0.00    -0.206 F 
ATOM     90  C   UNL A   1      45.783  35.874  29.594  1.00  0.00     0.022 A 
BRANCH  87  91
ATOM     91  S   UNL A   1      44.836  36.788  27.134  1.00  0.00     0.124 S 
ATOM     92  O   UNL A   1      45.953  36.471  26.250  1.00  0.00    -0.237 OA
ATOM     93  O   UNL A   1      43.506  36.476  26.619  1.00  0.00    -0.237 OA
ATOM     94  O   UNL A   1      44.944  38.065  27.837  1.00  0.00    -0.744 OA
ENDBRANCH  87  91
ENDBRANCH  61  84
ENDBRANCH  35  36
ENDBRANCH  28  30
ENDBRANCH  27  28
ENDBRANCH  26  27
ENDBRANCH  25  26
ENDBRANCH   1  25
TORSDOF 20
ENDMDL
