MODEL 1
REMARK VINA RESULT:      -9.0      0.000      0.000
REMARK SMILES O=C(OCCOCCOC(=O)c1ccccc1Nc1nc(Cl)nc(Nc2ccc(N3CCOCC3=O)cc2)n1)c1ccc(-c2c3nc(c(-c4cc(S(=O)(=O)[O-])ccc4F)c4ccc([nH]4)c(-c4cc(S(=O)(=O)[O-])ccc4F)c4nc(c(-c5cc(S(=O)(=O)[O-])ccc5F)c5ccc2[nH]5)C=C4)C=C3)cc1
REMARK SMILES IDX 7 1 6 2 5 3 4 4 3 5 2 6 1 7 40 8 41 9 102 10 42 11 101 12
REMARK SMILES IDX 43 13 44 14 45 15 95 16 46 17 100 18 94 19 96 20 47 21 99 22
REMARK SMILES IDX 93 23 92 24 48 26 80 27 60 28 79 29 61 30 64 31 78 32 97 33
REMARK SMILES IDX 62 34 63 35 77 37 98 38 65 39 49 40 50 41 58 42 51 43 57 44
REMARK SMILES IDX 59 45 56 46 52 47 53 48 54 49 55 50 81 51 82 52 90 53 83 54
REMARK SMILES IDX 89 55 91 56 88 57 84 58 85 59 86 60 87 61 66 62 67 63 75 64
REMARK SMILES IDX 68 65 74 66 76 67 73 68 69 69 70 70 71 71 72 72 8 73 9 74
REMARK SMILES IDX 10 75 11 76 12 77 13 78 17 79 14 80 16 81 15 82 18 83 19 85
REMARK SMILES IDX 20 86 39 87 21 88 24 89 22 90 23 91 25 92 26 94 27 95 38 96
REMARK SMILES IDX 28 97 37 98 29 99 30 100 31 101 35 102 32 103 34 104 36 105
REMARK SMILES IDX 33 106
REMARK H PARENT 96 25 64 36 18 84 25 93
REMARK Flexibility Score: inf
ROOT
ATOM      1  C   UNL A   1      34.372  35.547  33.345  1.00  0.00     0.202 C 
ENDROOT
BRANCH   1   2
ATOM      2  O   UNL A   1      34.415  35.839  31.945  1.00  0.00    -0.374 OA
BRANCH   2   3
ATOM      3  C   UNL A   1      33.255  36.445  31.381  1.00  0.00     0.202 C 
BRANCH   3   4
ATOM      4  C   UNL A   1      32.999  36.067  29.922  1.00  0.00     0.261 C 
BRANCH   4   5
ATOM      5  O   UNL A   1      32.965  34.637  29.784  1.00  0.00    -0.460 OA
BRANCH   5   6
ATOM      6  C   UNL A   1      33.685  33.859  28.944  1.00  0.00     0.338 C 
ATOM      7  O   UNL A   1      33.156  33.482  27.899  1.00  0.00    -0.246 OA
BRANCH   6   8
ATOM      8  C   UNL A   1      35.085  33.411  29.219  1.00  0.00     0.060 A 
ATOM      9  C   UNL A   1      36.225  33.956  28.628  1.00  0.00     0.016 A 
ATOM     10  C   UNL A   1      35.265  32.446  30.225  1.00  0.00     0.016 A 
ATOM     11  C   UNL A   1      37.499  33.546  28.981  1.00  0.00     0.010 A 
ATOM     12  C   UNL A   1      36.548  32.045  30.613  1.00  0.00     0.010 A 
ATOM     13  C   UNL A   1      37.667  32.596  29.981  1.00  0.00    -0.014 A 
BRANCH  13  14
ATOM     14  C   UNL A   1      39.038  32.137  30.248  1.00  0.00     0.031 A 
ATOM     15  C   UNL A   1      39.838  32.873  31.274  1.00  0.00     0.074 A 
ATOM     16  C   UNL A   1      39.470  30.994  29.686  1.00  0.00     0.049 A 
ATOM     17  N   UNL A   1      41.068  32.682  31.658  1.00  0.00    -0.248 NA
ATOM     18  C   UNL A   1      39.143  33.966  31.972  1.00  0.00     0.031 C 
ATOM     19  C   UNL A   1      38.677  30.149  28.788  1.00  0.00     0.029 A 
ATOM     20  N   UNL A   1      40.658  30.328  29.806  1.00  0.00    -0.354 N 
ATOM     21  C   UNL A   1      41.309  33.649  32.627  1.00  0.00     0.074 A 
ATOM     22  C   UNL A   1      40.098  34.430  32.762  1.00  0.00     0.031 C 
ATOM     23  C   UNL A   1      39.400  29.070  28.448  1.00  0.00     0.029 A 
ATOM     24  C   UNL A   1      40.729  29.189  29.037  1.00  0.00     0.049 A 
ATOM     25  H   UNL A   1      41.392  30.633  30.386  1.00  0.00     0.167 HD
ATOM     26  C   UNL A   1      42.450  33.862  33.323  1.00  0.00     0.034 A 
ATOM     27  C   UNL A   1      41.772  28.370  28.804  1.00  0.00     0.034 A 
ATOM     28  C   UNL A   1      43.636  33.066  33.125  1.00  0.00     0.049 A 
ATOM     29  C   UNL A   1      43.071  28.697  29.499  1.00  0.00     0.074 A 
ATOM     30  C   UNL A   1      44.888  33.214  33.689  1.00  0.00     0.029 A 
ATOM     31  N   UNL A   1      43.709  31.965  32.274  1.00  0.00    -0.354 N 
ATOM     32  N   UNL A   1      43.327  29.667  30.351  1.00  0.00    -0.248 NA
ATOM     33  C   UNL A   1      44.218  27.838  29.199  1.00  0.00     0.031 C 
ATOM     34  C   UNL A   1      45.733  32.248  33.127  1.00  0.00     0.029 A 
ATOM     35  C   UNL A   1      44.990  31.443  32.274  1.00  0.00     0.049 A 
ATOM     36  H   UNL A   1      42.956  31.609  31.749  1.00  0.00     0.167 HD
ATOM     37  C   UNL A   1      44.665  29.525  30.700  1.00  0.00     0.074 A 
ATOM     38  C   UNL A   1      45.151  28.360  29.982  1.00  0.00     0.031 C 
ATOM     39  C   UNL A   1      45.429  30.282  31.530  1.00  0.00     0.034 A 
BRANCH  26  40
ATOM     40  C   UNL A   1      42.470  35.061  34.241  1.00  0.00     0.023 A 
ATOM     41  C   UNL A   1      42.822  36.345  33.785  1.00  0.00     0.031 A 
ATOM     42  C   UNL A   1      42.261  34.889  35.621  1.00  0.00     0.131 A 
ATOM     43  C   UNL A   1      43.052  37.377  34.709  1.00  0.00     0.055 A 
ATOM     44  C   UNL A   1      42.405  35.943  36.526  1.00  0.00     0.041 A 
ATOM     45  F   UNL A   1      41.957  33.681  36.121  1.00  0.00    -0.206 F 
ATOM     46  C   UNL A   1      42.823  37.191  36.075  1.00  0.00     0.022 A 
BRANCH  43  47
ATOM     47  S   UNL A   1      43.839  38.906  34.126  1.00  0.00     0.124 S 
ATOM     48  O   UNL A   1      44.918  38.383  33.292  1.00  0.00    -0.237 OA
ATOM     49  O   UNL A   1      42.752  39.572  33.419  1.00  0.00    -0.237 OA
ATOM     50  O   UNL A   1      44.275  39.560  35.357  1.00  0.00    -0.744 OA
ENDBRANCH  43  47
ENDBRANCH  26  40
BRANCH  27  51
ATOM     51  C   UNL A   1      41.660  27.250  27.822  1.00  0.00     0.023 A 
ATOM     52  C   UNL A   1      41.628  25.907  28.228  1.00  0.00     0.031 A 
ATOM     53  C   UNL A   1      41.620  27.515  26.438  1.00  0.00     0.131 A 
ATOM     54  C   UNL A   1      41.593  24.883  27.265  1.00  0.00     0.055 A 
ATOM     55  C   UNL A   1      41.527  26.497  25.488  1.00  0.00     0.041 A 
ATOM     56  F   UNL A   1      41.658  28.778  25.985  1.00  0.00    -0.206 F 
ATOM     57  C   UNL A   1      41.525  25.170  25.899  1.00  0.00     0.022 A 
BRANCH  54  58
ATOM     58  S   UNL A   1      41.723  23.159  27.815  1.00  0.00     0.124 S 
ATOM     59  O   UNL A   1      42.632  22.597  26.822  1.00  0.00    -0.237 OA
ATOM     60  O   UNL A   1      42.260  23.310  29.164  1.00  0.00    -0.237 OA
ATOM     61  O   UNL A   1      40.346  22.674  27.745  1.00  0.00    -0.744 OA
ENDBRANCH  54  58
ENDBRANCH  27  51
BRANCH  39  62
ATOM     62  C   UNL A   1      46.855  29.836  31.719  1.00  0.00     0.023 A 
ATOM     63  C   UNL A   1      47.212  28.916  32.718  1.00  0.00     0.031 A 
ATOM     64  C   UNL A   1      47.867  30.340  30.884  1.00  0.00     0.131 A 
ATOM     65  C   UNL A   1      48.558  28.567  32.892  1.00  0.00     0.055 A 
ATOM     66  C   UNL A   1      49.195  29.941  31.021  1.00  0.00     0.041 A 
ATOM     67  F   UNL A   1      47.576  31.223  29.915  1.00  0.00    -0.206 F 
ATOM     68  C   UNL A   1      49.549  29.059  32.037  1.00  0.00     0.022 A 
BRANCH  65  69
ATOM     69  S   UNL A   1      49.010  27.532  34.310  1.00  0.00     0.124 S 
ATOM     70  O   UNL A   1      49.798  26.480  33.677  1.00  0.00    -0.237 OA
ATOM     71  O   UNL A   1      49.750  28.463  35.154  1.00  0.00    -0.237 OA
ATOM     72  O   UNL A   1      47.718  27.102  34.845  1.00  0.00    -0.744 OA
ENDBRANCH  65  69
ENDBRANCH  39  62
ENDBRANCH  13  14
ENDBRANCH   6   8
ENDBRANCH   5   6
ENDBRANCH   4   5
ENDBRANCH   3   4
ENDBRANCH   2   3
ENDBRANCH   1   2
BRANCH   1  73
ATOM     73  C   UNL A   1      34.592  34.042  33.524  1.00  0.00     0.261 C 
BRANCH  73  74
ATOM     74  O   UNL A   1      36.004  33.819  33.679  1.00  0.00    -0.460 OA
BRANCH  74  75
ATOM     75  C   UNL A   1      36.408  33.437  34.922  1.00  0.00     0.340 C 
ATOM     76  O   UNL A   1      35.875  33.740  35.975  1.00  0.00    -0.246 OA
BRANCH  75  77
ATOM     77  C   UNL A   1      37.523  32.451  34.795  1.00  0.00     0.083 A 
ATOM     78  C   UNL A   1      37.331  31.404  33.880  1.00  0.00     0.018 A 
ATOM     79  C   UNL A   1      38.739  32.562  35.512  1.00  0.00     0.055 A 
ATOM     80  C   UNL A   1      38.343  30.475  33.654  1.00  0.00     0.001 A 
ATOM     81  C   UNL A   1      39.744  31.619  35.261  1.00  0.00     0.027 A 
ATOM     82  C   UNL A   1      39.547  30.584  34.342  1.00  0.00     0.002 A 
BRANCH  79  83
ATOM     83  N   UNL A   1      38.888  33.565  36.472  1.00  0.00    -0.323 N 
ATOM     84  H   UNL A   1      39.177  34.420  36.078  1.00  0.00     0.170 HD
BRANCH  83  85
ATOM     85  C   UNL A   1      38.729  33.648  37.839  1.00  0.00     0.233 A 
ATOM     86  N   UNL A   1      39.151  34.678  38.546  1.00  0.00    -0.182 NA
ATOM     87  N   UNL A   1      38.115  32.588  38.345  1.00  0.00    -0.176 NA
ATOM     88  C   UNL A   1      38.853  34.573  39.830  1.00  0.00     0.228 A 
ATOM     89  C   UNL A   1      37.963  32.552  39.654  1.00  0.00     0.233 A 
ATOM     90  Cl  UNL A   1      39.309  35.893  40.818  1.00  0.00    -0.041 Cl
ATOM     91  N   UNL A   1      38.281  33.558  40.454  1.00  0.00    -0.182 NA
BRANCH  89  92
ATOM     92  N   UNL A   1      37.554  31.325  40.159  1.00  0.00    -0.324 N 
ATOM     93  H   UNL A   1      37.453  30.599  39.502  1.00  0.00     0.170 HD
BRANCH  92  94
ATOM     94  C   UNL A   1      37.272  30.997  41.479  1.00  0.00     0.041 A 
ATOM     95  C   UNL A   1      38.143  30.175  42.200  1.00  0.00     0.028 A 
ATOM     96  C   UNL A   1      36.188  31.581  42.137  1.00  0.00     0.028 A 
ATOM     97  C   UNL A   1      37.958  29.984  43.572  1.00  0.00     0.028 A 
ATOM     98  C   UNL A   1      35.967  31.343  43.488  1.00  0.00     0.028 A 
ATOM     99  C   UNL A   1      36.866  30.567  44.223  1.00  0.00     0.044 A 
BRANCH  99 100
ATOM    100  N   UNL A   1      36.714  30.461  45.631  1.00  0.00    -0.308 N 
ATOM    101  C   UNL A   1      35.936  29.314  46.112  1.00  0.00     0.154 C 
ATOM    102  C   UNL A   1      37.573  31.156  46.488  1.00  0.00     0.253 C 
ATOM    103  C   UNL A   1      35.677  29.351  47.610  1.00  0.00     0.183 C 
ATOM    104  C   UNL A   1      37.481  30.776  47.971  1.00  0.00     0.260 C 
ATOM    105  O   UNL A   1      38.311  32.081  46.141  1.00  0.00    -0.272 OA
ATOM    106  O   UNL A   1      36.911  29.519  48.303  1.00  0.00    -0.370 OA
ENDBRANCH  99 100
ENDBRANCH  92  94
ENDBRANCH  89  92
ENDBRANCH  83  85
ENDBRANCH  79  83
ENDBRANCH  75  77
ENDBRANCH  74  75
ENDBRANCH  73  74
ENDBRANCH   1  73
TORSDOF 22
ENDMDL
MODEL 2
REMARK VINA RESULT:      -9.0      7.693     12.591
REMARK SMILES O=C(OCCOCCOC(=O)c1ccccc1Nc1nc(Cl)nc(Nc2ccc(N3CCOCC3=O)cc2)n1)c1ccc(-c2c3nc(c(-c4cc(S(=O)(=O)[O-])ccc4F)c4ccc([nH]4)c(-c4cc(S(=O)(=O)[O-])ccc4F)c4nc(c(-c5cc(S(=O)(=O)[O-])ccc5F)c5ccc2[nH]5)C=C4)C=C3)cc1
REMARK SMILES IDX 7 1 6 2 5 3 4 4 3 5 2 6 1 7 40 8 41 9 102 10 42 11 101 12
REMARK SMILES IDX 43 13 44 14 45 15 95 16 46 17 100 18 94 19 96 20 47 21 99 22
REMARK SMILES IDX 93 23 92 24 48 26 80 27 60 28 79 29 61 30 64 31 78 32 97 33
REMARK SMILES IDX 62 34 63 35 77 37 98 38 65 39 49 40 50 41 58 42 51 43 57 44
REMARK SMILES IDX 59 45 56 46 52 47 53 48 54 49 55 50 81 51 82 52 90 53 83 54
REMARK SMILES IDX 89 55 91 56 88 57 84 58 85 59 86 60 87 61 66 62 67 63 75 64
REMARK SMILES IDX 68 65 74 66 76 67 73 68 69 69 70 70 71 71 72 72 8 73 9 74
REMARK SMILES IDX 10 75 11 76 12 77 13 78 17 79 14 80 16 81 15 82 18 83 19 85
REMARK SMILES IDX 20 86 39 87 21 88 24 89 22 90 23 91 25 92 26 94 27 95 38 96
REMARK SMILES IDX 28 97 37 98 29 99 30 100 31 101 35 102 32 103 34 104 36 105
REMARK SMILES IDX 33 106
REMARK H PARENT 96 25 64 36 18 84 25 93
REMARK Flexibility Score: inf
ROOT
ATOM      1  C   UNL A   1      45.873  21.110  35.506  1.00  0.00     0.202 C 
ENDROOT
BRANCH   1   2
ATOM      2  O   UNL A   1      46.501  22.167  36.237  1.00  0.00    -0.374 OA
BRANCH   2   3
ATOM      3  C   UNL A   1      46.036  22.392  37.566  1.00  0.00     0.202 C 
BRANCH   3   4
ATOM      4  C   UNL A   1      46.411  23.760  38.136  1.00  0.00     0.261 C 
BRANCH   4   5
ATOM      5  O   UNL A   1      47.057  24.553  37.125  1.00  0.00    -0.460 OA
BRANCH   5   6
ATOM      6  C   UNL A   1      46.885  25.867  36.854  1.00  0.00     0.338 C 
ATOM      7  O   UNL A   1      47.668  26.673  37.354  1.00  0.00    -0.246 OA
BRANCH   6   8
ATOM      8  C   UNL A   1      45.783  26.402  35.997  1.00  0.00     0.060 A 
ATOM      9  C   UNL A   1      44.473  25.924  35.993  1.00  0.00     0.016 A 
ATOM     10  C   UNL A   1      46.069  27.538  35.220  1.00  0.00     0.016 A 
ATOM     11  C   UNL A   1      43.481  26.512  35.227  1.00  0.00     0.010 A 
ATOM     12  C   UNL A   1      45.069  28.161  34.466  1.00  0.00     0.010 A 
ATOM     13  C   UNL A   1      43.772  27.638  34.468  1.00  0.00    -0.014 A 
BRANCH  13  14
ATOM     14  C   UNL A   1      42.701  28.164  33.608  1.00  0.00     0.031 A 
ATOM     15  C   UNL A   1      41.799  29.213  34.172  1.00  0.00     0.074 A 
ATOM     16  C   UNL A   1      42.661  27.804  32.313  1.00  0.00     0.049 A 
ATOM     17  N   UNL A   1      40.771  29.802  33.628  1.00  0.00    -0.248 NA
ATOM     18  C   UNL A   1      42.113  29.671  35.535  1.00  0.00     0.031 C 
ATOM     19  C   UNL A   1      43.611  26.893  31.667  1.00  0.00     0.029 A 
ATOM     20  N   UNL A   1      41.820  28.179  31.303  1.00  0.00    -0.354 N 
ATOM     21  C   UNL A   1      40.296  30.684  34.591  1.00  0.00     0.074 A 
ATOM     22  C   UNL A   1      41.143  30.543  35.756  1.00  0.00     0.031 C 
ATOM     23  C   UNL A   1      43.303  26.790  30.364  1.00  0.00     0.029 A 
ATOM     24  C   UNL A   1      42.092  27.560  30.104  1.00  0.00     0.049 A 
ATOM     25  H   UNL A   1      41.090  28.828  31.421  1.00  0.00     0.167 HD
ATOM     26  C   UNL A   1      39.235  31.521  34.500  1.00  0.00     0.034 A 
ATOM     27  C   UNL A   1      41.404  27.584  28.947  1.00  0.00     0.034 A 
ATOM     28  C   UNL A   1      38.410  31.597  33.320  1.00  0.00     0.049 A 
ATOM     29  C   UNL A   1      40.156  28.431  28.907  1.00  0.00     0.074 A 
ATOM     30  C   UNL A   1      37.257  32.328  33.110  1.00  0.00     0.029 A 
ATOM     31  N   UNL A   1      38.658  30.894  32.143  1.00  0.00    -0.354 N 
ATOM     32  N   UNL A   1      39.652  29.201  29.848  1.00  0.00    -0.248 NA
ATOM     33  C   UNL A   1      39.379  28.409  27.665  1.00  0.00     0.031 C 
ATOM     34  C   UNL A   1      36.772  32.014  31.834  1.00  0.00     0.029 A 
ATOM     35  C   UNL A   1      37.665  31.150  31.214  1.00  0.00     0.049 A 
ATOM     36  H   UNL A   1      39.429  30.301  31.993  1.00  0.00     0.167 HD
ATOM     37  C   UNL A   1      38.505  29.766  29.306  1.00  0.00     0.074 A 
ATOM     38  C   UNL A   1      38.407  29.264  27.946  1.00  0.00     0.031 C 
ATOM     39  C   UNL A   1      37.607  30.615  29.871  1.00  0.00     0.034 A 
BRANCH  26  40
ATOM     40  C   UNL A   1      38.873  32.293  35.747  1.00  0.00     0.023 A 
ATOM     41  C   UNL A   1      39.312  33.612  35.962  1.00  0.00     0.031 A 
ATOM     42  C   UNL A   1      38.185  31.650  36.792  1.00  0.00     0.131 A 
ATOM     43  C   UNL A   1      39.149  34.205  37.225  1.00  0.00     0.055 A 
ATOM     44  C   UNL A   1      37.948  32.280  38.016  1.00  0.00     0.041 A 
ATOM     45  F   UNL A   1      37.771  30.380  36.659  1.00  0.00    -0.206 F 
ATOM     46  C   UNL A   1      38.449  33.557  38.245  1.00  0.00     0.022 A 
BRANCH  43  47
ATOM     47  S   UNL A   1      40.030  35.754  37.576  1.00  0.00     0.124 S 
ATOM     48  O   UNL A   1      39.552  36.616  36.499  1.00  0.00    -0.237 OA
ATOM     49  O   UNL A   1      39.562  36.088  38.916  1.00  0.00    -0.237 OA
ATOM     50  O   UNL A   1      41.439  35.377  37.483  1.00  0.00    -0.744 OA
ENDBRANCH  43  47
ENDBRANCH  26  40
BRANCH  27  51
ATOM     51  C   UNL A   1      41.815  26.726  27.796  1.00  0.00     0.023 A 
ATOM     52  C   UNL A   1      41.680  25.329  27.825  1.00  0.00     0.031 A 
ATOM     53  C   UNL A   1      42.392  27.301  26.645  1.00  0.00     0.131 A 
ATOM     54  C   UNL A   1      42.144  24.556  26.747  1.00  0.00     0.055 A 
ATOM     55  C   UNL A   1      42.798  26.533  25.553  1.00  0.00     0.041 A 
ATOM     56  F   UNL A   1      42.558  28.631  26.559  1.00  0.00    -0.206 F 
ATOM     57  C   UNL A   1      42.687  25.150  25.605  1.00  0.00     0.022 A 
BRANCH  54  58
ATOM     58  S   UNL A   1      42.110  22.747  26.888  1.00  0.00     0.124 S 
ATOM     59  O   UNL A   1      41.823  22.564  28.307  1.00  0.00    -0.237 OA
ATOM     60  O   UNL A   1      41.036  22.390  25.966  1.00  0.00    -0.237 OA
ATOM     61  O   UNL A   1      43.451  22.346  26.466  1.00  0.00    -0.744 OA
ENDBRANCH  54  58
ENDBRANCH  27  51
BRANCH  39  62
ATOM     62  C   UNL A   1      36.472  31.071  28.992  1.00  0.00     0.023 A 
ATOM     63  C   UNL A   1      35.508  30.170  28.509  1.00  0.00     0.031 A 
ATOM     64  C   UNL A   1      36.356  32.426  28.638  1.00  0.00     0.131 A 
ATOM     65  C   UNL A   1      34.498  30.629  27.652  1.00  0.00     0.055 A 
ATOM     66  C   UNL A   1      35.312  32.886  27.838  1.00  0.00     0.041 A 
ATOM     67  F   UNL A   1      37.253  33.325  29.075  1.00  0.00    -0.206 F 
ATOM     68  C   UNL A   1      34.382  31.984  27.330  1.00  0.00     0.022 A 
BRANCH  65  69
ATOM     69  S   UNL A   1      33.388  29.414  26.891  1.00  0.00     0.124 S 
ATOM     70  O   UNL A   1      32.180  29.565  27.693  1.00  0.00    -0.237 OA
ATOM     71  O   UNL A   1      33.303  29.887  25.514  1.00  0.00    -0.237 OA
ATOM     72  O   UNL A   1      34.096  28.146  27.068  1.00  0.00    -0.744 OA
ENDBRANCH  65  69
ENDBRANCH  39  62
ENDBRANCH  13  14
ENDBRANCH   6   8
ENDBRANCH   5   6
ENDBRANCH   4   5
ENDBRANCH   3   4
ENDBRANCH   2   3
ENDBRANCH   1   2
BRANCH   1  73
ATOM     73  C   UNL A   1      46.842  20.649  34.412  1.00  0.00     0.261 C 
BRANCH  73  74
ATOM     74  O   UNL A   1      48.121  20.416  35.027  1.00  0.00    -0.460 OA
BRANCH  74  75
ATOM     75  C   UNL A   1      49.147  21.179  34.559  1.00  0.00     0.340 C 
ATOM     76  O   UNL A   1      49.063  22.326  34.156  1.00  0.00    -0.246 OA
BRANCH  75  77
ATOM     77  C   UNL A   1      50.434  20.449  34.762  1.00  0.00     0.083 A 
ATOM     78  C   UNL A   1      51.345  20.478  33.695  1.00  0.00     0.018 A 
ATOM     79  C   UNL A   1      50.767  19.790  35.971  1.00  0.00     0.055 A 
ATOM     80  C   UNL A   1      52.593  19.876  33.821  1.00  0.00     0.001 A 
ATOM     81  C   UNL A   1      52.032  19.198  36.075  1.00  0.00     0.027 A 
ATOM     82  C   UNL A   1      52.936  19.239  35.009  1.00  0.00     0.002 A 
BRANCH  79  83
ATOM     83  N   UNL A   1      49.823  19.706  36.998  1.00  0.00    -0.323 N 
ATOM     84  H   UNL A   1      49.204  18.950  36.875  1.00  0.00     0.170 HD
BRANCH  83  85
ATOM     85  C   UNL A   1      49.551  20.425  38.141  1.00  0.00     0.233 A 
ATOM     86  N   UNL A   1      49.859  21.701  38.273  1.00  0.00    -0.182 NA
ATOM     87  N   UNL A   1      48.956  19.694  39.073  1.00  0.00    -0.176 NA
ATOM     88  C   UNL A   1      49.465  22.205  39.430  1.00  0.00     0.228 A 
ATOM     89  C   UNL A   1      48.703  20.283  40.225  1.00  0.00     0.233 A 
ATOM     90  Cl  UNL A   1      49.769  23.871  39.666  1.00  0.00    -0.041 Cl
ATOM     91  N   UNL A   1      48.901  21.573  40.445  1.00  0.00    -0.182 NA
BRANCH  89  92
ATOM     92  N   UNL A   1      48.321  19.423  41.247  1.00  0.00    -0.324 N 
ATOM     93  H   UNL A   1      48.873  19.448  42.062  1.00  0.00     0.170 HD
BRANCH  92  94
ATOM     94  C   UNL A   1      47.255  18.533  41.259  1.00  0.00     0.041 A 
ATOM     95  C   UNL A   1      47.453  17.205  41.648  1.00  0.00     0.028 A 
ATOM     96  C   UNL A   1      45.958  18.980  41.005  1.00  0.00     0.028 A 
ATOM     97  C   UNL A   1      46.361  16.353  41.829  1.00  0.00     0.028 A 
ATOM     98  C   UNL A   1      44.874  18.118  41.126  1.00  0.00     0.028 A 
ATOM     99  C   UNL A   1      45.064  16.807  41.567  1.00  0.00     0.044 A 
BRANCH  99 100
ATOM    100  N   UNL A   1      43.935  15.987  41.835  1.00  0.00    -0.308 N 
ATOM    101  C   UNL A   1      43.603  15.790  43.251  1.00  0.00     0.154 C 
ATOM    102  C   UNL A   1      42.993  15.733  40.834  1.00  0.00     0.253 C 
ATOM    103  C   UNL A   1      42.489  14.777  43.470  1.00  0.00     0.183 C 
ATOM    104  C   UNL A   1      41.700  15.051  41.298  1.00  0.00     0.260 C 
ATOM    105  O   UNL A   1      43.174  15.942  39.633  1.00  0.00    -0.272 OA
ATOM    106  O   UNL A   1      41.361  15.130  42.674  1.00  0.00    -0.370 OA
ENDBRANCH  99 100
ENDBRANCH  92  94
ENDBRANCH  89  92
ENDBRANCH  83  85
ENDBRANCH  79  83
ENDBRANCH  75  77
ENDBRANCH  74  75
ENDBRANCH  73  74
ENDBRANCH   1  73
TORSDOF 22
ENDMDL
MODEL 3
REMARK VINA RESULT:      -9.0      5.059     13.352
REMARK SMILES O=C(OCCOCCOC(=O)c1ccccc1Nc1nc(Cl)nc(Nc2ccc(N3CCOCC3=O)cc2)n1)c1ccc(-c2c3nc(c(-c4cc(S(=O)(=O)[O-])ccc4F)c4ccc([nH]4)c(-c4cc(S(=O)(=O)[O-])ccc4F)c4nc(c(-c5cc(S(=O)(=O)[O-])ccc5F)c5ccc2[nH]5)C=C4)C=C3)cc1
REMARK SMILES IDX 7 1 6 2 5 3 4 4 3 5 2 6 1 7 40 8 41 9 102 10 42 11 101 12
REMARK SMILES IDX 43 13 44 14 45 15 95 16 46 17 100 18 94 19 96 20 47 21 99 22
REMARK SMILES IDX 93 23 92 24 48 26 80 27 60 28 79 29 61 30 64 31 78 32 97 33
REMARK SMILES IDX 62 34 63 35 77 37 98 38 65 39 49 40 50 41 58 42 51 43 57 44
REMARK SMILES IDX 59 45 56 46 52 47 53 48 54 49 55 50 81 51 82 52 90 53 83 54
REMARK SMILES IDX 89 55 91 56 88 57 84 58 85 59 86 60 87 61 66 62 67 63 75 64
REMARK SMILES IDX 68 65 74 66 76 67 73 68 69 69 70 70 71 71 72 72 8 73 9 74
REMARK SMILES IDX 10 75 11 76 12 77 13 78 17 79 14 80 16 81 15 82 18 83 19 85
REMARK SMILES IDX 20 86 39 87 21 88 24 89 22 90 23 91 25 92 26 94 27 95 38 96
REMARK SMILES IDX 28 97 37 98 29 99 30 100 31 101 35 102 32 103 34 104 36 105
REMARK SMILES IDX 33 106
REMARK H PARENT 96 25 64 36 18 84 25 93
REMARK Flexibility Score: inf
ROOT
ATOM      1  C   UNL A   1      47.720  29.584  28.128  1.00  0.00     0.202 C 
ENDROOT
BRANCH   1   2
ATOM      2  O   UNL A   1      47.221  30.871  28.503  1.00  0.00    -0.374 OA
BRANCH   2   3
ATOM      3  C   UNL A   1      47.378  31.922  27.553  1.00  0.00     0.202 C 
BRANCH   3   4
ATOM      4  C   UNL A   1      46.352  31.898  26.420  1.00  0.00     0.261 C 
BRANCH   4   5
ATOM      5  O   UNL A   1      45.881  33.230  26.157  1.00  0.00    -0.460 OA
BRANCH   5   6
ATOM      6  C   UNL A   1      44.652  33.746  26.388  1.00  0.00     0.338 C 
ATOM      7  O   UNL A   1      44.079  34.325  25.466  1.00  0.00    -0.246 OA
BRANCH   6   8
ATOM      8  C   UNL A   1      43.953  33.671  27.707  1.00  0.00     0.060 A 
ATOM      9  C   UNL A   1      43.627  32.487  28.369  1.00  0.00     0.016 A 
ATOM     10  C   UNL A   1      43.706  34.884  28.373  1.00  0.00     0.016 A 
ATOM     11  C   UNL A   1      43.045  32.487  29.625  1.00  0.00     0.010 A 
ATOM     12  C   UNL A   1      43.146  34.897  29.655  1.00  0.00     0.010 A 
ATOM     13  C   UNL A   1      42.810  33.690  30.277  1.00  0.00    -0.014 A 
BRANCH  13  14
ATOM     14  C   UNL A   1      42.109  33.629  31.568  1.00  0.00     0.031 A 
ATOM     15  C   UNL A   1      42.929  33.450  32.805  1.00  0.00     0.074 A 
ATOM     16  C   UNL A   1      40.790  33.887  31.613  1.00  0.00     0.049 A 
ATOM     17  N   UNL A   1      42.544  33.334  34.045  1.00  0.00    -0.248 NA
ATOM     18  C   UNL A   1      44.387  33.412  32.614  1.00  0.00     0.031 C 
ATOM     19  C   UNL A   1      39.960  34.217  30.449  1.00  0.00     0.029 A 
ATOM     20  N   UNL A   1      39.922  33.947  32.667  1.00  0.00    -0.354 N 
ATOM     21  C   UNL A   1      43.711  33.182  34.783  1.00  0.00     0.074 A 
ATOM     22  C   UNL A   1      44.815  33.212  33.849  1.00  0.00     0.031 C 
ATOM     23  C   UNL A   1      38.705  34.455  30.860  1.00  0.00     0.029 A 
ATOM     24  C   UNL A   1      38.625  34.217  32.296  1.00  0.00     0.049 A 
ATOM     25  H   UNL A   1      40.198  33.811  33.602  1.00  0.00     0.167 HD
ATOM     26  C   UNL A   1      43.831  33.021  36.122  1.00  0.00     0.034 A 
ATOM     27  C   UNL A   1      37.500  34.220  33.036  1.00  0.00     0.034 A 
ATOM     28  C   UNL A   1      42.689  32.973  37.001  1.00  0.00     0.049 A 
ATOM     29  C   UNL A   1      37.645  33.917  34.507  1.00  0.00     0.074 A 
ATOM     30  C   UNL A   1      42.646  32.729  38.360  1.00  0.00     0.029 A 
ATOM     31  N   UNL A   1      41.372  33.165  36.587  1.00  0.00    -0.354 N 
ATOM     32  N   UNL A   1      38.742  33.686  35.196  1.00  0.00    -0.248 NA
ATOM     33  C   UNL A   1      36.413  33.864  35.298  1.00  0.00     0.031 C 
ATOM     34  C   UNL A   1      41.301  32.706  38.752  1.00  0.00     0.029 A 
ATOM     35  C   UNL A   1      40.507  33.016  37.657  1.00  0.00     0.049 A 
ATOM     36  H   UNL A   1      41.097  33.378  35.666  1.00  0.00     0.167 HD
ATOM     37  C   UNL A   1      38.332  33.472  36.507  1.00  0.00     0.074 A 
ATOM     38  C   UNL A   1      36.888  33.628  36.512  1.00  0.00     0.031 C 
ATOM     39  C   UNL A   1      39.069  33.171  37.608  1.00  0.00     0.034 A 
BRANCH  26  40
ATOM     40  C   UNL A   1      45.223  32.766  36.651  1.00  0.00     0.023 A 
ATOM     41  C   UNL A   1      45.747  31.467  36.779  1.00  0.00     0.031 A 
ATOM     42  C   UNL A   1      45.985  33.835  37.156  1.00  0.00     0.131 A 
ATOM     43  C   UNL A   1      46.944  31.263  37.486  1.00  0.00     0.055 A 
ATOM     44  C   UNL A   1      47.218  33.632  37.780  1.00  0.00     0.041 A 
ATOM     45  F   UNL A   1      45.523  35.094  37.094  1.00  0.00    -0.206 F 
ATOM     46  C   UNL A   1      47.695  32.338  37.966  1.00  0.00     0.022 A 
BRANCH  43  47
ATOM     47  S   UNL A   1      47.406  29.565  37.937  1.00  0.00     0.124 S 
ATOM     48  O   UNL A   1      46.536  29.317  39.084  1.00  0.00    -0.237 OA
ATOM     49  O   UNL A   1      47.093  28.819  36.724  1.00  0.00    -0.237 OA
ATOM     50  O   UNL A   1      48.829  29.669  38.256  1.00  0.00    -0.744 OA
ENDBRANCH  43  47
ENDBRANCH  26  40
BRANCH  27  51
ATOM     51  C   UNL A   1      36.165  34.416  32.397  1.00  0.00     0.023 A 
ATOM     52  C   UNL A   1      35.461  35.626  32.502  1.00  0.00     0.031 A 
ATOM     53  C   UNL A   1      35.549  33.363  31.689  1.00  0.00     0.131 A 
ATOM     54  C   UNL A   1      34.177  35.742  31.942  1.00  0.00     0.055 A 
ATOM     55  C   UNL A   1      34.299  33.503  31.086  1.00  0.00     0.041 A 
ATOM     56  F   UNL A   1      36.166  32.177  31.561  1.00  0.00    -0.206 F 
ATOM     57  C   UNL A   1      33.599  34.694  31.221  1.00  0.00     0.022 A 
BRANCH  54  58
ATOM     58  S   UNL A   1      33.226  37.259  32.241  1.00  0.00     0.124 S 
ATOM     59  O   UNL A   1      32.095  36.754  33.013  1.00  0.00    -0.237 OA
ATOM     60  O   UNL A   1      34.186  38.080  32.972  1.00  0.00    -0.237 OA
ATOM     61  O   UNL A   1      32.902  37.729  30.896  1.00  0.00    -0.744 OA
ENDBRANCH  54  58
ENDBRANCH  27  51
BRANCH  39  62
ATOM     62  C   UNL A   1      38.313  33.031  38.903  1.00  0.00     0.023 A 
ATOM     63  C   UNL A   1      38.423  33.987  39.926  1.00  0.00     0.031 A 
ATOM     64  C   UNL A   1      37.469  31.926  39.109  1.00  0.00     0.131 A 
ATOM     65  C   UNL A   1      37.741  33.790  41.135  1.00  0.00     0.055 A 
ATOM     66  C   UNL A   1      36.743  31.770  40.288  1.00  0.00     0.041 A 
ATOM     67  F   UNL A   1      37.332  30.986  38.160  1.00  0.00    -0.206 F 
ATOM     68  C   UNL A   1      36.886  32.698  41.315  1.00  0.00     0.022 A 
BRANCH  65  69
ATOM     69  S   UNL A   1      38.055  34.936  42.504  1.00  0.00     0.124 S 
ATOM     70  O   UNL A   1      38.483  36.139  41.799  1.00  0.00    -0.237 OA
ATOM     71  O   UNL A   1      36.753  35.008  43.157  1.00  0.00    -0.237 OA
ATOM     72  O   UNL A   1      39.100  34.265  43.278  1.00  0.00    -0.744 OA
ENDBRANCH  65  69
ENDBRANCH  39  62
ENDBRANCH  13  14
ENDBRANCH   6   8
ENDBRANCH   5   6
ENDBRANCH   4   5
ENDBRANCH   3   4
ENDBRANCH   2   3
ENDBRANCH   1   2
BRANCH   1  73
ATOM     73  C   UNL A   1      46.653  28.541  28.476  1.00  0.00     0.261 C 
BRANCH  73  74
ATOM     74  O   UNL A   1      45.760  28.435  27.354  1.00  0.00    -0.460 OA
BRANCH  74  75
ATOM     75  C   UNL A   1      44.950  27.341  27.347  1.00  0.00     0.340 C 
ATOM     76  O   UNL A   1      45.274  26.204  27.645  1.00  0.00    -0.246 OA
BRANCH  75  77
ATOM     77  C   UNL A   1      43.547  27.770  27.068  1.00  0.00     0.083 A 
ATOM     78  C   UNL A   1      43.037  28.805  27.867  1.00  0.00     0.018 A 
ATOM     79  C   UNL A   1      42.759  27.214  26.030  1.00  0.00     0.055 A 
ATOM     80  C   UNL A   1      41.760  29.308  27.635  1.00  0.00     0.001 A 
ATOM     81  C   UNL A   1      41.481  27.743  25.812  1.00  0.00     0.027 A 
ATOM     82  C   UNL A   1      40.985  28.779  26.609  1.00  0.00     0.002 A 
BRANCH  79  83
ATOM     83  N   UNL A   1      43.250  26.135  25.289  1.00  0.00    -0.323 N 
ATOM     84  H   UNL A   1      43.799  26.426  24.525  1.00  0.00     0.170 HD
BRANCH  83  85
ATOM     85  C   UNL A   1      43.153  24.763  25.371  1.00  0.00     0.233 A 
ATOM     86  N   UNL A   1      43.970  23.949  24.730  1.00  0.00    -0.182 NA
ATOM     87  N   UNL A   1      42.158  24.369  26.153  1.00  0.00    -0.176 NA
ATOM     88  C   UNL A   1      43.728  22.675  24.987  1.00  0.00     0.228 A 
ATOM     89  C   UNL A   1      41.953  23.070  26.251  1.00  0.00     0.233 A 
ATOM     90  Cl  UNL A   1      44.778  21.547  24.246  1.00  0.00    -0.041 Cl
ATOM     91  N   UNL A   1      42.751  22.162  25.715  1.00  0.00    -0.182 NA
BRANCH  89  92
ATOM     92  N   UNL A   1      40.758  22.715  26.865  1.00  0.00    -0.324 N 
ATOM     93  H   UNL A   1      40.822  22.430  27.805  1.00  0.00     0.170 HD
BRANCH  92  94
ATOM     94  C   UNL A   1      39.484  22.714  26.313  1.00  0.00     0.041 A 
ATOM     95  C   UNL A   1      38.960  21.543  25.757  1.00  0.00     0.028 A 
ATOM     96  C   UNL A   1      38.666  23.840  26.416  1.00  0.00     0.028 A 
ATOM     97  C   UNL A   1      37.622  21.488  25.360  1.00  0.00     0.028 A 
ATOM     98  C   UNL A   1      37.352  23.807  25.967  1.00  0.00     0.028 A 
ATOM     99  C   UNL A   1      36.811  22.623  25.461  1.00  0.00     0.044 A 
BRANCH  99 100
ATOM    100  N   UNL A   1      35.426  22.561  25.151  1.00  0.00    -0.308 N 
ATOM    101  C   UNL A   1      34.512  22.472  26.296  1.00  0.00     0.154 C 
ATOM    102  C   UNL A   1      34.965  22.963  23.894  1.00  0.00     0.253 C 
ATOM    103  C   UNL A   1      33.063  22.247  25.890  1.00  0.00     0.183 C 
ATOM    104  C   UNL A   1      33.443  23.092  23.755  1.00  0.00     0.260 C 
ATOM    105  O   UNL A   1      35.683  23.130  22.906  1.00  0.00    -0.272 OA
ATOM    106  O   UNL A   1      32.676  23.236  24.941  1.00  0.00    -0.370 OA
ENDBRANCH  99 100
ENDBRANCH  92  94
ENDBRANCH  89  92
ENDBRANCH  83  85
ENDBRANCH  79  83
ENDBRANCH  75  77
ENDBRANCH  74  75
ENDBRANCH  73  74
ENDBRANCH   1  73
TORSDOF 22
ENDMDL
