MODEL 1
REMARK VINA RESULT:     -12.2      0.000      0.000
REMARK SMILES Cc1cccc2c1[C@H]1c3c(C)cccc3[C@H](CC(=O)OCCOCCOC(=O)c3ccc(-c4c5nc(c(-c6cc(S(=O)(=O)[O-])ccc6F)c6ccc([nH]6)c(-c6cc(S(=O)(=O)[O-])ccc6F)c6nc(c(-c7cc(S(=O)(=O)[O-])ccc7F)c7ccc4[nH]7)C=C6)C=C5)cc3)C[C@H]1CC2
REMARK SMILES IDX 24 1 23 2 22 3 21 4 20 5 18 6 19 7 17 8 16 9 1 10 2 11 3 12
REMARK SMILES IDX 7 13 4 14 6 15 8 16 5 17 95 18 9 19 93 20 94 21 10 22 15 23
REMARK SMILES IDX 92 24 12 25 11 26 14 27 13 28 25 29 26 30 27 31 28 32 29 33
REMARK SMILES IDX 30 34 91 35 31 36 90 37 32 38 33 39 34 40 84 41 35 42 89 43
REMARK SMILES IDX 83 44 85 45 36 46 88 47 82 48 81 49 37 51 69 52 49 53 68 54
REMARK SMILES IDX 50 55 53 56 67 57 86 58 51 59 52 60 66 62 87 63 54 64 38 65
REMARK SMILES IDX 39 66 47 67 40 68 46 69 48 70 45 71 41 72 42 73 43 74 44 75
REMARK SMILES IDX 70 76 71 77 79 78 72 79 78 80 80 81 77 82 73 83 74 84 75 85
REMARK SMILES IDX 76 86 55 87 56 88 64 89 57 90 63 91 65 92 62 93 58 94 59 95
REMARK SMILES IDX 60 96 61 97
REMARK H PARENT 85 50 53 61
REMARK Flexibility Score: inf
ROOT
ATOM      1  C   UNL A   1      31.791  29.778  25.277  1.00  0.00     0.202 C 
ENDROOT
BRANCH   1   2
ATOM      2  O   UNL A   1      33.036  29.277  24.829  1.00  0.00    -0.374 OA
BRANCH   2   3
ATOM      3  C   UNL A   1      33.194  27.863  24.797  1.00  0.00     0.202 C 
BRANCH   3   4
ATOM      4  C   UNL A   1      33.098  27.042  26.103  1.00  0.00     0.261 C 
BRANCH   4   5
ATOM      5  O   UNL A   1      31.792  26.803  26.700  1.00  0.00    -0.463 OA
BRANCH   5   6
ATOM      6  C   UNL A   1      30.912  26.113  25.920  1.00  0.00     0.306 C 
ATOM      7  O   UNL A   1      30.244  26.628  25.025  1.00  0.00    -0.252 OA
BRANCH   6   8
ATOM      8  C   UNL A   1      30.649  24.681  26.361  1.00  0.00     0.131 C 
BRANCH   8   9
ATOM      9  C   UNL A   1      31.518  23.441  26.012  1.00  0.00     0.031 C 
ATOM     10  C   UNL A   1      37.442  23.666  26.430  1.00  0.00     0.044 C 
ATOM     11  C   UNL A   1      37.029  22.381  25.774  1.00  0.00    -0.047 A 
ATOM     12  C   UNL A   1      38.062  21.607  25.217  1.00  0.00     0.004 A 
ATOM     13  C   UNL A   1      35.695  21.926  25.679  1.00  0.00    -0.034 A 
ATOM     14  C   UNL A   1      37.799  20.358  24.671  1.00  0.00     0.001 A 
ATOM     15  C   UNL A   1      35.476  20.578  25.337  1.00  0.00    -0.044 A 
ATOM     16  C   UNL A   1      34.468  22.829  25.855  1.00  0.00     0.053 C 
ATOM     17  C   UNL A   1      36.522  19.821  24.784  1.00  0.00     0.004 A 
ATOM     18  C   UNL A   1      34.177  19.887  25.662  1.00  0.00     0.036 C 
ATOM     19  C   UNL A   1      33.651  23.131  24.569  1.00  0.00    -0.034 A 
ATOM     20  C   UNL A   1      33.547  22.102  26.857  1.00  0.00     0.002 C 
ATOM     21  C   UNL A   1      33.068  20.744  26.288  1.00  0.00     0.009 C 
ATOM     22  C   UNL A   1      34.234  23.173  23.275  1.00  0.00    -0.047 A 
ATOM     23  C   UNL A   1      32.238  23.344  24.676  1.00  0.00    -0.040 A 
ATOM     24  C   UNL A   1      32.402  23.056  27.218  1.00  0.00     0.013 C 
ATOM     25  C   UNL A   1      33.407  23.102  22.138  1.00  0.00     0.004 A 
ATOM     26  C   UNL A   1      35.700  23.398  23.022  1.00  0.00     0.044 C 
ATOM     27  C   UNL A   1      31.444  23.309  23.512  1.00  0.00     0.004 A 
ATOM     28  C   UNL A   1      32.023  23.141  22.257  1.00  0.00     0.001 A 
ENDBRANCH   8   9
ENDBRANCH   6   8
ENDBRANCH   5   6
ENDBRANCH   4   5
ENDBRANCH   3   4
ENDBRANCH   2   3
ENDBRANCH   1   2
BRANCH   1  29
ATOM     29  C   UNL A   1      31.785  30.978  26.220  1.00  0.00     0.261 C 
BRANCH  29  30
ATOM     30  O   UNL A   1      32.714  30.923  27.288  1.00  0.00    -0.460 OA
BRANCH  30  31
ATOM     31  C   UNL A   1      33.350  32.066  27.576  1.00  0.00     0.338 C 
ATOM     32  O   UNL A   1      32.940  33.212  27.534  1.00  0.00    -0.246 OA
BRANCH  31  33
ATOM     33  C   UNL A   1      34.713  31.668  27.914  1.00  0.00     0.060 A 
ATOM     34  C   UNL A   1      35.014  30.319  28.084  1.00  0.00     0.016 A 
ATOM     35  C   UNL A   1      35.681  32.661  28.049  1.00  0.00     0.016 A 
ATOM     36  C   UNL A   1      36.297  29.969  28.475  1.00  0.00     0.010 A 
ATOM     37  C   UNL A   1      36.966  32.315  28.444  1.00  0.00     0.010 A 
ATOM     38  C   UNL A   1      37.252  30.971  28.707  1.00  0.00    -0.014 A 
BRANCH  38  39
ATOM     39  C   UNL A   1      38.489  30.591  29.405  1.00  0.00     0.031 A 
ATOM     40  C   UNL A   1      38.665  31.048  30.820  1.00  0.00     0.074 A 
ATOM     41  C   UNL A   1      39.363  29.768  28.805  1.00  0.00     0.049 A 
ATOM     42  N   UNL A   1      39.547  30.665  31.700  1.00  0.00    -0.248 NA
ATOM     43  C   UNL A   1      37.717  32.061  31.318  1.00  0.00     0.031 C 
ATOM     44  C   UNL A   1      39.252  29.296  27.426  1.00  0.00     0.029 A 
ATOM     45  N   UNL A   1      40.492  29.165  29.286  1.00  0.00    -0.354 N 
ATOM     46  C   UNL A   1      39.244  31.364  32.860  1.00  0.00     0.074 A 
ATOM     47  C   UNL A   1      38.136  32.239  32.562  1.00  0.00     0.031 C 
ATOM     48  C   UNL A   1      40.269  28.455  27.175  1.00  0.00     0.029 A 
ATOM     49  C   UNL A   1      41.097  28.335  28.374  1.00  0.00     0.049 A 
ATOM     50  H   UNL A   1      40.838  29.312  30.196  1.00  0.00     0.167 HD
ATOM     51  C   UNL A   1      39.830  31.254  34.073  1.00  0.00     0.034 A 
ATOM     52  C   UNL A   1      42.184  27.551  28.507  1.00  0.00     0.034 A 
ATOM     53  C   UNL A   1      40.941  30.379  34.327  1.00  0.00     0.049 A 
ATOM     54  C   UNL A   1      42.831  27.455  29.864  1.00  0.00     0.074 A 
ATOM     55  C   UNL A   1      41.614  30.173  35.517  1.00  0.00     0.029 A 
ATOM     56  N   UNL A   1      41.544  29.567  33.375  1.00  0.00    -0.354 N 
ATOM     57  N   UNL A   1      42.496  28.066  30.978  1.00  0.00    -0.248 NA
ATOM     58  C   UNL A   1      43.974  26.546  30.001  1.00  0.00     0.031 C 
ATOM     59  C   UNL A   1      42.661  29.284  35.269  1.00  0.00     0.029 A 
ATOM     60  C   UNL A   1      42.591  28.871  33.946  1.00  0.00     0.049 A 
ATOM     61  H   UNL A   1      41.265  29.499  32.432  1.00  0.00     0.167 HD
ATOM     62  C   UNL A   1      43.360  27.586  31.955  1.00  0.00     0.074 A 
ATOM     63  C   UNL A   1      44.229  26.629  31.301  1.00  0.00     0.031 C 
ATOM     64  C   UNL A   1      43.424  27.902  33.274  1.00  0.00     0.034 A 
BRANCH  51  65
ATOM     65  C   UNL A   1      39.296  32.080  35.212  1.00  0.00     0.023 A 
ATOM     66  C   UNL A   1      39.774  33.386  35.412  1.00  0.00     0.031 A 
ATOM     67  C   UNL A   1      38.412  31.539  36.162  1.00  0.00     0.131 A 
ATOM     68  C   UNL A   1      39.401  34.094  36.559  1.00  0.00     0.055 A 
ATOM     69  C   UNL A   1      38.010  32.264  37.284  1.00  0.00     0.041 A 
ATOM     70  F   UNL A   1      37.918  30.299  36.007  1.00  0.00    -0.206 F 
ATOM     71  C   UNL A   1      38.517  33.543  37.493  1.00  0.00     0.022 A 
BRANCH  68  72
ATOM     72  S   UNL A   1      40.083  35.737  36.901  1.00  0.00     0.124 S 
ATOM     73  O   UNL A   1      39.682  36.486  35.711  1.00  0.00    -0.237 OA
ATOM     74  O   UNL A   1      39.390  36.104  38.132  1.00  0.00    -0.237 OA
ATOM     75  O   UNL A   1      41.518  35.502  37.027  1.00  0.00    -0.744 OA
ENDBRANCH  68  72
ENDBRANCH  51  65
BRANCH  52  76
ATOM     76  C   UNL A   1      42.642  26.752  27.338  1.00  0.00     0.023 A 
ATOM     77  C   UNL A   1      42.245  25.411  27.198  1.00  0.00     0.031 A 
ATOM     78  C   UNL A   1      43.573  27.268  26.423  1.00  0.00     0.131 A 
ATOM     79  C   UNL A   1      42.826  24.612  26.205  1.00  0.00     0.055 A 
ATOM     80  C   UNL A   1      44.104  26.485  25.395  1.00  0.00     0.041 A 
ATOM     81  F   UNL A   1      43.995  28.537  26.529  1.00  0.00    -0.206 F 
ATOM     82  C   UNL A   1      43.742  25.145  25.292  1.00  0.00     0.022 A 
BRANCH  79  83
ATOM     83  S   UNL A   1      42.494  22.830  26.138  1.00  0.00     0.124 S 
ATOM     84  O   UNL A   1      43.328  22.321  27.223  1.00  0.00    -0.237 OA
ATOM     85  O   UNL A   1      41.054  22.789  26.373  1.00  0.00    -0.237 OA
ATOM     86  O   UNL A   1      42.916  22.452  24.792  1.00  0.00    -0.744 OA
ENDBRANCH  79  83
ENDBRANCH  52  76
BRANCH  64  87
ATOM     87  C   UNL A   1      44.435  27.188  34.135  1.00  0.00     0.023 A 
ATOM     88  C   UNL A   1      45.747  27.693  34.213  1.00  0.00     0.031 A 
ATOM     89  C   UNL A   1      44.158  25.945  34.724  1.00  0.00     0.131 A 
ATOM     90  C   UNL A   1      46.747  26.935  34.829  1.00  0.00     0.055 A 
ATOM     91  C   UNL A   1      45.148  25.216  35.381  1.00  0.00     0.041 A 
ATOM     92  F   UNL A   1      42.924  25.419  34.660  1.00  0.00    -0.206 F 
ATOM     93  C   UNL A   1      46.453  25.703  35.422  1.00  0.00     0.022 A 
BRANCH  90  94
ATOM     94  S   UNL A   1      48.477  27.479  34.804  1.00  0.00     0.124 S 
ATOM     95  O   UNL A   1      48.619  28.090  36.124  1.00  0.00    -0.237 OA
ATOM     96  O   UNL A   1      49.190  26.218  34.619  1.00  0.00    -0.237 OA
ATOM     97  O   UNL A   1      48.538  28.408  33.682  1.00  0.00    -0.744 OA
ENDBRANCH  90  94
ENDBRANCH  64  87
ENDBRANCH  38  39
ENDBRANCH  31  33
ENDBRANCH  30  31
ENDBRANCH  29  30
ENDBRANCH   1  29
TORSDOF 18
ENDMDL
MODEL 2
REMARK VINA RESULT:     -12.2      2.020      2.816
REMARK SMILES Cc1cccc2c1[C@H]1c3c(C)cccc3[C@H](CC(=O)OCCOCCOC(=O)c3ccc(-c4c5nc(c(-c6cc(S(=O)(=O)[O-])ccc6F)c6ccc([nH]6)c(-c6cc(S(=O)(=O)[O-])ccc6F)c6nc(c(-c7cc(S(=O)(=O)[O-])ccc7F)c7ccc4[nH]7)C=C6)C=C5)cc3)C[C@H]1CC2
REMARK SMILES IDX 24 1 23 2 22 3 21 4 20 5 18 6 19 7 17 8 16 9 1 10 2 11 3 12
REMARK SMILES IDX 7 13 4 14 6 15 8 16 5 17 95 18 9 19 93 20 94 21 10 22 15 23
REMARK SMILES IDX 92 24 12 25 11 26 14 27 13 28 25 29 26 30 27 31 28 32 29 33
REMARK SMILES IDX 30 34 91 35 31 36 90 37 32 38 33 39 34 40 84 41 35 42 89 43
REMARK SMILES IDX 83 44 85 45 36 46 88 47 82 48 81 49 37 51 69 52 49 53 68 54
REMARK SMILES IDX 50 55 53 56 67 57 86 58 51 59 52 60 66 62 87 63 54 64 38 65
REMARK SMILES IDX 39 66 47 67 40 68 46 69 48 70 45 71 41 72 42 73 43 74 44 75
REMARK SMILES IDX 70 76 71 77 79 78 72 79 78 80 80 81 77 82 73 83 74 84 75 85
REMARK SMILES IDX 76 86 55 87 56 88 64 89 57 90 63 91 65 92 62 93 58 94 59 95
REMARK SMILES IDX 60 96 61 97
REMARK H PARENT 85 50 53 61
REMARK Flexibility Score: inf
ROOT
ATOM      1  C   UNL A   1      31.438  29.862  25.372  1.00  0.00     0.202 C 
ENDROOT
BRANCH   1   2
ATOM      2  O   UNL A   1      32.348  29.518  24.344  1.00  0.00    -0.374 OA
BRANCH   2   3
ATOM      3  C   UNL A   1      32.965  28.238  24.424  1.00  0.00     0.202 C 
BRANCH   3   4
ATOM      4  C   UNL A   1      33.812  27.862  25.661  1.00  0.00     0.261 C 
BRANCH   4   5
ATOM      5  O   UNL A   1      33.148  27.343  26.848  1.00  0.00    -0.463 OA
BRANCH   5   6
ATOM      6  C   UNL A   1      32.223  26.368  26.619  1.00  0.00     0.306 C 
ATOM      7  O   UNL A   1      31.010  26.574  26.581  1.00  0.00    -0.252 OA
BRANCH   6   8
ATOM      8  C   UNL A   1      32.771  24.949  26.613  1.00  0.00     0.131 C 
BRANCH   8   9
ATOM      9  C   UNL A   1      32.710  23.949  25.426  1.00  0.00     0.031 C 
ATOM     10  C   UNL A   1      32.621  18.086  26.395  1.00  0.00     0.044 C 
ATOM     11  C   UNL A   1      32.783  18.354  24.928  1.00  0.00    -0.047 A 
ATOM     12  C   UNL A   1      33.082  17.242  24.121  1.00  0.00     0.004 A 
ATOM     13  C   UNL A   1      32.666  19.630  24.331  1.00  0.00    -0.034 A 
ATOM     14  C   UNL A   1      33.160  17.366  22.740  1.00  0.00     0.001 A 
ATOM     15  C   UNL A   1      32.520  19.698  22.933  1.00  0.00    -0.044 A 
ATOM     16  C   UNL A   1      32.761  20.949  25.107  1.00  0.00     0.053 C 
ATOM     17  C   UNL A   1      32.821  18.575  22.145  1.00  0.00     0.004 A 
ATOM     18  C   UNL A   1      31.929  20.913  22.264  1.00  0.00     0.036 C 
ATOM     19  C   UNL A   1      34.041  21.795  24.863  1.00  0.00    -0.034 A 
ATOM     20  C   UNL A   1      31.538  21.784  24.677  1.00  0.00     0.002 C 
ATOM     21  C   UNL A   1      31.591  22.110  23.164  1.00  0.00     0.009 C 
ATOM     22  C   UNL A   1      35.293  21.221  24.519  1.00  0.00    -0.047 A 
ATOM     23  C   UNL A   1      33.959  23.223  24.952  1.00  0.00    -0.040 A 
ATOM     24  C   UNL A   1      31.480  23.027  25.573  1.00  0.00     0.013 C 
ATOM     25  C   UNL A   1      36.305  22.035  23.977  1.00  0.00     0.004 A 
ATOM     26  C   UNL A   1      35.664  19.788  24.795  1.00  0.00     0.044 C 
ATOM     27  C   UNL A   1      35.010  24.009  24.438  1.00  0.00     0.004 A 
ATOM     28  C   UNL A   1      36.154  23.415  23.911  1.00  0.00     0.001 A 
ENDBRANCH   8   9
ENDBRANCH   6   8
ENDBRANCH   5   6
ENDBRANCH   4   5
ENDBRANCH   3   4
ENDBRANCH   2   3
ENDBRANCH   1   2
BRANCH   1  29
ATOM     29  C   UNL A   1      31.794  31.018  26.302  1.00  0.00     0.261 C 
BRANCH  29  30
ATOM     30  O   UNL A   1      32.898  30.795  27.161  1.00  0.00    -0.460 OA
BRANCH  30  31
ATOM     31  C   UNL A   1      33.496  31.891  27.649  1.00  0.00     0.338 C 
ATOM     32  O   UNL A   1      33.053  33.016  27.790  1.00  0.00    -0.246 OA
BRANCH  31  33
ATOM     33  C   UNL A   1      34.863  31.477  27.946  1.00  0.00     0.060 A 
ATOM     34  C   UNL A   1      35.132  30.141  28.233  1.00  0.00     0.016 A 
ATOM     35  C   UNL A   1      35.869  32.441  27.926  1.00  0.00     0.016 A 
ATOM     36  C   UNL A   1      36.425  29.783  28.583  1.00  0.00     0.010 A 
ATOM     37  C   UNL A   1      37.164  32.089  28.279  1.00  0.00     0.010 A 
ATOM     38  C   UNL A   1      37.423  30.767  28.658  1.00  0.00    -0.014 A 
BRANCH  38  39
ATOM     39  C   UNL A   1      38.688  30.411  29.318  1.00  0.00     0.031 A 
ATOM     40  C   UNL A   1      38.936  30.946  30.695  1.00  0.00     0.074 A 
ATOM     41  C   UNL A   1      39.524  29.544  28.726  1.00  0.00     0.049 A 
ATOM     42  N   UNL A   1      39.855  30.602  31.553  1.00  0.00    -0.248 NA
ATOM     43  C   UNL A   1      38.022  31.997  31.178  1.00  0.00     0.031 C 
ATOM     44  C   UNL A   1      39.343  28.996  27.383  1.00  0.00     0.029 A 
ATOM     45  N   UNL A   1      40.669  28.955  29.187  1.00  0.00    -0.354 N 
ATOM     46  C   UNL A   1      39.614  31.370  32.684  1.00  0.00     0.074 A 
ATOM     47  C   UNL A   1      38.502  32.240  32.388  1.00  0.00     0.031 C 
ATOM     48  C   UNL A   1      40.338  28.129  27.133  1.00  0.00     0.029 A 
ATOM     49  C   UNL A   1      41.221  28.066  28.298  1.00  0.00     0.049 A 
ATOM     50  H   UNL A   1      41.059  29.149  30.070  1.00  0.00     0.167 HD
ATOM     51  C   UNL A   1      40.255  31.322  33.872  1.00  0.00     0.034 A 
ATOM     52  C   UNL A   1      42.305  27.277  28.425  1.00  0.00     0.034 A 
ATOM     53  C   UNL A   1      41.369  30.448  34.124  1.00  0.00     0.049 A 
ATOM     54  C   UNL A   1      43.014  27.251  29.753  1.00  0.00     0.074 A 
ATOM     55  C   UNL A   1      42.095  30.301  35.291  1.00  0.00     0.029 A 
ATOM     56  N   UNL A   1      41.917  29.576  33.193  1.00  0.00    -0.354 N 
ATOM     57  N   UNL A   1      42.739  27.929  30.845  1.00  0.00    -0.248 NA
ATOM     58  C   UNL A   1      44.153  26.336  29.888  1.00  0.00     0.031 C 
ATOM     59  C   UNL A   1      43.120  29.387  35.046  1.00  0.00     0.029 A 
ATOM     60  C   UNL A   1      42.983  28.900  33.753  1.00  0.00     0.049 A 
ATOM     61  H   UNL A   1      41.594  29.457  32.270  1.00  0.00     0.167 HD
ATOM     62  C   UNL A   1      43.644  27.493  31.807  1.00  0.00     0.074 A 
ATOM     63  C   UNL A   1      44.470  26.490  31.168  1.00  0.00     0.031 C 
ATOM     64  C   UNL A   1      43.773  27.883  33.100  1.00  0.00     0.034 A 
BRANCH  51  65
ATOM     65  C   UNL A   1      39.785  32.218  34.985  1.00  0.00     0.023 A 
ATOM     66  C   UNL A   1      39.040  31.680  36.048  1.00  0.00     0.031 A 
ATOM     67  C   UNL A   1      39.970  33.612  34.936  1.00  0.00     0.131 A 
ATOM     68  C   UNL A   1      38.466  32.534  36.997  1.00  0.00     0.055 A 
ATOM     69  C   UNL A   1      39.430  34.456  35.906  1.00  0.00     0.041 A 
ATOM     70  F   UNL A   1      40.686  34.171  33.947  1.00  0.00    -0.206 F 
ATOM     71  C   UNL A   1      38.662  33.918  36.935  1.00  0.00     0.022 A 
BRANCH  68  72
ATOM     72  S   UNL A   1      37.411  31.882  38.317  1.00  0.00     0.124 S 
ATOM     73  O   UNL A   1      38.278  32.007  39.487  1.00  0.00    -0.237 OA
ATOM     74  O   UNL A   1      36.276  32.801  38.280  1.00  0.00    -0.237 OA
ATOM     75  O   UNL A   1      37.132  30.513  37.899  1.00  0.00    -0.744 OA
ENDBRANCH  68  72
ENDBRANCH  51  65
BRANCH  52  76
ATOM     76  C   UNL A   1      42.699  26.407  27.283  1.00  0.00     0.023 A 
ATOM     77  C   UNL A   1      42.335  25.049  27.270  1.00  0.00     0.031 A 
ATOM     78  C   UNL A   1      43.541  26.879  26.264  1.00  0.00     0.131 A 
ATOM     79  C   UNL A   1      42.865  24.195  26.295  1.00  0.00     0.055 A 
ATOM     80  C   UNL A   1      44.018  26.037  25.257  1.00  0.00     0.041 A 
ATOM     81  F   UNL A   1      43.928  28.163  26.246  1.00  0.00    -0.206 F 
ATOM     82  C   UNL A   1      43.692  24.684  25.278  1.00  0.00     0.022 A 
BRANCH  79  83
ATOM     83  S   UNL A   1      42.587  22.405  26.380  1.00  0.00     0.124 S 
ATOM     84  O   UNL A   1      43.677  21.885  25.560  1.00  0.00    -0.237 OA
ATOM     85  O   UNL A   1      42.701  22.157  27.814  1.00  0.00    -0.237 OA
ATOM     86  O   UNL A   1      41.247  22.238  25.824  1.00  0.00    -0.744 OA
ENDBRANCH  79  83
ENDBRANCH  52  76
BRANCH  64  87
ATOM     87  C   UNL A   1      44.816  27.207  33.953  1.00  0.00     0.023 A 
ATOM     88  C   UNL A   1      44.464  26.054  34.680  1.00  0.00     0.031 A 
ATOM     89  C   UNL A   1      46.074  27.785  34.180  1.00  0.00     0.131 A 
ATOM     90  C   UNL A   1      45.345  25.539  35.636  1.00  0.00     0.055 A 
ATOM     91  C   UNL A   1      46.971  27.237  35.097  1.00  0.00     0.041 A 
ATOM     92  F   UNL A   1      46.445  28.894  33.520  1.00  0.00    -0.206 F 
ATOM     93  C   UNL A   1      46.601  26.119  35.841  1.00  0.00     0.022 A 
BRANCH  90  94
ATOM     94  S   UNL A   1      44.859  24.156  36.702  1.00  0.00     0.124 S 
ATOM     95  O   UNL A   1      46.150  23.702  37.215  1.00  0.00    -0.237 OA
ATOM     96  O   UNL A   1      43.994  24.812  37.678  1.00  0.00    -0.237 OA
ATOM     97  O   UNL A   1      44.193  23.228  35.795  1.00  0.00    -0.744 OA
ENDBRANCH  90  94
ENDBRANCH  64  87
ENDBRANCH  38  39
ENDBRANCH  31  33
ENDBRANCH  30  31
ENDBRANCH  29  30
ENDBRANCH   1  29
TORSDOF 18
ENDMDL
MODEL 3
REMARK VINA RESULT:     -12.1      3.978      9.790
REMARK SMILES Cc1cccc2c1[C@H]1c3c(C)cccc3[C@H](CC(=O)OCCOCCOC(=O)c3ccc(-c4c5nc(c(-c6cc(S(=O)(=O)[O-])ccc6F)c6ccc([nH]6)c(-c6cc(S(=O)(=O)[O-])ccc6F)c6nc(c(-c7cc(S(=O)(=O)[O-])ccc7F)c7ccc4[nH]7)C=C6)C=C5)cc3)C[C@H]1CC2
REMARK SMILES IDX 24 1 23 2 22 3 21 4 20 5 18 6 19 7 17 8 16 9 1 10 2 11 3 12
REMARK SMILES IDX 7 13 4 14 6 15 8 16 5 17 95 18 9 19 93 20 94 21 10 22 15 23
REMARK SMILES IDX 92 24 12 25 11 26 14 27 13 28 25 29 26 30 27 31 28 32 29 33
REMARK SMILES IDX 30 34 91 35 31 36 90 37 32 38 33 39 34 40 84 41 35 42 89 43
REMARK SMILES IDX 83 44 85 45 36 46 88 47 82 48 81 49 37 51 69 52 49 53 68 54
REMARK SMILES IDX 50 55 53 56 67 57 86 58 51 59 52 60 66 62 87 63 54 64 38 65
REMARK SMILES IDX 39 66 47 67 40 68 46 69 48 70 45 71 41 72 42 73 43 74 44 75
REMARK SMILES IDX 70 76 71 77 79 78 72 79 78 80 80 81 77 82 73 83 74 84 75 85
REMARK SMILES IDX 76 86 55 87 56 88 64 89 57 90 63 91 65 92 62 93 58 94 59 95
REMARK SMILES IDX 60 96 61 97
REMARK H PARENT 85 50 53 61
REMARK Flexibility Score: inf
ROOT
ATOM      1  C   UNL A   1      35.753  21.093  25.620  1.00  0.00     0.202 C 
ENDROOT
BRANCH   1   2
ATOM      2  O   UNL A   1      34.606  20.303  25.367  1.00  0.00    -0.374 OA
BRANCH   2   3
ATOM      3  C   UNL A   1      33.343  20.959  25.410  1.00  0.00     0.202 C 
BRANCH   3   4
ATOM      4  C   UNL A   1      33.161  22.336  24.732  1.00  0.00     0.261 C 
BRANCH   4   5
ATOM      5  O   UNL A   1      33.166  22.420  23.278  1.00  0.00    -0.463 OA
BRANCH   5   6
ATOM      6  C   UNL A   1      33.962  23.395  22.754  1.00  0.00     0.306 C 
ATOM      7  O   UNL A   1      35.130  23.578  23.093  1.00  0.00    -0.252 OA
BRANCH   6   8
ATOM      8  C   UNL A   1      33.248  24.392  21.853  1.00  0.00     0.131 C 
BRANCH   8   9
ATOM      9  C   UNL A   1      32.525  25.688  22.313  1.00  0.00     0.031 C 
ATOM     10  C   UNL A   1      34.874  29.141  26.541  1.00  0.00     0.044 C 
ATOM     11  C   UNL A   1      33.487  29.612  26.215  1.00  0.00    -0.047 A 
ATOM     12  C   UNL A   1      32.946  30.591  27.067  1.00  0.00     0.004 A 
ATOM     13  C   UNL A   1      32.713  29.130  25.136  1.00  0.00    -0.034 A 
ATOM     14  C   UNL A   1      31.709  31.162  26.799  1.00  0.00     0.001 A 
ATOM     15  C   UNL A   1      31.580  29.870  24.750  1.00  0.00    -0.044 A 
ATOM     16  C   UNL A   1      32.992  27.811  24.405  1.00  0.00     0.053 C 
ATOM     17  C   UNL A   1      31.057  30.845  25.613  1.00  0.00     0.004 A 
ATOM     18  C   UNL A   1      30.981  29.728  23.373  1.00  0.00     0.036 C 
ATOM     19  C   UNL A   1      31.973  26.665  24.651  1.00  0.00    -0.034 A 
ATOM     20  C   UNL A   1      32.987  28.151  22.901  1.00  0.00     0.002 C 
ATOM     21  C   UNL A   1      31.598  28.667  22.451  1.00  0.00     0.009 C 
ATOM     22  C   UNL A   1      31.242  26.527  25.861  1.00  0.00    -0.047 A 
ATOM     23  C   UNL A   1      31.724  25.717  23.605  1.00  0.00    -0.040 A 
ATOM     24  C   UNL A   1      33.458  26.906  22.138  1.00  0.00     0.013 C 
ATOM     25  C   UNL A   1      30.104  25.699  25.894  1.00  0.00     0.004 A 
ATOM     26  C   UNL A   1      31.665  27.134  27.172  1.00  0.00     0.044 C 
ATOM     27  C   UNL A   1      30.598  24.874  23.690  1.00  0.00     0.004 A 
ATOM     28  C   UNL A   1      29.768  24.901  24.807  1.00  0.00     0.001 A 
ENDBRANCH   8   9
ENDBRANCH   6   8
ENDBRANCH   5   6
ENDBRANCH   4   5
ENDBRANCH   3   4
ENDBRANCH   2   3
ENDBRANCH   1   2
BRANCH   1  29
ATOM     29  C   UNL A   1      37.014  20.829  24.802  1.00  0.00     0.261 C 
BRANCH  29  30
ATOM     30  O   UNL A   1      38.085  21.729  25.019  1.00  0.00    -0.460 OA
BRANCH  30  31
ATOM     31  C   UNL A   1      39.076  21.288  25.807  1.00  0.00     0.338 C 
ATOM     32  O   UNL A   1      39.503  20.157  25.953  1.00  0.00    -0.246 OA
BRANCH  31  33
ATOM     33  C   UNL A   1      39.536  22.466  26.535  1.00  0.00     0.060 A 
ATOM     34  C   UNL A   1      38.972  23.709  26.261  1.00  0.00     0.016 A 
ATOM     35  C   UNL A   1      40.532  22.307  27.496  1.00  0.00     0.016 A 
ATOM     36  C   UNL A   1      39.474  24.825  26.912  1.00  0.00     0.010 A 
ATOM     37  C   UNL A   1      41.040  23.421  28.147  1.00  0.00     0.010 A 
ATOM     38  C   UNL A   1      40.542  24.685  27.811  1.00  0.00    -0.014 A 
BRANCH  38  39
ATOM     39  C   UNL A   1      41.241  25.904  28.242  1.00  0.00     0.031 A 
ATOM     40  C   UNL A   1      42.635  26.128  27.746  1.00  0.00     0.074 A 
ATOM     41  C   UNL A   1      40.583  26.823  28.968  1.00  0.00     0.049 A 
ATOM     42  N   UNL A   1      43.361  27.209  27.805  1.00  0.00    -0.248 NA
ATOM     43  C   UNL A   1      43.299  24.991  27.082  1.00  0.00     0.031 C 
ATOM     44  C   UNL A   1      39.228  26.659  29.490  1.00  0.00     0.029 A 
ATOM     45  N   UNL A   1      40.956  28.077  29.364  1.00  0.00    -0.354 N 
ATOM     46  C   UNL A   1      44.551  26.894  27.163  1.00  0.00     0.074 A 
ATOM     47  C   UNL A   1      44.478  25.506  26.773  1.00  0.00     0.031 C 
ATOM     48  C   UNL A   1      38.872  27.787  30.126  1.00  0.00     0.029 A 
ATOM     49  C   UNL A   1      39.974  28.745  30.054  1.00  0.00     0.049 A 
ATOM     50  H   UNL A   1      41.841  28.464  29.174  1.00  0.00     0.167 HD
ATOM     51  C   UNL A   1      45.596  27.711  26.902  1.00  0.00     0.034 A 
ATOM     52  C   UNL A   1      39.966  29.997  30.550  1.00  0.00     0.034 A 
ATOM     53  C   UNL A   1      45.635  29.085  27.319  1.00  0.00     0.049 A 
ATOM     54  C   UNL A   1      41.147  30.886  30.261  1.00  0.00     0.074 A 
ATOM     55  C   UNL A   1      46.634  30.017  27.105  1.00  0.00     0.029 A 
ATOM     56  N   UNL A   1      44.632  29.725  28.036  1.00  0.00    -0.354 N 
ATOM     57  N   UNL A   1      42.242  30.603  29.591  1.00  0.00    -0.248 NA
ATOM     58  C   UNL A   1      41.087  32.266  30.755  1.00  0.00     0.031 C 
ATOM     59  C   UNL A   1      46.263  31.199  27.747  1.00  0.00     0.029 A 
ATOM     60  C   UNL A   1      44.996  31.033  28.289  1.00  0.00     0.049 A 
ATOM     61  H   UNL A   1      43.788  29.306  28.323  1.00  0.00     0.167 HD
ATOM     62  C   UNL A   1      42.982  31.780  29.551  1.00  0.00     0.074 A 
ATOM     63  C   UNL A   1      42.206  32.778  30.258  1.00  0.00     0.031 C 
ATOM     64  C   UNL A   1      44.189  32.014  28.975  1.00  0.00     0.034 A 
BRANCH  51  65
ATOM     65  C   UNL A   1      46.770  27.162  26.139  1.00  0.00     0.023 A 
ATOM     66  C   UNL A   1      47.830  26.552  26.831  1.00  0.00     0.031 A 
ATOM     67  C   UNL A   1      46.897  27.347  24.750  1.00  0.00     0.131 A 
ATOM     68  C   UNL A   1      48.992  26.187  26.141  1.00  0.00     0.055 A 
ATOM     69  C   UNL A   1      48.041  26.946  24.061  1.00  0.00     0.041 A 
ATOM     70  F   UNL A   1      45.906  27.915  24.044  1.00  0.00    -0.206 F 
ATOM     71  C   UNL A   1      49.101  26.375  24.759  1.00  0.00     0.022 A 
BRANCH  68  72
ATOM     72  S   UNL A   1      50.418  25.497  27.021  1.00  0.00     0.124 S 
ATOM     73  O   UNL A   1      50.781  26.593  27.916  1.00  0.00    -0.237 OA
ATOM     74  O   UNL A   1      49.836  24.326  27.671  1.00  0.00    -0.237 OA
ATOM     75  O   UNL A   1      51.382  25.220  25.961  1.00  0.00    -0.744 OA
ENDBRANCH  68  72
ENDBRANCH  51  65
BRANCH  52  76
ATOM     76  C   UNL A   1      38.760  30.472  31.282  1.00  0.00     0.023 A 
ATOM     77  C   UNL A   1      37.721  31.119  30.589  1.00  0.00     0.031 A 
ATOM     78  C   UNL A   1      38.683  30.405  32.681  1.00  0.00     0.131 A 
ATOM     79  C   UNL A   1      36.682  31.729  31.303  1.00  0.00     0.055 A 
ATOM     80  C   UNL A   1      37.613  30.961  33.386  1.00  0.00     0.041 A 
ATOM     81  F   UNL A   1      39.660  29.814  33.386  1.00  0.00    -0.206 F 
ATOM     82  C   UNL A   1      36.613  31.641  32.697  1.00  0.00     0.022 A 
BRANCH  79  83
ATOM     83  S   UNL A   1      35.448  32.750  30.451  1.00  0.00     0.124 S 
ATOM     84  O   UNL A   1      34.262  32.555  31.280  1.00  0.00    -0.237 OA
ATOM     85  O   UNL A   1      36.059  34.074  30.524  1.00  0.00    -0.237 OA
ATOM     86  O   UNL A   1      35.383  32.169  29.114  1.00  0.00    -0.744 OA
ENDBRANCH  79  83
ENDBRANCH  52  76
BRANCH  64  87
ATOM     87  C   UNL A   1      44.753  33.411  29.032  1.00  0.00     0.023 A 
ATOM     88  C   UNL A   1      45.463  33.817  30.178  1.00  0.00     0.031 A 
ATOM     89  C   UNL A   1      44.447  34.372  28.057  1.00  0.00     0.131 A 
ATOM     90  C   UNL A   1      45.806  35.162  30.342  1.00  0.00     0.055 A 
ATOM     91  C   UNL A   1      44.837  35.704  28.201  1.00  0.00     0.041 A 
ATOM     92  F   UNL A   1      43.759  34.032  26.956  1.00  0.00    -0.206 F 
ATOM     93  C   UNL A   1      45.506  36.106  29.355  1.00  0.00     0.022 A 
BRANCH  90  94
ATOM     94  S   UNL A   1      46.575  35.746  31.877  1.00  0.00     0.124 S 
ATOM     95  O   UNL A   1      47.993  35.517  31.610  1.00  0.00    -0.237 OA
ATOM     96  O   UNL A   1      46.164  37.147  31.910  1.00  0.00    -0.237 OA
ATOM     97  O   UNL A   1      45.994  34.895  32.909  1.00  0.00    -0.744 OA
ENDBRANCH  90  94
ENDBRANCH  64  87
ENDBRANCH  38  39
ENDBRANCH  31  33
ENDBRANCH  30  31
ENDBRANCH  29  30
ENDBRANCH   1  29
TORSDOF 18
ENDMDL
