MODEL 1
REMARK VINA RESULT:     -12.2      0.000      0.000
REMARK SMILES Cc1cc(C(=O)OCCOCCOC(=O)c2ccc(-c3c4nc(c(-c5cc(S(=O)(=O)[O-])ccc5F)c5ccc([nH]5)c(-c5cc(S(=O)(=O)[O-])ccc5F)c5nc(c(-c6cc(S(=O)(=O)[O-])ccc6F)c6ccc3[nH]6)C=C5)C=C4)cc2)ccc1NS(=O)(=O)c1c(F)cccc1F
REMARK SMILES IDX 10 1 9 2 8 3 7 4 5 5 6 6 4 7 1 8 2 9 3 10 81 11 80 12 79 13
REMARK SMILES IDX 82 14 83 16 84 17 85 18 86 19 87 20 92 21 88 22 89 23 91 24
REMARK SMILES IDX 93 25 90 26 11 27 12 28 13 29 14 30 15 31 16 32 17 33 78 34
REMARK SMILES IDX 18 35 77 36 19 37 20 38 21 39 71 40 22 41 76 42 70 43 72 44
REMARK SMILES IDX 23 45 75 46 69 47 68 48 24 50 56 51 36 52 55 53 37 54 40 55
REMARK SMILES IDX 54 56 73 57 38 58 39 59 53 61 74 62 41 63 25 64 26 65 34 66
REMARK SMILES IDX 27 67 33 68 35 69 32 70 28 71 29 72 30 73 31 74 57 75 58 76
REMARK SMILES IDX 66 77 59 78 65 79 67 80 64 81 60 82 61 83 62 84 63 85 42 86
REMARK SMILES IDX 43 87 51 88 44 89 50 90 52 91 49 92 45 93 46 94 47 95 48 96
REMARK H PARENT 82 15 72 49 40 60
REMARK Flexibility Score: inf
ROOT
ATOM      1  O   UNL A   1      32.923  34.516  29.444  1.00  0.00    -0.374 OA
ENDROOT
BRANCH   1   2
ATOM      2  C   UNL A   1      33.963  34.037  28.600  1.00  0.00     0.202 C 
BRANCH   2   3
ATOM      3  C   UNL A   1      33.260  33.160  27.626  1.00  0.00     0.261 C 
BRANCH   3   4
ATOM      4  O   UNL A   1      33.255  31.767  27.997  1.00  0.00    -0.460 OA
BRANCH   4   5
ATOM      5  C   UNL A   1      34.195  30.923  27.477  1.00  0.00     0.338 C 
ATOM      6  O   UNL A   1      35.369  30.841  27.714  1.00  0.00    -0.246 OA
BRANCH   5   7
ATOM      7  C   UNL A   1      33.430  29.942  26.680  1.00  0.00     0.060 A 
ATOM      8  C   UNL A   1      34.176  26.404  25.666  1.00  0.00     0.046 C 
ATOM      9  C   UNL A   1      33.393  27.629  26.037  1.00  0.00    -0.026 A 
ATOM     10  C   UNL A   1      34.113  28.801  26.278  1.00  0.00     0.021 A 
ATOM     11  C   UNL A   1      31.998  27.646  26.228  1.00  0.00     0.052 A 
ATOM     12  C   UNL A   1      31.326  28.867  26.246  1.00  0.00     0.028 A 
ATOM     13  C   UNL A   1      32.045  30.021  26.542  1.00  0.00     0.018 A 
BRANCH  11  14
ATOM     14  N   UNL A   1      31.382  26.436  26.679  1.00  0.00    -0.279 N 
ATOM     15  H   UNL A   1      31.616  26.140  27.589  1.00  0.00     0.180 HD
BRANCH  14  16
ATOM     16  S   UNL A   1      30.307  25.463  25.835  1.00  0.00     0.267 S 
ATOM     17  O   UNL A   1      29.360  24.976  26.817  1.00  0.00    -0.201 OA
ATOM     18  O   UNL A   1      29.860  26.278  24.720  1.00  0.00    -0.201 OA
BRANCH  16  19
ATOM     19  C   UNL A   1      31.116  24.070  25.140  1.00  0.00     0.158 A 
ATOM     20  C   UNL A   1      32.095  23.443  25.909  1.00  0.00     0.146 A 
ATOM     21  C   UNL A   1      30.935  23.667  23.829  1.00  0.00     0.146 A 
ATOM     22  F   UNL A   1      32.229  23.720  27.214  1.00  0.00    -0.205 F 
ATOM     23  C   UNL A   1      32.959  22.502  25.350  1.00  0.00     0.041 A 
ATOM     24  C   UNL A   1      31.824  22.763  23.249  1.00  0.00     0.041 A 
ATOM     25  F   UNL A   1      29.945  24.165  23.076  1.00  0.00    -0.205 F 
ATOM     26  C   UNL A   1      32.849  22.187  24.000  1.00  0.00     0.006 A 
ENDBRANCH  16  19
ENDBRANCH  14  16
ENDBRANCH  11  14
ENDBRANCH   5   7
ENDBRANCH   4   5
ENDBRANCH   3   4
ENDBRANCH   2   3
ENDBRANCH   1   2
BRANCH   1  27
ATOM     27  C   UNL A   1      33.056  35.851  29.861  1.00  0.00     0.202 C 
BRANCH  27  28
ATOM     28  C   UNL A   1      32.681  36.050  31.334  1.00  0.00     0.261 C 
BRANCH  28  29
ATOM     29  O   UNL A   1      33.201  34.961  32.128  1.00  0.00    -0.460 OA
BRANCH  29  30
ATOM     30  C   UNL A   1      34.506  35.074  32.511  1.00  0.00     0.338 C 
ATOM     31  O   UNL A   1      35.016  36.084  32.964  1.00  0.00    -0.246 OA
BRANCH  30  32
ATOM     32  C   UNL A   1      35.254  33.834  32.150  1.00  0.00     0.060 A 
ATOM     33  C   UNL A   1      35.203  32.697  32.981  1.00  0.00     0.016 A 
ATOM     34  C   UNL A   1      36.215  33.916  31.147  1.00  0.00     0.016 A 
ATOM     35  C   UNL A   1      36.219  31.729  32.914  1.00  0.00     0.010 A 
ATOM     36  C   UNL A   1      37.262  33.022  31.162  1.00  0.00     0.010 A 
ATOM     37  C   UNL A   1      37.301  31.945  32.066  1.00  0.00    -0.014 A 
BRANCH  37  38
ATOM     38  C   UNL A   1      38.579  31.223  32.070  1.00  0.00     0.031 A 
ATOM     39  C   UNL A   1      38.672  30.005  31.233  1.00  0.00     0.074 A 
ATOM     40  C   UNL A   1      39.716  31.797  32.547  1.00  0.00     0.049 A 
ATOM     41  N   UNL A   1      39.708  29.254  31.192  1.00  0.00    -0.248 NA
ATOM     42  C   UNL A   1      37.592  29.497  30.383  1.00  0.00     0.031 C 
ATOM     43  C   UNL A   1      41.113  31.523  32.195  1.00  0.00     0.029 A 
ATOM     44  N   UNL A   1      39.855  32.809  33.498  1.00  0.00    -0.354 N 
ATOM     45  C   UNL A   1      39.590  28.412  30.116  1.00  0.00     0.074 A 
ATOM     46  C   UNL A   1      38.210  28.510  29.725  1.00  0.00     0.031 C 
ATOM     47  C   UNL A   1      41.932  32.090  33.103  1.00  0.00     0.029 A 
ATOM     48  C   UNL A   1      41.092  32.675  34.137  1.00  0.00     0.049 A 
ATOM     49  H   UNL A   1      39.188  33.507  33.690  1.00  0.00     0.167 HD
ATOM     50  C   UNL A   1      40.728  27.838  29.642  1.00  0.00     0.034 A 
ATOM     51  C   UNL A   1      41.137  32.494  35.482  1.00  0.00     0.034 A 
ATOM     52  C   UNL A   1      41.840  28.082  30.576  1.00  0.00     0.049 A 
ATOM     53  C   UNL A   1      41.635  31.079  35.671  1.00  0.00     0.074 A 
ATOM     54  C   UNL A   1      42.977  28.869  30.539  1.00  0.00     0.029 A 
ATOM     55  N   UNL A   1      41.679  27.697  31.909  1.00  0.00    -0.354 N 
ATOM     56  N   UNL A   1      41.521  30.159  34.744  1.00  0.00    -0.248 NA
ATOM     57  C   UNL A   1      42.459  30.642  36.791  1.00  0.00     0.031 C 
ATOM     58  C   UNL A   1      43.416  29.053  31.890  1.00  0.00     0.029 A 
ATOM     59  C   UNL A   1      42.573  28.345  32.737  1.00  0.00     0.049 A 
ATOM     60  H   UNL A   1      41.011  27.044  32.218  1.00  0.00     0.167 HD
ATOM     61  C   UNL A   1      42.338  29.113  35.035  1.00  0.00     0.074 A 
ATOM     62  C   UNL A   1      42.858  29.432  36.359  1.00  0.00     0.031 C 
ATOM     63  C   UNL A   1      42.575  28.077  34.174  1.00  0.00     0.034 A 
BRANCH  50  64
ATOM     64  C   UNL A   1      40.907  27.182  28.289  1.00  0.00     0.023 A 
ATOM     65  C   UNL A   1      41.047  25.779  28.241  1.00  0.00     0.031 A 
ATOM     66  C   UNL A   1      41.040  27.837  27.043  1.00  0.00     0.131 A 
ATOM     67  C   UNL A   1      41.297  25.102  27.031  1.00  0.00     0.055 A 
ATOM     68  C   UNL A   1      41.240  27.157  25.832  1.00  0.00     0.041 A 
ATOM     69  F   UNL A   1      41.037  29.168  26.919  1.00  0.00    -0.206 F 
ATOM     70  C   UNL A   1      41.376  25.781  25.821  1.00  0.00     0.022 A 
BRANCH  67  71
ATOM     71  S   UNL A   1      41.566  23.310  27.068  1.00  0.00     0.124 S 
ATOM     72  O   UNL A   1      40.208  22.794  26.937  1.00  0.00    -0.237 OA
ATOM     73  O   UNL A   1      42.451  23.105  25.927  1.00  0.00    -0.237 OA
ATOM     74  O   UNL A   1      42.185  23.087  28.375  1.00  0.00    -0.744 OA
ENDBRANCH  67  71
ENDBRANCH  50  64
BRANCH  51  75
ATOM     75  C   UNL A   1      40.024  33.254  36.162  1.00  0.00     0.023 A 
ATOM     76  C   UNL A   1      39.009  32.501  36.834  1.00  0.00     0.031 A 
ATOM     77  C   UNL A   1      40.196  34.585  36.574  1.00  0.00     0.131 A 
ATOM     78  C   UNL A   1      38.326  33.034  37.952  1.00  0.00     0.055 A 
ATOM     79  C   UNL A   1      39.499  35.112  37.675  1.00  0.00     0.041 A 
ATOM     80  F   UNL A   1      41.145  35.352  36.017  1.00  0.00    -0.206 F 
ATOM     81  C   UNL A   1      38.595  34.329  38.393  1.00  0.00     0.022 A 
BRANCH  78  82
ATOM     82  S   UNL A   1      37.195  31.986  38.941  1.00  0.00     0.124 S 
ATOM     83  O   UNL A   1      37.860  31.936  40.239  1.00  0.00    -0.237 OA
ATOM     84  O   UNL A   1      35.946  32.738  38.914  1.00  0.00    -0.237 OA
ATOM     85  O   UNL A   1      37.151  30.728  38.203  1.00  0.00    -0.744 OA
ENDBRANCH  78  82
ENDBRANCH  51  75
BRANCH  63  86
ATOM     86  C   UNL A   1      42.887  26.695  34.677  1.00  0.00     0.023 A 
ATOM     87  C   UNL A   1      44.006  25.995  34.215  1.00  0.00     0.031 A 
ATOM     88  C   UNL A   1      42.167  26.085  35.727  1.00  0.00     0.131 A 
ATOM     89  C   UNL A   1      44.288  24.703  34.659  1.00  0.00     0.055 A 
ATOM     90  C   UNL A   1      42.530  24.848  36.266  1.00  0.00     0.041 A 
ATOM     91  F   UNL A   1      41.099  26.666  36.292  1.00  0.00    -0.206 F 
ATOM     92  C   UNL A   1      43.579  24.131  35.708  1.00  0.00     0.022 A 
BRANCH  89  93
ATOM     93  S   UNL A   1      45.509  23.767  33.714  1.00  0.00     0.124 S 
ATOM     94  O   UNL A   1      46.442  24.818  33.316  1.00  0.00    -0.237 OA
ATOM     95  O   UNL A   1      46.014  22.818  34.702  1.00  0.00    -0.237 OA
ATOM     96  O   UNL A   1      44.727  23.184  32.627  1.00  0.00    -0.744 OA
ENDBRANCH  89  93
ENDBRANCH  63  86
ENDBRANCH  37  38
ENDBRANCH  30  32
ENDBRANCH  29  30
ENDBRANCH  28  29
ENDBRANCH  27  28
ENDBRANCH   1  27
TORSDOF 20
ENDMDL
MODEL 2
REMARK VINA RESULT:     -11.9      5.236     11.564
REMARK SMILES Cc1cc(C(=O)OCCOCCOC(=O)c2ccc(-c3c4nc(c(-c5cc(S(=O)(=O)[O-])ccc5F)c5ccc([nH]5)c(-c5cc(S(=O)(=O)[O-])ccc5F)c5nc(c(-c6cc(S(=O)(=O)[O-])ccc6F)c6ccc3[nH]6)C=C5)C=C4)cc2)ccc1NS(=O)(=O)c1c(F)cccc1F
REMARK SMILES IDX 10 1 9 2 8 3 7 4 5 5 6 6 4 7 1 8 2 9 3 10 81 11 80 12 79 13
REMARK SMILES IDX 82 14 83 16 84 17 85 18 86 19 87 20 92 21 88 22 89 23 91 24
REMARK SMILES IDX 93 25 90 26 11 27 12 28 13 29 14 30 15 31 16 32 17 33 78 34
REMARK SMILES IDX 18 35 77 36 19 37 20 38 21 39 71 40 22 41 76 42 70 43 72 44
REMARK SMILES IDX 23 45 75 46 69 47 68 48 24 50 56 51 36 52 55 53 37 54 40 55
REMARK SMILES IDX 54 56 73 57 38 58 39 59 53 61 74 62 41 63 25 64 26 65 34 66
REMARK SMILES IDX 27 67 33 68 35 69 32 70 28 71 29 72 30 73 31 74 57 75 58 76
REMARK SMILES IDX 66 77 59 78 65 79 67 80 64 81 60 82 61 83 62 84 63 85 42 86
REMARK SMILES IDX 43 87 51 88 44 89 50 90 52 91 49 92 45 93 46 94 47 95 48 96
REMARK H PARENT 82 15 72 49 40 60
REMARK Flexibility Score: inf
ROOT
ATOM      1  O   UNL A   1      42.023  19.588  26.597  1.00  0.00    -0.374 OA
ENDROOT
BRANCH   1   2
ATOM      2  C   UNL A   1      40.691  19.751  26.123  1.00  0.00     0.202 C 
BRANCH   2   3
ATOM      3  C   UNL A   1      40.409  21.196  26.336  1.00  0.00     0.261 C 
BRANCH   3   4
ATOM      4  O   UNL A   1      39.190  21.648  25.715  1.00  0.00    -0.460 OA
BRANCH   4   5
ATOM      5  C   UNL A   1      38.568  22.772  26.179  1.00  0.00     0.338 C 
ATOM      6  O   UNL A   1      39.028  23.731  26.735  1.00  0.00    -0.246 OA
BRANCH   5   7
ATOM      7  C   UNL A   1      37.185  22.683  25.667  1.00  0.00     0.060 A 
ATOM      8  C   UNL A   1      34.261  25.027  25.915  1.00  0.00     0.046 C 
ATOM      9  C   UNL A   1      35.178  23.970  25.374  1.00  0.00    -0.026 A 
ATOM     10  C   UNL A   1      36.280  23.616  26.158  1.00  0.00     0.021 A 
ATOM     11  C   UNL A   1      35.037  23.375  24.106  1.00  0.00     0.052 A 
ATOM     12  C   UNL A   1      35.722  22.193  23.826  1.00  0.00     0.028 A 
ATOM     13  C   UNL A   1      36.850  21.881  24.576  1.00  0.00     0.018 A 
BRANCH  11  14
ATOM     14  N   UNL A   1      34.429  24.161  23.076  1.00  0.00    -0.279 N 
ATOM     15  H   UNL A   1      34.914  24.974  22.804  1.00  0.00     0.180 HD
BRANCH  14  16
ATOM     16  S   UNL A   1      32.985  23.854  22.280  1.00  0.00     0.267 S 
ATOM     17  O   UNL A   1      33.274  24.002  20.867  1.00  0.00    -0.201 OA
ATOM     18  O   UNL A   1      32.526  22.584  22.810  1.00  0.00    -0.201 OA
BRANCH  16  19
ATOM     19  C   UNL A   1      31.761  25.041  22.697  1.00  0.00     0.158 A 
ATOM     20  C   UNL A   1      31.722  26.217  21.952  1.00  0.00     0.146 A 
ATOM     21  C   UNL A   1      30.948  24.927  23.810  1.00  0.00     0.146 A 
ATOM     22  F   UNL A   1      32.405  26.329  20.803  1.00  0.00    -0.205 F 
ATOM     23  C   UNL A   1      30.964  27.311  22.368  1.00  0.00     0.041 A 
ATOM     24  C   UNL A   1      30.225  26.030  24.261  1.00  0.00     0.041 A 
ATOM     25  F   UNL A   1      30.872  23.784  24.506  1.00  0.00    -0.205 F 
ATOM     26  C   UNL A   1      30.240  27.233  23.552  1.00  0.00     0.006 A 
ENDBRANCH  16  19
ENDBRANCH  14  16
ENDBRANCH  11  14
ENDBRANCH   5   7
ENDBRANCH   4   5
ENDBRANCH   3   4
ENDBRANCH   2   3
ENDBRANCH   1   2
BRANCH   1  27
ATOM     27  C   UNL A   1      42.747  18.542  26.001  1.00  0.00     0.202 C 
BRANCH  27  28
ATOM     28  C   UNL A   1      44.042  19.023  25.337  1.00  0.00     0.261 C 
BRANCH  28  29
ATOM     29  O   UNL A   1      43.857  20.351  24.798  1.00  0.00    -0.460 OA
BRANCH  29  30
ATOM     30  C   UNL A   1      44.789  21.278  25.164  1.00  0.00     0.338 C 
ATOM     31  O   UNL A   1      45.956  21.033  25.415  1.00  0.00    -0.246 OA
BRANCH  30  32
ATOM     32  C   UNL A   1      44.139  22.606  25.366  1.00  0.00     0.060 A 
ATOM     33  C   UNL A   1      44.493  23.708  24.562  1.00  0.00     0.016 A 
ATOM     34  C   UNL A   1      43.401  22.806  26.528  1.00  0.00     0.016 A 
ATOM     35  C   UNL A   1      44.254  25.017  25.014  1.00  0.00     0.010 A 
ATOM     36  C   UNL A   1      43.269  24.088  27.013  1.00  0.00     0.010 A 
ATOM     37  C   UNL A   1      43.726  25.203  26.288  1.00  0.00    -0.014 A 
BRANCH  37  38
ATOM     38  C   UNL A   1      43.682  26.460  27.046  1.00  0.00     0.031 A 
ATOM     39  C   UNL A   1      42.362  27.111  27.201  1.00  0.00     0.074 A 
ATOM     40  C   UNL A   1      44.718  26.846  27.838  1.00  0.00     0.049 A 
ATOM     41  N   UNL A   1      42.195  28.237  27.789  1.00  0.00    -0.248 NA
ATOM     42  C   UNL A   1      41.103  26.572  26.681  1.00  0.00     0.031 C 
ATOM     43  C   UNL A   1      44.709  27.707  29.024  1.00  0.00     0.029 A 
ATOM     44  N   UNL A   1      46.071  26.518  27.733  1.00  0.00    -0.354 N 
ATOM     45  C   UNL A   1      40.855  28.404  28.032  1.00  0.00     0.074 A 
ATOM     46  C   UNL A   1      40.210  27.412  27.214  1.00  0.00     0.031 C 
ATOM     47  C   UNL A   1      45.969  28.077  29.330  1.00  0.00     0.029 A 
ATOM     48  C   UNL A   1      46.838  27.547  28.292  1.00  0.00     0.049 A 
ATOM     49  H   UNL A   1      46.430  25.695  27.330  1.00  0.00     0.167 HD
ATOM     50  C   UNL A   1      40.500  29.297  28.993  1.00  0.00     0.034 A 
ATOM     51  C   UNL A   1      47.751  28.196  27.524  1.00  0.00     0.034 A 
ATOM     52  C   UNL A   1      41.675  30.081  29.409  1.00  0.00     0.049 A 
ATOM     53  C   UNL A   1      47.203  29.596  27.362  1.00  0.00     0.074 A 
ATOM     54  C   UNL A   1      42.453  30.123  30.552  1.00  0.00     0.029 A 
ATOM     55  N   UNL A   1      42.396  30.762  28.425  1.00  0.00    -0.354 N 
ATOM     56  N   UNL A   1      45.930  29.876  27.500  1.00  0.00    -0.248 NA
ATOM     57  C   UNL A   1      48.028  30.790  27.239  1.00  0.00     0.031 C 
ATOM     58  C   UNL A   1      43.703  30.725  30.199  1.00  0.00     0.029 A 
ATOM     59  C   UNL A   1      43.667  31.084  28.858  1.00  0.00     0.049 A 
ATOM     60  H   UNL A   1      42.042  30.984  27.534  1.00  0.00     0.167 HD
ATOM     61  C   UNL A   1      45.771  31.219  27.643  1.00  0.00     0.074 A 
ATOM     62  C   UNL A   1      47.107  31.756  27.409  1.00  0.00     0.031 C 
ATOM     63  C   UNL A   1      44.584  31.808  27.979  1.00  0.00     0.034 A 
BRANCH  50  64
ATOM     64  C   UNL A   1      39.152  29.392  29.676  1.00  0.00     0.023 A 
ATOM     65  C   UNL A   1      38.206  30.304  29.162  1.00  0.00     0.031 A 
ATOM     66  C   UNL A   1      38.752  28.719  30.853  1.00  0.00     0.131 A 
ATOM     67  C   UNL A   1      36.961  30.510  29.788  1.00  0.00     0.055 A 
ATOM     68  C   UNL A   1      37.492  28.889  31.448  1.00  0.00     0.041 A 
ATOM     69  F   UNL A   1      39.561  27.899  31.530  1.00  0.00    -0.206 F 
ATOM     70  C   UNL A   1      36.589  29.792  30.920  1.00  0.00     0.022 A 
BRANCH  67  71
ATOM     71  S   UNL A   1      35.843  31.772  29.124  1.00  0.00     0.124 S 
ATOM     72  O   UNL A   1      35.223  31.072  28.004  1.00  0.00    -0.237 OA
ATOM     73  O   UNL A   1      34.983  32.058  30.266  1.00  0.00    -0.237 OA
ATOM     74  O   UNL A   1      36.745  32.859  28.745  1.00  0.00    -0.744 OA
ENDBRANCH  67  71
ENDBRANCH  50  64
BRANCH  51  75
ATOM     75  C   UNL A   1      48.379  27.253  26.526  1.00  0.00     0.023 A 
ATOM     76  C   UNL A   1      48.061  27.431  25.142  1.00  0.00     0.031 A 
ATOM     77  C   UNL A   1      49.574  26.575  26.815  1.00  0.00     0.131 A 
ATOM     78  C   UNL A   1      48.983  27.073  24.130  1.00  0.00     0.055 A 
ATOM     79  C   UNL A   1      50.475  26.207  25.801  1.00  0.00     0.041 A 
ATOM     80  F   UNL A   1      49.961  26.391  28.085  1.00  0.00    -0.206 F 
ATOM     81  C   UNL A   1      50.205  26.489  24.463  1.00  0.00     0.022 A 
BRANCH  78  82
ATOM     82  S   UNL A   1      48.665  27.510  22.380  1.00  0.00     0.124 S 
ATOM     83  O   UNL A   1      48.647  26.207  21.724  1.00  0.00    -0.237 OA
ATOM     84  O   UNL A   1      47.377  28.191  22.442  1.00  0.00    -0.237 OA
ATOM     85  O   UNL A   1      49.784  28.380  22.030  1.00  0.00    -0.744 OA
ENDBRANCH  78  82
ENDBRANCH  51  75
BRANCH  63  86
ATOM     86  C   UNL A   1      44.235  33.193  27.509  1.00  0.00     0.023 A 
ATOM     87  C   UNL A   1      44.332  34.292  28.368  1.00  0.00     0.031 A 
ATOM     88  C   UNL A   1      43.928  33.487  26.163  1.00  0.00     0.131 A 
ATOM     89  C   UNL A   1      43.987  35.576  27.947  1.00  0.00     0.055 A 
ATOM     90  C   UNL A   1      43.713  34.791  25.710  1.00  0.00     0.041 A 
ATOM     91  F   UNL A   1      43.844  32.532  25.225  1.00  0.00    -0.206 F 
ATOM     92  C   UNL A   1      43.709  35.845  26.613  1.00  0.00     0.022 A 
BRANCH  89  93
ATOM     93  S   UNL A   1      43.778  36.825  29.233  1.00  0.00     0.124 S 
ATOM     94  O   UNL A   1      43.106  36.060  30.280  1.00  0.00    -0.237 OA
ATOM     95  O   UNL A   1      45.155  37.214  29.523  1.00  0.00    -0.237 OA
ATOM     96  O   UNL A   1      42.960  37.848  28.586  1.00  0.00    -0.744 OA
ENDBRANCH  89  93
ENDBRANCH  63  86
ENDBRANCH  37  38
ENDBRANCH  30  32
ENDBRANCH  29  30
ENDBRANCH  28  29
ENDBRANCH  27  28
ENDBRANCH   1  27
TORSDOF 20
ENDMDL
MODEL 3
REMARK VINA RESULT:     -11.9      4.454     10.501
REMARK SMILES Cc1cc(C(=O)OCCOCCOC(=O)c2ccc(-c3c4nc(c(-c5cc(S(=O)(=O)[O-])ccc5F)c5ccc([nH]5)c(-c5cc(S(=O)(=O)[O-])ccc5F)c5nc(c(-c6cc(S(=O)(=O)[O-])ccc6F)c6ccc3[nH]6)C=C5)C=C4)cc2)ccc1NS(=O)(=O)c1c(F)cccc1F
REMARK SMILES IDX 10 1 9 2 8 3 7 4 5 5 6 6 4 7 1 8 2 9 3 10 81 11 80 12 79 13
REMARK SMILES IDX 82 14 83 16 84 17 85 18 86 19 87 20 92 21 88 22 89 23 91 24
REMARK SMILES IDX 93 25 90 26 11 27 12 28 13 29 14 30 15 31 16 32 17 33 78 34
REMARK SMILES IDX 18 35 77 36 19 37 20 38 21 39 71 40 22 41 76 42 70 43 72 44
REMARK SMILES IDX 23 45 75 46 69 47 68 48 24 50 56 51 36 52 55 53 37 54 40 55
REMARK SMILES IDX 54 56 73 57 38 58 39 59 53 61 74 62 41 63 25 64 26 65 34 66
REMARK SMILES IDX 27 67 33 68 35 69 32 70 28 71 29 72 30 73 31 74 57 75 58 76
REMARK SMILES IDX 66 77 59 78 65 79 67 80 64 81 60 82 61 83 62 84 63 85 42 86
REMARK SMILES IDX 43 87 51 88 44 89 50 90 52 91 49 92 45 93 46 94 47 95 48 96
REMARK H PARENT 82 15 72 49 40 60
REMARK Flexibility Score: inf
ROOT
ATOM      1  O   UNL A   1      37.289  21.411  25.770  1.00  0.00    -0.374 OA
ENDROOT
BRANCH   1   2
ATOM      2  C   UNL A   1      35.882  21.524  25.590  1.00  0.00     0.202 C 
BRANCH   2   3
ATOM      3  C   UNL A   1      35.497  20.237  24.951  1.00  0.00     0.261 C 
BRANCH   3   4
ATOM      4  O   UNL A   1      34.168  19.795  25.290  1.00  0.00    -0.460 OA
BRANCH   4   5
ATOM      5  C   UNL A   1      33.325  19.364  24.305  1.00  0.00     0.338 C 
ATOM      6  O   UNL A   1      33.200  18.271  23.824  1.00  0.00    -0.246 OA
BRANCH   5   7
ATOM      7  C   UNL A   1      32.404  20.494  24.067  1.00  0.00     0.060 A 
ATOM      8  C   UNL A   1      31.018  23.129  26.357  1.00  0.00     0.046 C 
ATOM      9  C   UNL A   1      31.505  22.466  25.102  1.00  0.00    -0.026 A 
ATOM     10  C   UNL A   1      31.893  21.127  25.193  1.00  0.00     0.021 A 
ATOM     11  C   UNL A   1      31.663  23.129  23.869  1.00  0.00     0.052 A 
ATOM     12  C   UNL A   1      31.802  22.378  22.703  1.00  0.00     0.028 A 
ATOM     13  C   UNL A   1      32.243  21.063  22.804  1.00  0.00     0.018 A 
BRANCH  11  14
ATOM     14  N   UNL A   1      31.961  24.528  23.910  1.00  0.00    -0.279 N 
ATOM     15  H   UNL A   1      31.234  25.120  24.212  1.00  0.00     0.180 HD
BRANCH  14  16
ATOM     16  S   UNL A   1      33.407  25.274  23.500  1.00  0.00     0.267 S 
ATOM     17  O   UNL A   1      34.451  24.336  23.860  1.00  0.00    -0.201 OA
ATOM     18  O   UNL A   1      33.236  25.693  22.122  1.00  0.00    -0.201 OA
BRANCH  16  19
ATOM     19  C   UNL A   1      33.660  26.735  24.438  1.00  0.00     0.158 A 
ATOM     20  C   UNL A   1      33.527  26.644  25.822  1.00  0.00     0.146 A 
ATOM     21  C   UNL A   1      33.833  27.981  23.863  1.00  0.00     0.146 A 
ATOM     22  F   UNL A   1      33.472  25.452  26.433  1.00  0.00    -0.205 F 
ATOM     23  C   UNL A   1      33.457  27.787  26.617  1.00  0.00     0.041 A 
ATOM     24  C   UNL A   1      33.716  29.131  24.643  1.00  0.00     0.041 A 
ATOM     25  F   UNL A   1      34.064  28.118  22.550  1.00  0.00    -0.205 F 
ATOM     26  C   UNL A   1      33.513  29.042  26.021  1.00  0.00     0.006 A 
ENDBRANCH  16  19
ENDBRANCH  14  16
ENDBRANCH  11  14
ENDBRANCH   5   7
ENDBRANCH   4   5
ENDBRANCH   3   4
ENDBRANCH   2   3
ENDBRANCH   1   2
BRANCH   1  27
ATOM     27  C   UNL A   1      38.048  22.463  25.232  1.00  0.00     0.202 C 
BRANCH  27  28
ATOM     28  C   UNL A   1      38.335  23.569  26.255  1.00  0.00     0.261 C 
BRANCH  28  29
ATOM     29  O   UNL A   1      39.328  23.120  27.203  1.00  0.00    -0.460 OA
BRANCH  29  30
ATOM     30  C   UNL A   1      40.423  23.921  27.342  1.00  0.00     0.338 C 
ATOM     31  O   UNL A   1      41.571  23.523  27.449  1.00  0.00    -0.246 OA
BRANCH  30  32
ATOM     32  C   UNL A   1      40.000  25.343  27.506  1.00  0.00     0.060 A 
ATOM     33  C   UNL A   1      40.483  26.339  26.635  1.00  0.00     0.016 A 
ATOM     34  C   UNL A   1      39.360  25.706  28.687  1.00  0.00     0.016 A 
ATOM     35  C   UNL A   1      40.474  27.688  27.032  1.00  0.00     0.010 A 
ATOM     36  C   UNL A   1      39.454  27.011  29.113  1.00  0.00     0.010 A 
ATOM     37  C   UNL A   1      40.044  28.008  28.317  1.00  0.00    -0.014 A 
BRANCH  37  38
ATOM     38  C   UNL A   1      40.235  29.287  29.013  1.00  0.00     0.031 A 
ATOM     39  C   UNL A   1      39.128  30.267  28.944  1.00  0.00     0.074 A 
ATOM     40  C   UNL A   1      41.220  29.449  29.937  1.00  0.00     0.049 A 
ATOM     41  N   UNL A   1      39.190  31.439  29.459  1.00  0.00    -0.248 NA
ATOM     42  C   UNL A   1      37.854  30.035  28.260  1.00  0.00     0.031 C 
ATOM     43  C   UNL A   1      41.279  30.370  31.077  1.00  0.00     0.029 A 
ATOM     44  N   UNL A   1      42.437  28.777  30.050  1.00  0.00    -0.354 N 
ATOM     45  C   UNL A   1      37.923  31.964  29.490  1.00  0.00     0.074 A 
ATOM     46  C   UNL A   1      37.153  31.115  28.622  1.00  0.00     0.031 C 
ATOM     47  C   UNL A   1      42.539  30.423  31.556  1.00  0.00     0.029 A 
ATOM     48  C   UNL A   1      43.368  29.610  30.680  1.00  0.00     0.049 A 
ATOM     49  H   UNL A   1      42.614  27.860  29.736  1.00  0.00     0.167 HD
ATOM     50  C   UNL A   1      37.692  32.989  30.354  1.00  0.00     0.034 A 
ATOM     51  C   UNL A   1      44.516  29.942  30.036  1.00  0.00     0.034 A 
ATOM     52  C   UNL A   1      38.966  33.471  30.914  1.00  0.00     0.049 A 
ATOM     53  C   UNL A   1      44.388  31.420  29.742  1.00  0.00     0.074 A 
ATOM     54  C   UNL A   1      39.564  33.395  32.159  1.00  0.00     0.029 A 
ATOM     55  N   UNL A   1      39.969  33.865  30.026  1.00  0.00    -0.354 N 
ATOM     56  N   UNL A   1      43.230  32.030  29.677  1.00  0.00    -0.248 NA
ATOM     57  C   UNL A   1      45.511  32.348  29.702  1.00  0.00     0.031 C 
ATOM     58  C   UNL A   1      40.965  33.624  31.977  1.00  0.00     0.029 A 
ATOM     59  C   UNL A   1      41.209  33.880  30.633  1.00  0.00     0.049 A 
ATOM     60  H   UNL A   1      39.811  34.105  29.085  1.00  0.00     0.167 HD
ATOM     61  C   UNL A   1      43.418  33.374  29.745  1.00  0.00     0.074 A 
ATOM     62  C   UNL A   1      44.867  33.528  29.696  1.00  0.00     0.031 C 
ATOM     63  C   UNL A   1      42.396  34.274  29.877  1.00  0.00     0.034 A 
BRANCH  50  64
ATOM     64  C   UNL A   1      36.339  33.480  30.823  1.00  0.00     0.023 A 
ATOM     65  C   UNL A   1      35.517  34.157  29.897  1.00  0.00     0.031 A 
ATOM     66  C   UNL A   1      35.824  33.414  32.138  1.00  0.00     0.131 A 
ATOM     67  C   UNL A   1      34.280  34.715  30.275  1.00  0.00     0.055 A 
ATOM     68  C   UNL A   1      34.570  33.926  32.502  1.00  0.00     0.041 A 
ATOM     69  F   UNL A   1      36.513  32.900  33.161  1.00  0.00    -0.206 F 
ATOM     70  C   UNL A   1      33.791  34.587  31.570  1.00  0.00     0.022 A 
BRANCH  67  71
ATOM     71  S   UNL A   1      33.331  35.656  29.051  1.00  0.00     0.124 S 
ATOM     72  O   UNL A   1      32.450  34.635  28.496  1.00  0.00    -0.237 OA
ATOM     73  O   UNL A   1      32.699  36.683  29.872  1.00  0.00    -0.237 OA
ATOM     74  O   UNL A   1      34.358  36.148  28.132  1.00  0.00    -0.744 OA
ENDBRANCH  67  71
ENDBRANCH  50  64
BRANCH  51  75
ATOM     75  C   UNL A   1      44.999  28.796  29.178  1.00  0.00     0.023 A 
ATOM     76  C   UNL A   1      45.211  29.044  27.784  1.00  0.00     0.031 A 
ATOM     77  C   UNL A   1      45.688  27.708  29.736  1.00  0.00     0.131 A 
ATOM     78  C   UNL A   1      46.182  28.318  27.055  1.00  0.00     0.055 A 
ATOM     79  C   UNL A   1      46.637  26.980  28.997  1.00  0.00     0.041 A 
ATOM     80  F   UNL A   1      45.568  27.424  31.041  1.00  0.00    -0.206 F 
ATOM     81  C   UNL A   1      46.917  27.306  27.671  1.00  0.00     0.022 A 
BRANCH  78  82
ATOM     82  S   UNL A   1      46.606  28.792  25.337  1.00  0.00     0.124 S 
ATOM     83  O   UNL A   1      46.291  30.216  25.312  1.00  0.00    -0.237 OA
ATOM     84  O   UNL A   1      48.025  28.469  25.250  1.00  0.00    -0.237 OA
ATOM     85  O   UNL A   1      45.748  27.940  24.519  1.00  0.00    -0.744 OA
ENDBRANCH  78  82
ENDBRANCH  51  75
BRANCH  63  86
ATOM     86  C   UNL A   1      42.496  35.663  29.310  1.00  0.00     0.023 A 
ATOM     87  C   UNL A   1      43.308  36.630  29.911  1.00  0.00     0.031 A 
ATOM     88  C   UNL A   1      41.902  36.031  28.084  1.00  0.00     0.131 A 
ATOM     89  C   UNL A   1      43.387  37.928  29.405  1.00  0.00     0.055 A 
ATOM     90  C   UNL A   1      42.090  37.289  27.506  1.00  0.00     0.041 A 
ATOM     91  F   UNL A   1      41.134  35.186  27.381  1.00  0.00    -0.206 F 
ATOM     92  C   UNL A   1      42.811  38.261  28.186  1.00  0.00     0.022 A 
BRANCH  89  93
ATOM     93  S   UNL A   1      44.141  39.173  30.473  1.00  0.00     0.124 S 
ATOM     94  O   UNL A   1      43.827  38.650  31.801  1.00  0.00    -0.237 OA
ATOM     95  O   UNL A   1      45.548  39.110  30.089  1.00  0.00    -0.237 OA
ATOM     96  O   UNL A   1      43.445  40.403  30.108  1.00  0.00    -0.744 OA
ENDBRANCH  89  93
ENDBRANCH  63  86
ENDBRANCH  37  38
ENDBRANCH  30  32
ENDBRANCH  29  30
ENDBRANCH  28  29
ENDBRANCH  27  28
ENDBRANCH   1  27
TORSDOF 20
ENDMDL
