MODEL 1
REMARK VINA RESULT:     -11.7      0.000      0.000
REMARK SMILES C[C@@H](C(=O)OCCOCCOC(=O)c1ccc(-c2c3nc(c(-c4cc(S(=O)(=O)[O-])ccc4F)c4ccc([nH]4)c(-c4cc(S(=O)(=O)[O-])ccc4F)c4nc(c(-c5cc(S(=O)(=O)[O-])ccc5F)c5ccc2[nH]5)C=C4)C=C3)cc1)c1ccc(C[C@H]2CCC[C@@H]2O)cc1F
REMARK SMILES IDX 7 1 6 2 5 3 3 4 4 5 2 6 1 7 77 8 78 9 89 10 79 11 88 12
REMARK SMILES IDX 90 13 80 14 81 15 82 16 83 17 86 18 84 19 85 20 87 21 8 23
REMARK SMILES IDX 9 24 10 25 11 26 12 27 13 28 14 29 15 30 76 31 16 32 75 33
REMARK SMILES IDX 17 34 18 35 19 36 69 37 20 38 74 39 68 40 70 41 21 42 73 43
REMARK SMILES IDX 67 44 66 45 22 47 54 48 34 49 53 50 35 51 38 52 52 53 71 54
REMARK SMILES IDX 36 55 37 56 51 58 72 59 39 60 23 61 24 62 32 63 25 64 31 65
REMARK SMILES IDX 33 66 30 67 26 68 27 69 28 70 29 71 55 72 56 73 64 74 57 75
REMARK SMILES IDX 63 76 65 77 62 78 58 79 59 80 60 81 61 82 40 83 41 84 49 85
REMARK SMILES IDX 42 86 48 87 50 88 47 89 43 90 44 91 45 92 46 93
REMARK H PARENT 87 22 70 46 38 57
REMARK Flexibility Score: inf
ROOT
ATOM      1  C   UNL A   1      33.614  19.755  24.799  1.00  0.00     0.202 C 
ENDROOT
BRANCH   1   2
ATOM      2  C   UNL A   1      33.213  20.765  25.879  1.00  0.00     0.261 C 
BRANCH   2   3
ATOM      3  O   UNL A   1      32.331  21.757  25.329  1.00  0.00    -0.463 OA
BRANCH   3   4
ATOM      4  C   UNL A   1      32.783  23.038  25.370  1.00  0.00     0.313 C 
ATOM      5  O   UNL A   1      33.734  23.462  24.722  1.00  0.00    -0.252 OA
BRANCH   4   6
ATOM      6  C   UNL A   1      31.936  23.924  26.283  1.00  0.00     0.129 C 
ATOM      7  C   UNL A   1      30.579  23.335  26.697  1.00  0.00     0.025 C 
BRANCH   6   8
ATOM      8  C   UNL A   1      31.745  25.339  25.748  1.00  0.00     0.002 A 
ATOM      9  C   UNL A   1      32.358  26.412  26.408  1.00  0.00     0.008 A 
ATOM     10  C   UNL A   1      30.935  25.636  24.646  1.00  0.00     0.127 A 
ATOM     11  C   UNL A   1      32.148  27.728  25.983  1.00  0.00     0.004 A 
ATOM     12  C   UNL A   1      30.691  26.948  24.241  1.00  0.00     0.043 A 
ATOM     13  F   UNL A   1      30.352  24.658  23.944  1.00  0.00    -0.207 F 
ATOM     14  C   UNL A   1      31.276  28.016  24.924  1.00  0.00    -0.045 A 
BRANCH  14  15
ATOM     15  C   UNL A   1      30.982  29.440  24.517  1.00  0.00     0.041 C 
BRANCH  15  16
ATOM     16  C   UNL A   1      29.811  29.652  23.542  1.00  0.00     0.022 C 
ATOM     17  C   UNL A   1      28.920  30.876  23.803  1.00  0.00     0.007 C 
ATOM     18  C   UNL A   1      30.187  29.771  22.065  1.00  0.00     0.117 C 
ATOM     19  C   UNL A   1      28.453  31.356  22.423  1.00  0.00     0.003 C 
ATOM     20  C   UNL A   1      28.900  30.283  21.439  1.00  0.00     0.032 C 
BRANCH  18  21
ATOM     21  O   UNL A   1      30.580  28.522  21.533  1.00  0.00    -0.393 OA
ATOM     22  H   UNL A   1      29.914  28.219  20.895  1.00  0.00     0.210 HD
ENDBRANCH  18  21
ENDBRANCH  15  16
ENDBRANCH  14  15
ENDBRANCH   6   8
ENDBRANCH   4   6
ENDBRANCH   3   4
ENDBRANCH   2   3
ENDBRANCH   1   2
BRANCH   1  23
ATOM     23  O   UNL A   1      35.006  19.441  24.705  1.00  0.00    -0.374 OA
BRANCH  23  24
ATOM     24  C   UNL A   1      35.932  20.467  25.058  1.00  0.00     0.202 C 
BRANCH  24  25
ATOM     25  C   UNL A   1      37.422  20.119  24.992  1.00  0.00     0.261 C 
BRANCH  25  26
ATOM     26  O   UNL A   1      38.263  21.268  25.175  1.00  0.00    -0.460 OA
BRANCH  26  27
ATOM     27  C   UNL A   1      39.321  21.056  25.994  1.00  0.00     0.338 C 
ATOM     28  O   UNL A   1      39.968  20.022  26.106  1.00  0.00    -0.246 OA
BRANCH  27  29
ATOM     29  C   UNL A   1      39.735  22.323  26.622  1.00  0.00     0.060 A 
ATOM     30  C   UNL A   1      39.056  23.484  26.232  1.00  0.00     0.016 A 
ATOM     31  C   UNL A   1      40.799  22.389  27.525  1.00  0.00     0.016 A 
ATOM     32  C   UNL A   1      39.473  24.726  26.699  1.00  0.00     0.010 A 
ATOM     33  C   UNL A   1      41.223  23.640  27.985  1.00  0.00     0.010 A 
ATOM     34  C   UNL A   1      40.587  24.815  27.544  1.00  0.00    -0.014 A 
BRANCH  34  35
ATOM     35  C   UNL A   1      41.181  26.146  27.818  1.00  0.00     0.031 A 
ATOM     36  C   UNL A   1      42.553  26.447  27.280  1.00  0.00     0.074 A 
ATOM     37  C   UNL A   1      40.490  27.082  28.492  1.00  0.00     0.049 A 
ATOM     38  N   UNL A   1      43.280  27.525  27.413  1.00  0.00    -0.248 NA
ATOM     39  C   UNL A   1      43.190  25.383  26.487  1.00  0.00     0.031 C 
ATOM     40  C   UNL A   1      39.132  26.919  29.008  1.00  0.00     0.029 A 
ATOM     41  N   UNL A   1      40.838  28.359  28.855  1.00  0.00    -0.354 N 
ATOM     42  C   UNL A   1      44.464  27.270  26.727  1.00  0.00     0.074 A 
ATOM     43  C   UNL A   1      44.369  25.919  26.214  1.00  0.00     0.031 C 
ATOM     44  C   UNL A   1      38.762  28.053  29.627  1.00  0.00     0.029 A 
ATOM     45  C   UNL A   1      39.870  29.006  29.586  1.00  0.00     0.049 A 
ATOM     46  H   UNL A   1      41.698  28.771  28.615  1.00  0.00     0.167 HD
ATOM     47  C   UNL A   1      45.527  28.090  26.538  1.00  0.00     0.034 A 
ATOM     48  C   UNL A   1      39.888  30.219  30.174  1.00  0.00     0.034 A 
ATOM     49  C   UNL A   1      45.604  29.430  27.066  1.00  0.00     0.049 A 
ATOM     50  C   UNL A   1      41.120  31.081  30.028  1.00  0.00     0.074 A 
ATOM     51  C   UNL A   1      46.622  30.357  26.923  1.00  0.00     0.029 A 
ATOM     52  N   UNL A   1      44.629  30.033  27.852  1.00  0.00    -0.354 N 
ATOM     53  N   UNL A   1      42.232  30.832  29.374  1.00  0.00    -0.248 NA
ATOM     54  C   UNL A   1      41.097  32.388  30.696  1.00  0.00     0.031 C 
ATOM     55  C   UNL A   1      46.300  31.484  27.685  1.00  0.00     0.029 A 
ATOM     56  C   UNL A   1      45.040  31.301  28.234  1.00  0.00     0.049 A 
ATOM     57  H   UNL A   1      43.771  29.620  28.101  1.00  0.00     0.167 HD
ATOM     58  C   UNL A   1      43.024  31.968  29.523  1.00  0.00     0.074 A 
ATOM     59  C   UNL A   1      42.258  32.904  30.320  1.00  0.00     0.031 C 
ATOM     60  C   UNL A   1      44.269  32.219  29.041  1.00  0.00     0.034 A 
BRANCH  47  61
ATOM     61  C   UNL A   1      46.709  27.532  25.782  1.00  0.00     0.023 A 
ATOM     62  C   UNL A   1      47.029  27.954  24.479  1.00  0.00     0.031 A 
ATOM     63  C   UNL A   1      47.512  26.534  26.364  1.00  0.00     0.131 A 
ATOM     64  C   UNL A   1      48.073  27.331  23.777  1.00  0.00     0.055 A 
ATOM     65  C   UNL A   1      48.600  25.976  25.690  1.00  0.00     0.041 A 
ATOM     66  F   UNL A   1      47.242  26.071  27.595  1.00  0.00    -0.206 F 
ATOM     67  C   UNL A   1      48.877  26.363  24.384  1.00  0.00     0.022 A 
BRANCH  64  68
ATOM     68  S   UNL A   1      48.270  27.696  22.011  1.00  0.00     0.124 S 
ATOM     69  O   UNL A   1      47.002  28.351  21.701  1.00  0.00    -0.237 OA
ATOM     70  O   UNL A   1      49.452  28.550  21.995  1.00  0.00    -0.237 OA
ATOM     71  O   UNL A   1      48.445  26.376  21.406  1.00  0.00    -0.744 OA
ENDBRANCH  64  68
ENDBRANCH  47  61
BRANCH  48  72
ATOM     72  C   UNL A   1      38.726  30.684  30.986  1.00  0.00     0.023 A 
ATOM     73  C   UNL A   1      37.619  31.300  30.385  1.00  0.00     0.031 A 
ATOM     74  C   UNL A   1      38.735  30.567  32.388  1.00  0.00     0.131 A 
ATOM     75  C   UNL A   1      36.585  31.816  31.184  1.00  0.00     0.055 A 
ATOM     76  C   UNL A   1      37.678  31.031  33.175  1.00  0.00     0.041 A 
ATOM     77  F   UNL A   1      39.771  29.989  33.016  1.00  0.00    -0.206 F 
ATOM     78  C   UNL A   1      36.601  31.672  32.573  1.00  0.00     0.022 A 
BRANCH  75  79
ATOM     79  S   UNL A   1      35.258  32.759  30.385  1.00  0.00     0.124 S 
ATOM     80  O   UNL A   1      35.962  33.964  29.963  1.00  0.00    -0.237 OA
ATOM     81  O   UNL A   1      34.841  31.852  29.321  1.00  0.00    -0.237 OA
ATOM     82  O   UNL A   1      34.282  32.947  31.457  1.00  0.00    -0.744 OA
ENDBRANCH  75  79
ENDBRANCH  48  72
BRANCH  60  83
ATOM     83  C   UNL A   1      44.855  33.582  29.324  1.00  0.00     0.023 A 
ATOM     84  C   UNL A   1      44.661  34.669  28.455  1.00  0.00     0.031 A 
ATOM     85  C   UNL A   1      45.630  33.791  30.480  1.00  0.00     0.131 A 
ATOM     86  C   UNL A   1      45.280  35.899  28.726  1.00  0.00     0.055 A 
ATOM     87  C   UNL A   1      46.188  35.034  30.777  1.00  0.00     0.041 A 
ATOM     88  F   UNL A   1      45.851  32.787  31.345  1.00  0.00    -0.206 F 
ATOM     89  C   UNL A   1      46.027  36.093  29.890  1.00  0.00     0.022 A 
BRANCH  86  90
ATOM     90  S   UNL A   1      45.177  37.219  27.484  1.00  0.00     0.124 S 
ATOM     91  O   UNL A   1      43.807  37.077  27.004  1.00  0.00    -0.237 OA
ATOM     92  O   UNL A   1      45.454  38.413  28.276  1.00  0.00    -0.237 OA
ATOM     93  O   UNL A   1      46.214  36.862  26.517  1.00  0.00    -0.744 OA
ENDBRANCH  86  90
ENDBRANCH  60  83
ENDBRANCH  34  35
ENDBRANCH  27  29
ENDBRANCH  26  27
ENDBRANCH  25  26
ENDBRANCH  24  25
ENDBRANCH  23  24
ENDBRANCH   1  23
TORSDOF 21
ENDMDL
MODEL 2
REMARK VINA RESULT:     -11.4      1.727      2.116
REMARK SMILES C[C@@H](C(=O)OCCOCCOC(=O)c1ccc(-c2c3nc(c(-c4cc(S(=O)(=O)[O-])ccc4F)c4ccc([nH]4)c(-c4cc(S(=O)(=O)[O-])ccc4F)c4nc(c(-c5cc(S(=O)(=O)[O-])ccc5F)c5ccc2[nH]5)C=C4)C=C3)cc1)c1ccc(C[C@H]2CCC[C@@H]2O)cc1F
REMARK SMILES IDX 7 1 6 2 5 3 3 4 4 5 2 6 1 7 77 8 78 9 89 10 79 11 88 12
REMARK SMILES IDX 90 13 80 14 81 15 82 16 83 17 86 18 84 19 85 20 87 21 8 23
REMARK SMILES IDX 9 24 10 25 11 26 12 27 13 28 14 29 15 30 76 31 16 32 75 33
REMARK SMILES IDX 17 34 18 35 19 36 69 37 20 38 74 39 68 40 70 41 21 42 73 43
REMARK SMILES IDX 67 44 66 45 22 47 54 48 34 49 53 50 35 51 38 52 52 53 71 54
REMARK SMILES IDX 36 55 37 56 51 58 72 59 39 60 23 61 24 62 32 63 25 64 31 65
REMARK SMILES IDX 33 66 30 67 26 68 27 69 28 70 29 71 55 72 56 73 64 74 57 75
REMARK SMILES IDX 63 76 65 77 62 78 58 79 59 80 60 81 61 82 40 83 41 84 49 85
REMARK SMILES IDX 42 86 48 87 50 88 47 89 43 90 44 91 45 92 46 93
REMARK H PARENT 87 22 70 46 38 57
REMARK Flexibility Score: inf
ROOT
ATOM      1  C   UNL A   1      35.922  23.183  25.383  1.00  0.00     0.202 C 
ENDROOT
BRANCH   1   2
ATOM      2  C   UNL A   1      34.539  23.063  26.032  1.00  0.00     0.261 C 
BRANCH   2   3
ATOM      3  O   UNL A   1      33.512  23.127  25.030  1.00  0.00    -0.463 OA
BRANCH   3   4
ATOM      4  C   UNL A   1      32.290  23.537  25.460  1.00  0.00     0.313 C 
ATOM      5  O   UNL A   1      32.015  23.805  26.624  1.00  0.00    -0.252 OA
BRANCH   4   6
ATOM      6  C   UNL A   1      31.290  23.684  24.313  1.00  0.00     0.129 C 
ATOM      7  C   UNL A   1      31.511  22.738  23.122  1.00  0.00     0.025 C 
BRANCH   6   8
ATOM      8  C   UNL A   1      31.142  25.117  23.817  1.00  0.00     0.002 A 
ATOM      9  C   UNL A   1      29.951  25.812  24.066  1.00  0.00     0.008 A 
ATOM     10  C   UNL A   1      32.127  25.771  23.068  1.00  0.00     0.127 A 
ATOM     11  C   UNL A   1      29.758  27.104  23.566  1.00  0.00     0.004 A 
ATOM     12  C   UNL A   1      31.925  27.043  22.534  1.00  0.00     0.043 A 
ATOM     13  F   UNL A   1      33.304  25.184  22.828  1.00  0.00    -0.207 F 
ATOM     14  C   UNL A   1      30.722  27.718  22.756  1.00  0.00    -0.045 A 
BRANCH  14  15
ATOM     15  C   UNL A   1      30.482  29.078  22.146  1.00  0.00     0.041 C 
BRANCH  15  16
ATOM     16  C   UNL A   1      29.301  29.888  22.708  1.00  0.00     0.022 C 
ATOM     17  C   UNL A   1      29.611  30.804  23.901  1.00  0.00     0.007 C 
ATOM     18  C   UNL A   1      28.584  30.800  21.713  1.00  0.00     0.117 C 
ATOM     19  C   UNL A   1      28.682  32.016  23.751  1.00  0.00     0.003 C 
ATOM     20  C   UNL A   1      27.725  31.666  22.620  1.00  0.00     0.032 C 
BRANCH  18  21
ATOM     21  O   UNL A   1      27.809  30.053  20.797  1.00  0.00    -0.393 OA
ATOM     22  H   UNL A   1      26.957  29.828  21.204  1.00  0.00     0.210 HD
ENDBRANCH  18  21
ENDBRANCH  15  16
ENDBRANCH  14  15
ENDBRANCH   6   8
ENDBRANCH   4   6
ENDBRANCH   3   4
ENDBRANCH   2   3
ENDBRANCH   1   2
BRANCH   1  23
ATOM     23  O   UNL A   1      36.300  22.131  24.490  1.00  0.00    -0.374 OA
BRANCH  23  24
ATOM     24  C   UNL A   1      36.195  20.794  24.975  1.00  0.00     0.202 C 
BRANCH  24  25
ATOM     25  C   UNL A   1      37.501  20.052  25.270  1.00  0.00     0.261 C 
BRANCH  25  26
ATOM     26  O   UNL A   1      38.656  20.895  25.136  1.00  0.00    -0.460 OA
BRANCH  26  27
ATOM     27  C   UNL A   1      39.602  20.696  26.084  1.00  0.00     0.338 C 
ATOM     28  O   UNL A   1      40.202  19.654  26.316  1.00  0.00    -0.246 OA
BRANCH  27  29
ATOM     29  C   UNL A   1      39.972  21.980  26.706  1.00  0.00     0.060 A 
ATOM     30  C   UNL A   1      39.312  23.128  26.249  1.00  0.00     0.016 A 
ATOM     31  C   UNL A   1      40.980  22.073  27.669  1.00  0.00     0.016 A 
ATOM     32  C   UNL A   1      39.696  24.383  26.710  1.00  0.00     0.010 A 
ATOM     33  C   UNL A   1      41.370  23.337  28.124  1.00  0.00     0.010 A 
ATOM     34  C   UNL A   1      40.756  24.497  27.617  1.00  0.00    -0.014 A 
BRANCH  34  35
ATOM     35  C   UNL A   1      41.327  25.838  27.895  1.00  0.00     0.031 A 
ATOM     36  C   UNL A   1      42.718  26.144  27.408  1.00  0.00     0.074 A 
ATOM     37  C   UNL A   1      40.601  26.778  28.526  1.00  0.00     0.049 A 
ATOM     38  N   UNL A   1      43.429  27.230  27.554  1.00  0.00    -0.248 NA
ATOM     39  C   UNL A   1      43.395  25.074  26.658  1.00  0.00     0.031 C 
ATOM     40  C   UNL A   1      39.225  26.609  28.989  1.00  0.00     0.029 A 
ATOM     41  N   UNL A   1      40.922  28.063  28.883  1.00  0.00    -0.354 N 
ATOM     42  C   UNL A   1      44.642  26.976  26.920  1.00  0.00     0.074 A 
ATOM     43  C   UNL A   1      44.579  25.617  26.425  1.00  0.00     0.031 C 
ATOM     44  C   UNL A   1      38.820  27.749  29.576  1.00  0.00     0.029 A 
ATOM     45  C   UNL A   1      39.920  28.711  29.565  1.00  0.00     0.049 A 
ATOM     46  H   UNL A   1      41.789  28.480  28.672  1.00  0.00     0.167 HD
ATOM     47  C   UNL A   1      45.704  27.804  26.762  1.00  0.00     0.034 A 
ATOM     48  C   UNL A   1      39.904  29.934  30.134  1.00  0.00     0.034 A 
ATOM     49  C   UNL A   1      45.747  29.152  27.272  1.00  0.00     0.049 A 
ATOM     50  C   UNL A   1      41.134  30.804  30.025  1.00  0.00     0.074 A 
ATOM     51  C   UNL A   1      46.763  30.086  27.156  1.00  0.00     0.029 A 
ATOM     52  N   UNL A   1      44.736  29.758  28.008  1.00  0.00    -0.354 N 
ATOM     53  N   UNL A   1      42.273  30.556  29.420  1.00  0.00    -0.248 NA
ATOM     54  C   UNL A   1      41.072  32.122  30.671  1.00  0.00     0.031 C 
ATOM     55  C   UNL A   1      46.399  31.222  27.887  1.00  0.00     0.029 A 
ATOM     56  C   UNL A   1      45.121  31.035  28.388  1.00  0.00     0.049 A 
ATOM     57  H   UNL A   1      43.873  29.341  28.229  1.00  0.00     0.167 HD
ATOM     58  C   UNL A   1      43.048  31.702  29.584  1.00  0.00     0.074 A 
ATOM     59  C   UNL A   1      42.242  32.642  30.334  1.00  0.00     0.031 C 
ATOM     60  C   UNL A   1      44.309  31.957  29.148  1.00  0.00     0.034 A 
BRANCH  47  61
ATOM     61  C   UNL A   1      46.921  27.245  26.063  1.00  0.00     0.023 A 
ATOM     62  C   UNL A   1      47.927  26.550  26.759  1.00  0.00     0.031 A 
ATOM     63  C   UNL A   1      47.093  27.440  24.681  1.00  0.00     0.131 A 
ATOM     64  C   UNL A   1      49.090  26.141  26.085  1.00  0.00     0.055 A 
ATOM     65  C   UNL A   1      48.214  26.959  24.002  1.00  0.00     0.041 A 
ATOM     66  F   UNL A   1      46.180  28.117  23.967  1.00  0.00    -0.206 F 
ATOM     67  C   UNL A   1      49.228  26.319  24.707  1.00  0.00     0.022 A 
BRANCH  64  68
ATOM     68  S   UNL A   1      50.482  25.511  27.063  1.00  0.00     0.124 S 
ATOM     69  O   UNL A   1      50.714  26.614  27.993  1.00  0.00    -0.237 OA
ATOM     70  O   UNL A   1      49.935  24.290  27.642  1.00  0.00    -0.237 OA
ATOM     71  O   UNL A   1      51.536  25.314  26.069  1.00  0.00    -0.744 OA
ENDBRANCH  64  68
ENDBRANCH  47  61
BRANCH  48  72
ATOM     72  C   UNL A   1      38.706  30.400  30.892  1.00  0.00     0.023 A 
ATOM     73  C   UNL A   1      37.645  31.050  30.246  1.00  0.00     0.031 A 
ATOM     74  C   UNL A   1      38.634  30.248  32.288  1.00  0.00     0.131 A 
ATOM     75  C   UNL A   1      36.577  31.565  30.997  1.00  0.00     0.055 A 
ATOM     76  C   UNL A   1      37.542  30.712  33.026  1.00  0.00     0.041 A 
ATOM     77  F   UNL A   1      39.623  29.636  32.959  1.00  0.00    -0.206 F 
ATOM     78  C   UNL A   1      36.512  31.387  32.381  1.00  0.00     0.022 A 
BRANCH  75  79
ATOM     79  S   UNL A   1      35.312  32.551  30.150  1.00  0.00     0.124 S 
ATOM     80  O   UNL A   1      34.902  31.652  29.079  1.00  0.00    -0.237 OA
ATOM     81  O   UNL A   1      34.337  32.770  31.214  1.00  0.00    -0.237 OA
ATOM     82  O   UNL A   1      36.040  33.744  29.723  1.00  0.00    -0.744 OA
ENDBRANCH  75  79
ENDBRANCH  48  72
BRANCH  60  83
ATOM     83  C   UNL A   1      44.871  33.330  29.434  1.00  0.00     0.023 A 
ATOM     84  C   UNL A   1      44.691  34.406  28.548  1.00  0.00     0.031 A 
ATOM     85  C   UNL A   1      45.609  33.560  30.610  1.00  0.00     0.131 A 
ATOM     86  C   UNL A   1      45.287  35.646  28.824  1.00  0.00     0.055 A 
ATOM     87  C   UNL A   1      46.145  34.812  30.910  1.00  0.00     0.041 A 
ATOM     88  F   UNL A   1      45.816  32.568  31.492  1.00  0.00    -0.206 F 
ATOM     89  C   UNL A   1      45.998  35.861  30.008  1.00  0.00     0.022 A 
BRANCH  86  90
ATOM     90  S   UNL A   1      45.206  36.951  27.566  1.00  0.00     0.124 S 
ATOM     91  O   UNL A   1      45.528  38.143  28.344  1.00  0.00    -0.237 OA
ATOM     92  O   UNL A   1      46.220  36.523  26.607  1.00  0.00    -0.237 OA
ATOM     93  O   UNL A   1      43.829  36.879  27.083  1.00  0.00    -0.744 OA
ENDBRANCH  86  90
ENDBRANCH  60  83
ENDBRANCH  34  35
ENDBRANCH  27  29
ENDBRANCH  26  27
ENDBRANCH  25  26
ENDBRANCH  24  25
ENDBRANCH  23  24
ENDBRANCH   1  23
TORSDOF 21
ENDMDL
MODEL 3
REMARK VINA RESULT:     -11.3      4.871      9.834
REMARK SMILES C[C@@H](C(=O)OCCOCCOC(=O)c1ccc(-c2c3nc(c(-c4cc(S(=O)(=O)[O-])ccc4F)c4ccc([nH]4)c(-c4cc(S(=O)(=O)[O-])ccc4F)c4nc(c(-c5cc(S(=O)(=O)[O-])ccc5F)c5ccc2[nH]5)C=C4)C=C3)cc1)c1ccc(C[C@H]2CCC[C@@H]2O)cc1F
REMARK SMILES IDX 7 1 6 2 5 3 3 4 4 5 2 6 1 7 77 8 78 9 89 10 79 11 88 12
REMARK SMILES IDX 90 13 80 14 81 15 82 16 83 17 86 18 84 19 85 20 87 21 8 23
REMARK SMILES IDX 9 24 10 25 11 26 12 27 13 28 14 29 15 30 76 31 16 32 75 33
REMARK SMILES IDX 17 34 18 35 19 36 69 37 20 38 74 39 68 40 70 41 21 42 73 43
REMARK SMILES IDX 67 44 66 45 22 47 54 48 34 49 53 50 35 51 38 52 52 53 71 54
REMARK SMILES IDX 36 55 37 56 51 58 72 59 39 60 23 61 24 62 32 63 25 64 31 65
REMARK SMILES IDX 33 66 30 67 26 68 27 69 28 70 29 71 55 72 56 73 64 74 57 75
REMARK SMILES IDX 63 76 65 77 62 78 58 79 59 80 60 81 61 82 40 83 41 84 49 85
REMARK SMILES IDX 42 86 48 87 50 88 47 89 43 90 44 91 45 92 46 93
REMARK H PARENT 87 22 70 46 38 57
REMARK Flexibility Score: inf
ROOT
ATOM      1  C   UNL A   1      32.901  27.530  26.589  1.00  0.00     0.202 C 
ENDROOT
BRANCH   1   2
ATOM      2  C   UNL A   1      31.664  26.650  26.798  1.00  0.00     0.261 C 
BRANCH   2   3
ATOM      3  O   UNL A   1      31.967  25.283  26.479  1.00  0.00    -0.463 OA
BRANCH   3   4
ATOM      4  C   UNL A   1      30.898  24.486  26.215  1.00  0.00     0.313 C 
ATOM      5  O   UNL A   1      30.154  24.015  27.066  1.00  0.00    -0.252 OA
BRANCH   4   6
ATOM      6  C   UNL A   1      30.685  24.279  24.715  1.00  0.00     0.129 C 
ATOM      7  C   UNL A   1      31.717  23.376  24.023  1.00  0.00     0.025 C 
BRANCH   6   8
ATOM      8  C   UNL A   1      30.533  25.582  23.938  1.00  0.00     0.002 A 
ATOM      9  C   UNL A   1      31.588  26.028  23.131  1.00  0.00     0.008 A 
ATOM     10  C   UNL A   1      29.398  26.396  24.028  1.00  0.00     0.127 A 
ATOM     11  C   UNL A   1      31.506  27.252  22.459  1.00  0.00     0.004 A 
ATOM     12  C   UNL A   1      29.326  27.635  23.392  1.00  0.00     0.043 A 
ATOM     13  F   UNL A   1      28.338  26.012  24.747  1.00  0.00    -0.207 F 
ATOM     14  C   UNL A   1      30.395  28.092  22.617  1.00  0.00    -0.045 A 
BRANCH  14  15
ATOM     15  C   UNL A   1      30.340  29.450  21.960  1.00  0.00     0.041 C 
BRANCH  15  16
ATOM     16  C   UNL A   1      29.196  30.382  22.395  1.00  0.00     0.022 C 
ATOM     17  C   UNL A   1      29.546  31.442  23.450  1.00  0.00     0.007 C 
ATOM     18  C   UNL A   1      28.520  31.176  21.277  1.00  0.00     0.117 C 
ATOM     19  C   UNL A   1      28.671  32.660  23.126  1.00  0.00     0.003 C 
ATOM     20  C   UNL A   1      27.700  32.197  22.049  1.00  0.00     0.032 C 
BRANCH  18  21
ATOM     21  O   UNL A   1      27.713  30.342  20.471  1.00  0.00    -0.393 OA
ATOM     22  H   UNL A   1      28.170  29.499  20.319  1.00  0.00     0.210 HD
ENDBRANCH  18  21
ENDBRANCH  15  16
ENDBRANCH  14  15
ENDBRANCH   6   8
ENDBRANCH   4   6
ENDBRANCH   3   4
ENDBRANCH   2   3
ENDBRANCH   1   2
BRANCH   1  23
ATOM     23  O   UNL A   1      32.796  28.553  25.595  1.00  0.00    -0.374 OA
BRANCH  23  24
ATOM     24  C   UNL A   1      31.709  29.470  25.715  1.00  0.00     0.202 C 
BRANCH  24  25
ATOM     25  C   UNL A   1      31.999  30.815  26.386  1.00  0.00     0.261 C 
BRANCH  25  26
ATOM     26  O   UNL A   1      32.904  30.692  27.495  1.00  0.00    -0.460 OA
BRANCH  26  27
ATOM     27  C   UNL A   1      33.729  31.754  27.657  1.00  0.00     0.338 C 
ATOM     28  O   UNL A   1      33.408  32.935  27.704  1.00  0.00    -0.246 OA
BRANCH  27  29
ATOM     29  C   UNL A   1      35.092  31.290  27.970  1.00  0.00     0.060 A 
ATOM     30  C   UNL A   1      35.278  29.912  28.140  1.00  0.00     0.016 A 
ATOM     31  C   UNL A   1      36.154  32.179  28.152  1.00  0.00     0.016 A 
ATOM     32  C   UNL A   1      36.513  29.420  28.549  1.00  0.00     0.010 A 
ATOM     33  C   UNL A   1      37.393  31.683  28.573  1.00  0.00     0.010 A 
ATOM     34  C   UNL A   1      37.565  30.307  28.810  1.00  0.00    -0.014 A 
BRANCH  34  35
ATOM     35  C   UNL A   1      38.781  29.803  29.494  1.00  0.00     0.031 A 
ATOM     36  C   UNL A   1      39.100  30.322  30.870  1.00  0.00     0.074 A 
ATOM     37  C   UNL A   1      39.556  28.867  28.920  1.00  0.00     0.049 A 
ATOM     38  N   UNL A   1      40.114  30.048  31.647  1.00  0.00    -0.248 NA
ATOM     39  C   UNL A   1      38.143  31.283  31.442  1.00  0.00     0.031 C 
ATOM     40  C   UNL A   1      39.309  28.253  27.616  1.00  0.00     0.029 A 
ATOM     41  N   UNL A   1      40.709  28.269  29.362  1.00  0.00    -0.354 N 
ATOM     42  C   UNL A   1      39.924  30.807  32.799  1.00  0.00     0.074 A 
ATOM     43  C   UNL A   1      38.717  31.580  32.597  1.00  0.00     0.031 C 
ATOM     44  C   UNL A   1      40.287  27.366  27.361  1.00  0.00     0.029 A 
ATOM     45  C   UNL A   1      41.247  27.379  28.462  1.00  0.00     0.049 A 
ATOM     46  H   UNL A   1      41.112  28.460  30.239  1.00  0.00     0.167 HD
ATOM     47  C   UNL A   1      40.685  30.847  33.921  1.00  0.00     0.034 A 
ATOM     48  C   UNL A   1      42.397  26.676  28.515  1.00  0.00     0.034 A 
ATOM     49  C   UNL A   1      41.889  30.073  34.096  1.00  0.00     0.049 A 
ATOM     50  C   UNL A   1      43.276  26.807  29.737  1.00  0.00     0.074 A 
ATOM     51  C   UNL A   1      42.728  30.021  35.196  1.00  0.00     0.029 A 
ATOM     52  N   UNL A   1      42.437  29.225  33.141  1.00  0.00    -0.354 N 
ATOM     53  N   UNL A   1      43.084  27.523  30.822  1.00  0.00    -0.248 NA
ATOM     54  C   UNL A   1      44.522  26.030  29.742  1.00  0.00     0.031 C 
ATOM     55  C   UNL A   1      43.820  29.208  34.876  1.00  0.00     0.029 A 
ATOM     56  C   UNL A   1      43.622  28.680  33.611  1.00  0.00     0.049 A 
ATOM     57  H   UNL A   1      42.041  29.040  32.259  1.00  0.00     0.167 HD
ATOM     58  C   UNL A   1      44.170  27.254  31.652  1.00  0.00     0.074 A 
ATOM     59  C   UNL A   1      45.003  26.302  30.946  1.00  0.00     0.031 C 
ATOM     60  C   UNL A   1      44.450  27.741  32.888  1.00  0.00     0.034 A 
BRANCH  47  61
ATOM     61  C   UNL A   1      40.263  31.804  35.011  1.00  0.00     0.023 A 
ATOM     62  C   UNL A   1      39.371  31.426  36.031  1.00  0.00     0.031 A 
ATOM     63  C   UNL A   1      40.737  33.128  35.009  1.00  0.00     0.131 A 
ATOM     64  C   UNL A   1      38.927  32.380  36.961  1.00  0.00     0.055 A 
ATOM     65  C   UNL A   1      40.353  34.050  35.986  1.00  0.00     0.041 A 
ATOM     66  F   UNL A   1      41.570  33.556  34.048  1.00  0.00    -0.206 F 
ATOM     67  C   UNL A   1      39.432  33.682  36.960  1.00  0.00     0.022 A 
BRANCH  64  68
ATOM     68  S   UNL A   1      37.566  31.936  38.076  1.00  0.00     0.124 S 
ATOM     69  O   UNL A   1      38.150  32.224  39.384  1.00  0.00    -0.237 OA
ATOM     70  O   UNL A   1      36.498  32.828  37.642  1.00  0.00    -0.237 OA
ATOM     71  O   UNL A   1      37.346  30.517  37.800  1.00  0.00    -0.744 OA
ENDBRANCH  64  68
ENDBRANCH  47  61
BRANCH  48  72
ATOM     72  C   UNL A   1      42.810  25.815  27.369  1.00  0.00     0.023 A 
ATOM     73  C   UNL A   1      42.505  24.446  27.342  1.00  0.00     0.031 A 
ATOM     74  C   UNL A   1      43.567  26.343  26.308  1.00  0.00     0.131 A 
ATOM     75  C   UNL A   1      42.991  23.641  26.299  1.00  0.00     0.055 A 
ATOM     76  C   UNL A   1      44.001  25.550  25.243  1.00  0.00     0.041 A 
ATOM     77  F   UNL A   1      43.890  27.646  26.285  1.00  0.00    -0.206 F 
ATOM     78  C   UNL A   1      43.725  24.186  25.243  1.00  0.00     0.022 A 
BRANCH  75  79
ATOM     79  S   UNL A   1      42.727  21.849  26.388  1.00  0.00     0.124 S 
ATOM     80  O   UNL A   1      41.658  21.658  25.416  1.00  0.00    -0.237 OA
ATOM     81  O   UNL A   1      44.038  21.331  26.010  1.00  0.00    -0.237 OA
ATOM     82  O   UNL A   1      42.352  21.629  27.783  1.00  0.00    -0.744 OA
ENDBRANCH  75  79
ENDBRANCH  48  72
BRANCH  60  83
ATOM     83  C   UNL A   1      45.689  27.212  33.572  1.00  0.00     0.023 A 
ATOM     84  C   UNL A   1      45.627  26.181  34.525  1.00  0.00     0.031 A 
ATOM     85  C   UNL A   1      46.949  27.759  33.272  1.00  0.00     0.131 A 
ATOM     86  C   UNL A   1      46.796  25.767  35.183  1.00  0.00     0.055 A 
ATOM     87  C   UNL A   1      48.116  27.299  33.882  1.00  0.00     0.041 A 
ATOM     88  F   UNL A   1      47.068  28.749  32.371  1.00  0.00    -0.206 F 
ATOM     89  C   UNL A   1      48.042  26.307  34.854  1.00  0.00     0.022 A 
BRANCH  86  90
ATOM     90  S   UNL A   1      46.654  24.580  36.548  1.00  0.00     0.124 S 
ATOM     91  O   UNL A   1      45.245  24.207  36.480  1.00  0.00    -0.237 OA
ATOM     92  O   UNL A   1      47.607  23.544  36.161  1.00  0.00    -0.237 OA
ATOM     93  O   UNL A   1      47.033  25.361  37.724  1.00  0.00    -0.744 OA
ENDBRANCH  86  90
ENDBRANCH  60  83
ENDBRANCH  34  35
ENDBRANCH  27  29
ENDBRANCH  26  27
ENDBRANCH  25  26
ENDBRANCH  24  25
ENDBRANCH  23  24
ENDBRANCH   1  23
TORSDOF 21
ENDMDL
