MODEL 1
REMARK VINA RESULT:     -11.2      0.000      0.000
REMARK SMILES COc1cccc([C@H]2SC[C@@H](C(=O)OCCOCCOC(=O)c3ccc(-c4c5nc(c(-c6cc(S(=O)(=O)[O-])ccc6F)c6ccc([nH]6)c(-c6cc(S(=O)(=O)[O-])ccc6F)c6nc(c(-c7cc(S(=O)(=O)[O-])ccc7F)c7ccc4[nH]7)C=C6)C=C5)cc3)N2C(C)=O)c1
REMARK SMILES IDX 18 1 17 2 16 3 15 4 14 5 12 6 13 7 11 8 8 9 9 10 86 11 10 12
REMARK SMILES IDX 7 13 3 14 4 15 90 16 5 17 6 18 2 19 1 20 87 21 88 22 89 23
REMARK SMILES IDX 19 24 20 25 21 26 22 27 23 28 24 29 85 30 25 31 84 32 26 33
REMARK SMILES IDX 27 34 28 35 78 36 29 37 83 38 77 39 79 40 30 41 82 42 76 43
REMARK SMILES IDX 75 44 31 46 63 47 43 48 62 49 44 50 47 51 61 52 80 53 45 54
REMARK SMILES IDX 46 55 60 57 81 58 48 59 32 60 33 61 41 62 34 63 40 64 42 65
REMARK SMILES IDX 39 66 35 67 36 68 37 69 38 70 64 71 65 72 73 73 66 74 72 75
REMARK SMILES IDX 74 76 71 77 67 78 68 79 69 80 70 81 49 82 50 83 58 84 51 85
REMARK SMILES IDX 57 86 59 87 56 88 52 89 53 90 54 91 55 92
REMARK H PARENT 79 45 47 56
REMARK Flexibility Score: inf
ROOT
ATOM      1  C   UNL A   1      35.730  21.640  25.294  1.00  0.00     0.202 C 
ENDROOT
BRANCH   1   2
ATOM      2  O   UNL A   1      34.463  21.051  25.573  1.00  0.00    -0.374 OA
BRANCH   2   3
ATOM      3  C   UNL A   1      33.923  21.291  26.875  1.00  0.00     0.202 C 
BRANCH   3   4
ATOM      4  C   UNL A   1      33.641  22.759  27.207  1.00  0.00     0.261 C 
BRANCH   4   5
ATOM      5  O   UNL A   1      32.399  23.212  26.626  1.00  0.00    -0.462 OA
BRANCH   5   6
ATOM      6  C   UNL A   1      32.305  24.539  26.362  1.00  0.00     0.329 C 
ATOM      7  O   UNL A   1      31.479  25.292  26.870  1.00  0.00    -0.250 OA
BRANCH   6   8
ATOM      8  C   UNL A   1      33.293  25.035  25.290  1.00  0.00     0.206 C 
ATOM      9  C   UNL A   1      32.621  26.465  23.386  1.00  0.00     0.175 C 
ATOM     10  S   UNL A   1      33.750  27.519  24.346  1.00  0.00    -0.129 SA
ATOM     11  N   UNL A   1      32.836  25.117  23.889  1.00  0.00    -0.312 N 
ATOM     12  C   UNL A   1      33.798  26.402  25.760  1.00  0.00     0.109 C 
BRANCH   9  13
ATOM     13  C   UNL A   1      31.182  26.942  23.415  1.00  0.00    -0.012 A 
ATOM     14  C   UNL A   1      29.454  28.635  23.056  1.00  0.00     0.119 A 
ATOM     15  C   UNL A   1      28.478  27.708  23.413  1.00  0.00     0.046 A 
ATOM     16  C   UNL A   1      30.795  28.245  23.047  1.00  0.00     0.053 A 
ATOM     17  C   UNL A   1      28.832  26.413  23.782  1.00  0.00     0.004 A 
ATOM     18  C   UNL A   1      30.175  26.038  23.798  1.00  0.00     0.007 A 
BRANCH  14  19
ATOM     19  O   UNL A   1      28.987  29.886  22.766  1.00  0.00    -0.497 OA
ATOM     20  C   UNL A   1      27.712  29.971  22.142  1.00  0.00     0.278 C 
ENDBRANCH  14  19
ENDBRANCH   9  13
BRANCH  11  21
ATOM     21  C   UNL A   1      32.865  24.090  22.964  1.00  0.00     0.221 C 
ATOM     22  C   UNL A   1      31.888  22.949  23.125  1.00  0.00     0.114 C 
ATOM     23  O   UNL A   1      33.722  24.019  22.081  1.00  0.00    -0.275 OA
ENDBRANCH  11  21
ENDBRANCH   6   8
ENDBRANCH   5   6
ENDBRANCH   4   5
ENDBRANCH   3   4
ENDBRANCH   2   3
ENDBRANCH   1   2
BRANCH   1  24
ATOM     24  C   UNL A   1      36.954  20.720  25.325  1.00  0.00     0.261 C 
BRANCH  24  25
ATOM     25  O   UNL A   1      38.177  21.406  25.019  1.00  0.00    -0.460 OA
BRANCH  25  26
ATOM     26  C   UNL A   1      39.175  21.182  25.907  1.00  0.00     0.338 C 
ATOM     27  O   UNL A   1      39.784  20.132  26.070  1.00  0.00    -0.246 OA
BRANCH  26  28
ATOM     28  C   UNL A   1      39.573  22.432  26.578  1.00  0.00     0.060 A 
ATOM     29  C   UNL A   1      38.937  23.610  26.166  1.00  0.00     0.016 A 
ATOM     30  C   UNL A   1      40.612  22.475  27.508  1.00  0.00     0.016 A 
ATOM     31  C   UNL A   1      39.376  24.844  26.640  1.00  0.00     0.010 A 
ATOM     32  C   UNL A   1      41.058  23.719  27.974  1.00  0.00     0.010 A 
ATOM     33  C   UNL A   1      40.465  24.909  27.518  1.00  0.00    -0.014 A 
BRANCH  33  34
ATOM     34  C   UNL A   1      41.077  26.227  27.823  1.00  0.00     0.031 A 
ATOM     35  C   UNL A   1      42.476  26.507  27.340  1.00  0.00     0.074 A 
ATOM     36  C   UNL A   1      40.381  27.175  28.479  1.00  0.00     0.049 A 
ATOM     37  N   UNL A   1      43.211  27.577  27.495  1.00  0.00    -0.248 NA
ATOM     38  C   UNL A   1      43.131  25.430  26.581  1.00  0.00     0.031 C 
ATOM     39  C   UNL A   1      39.005  27.036  28.952  1.00  0.00     0.029 A 
ATOM     40  N   UNL A   1      40.740  28.444  28.862  1.00  0.00    -0.354 N 
ATOM     41  C   UNL A   1      44.415  27.304  26.852  1.00  0.00     0.074 A 
ATOM     42  C   UNL A   1      44.326  25.950  26.348  1.00  0.00     0.031 C 
ATOM     43  C   UNL A   1      38.641  28.168  29.578  1.00  0.00     0.029 A 
ATOM     44  C   UNL A   1      39.762  29.104  29.570  1.00  0.00     0.049 A 
ATOM     45  H   UNL A   1      41.614  28.843  28.650  1.00  0.00     0.167 HD
ATOM     46  C   UNL A   1      45.489  28.114  26.685  1.00  0.00     0.034 A 
ATOM     47  C   UNL A   1      39.781  30.317  30.159  1.00  0.00     0.034 A 
ATOM     48  C   UNL A   1      45.565  29.460  27.200  1.00  0.00     0.049 A 
ATOM     49  C   UNL A   1      41.019  31.171  30.029  1.00  0.00     0.074 A 
ATOM     50  C   UNL A   1      46.595  30.376  27.076  1.00  0.00     0.029 A 
ATOM     51  N   UNL A   1      44.571  30.079  27.949  1.00  0.00    -0.354 N 
ATOM     52  N   UNL A   1      42.144  30.908  29.405  1.00  0.00    -0.248 NA
ATOM     53  C   UNL A   1      40.983  32.491  30.674  1.00  0.00     0.031 C 
ATOM     54  C   UNL A   1      46.254  31.520  27.806  1.00  0.00     0.029 A 
ATOM     55  C   UNL A   1      44.979  31.351  28.322  1.00  0.00     0.049 A 
ATOM     56  H   UNL A   1      43.705  29.675  28.181  1.00  0.00     0.167 HD
ATOM     57  C   UNL A   1      42.935  32.044  29.552  1.00  0.00     0.074 A 
ATOM     58  C   UNL A   1      42.155  32.996  30.316  1.00  0.00     0.031 C 
ATOM     59  C   UNL A   1      44.191  32.284  29.093  1.00  0.00     0.034 A 
BRANCH  46  60
ATOM     60  C   UNL A   1      46.682  27.542  25.957  1.00  0.00     0.023 A 
ATOM     61  C   UNL A   1      46.997  27.917  24.638  1.00  0.00     0.031 A 
ATOM     62  C   UNL A   1      47.499  26.583  26.581  1.00  0.00     0.131 A 
ATOM     63  C   UNL A   1      48.056  27.289  23.966  1.00  0.00     0.055 A 
ATOM     64  C   UNL A   1      48.597  26.016  25.932  1.00  0.00     0.041 A 
ATOM     65  F   UNL A   1      47.235  26.169  27.830  1.00  0.00    -0.206 F 
ATOM     66  C   UNL A   1      48.873  26.358  24.611  1.00  0.00     0.022 A 
BRANCH  63  67
ATOM     67  S   UNL A   1      48.271  27.607  22.192  1.00  0.00     0.124 S 
ATOM     68  O   UNL A   1      48.486  26.258  21.675  1.00  0.00    -0.237 OA
ATOM     69  O   UNL A   1      47.008  28.237  21.830  1.00  0.00    -0.237 OA
ATOM     70  O   UNL A   1      49.442  28.480  22.139  1.00  0.00    -0.744 OA
ENDBRANCH  63  67
ENDBRANCH  46  60
BRANCH  47  71
ATOM     71  C   UNL A   1      38.609  30.791  30.950  1.00  0.00     0.023 A 
ATOM     72  C   UNL A   1      37.521  31.428  30.332  1.00  0.00     0.031 A 
ATOM     73  C   UNL A   1      38.588  30.662  32.350  1.00  0.00     0.131 A 
ATOM     74  C   UNL A   1      36.479  31.951  31.117  1.00  0.00     0.055 A 
ATOM     75  C   UNL A   1      37.527  31.139  33.122  1.00  0.00     0.041 A 
ATOM     76  F   UNL A   1      39.604  30.063  32.992  1.00  0.00    -0.206 F 
ATOM     77  C   UNL A   1      36.470  31.800  32.505  1.00  0.00     0.022 A 
BRANCH  74  78
ATOM     78  S   UNL A   1      35.173  32.911  30.301  1.00  0.00     0.124 S 
ATOM     79  O   UNL A   1      34.268  33.187  31.411  1.00  0.00    -0.237 OA
ATOM     80  O   UNL A   1      35.917  34.053  29.780  1.00  0.00    -0.237 OA
ATOM     81  O   UNL A   1      34.659  31.992  29.288  1.00  0.00    -0.744 OA
ENDBRANCH  74  78
ENDBRANCH  47  71
BRANCH  59  82
ATOM     82  C   UNL A   1      44.771  33.650  29.367  1.00  0.00     0.023 A 
ATOM     83  C   UNL A   1      44.543  34.738  28.505  1.00  0.00     0.031 A 
ATOM     84  C   UNL A   1      45.570  33.862  30.504  1.00  0.00     0.131 A 
ATOM     85  C   UNL A   1      45.156  35.973  28.764  1.00  0.00     0.055 A 
ATOM     86  C   UNL A   1      46.129  35.109  30.788  1.00  0.00     0.041 A 
ATOM     87  F   UNL A   1      45.820  32.858  31.360  1.00  0.00    -0.206 F 
ATOM     88  C   UNL A   1      45.933  36.170  29.909  1.00  0.00     0.022 A 
BRANCH  85  89
ATOM     89  S   UNL A   1      44.995  37.300  27.538  1.00  0.00     0.124 S 
ATOM     90  O   UNL A   1      45.145  38.495  28.362  1.00  0.00    -0.237 OA
ATOM     91  O   UNL A   1      46.095  37.015  26.622  1.00  0.00    -0.237 OA
ATOM     92  O   UNL A   1      43.659  37.094  26.982  1.00  0.00    -0.744 OA
ENDBRANCH  85  89
ENDBRANCH  59  82
ENDBRANCH  33  34
ENDBRANCH  26  28
ENDBRANCH  25  26
ENDBRANCH  24  25
ENDBRANCH   1  24
TORSDOF 20
ENDMDL
MODEL 2
REMARK VINA RESULT:     -11.2      4.788     10.006
REMARK SMILES COc1cccc([C@H]2SC[C@@H](C(=O)OCCOCCOC(=O)c3ccc(-c4c5nc(c(-c6cc(S(=O)(=O)[O-])ccc6F)c6ccc([nH]6)c(-c6cc(S(=O)(=O)[O-])ccc6F)c6nc(c(-c7cc(S(=O)(=O)[O-])ccc7F)c7ccc4[nH]7)C=C6)C=C5)cc3)N2C(C)=O)c1
REMARK SMILES IDX 18 1 17 2 16 3 15 4 14 5 12 6 13 7 11 8 8 9 9 10 86 11 10 12
REMARK SMILES IDX 7 13 3 14 4 15 90 16 5 17 6 18 2 19 1 20 87 21 88 22 89 23
REMARK SMILES IDX 19 24 20 25 21 26 22 27 23 28 24 29 85 30 25 31 84 32 26 33
REMARK SMILES IDX 27 34 28 35 78 36 29 37 83 38 77 39 79 40 30 41 82 42 76 43
REMARK SMILES IDX 75 44 31 46 63 47 43 48 62 49 44 50 47 51 61 52 80 53 45 54
REMARK SMILES IDX 46 55 60 57 81 58 48 59 32 60 33 61 41 62 34 63 40 64 42 65
REMARK SMILES IDX 39 66 35 67 36 68 37 69 38 70 64 71 65 72 73 73 66 74 72 75
REMARK SMILES IDX 74 76 71 77 67 78 68 79 69 80 70 81 49 82 50 83 58 84 51 85
REMARK SMILES IDX 57 86 59 87 56 88 52 89 53 90 54 91 55 92
REMARK H PARENT 79 45 47 56
REMARK Flexibility Score: inf
ROOT
ATOM      1  C   UNL A   1      31.746  31.117  26.790  1.00  0.00     0.202 C 
ENDROOT
BRANCH   1   2
ATOM      2  O   UNL A   1      31.524  30.492  25.529  1.00  0.00    -0.374 OA
BRANCH   2   3
ATOM      3  C   UNL A   1      31.533  29.062  25.517  1.00  0.00     0.202 C 
BRANCH   3   4
ATOM      4  C   UNL A   1      31.980  28.399  26.823  1.00  0.00     0.261 C 
BRANCH   4   5
ATOM      5  O   UNL A   1      32.904  27.314  26.586  1.00  0.00    -0.462 OA
BRANCH   5   6
ATOM      6  C   UNL A   1      32.356  26.104  26.314  1.00  0.00     0.329 C 
ATOM      7  O   UNL A   1      31.605  25.495  27.071  1.00  0.00    -0.250 OA
BRANCH   6   8
ATOM      8  C   UNL A   1      32.816  25.495  24.977  1.00  0.00     0.206 C 
ATOM      9  C   UNL A   1      31.674  25.929  22.827  1.00  0.00     0.175 C 
ATOM     10  S   UNL A   1      33.321  26.666  22.601  1.00  0.00    -0.129 SA
ATOM     11  N   UNL A   1      31.793  25.078  23.999  1.00  0.00    -0.312 N 
ATOM     12  C   UNL A   1      33.771  26.508  24.340  1.00  0.00     0.109 C 
BRANCH   9  13
ATOM     13  C   UNL A   1      30.559  26.955  22.885  1.00  0.00    -0.012 A 
ATOM     14  C   UNL A   1      29.567  29.111  22.296  1.00  0.00     0.119 A 
ATOM     15  C   UNL A   1      28.403  28.756  22.973  1.00  0.00     0.046 A 
ATOM     16  C   UNL A   1      30.631  28.208  22.245  1.00  0.00     0.053 A 
ATOM     17  C   UNL A   1      28.305  27.525  23.615  1.00  0.00     0.004 A 
ATOM     18  C   UNL A   1      29.380  26.638  23.584  1.00  0.00     0.007 A 
BRANCH  14  19
ATOM     19  O   UNL A   1      29.561  30.365  21.752  1.00  0.00    -0.497 OA
ATOM     20  C   UNL A   1      28.336  30.822  21.196  1.00  0.00     0.278 C 
ENDBRANCH  14  19
ENDBRANCH   9  13
BRANCH  11  21
ATOM     21  C   UNL A   1      31.161  23.848  23.960  1.00  0.00     0.221 C 
ATOM     22  C   UNL A   1      31.645  22.761  24.890  1.00  0.00     0.114 C 
ATOM     23  O   UNL A   1      30.295  23.576  23.126  1.00  0.00    -0.275 OA
ENDBRANCH  11  21
ENDBRANCH   6   8
ENDBRANCH   5   6
ENDBRANCH   4   5
ENDBRANCH   3   4
ENDBRANCH   2   3
ENDBRANCH   1   2
BRANCH   1  24
ATOM     24  C   UNL A   1      31.522  32.630  26.872  1.00  0.00     0.261 C 
BRANCH  24  25
ATOM     25  O   UNL A   1      32.736  33.382  26.738  1.00  0.00    -0.460 OA
BRANCH  25  26
ATOM     26  C   UNL A   1      33.269  33.790  27.914  1.00  0.00     0.338 C 
ATOM     27  O   UNL A   1      32.751  34.547  28.725  1.00  0.00    -0.246 OA
BRANCH  26  28
ATOM     28  C   UNL A   1      34.526  33.076  28.199  1.00  0.00     0.060 A 
ATOM     29  C   UNL A   1      34.424  31.741  28.611  1.00  0.00     0.016 A 
ATOM     30  C   UNL A   1      35.766  33.716  28.169  1.00  0.00     0.016 A 
ATOM     31  C   UNL A   1      35.554  31.057  29.051  1.00  0.00     0.010 A 
ATOM     32  C   UNL A   1      36.898  33.028  28.622  1.00  0.00     0.010 A 
ATOM     33  C   UNL A   1      36.793  31.709  29.096  1.00  0.00    -0.014 A 
BRANCH  33  34
ATOM     34  C   UNL A   1      37.934  31.058  29.788  1.00  0.00     0.031 A 
ATOM     35  C   UNL A   1      38.208  31.414  31.226  1.00  0.00     0.074 A 
ATOM     36  C   UNL A   1      38.684  30.132  29.162  1.00  0.00     0.049 A 
ATOM     37  N   UNL A   1      39.148  30.981  32.025  1.00  0.00    -0.248 NA
ATOM     38  C   UNL A   1      37.296  32.391  31.841  1.00  0.00     0.031 C 
ATOM     39  C   UNL A   1      38.483  29.672  27.789  1.00  0.00     0.029 A 
ATOM     40  N   UNL A   1      39.768  29.413  29.601  1.00  0.00    -0.354 N 
ATOM     41  C   UNL A   1      38.940  31.632  33.239  1.00  0.00     0.074 A 
ATOM     42  C   UNL A   1      37.815  32.523  33.052  1.00  0.00     0.031 C 
ATOM     43  C   UNL A   1      39.426  28.761  27.490  1.00  0.00     0.029 A 
ATOM     44  C   UNL A   1      40.308  28.588  28.641  1.00  0.00     0.049 A 
ATOM     45  H   UNL A   1      40.125  29.482  30.515  1.00  0.00     0.167 HD
ATOM     46  C   UNL A   1      39.618  31.488  34.404  1.00  0.00     0.034 A 
ATOM     47  C   UNL A   1      41.401  27.798  28.685  1.00  0.00     0.034 A 
ATOM     48  C   UNL A   1      40.742  30.600  34.572  1.00  0.00     0.049 A 
ATOM     49  C   UNL A   1      42.190  27.715  29.970  1.00  0.00     0.074 A 
ATOM     50  C   UNL A   1      41.492  30.361  35.710  1.00  0.00     0.029 A 
ATOM     51  N   UNL A   1      41.287  29.811  33.566  1.00  0.00    -0.354 N 
ATOM     52  N   UNL A   1      41.973  28.323  31.113  1.00  0.00    -0.248 NA
ATOM     53  C   UNL A   1      43.361  26.829  29.971  1.00  0.00     0.031 C 
ATOM     54  C   UNL A   1      42.530  29.483  35.376  1.00  0.00     0.029 A 
ATOM     55  C   UNL A   1      42.383  29.113  34.049  1.00  0.00     0.049 A 
ATOM     56  H   UNL A   1      40.946  29.757  32.644  1.00  0.00     0.167 HD
ATOM     57  C   UNL A   1      42.962  27.864  31.980  1.00  0.00     0.074 A 
ATOM     58  C   UNL A   1      43.767  26.923  31.230  1.00  0.00     0.031 C 
ATOM     59  C   UNL A   1      43.181  28.185  33.282  1.00  0.00     0.034 A 
BRANCH  46  60
ATOM     60  C   UNL A   1      39.185  32.348  35.568  1.00  0.00     0.023 A 
ATOM     61  C   UNL A   1      39.602  33.685  35.698  1.00  0.00     0.031 A 
ATOM     62  C   UNL A   1      38.367  31.812  36.578  1.00  0.00     0.131 A 
ATOM     63  C   UNL A   1      39.256  34.417  36.844  1.00  0.00     0.055 A 
ATOM     64  C   UNL A   1      37.964  32.570  37.679  1.00  0.00     0.041 A 
ATOM     65  F   UNL A   1      37.956  30.536  36.520  1.00  0.00    -0.206 F 
ATOM     66  C   UNL A   1      38.420  33.877  37.824  1.00  0.00     0.022 A 
BRANCH  63  67
ATOM     67  S   UNL A   1      40.021  36.042  37.102  1.00  0.00     0.124 S 
ATOM     68  O   UNL A   1      39.203  36.586  38.183  1.00  0.00    -0.237 OA
ATOM     69  O   UNL A   1      41.393  35.693  37.451  1.00  0.00    -0.237 OA
ATOM     70  O   UNL A   1      39.856  36.708  35.811  1.00  0.00    -0.744 OA
ENDBRANCH  63  67
ENDBRANCH  46  60
BRANCH  47  71
ATOM     71  C   UNL A   1      41.839  27.047  27.473  1.00  0.00     0.023 A 
ATOM     72  C   UNL A   1      41.675  25.656  27.379  1.00  0.00     0.031 A 
ATOM     73  C   UNL A   1      42.483  27.708  26.412  1.00  0.00     0.131 A 
ATOM     74  C   UNL A   1      42.188  24.965  26.268  1.00  0.00     0.055 A 
ATOM     75  C   UNL A   1      42.946  27.024  25.287  1.00  0.00     0.041 A 
ATOM     76  F   UNL A   1      42.667  29.037  26.452  1.00  0.00    -0.206 F 
ATOM     77  C   UNL A   1      42.812  25.641  25.217  1.00  0.00     0.022 A 
BRANCH  74  78
ATOM     78  S   UNL A   1      42.105  23.152  26.257  1.00  0.00     0.124 S 
ATOM     79  O   UNL A   1      42.917  22.808  27.418  1.00  0.00    -0.237 OA
ATOM     80  O   UNL A   1      40.670  22.915  26.383  1.00  0.00    -0.237 OA
ATOM     81  O   UNL A   1      42.681  22.794  24.963  1.00  0.00    -0.744 OA
ENDBRANCH  74  78
ENDBRANCH  47  71
BRANCH  59  82
ATOM     82  C   UNL A   1      44.311  27.470  33.982  1.00  0.00     0.023 A 
ATOM     83  C   UNL A   1      44.134  26.208  34.577  1.00  0.00     0.031 A 
ATOM     84  C   UNL A   1      45.582  28.066  34.061  1.00  0.00     0.131 A 
ATOM     85  C   UNL A   1      45.194  25.610  35.273  1.00  0.00     0.055 A 
ATOM     86  C   UNL A   1      46.650  27.440  34.704  1.00  0.00     0.041 A 
ATOM     87  F   UNL A   1      45.807  29.270  33.510  1.00  0.00    -0.206 F 
ATOM     88  C   UNL A   1      46.455  26.209  35.325  1.00  0.00     0.022 A 
BRANCH  85  89
ATOM     89  S   UNL A   1      44.881  24.075  36.186  1.00  0.00     0.124 S 
ATOM     90  O   UNL A   1      45.995  23.235  35.758  1.00  0.00    -0.237 OA
ATOM     91  O   UNL A   1      44.917  24.522  37.575  1.00  0.00    -0.237 OA
ATOM     92  O   UNL A   1      43.567  23.651  35.707  1.00  0.00    -0.744 OA
ENDBRANCH  85  89
ENDBRANCH  59  82
ENDBRANCH  33  34
ENDBRANCH  26  28
ENDBRANCH  25  26
ENDBRANCH  24  25
ENDBRANCH   1  24
TORSDOF 20
ENDMDL
MODEL 3
REMARK VINA RESULT:     -11.1      1.662      7.614
REMARK SMILES COc1cccc([C@H]2SC[C@@H](C(=O)OCCOCCOC(=O)c3ccc(-c4c5nc(c(-c6cc(S(=O)(=O)[O-])ccc6F)c6ccc([nH]6)c(-c6cc(S(=O)(=O)[O-])ccc6F)c6nc(c(-c7cc(S(=O)(=O)[O-])ccc7F)c7ccc4[nH]7)C=C6)C=C5)cc3)N2C(C)=O)c1
REMARK SMILES IDX 18 1 17 2 16 3 15 4 14 5 12 6 13 7 11 8 8 9 9 10 86 11 10 12
REMARK SMILES IDX 7 13 3 14 4 15 90 16 5 17 6 18 2 19 1 20 87 21 88 22 89 23
REMARK SMILES IDX 19 24 20 25 21 26 22 27 23 28 24 29 85 30 25 31 84 32 26 33
REMARK SMILES IDX 27 34 28 35 78 36 29 37 83 38 77 39 79 40 30 41 82 42 76 43
REMARK SMILES IDX 75 44 31 46 63 47 43 48 62 49 44 50 47 51 61 52 80 53 45 54
REMARK SMILES IDX 46 55 60 57 81 58 48 59 32 60 33 61 41 62 34 63 40 64 42 65
REMARK SMILES IDX 39 66 35 67 36 68 37 69 38 70 64 71 65 72 73 73 66 74 72 75
REMARK SMILES IDX 74 76 71 77 67 78 68 79 69 80 70 81 49 82 50 83 58 84 51 85
REMARK SMILES IDX 57 86 59 87 56 88 52 89 53 90 54 91 55 92
REMARK H PARENT 79 45 47 56
REMARK Flexibility Score: inf
ROOT
ATOM      1  C   UNL A   1      35.554  20.372  24.964  1.00  0.00     0.202 C 
ENDROOT
BRANCH   1   2
ATOM      2  O   UNL A   1      35.005  21.631  24.584  1.00  0.00    -0.374 OA
BRANCH   2   3
ATOM      3  C   UNL A   1      33.829  22.048  25.282  1.00  0.00     0.202 C 
BRANCH   3   4
ATOM      4  C   UNL A   1      33.770  23.537  25.634  1.00  0.00     0.261 C 
BRANCH   4   5
ATOM      5  O   UNL A   1      32.413  23.985  25.847  1.00  0.00    -0.462 OA
BRANCH   5   6
ATOM      6  C   UNL A   1      32.238  25.318  26.022  1.00  0.00     0.329 C 
ATOM      7  O   UNL A   1      31.440  25.818  26.810  1.00  0.00    -0.250 OA
BRANCH   6   8
ATOM      8  C   UNL A   1      33.088  26.190  25.078  1.00  0.00     0.206 C 
ATOM      9  C   UNL A   1      32.110  27.678  23.361  1.00  0.00     0.175 C 
ATOM     10  S   UNL A   1      32.933  28.821  24.511  1.00  0.00    -0.129 SA
ATOM     11  N   UNL A   1      32.643  26.363  23.682  1.00  0.00    -0.312 N 
ATOM     12  C   UNL A   1      33.236  27.554  25.757  1.00  0.00     0.109 C 
BRANCH   9  13
ATOM     13  C   UNL A   1      30.597  27.785  23.387  1.00  0.00    -0.012 A 
ATOM     14  C   UNL A   1      28.499  28.939  22.891  1.00  0.00     0.119 A 
ATOM     15  C   UNL A   1      27.788  27.853  23.394  1.00  0.00     0.046 A 
ATOM     16  C   UNL A   1      29.895  28.895  22.879  1.00  0.00     0.053 A 
ATOM     17  C   UNL A   1      28.457  26.743  23.903  1.00  0.00     0.004 A 
ATOM     18  C   UNL A   1      29.850  26.716  23.913  1.00  0.00     0.007 A 
BRANCH  14  19
ATOM     19  O   UNL A   1      27.733  29.989  22.470  1.00  0.00    -0.497 OA
ATOM     20  C   UNL A   1      28.116  30.622  21.256  1.00  0.00     0.278 C 
ENDBRANCH  14  19
ENDBRANCH   9  13
BRANCH  11  21
ATOM     21  C   UNL A   1      32.935  25.521  22.626  1.00  0.00     0.221 C 
ATOM     22  C   UNL A   1      32.136  24.247  22.479  1.00  0.00     0.114 C 
ATOM     23  O   UNL A   1      33.886  25.716  21.867  1.00  0.00    -0.275 OA
ENDBRANCH  11  21
ENDBRANCH   6   8
ENDBRANCH   5   6
ENDBRANCH   4   5
ENDBRANCH   3   4
ENDBRANCH   2   3
ENDBRANCH   1   2
BRANCH   1  24
ATOM     24  C   UNL A   1      37.080  20.232  24.925  1.00  0.00     0.261 C 
BRANCH  24  25
ATOM     25  O   UNL A   1      37.761  21.410  25.377  1.00  0.00    -0.460 OA
BRANCH  25  26
ATOM     26  C   UNL A   1      38.953  21.168  25.974  1.00  0.00     0.338 C 
ATOM     27  O   UNL A   1      39.595  20.126  25.921  1.00  0.00    -0.246 OA
BRANCH  26  28
ATOM     28  C   UNL A   1      39.491  22.391  26.593  1.00  0.00     0.060 A 
ATOM     29  C   UNL A   1      39.010  23.616  26.114  1.00  0.00     0.016 A 
ATOM     30  C   UNL A   1      40.514  22.354  27.541  1.00  0.00     0.016 A 
ATOM     31  C   UNL A   1      39.590  24.809  26.537  1.00  0.00     0.010 A 
ATOM     32  C   UNL A   1      41.102  23.555  27.957  1.00  0.00     0.010 A 
ATOM     33  C   UNL A   1      40.666  24.784  27.433  1.00  0.00    -0.014 A 
BRANCH  33  34
ATOM     34  C   UNL A   1      41.429  26.032  27.689  1.00  0.00     0.031 A 
ATOM     35  C   UNL A   1      40.732  27.182  28.366  1.00  0.00     0.074 A 
ATOM     36  C   UNL A   1      42.733  26.122  27.365  1.00  0.00     0.049 A 
ATOM     37  N   UNL A   1      41.192  28.365  28.682  1.00  0.00    -0.248 NA
ATOM     38  C   UNL A   1      39.324  26.966  28.735  1.00  0.00     0.031 C 
ATOM     39  C   UNL A   1      43.525  25.058  26.750  1.00  0.00     0.029 A 
ATOM     40  N   UNL A   1      43.620  27.160  27.507  1.00  0.00    -0.354 N 
ATOM     41  C   UNL A   1      40.133  29.033  29.288  1.00  0.00     0.074 A 
ATOM     42  C   UNL A   1      38.995  28.140  29.251  1.00  0.00     0.031 C 
ATOM     43  C   UNL A   1      44.777  25.504  26.551  1.00  0.00     0.029 A 
ATOM     44  C   UNL A   1      44.871  26.889  27.003  1.00  0.00     0.049 A 
ATOM     45  H   UNL A   1      43.383  28.017  27.930  1.00  0.00     0.167 HD
ATOM     46  C   UNL A   1      40.115  30.273  29.837  1.00  0.00     0.034 A 
ATOM     47  C   UNL A   1      45.961  27.678  26.904  1.00  0.00     0.034 A 
ATOM     48  C   UNL A   1      41.257  31.155  29.860  1.00  0.00     0.049 A 
ATOM     49  C   UNL A   1      45.894  29.085  27.450  1.00  0.00     0.074 A 
ATOM     50  C   UNL A   1      41.359  32.423  30.404  1.00  0.00     0.029 A 
ATOM     51  N   UNL A   1      42.496  30.862  29.302  1.00  0.00    -0.354 N 
ATOM     52  N   UNL A   1      44.892  29.698  28.034  1.00  0.00    -0.248 NA
ATOM     53  C   UNL A   1      47.112  29.898  27.333  1.00  0.00     0.031 C 
ATOM     54  C   UNL A   1      42.634  32.923  30.115  1.00  0.00     0.029 A 
ATOM     55  C   UNL A   1      43.355  31.938  29.459  1.00  0.00     0.049 A 
ATOM     56  H   UNL A   1      42.729  30.014  28.859  1.00  0.00     0.167 HD
ATOM     57  C   UNL A   1      45.370  30.958  28.386  1.00  0.00     0.074 A 
ATOM     58  C   UNL A   1      46.752  31.011  27.957  1.00  0.00     0.031 C 
ATOM     59  C   UNL A   1      44.729  31.978  29.015  1.00  0.00     0.034 A 
BRANCH  46  60
ATOM     60  C   UNL A   1      38.806  30.758  30.411  1.00  0.00     0.023 A 
ATOM     61  C   UNL A   1      37.813  31.345  29.606  1.00  0.00     0.031 A 
ATOM     62  C   UNL A   1      38.558  30.659  31.792  1.00  0.00     0.131 A 
ATOM     63  C   UNL A   1      36.653  31.869  30.194  1.00  0.00     0.055 A 
ATOM     64  C   UNL A   1      37.368  31.116  32.362  1.00  0.00     0.041 A 
ATOM     65  F   UNL A   1      39.477  30.129  32.615  1.00  0.00    -0.206 F 
ATOM     66  C   UNL A   1      36.413  31.738  31.564  1.00  0.00     0.022 A 
BRANCH  63  67
ATOM     67  S   UNL A   1      35.520  32.845  29.166  1.00  0.00     0.124 S 
ATOM     68  O   UNL A   1      35.572  32.119  27.899  1.00  0.00    -0.237 OA
ATOM     69  O   UNL A   1      34.267  32.755  29.904  1.00  0.00    -0.237 OA
ATOM     70  O   UNL A   1      36.136  34.171  29.140  1.00  0.00    -0.744 OA
ENDBRANCH  63  67
ENDBRANCH  46  60
BRANCH  47  71
ATOM     71  C   UNL A   1      47.198  27.179  26.237  1.00  0.00     0.023 A 
ATOM     72  C   UNL A   1      48.163  26.444  26.946  1.00  0.00     0.031 A 
ATOM     73  C   UNL A   1      47.458  27.479  24.888  1.00  0.00     0.131 A 
ATOM     74  C   UNL A   1      49.362  26.075  26.314  1.00  0.00     0.055 A 
ATOM     75  C   UNL A   1      48.629  27.065  24.251  1.00  0.00     0.041 A 
ATOM     76  F   UNL A   1      46.570  28.179  24.165  1.00  0.00    -0.206 F 
ATOM     77  C   UNL A   1      49.596  26.369  24.970  1.00  0.00     0.022 A 
BRANCH  74  78
ATOM     78  S   UNL A   1      50.655  25.272  27.304  1.00  0.00     0.124 S 
ATOM     79  O   UNL A   1      49.928  24.155  27.894  1.00  0.00    -0.237 OA
ATOM     80  O   UNL A   1      51.645  24.930  26.288  1.00  0.00    -0.237 OA
ATOM     81  O   UNL A   1      51.063  26.317  28.240  1.00  0.00    -0.744 OA
ENDBRANCH  74  78
ENDBRANCH  47  71
BRANCH  59  82
ATOM     82  C   UNL A   1      45.540  33.215  29.314  1.00  0.00     0.023 A 
ATOM     83  C   UNL A   1      45.602  34.295  28.417  1.00  0.00     0.031 A 
ATOM     84  C   UNL A   1      46.267  33.308  30.515  1.00  0.00     0.131 A 
ATOM     85  C   UNL A   1      46.421  35.397  28.708  1.00  0.00     0.055 A 
ATOM     86  C   UNL A   1      47.033  34.432  30.825  1.00  0.00     0.041 A 
ATOM     87  F   UNL A   1      46.244  32.305  31.407  1.00  0.00    -0.206 F 
ATOM     88  C   UNL A   1      47.122  35.480  29.913  1.00  0.00     0.022 A 
BRANCH  85  89
ATOM     89  S   UNL A   1      46.625  36.686  27.448  1.00  0.00     0.124 S 
ATOM     90  O   UNL A   1      45.242  36.988  27.095  1.00  0.00    -0.237 OA
ATOM     91  O   UNL A   1      47.339  37.728  28.179  1.00  0.00    -0.237 OA
ATOM     92  O   UNL A   1      47.401  36.024  26.401  1.00  0.00    -0.744 OA
ENDBRANCH  85  89
ENDBRANCH  59  82
ENDBRANCH  33  34
ENDBRANCH  26  28
ENDBRANCH  25  26
ENDBRANCH  24  25
ENDBRANCH   1  24
TORSDOF 20
ENDMDL
