MODEL 1
REMARK VINA RESULT:     -11.1      0.000      0.000
REMARK SMILES CCc1ncc(C[N@H+]2CCC[C@@H](c3cccc(C(=O)OCCOCCOC(=O)c4ccc(-c5c6nc(c(-c7cc(S(=O)(=O)[O-])ccc7F)c7ccc([nH]7)c(-c7cc(S(=O)(=O)[O-])ccc7F)c7nc(c(-c8cc(S(=O)(=O)[O-])ccc8F)c8ccc5[nH]8)C=C7)C=C6)cc4)c3)C2)cn1
REMARK SMILES IDX 22 1 21 2 20 3 18 4 19 5 17 6 13 7 14 8 92 9 15 10 16 11
REMARK SMILES IDX 12 12 8 13 9 14 93 15 10 17 11 18 7 19 6 20 3 21 4 22 95 23
REMARK SMILES IDX 5 24 94 25 2 26 1 27 23 28 24 29 25 30 26 31 27 32 28 33
REMARK SMILES IDX 29 34 30 35 91 36 31 37 90 38 32 39 33 40 34 41 84 42 35 43
REMARK SMILES IDX 89 44 83 45 85 46 36 47 88 48 82 49 81 50 37 52 69 53 49 54
REMARK SMILES IDX 68 55 50 56 53 57 67 58 86 59 51 60 52 61 66 63 87 64 54 65
REMARK SMILES IDX 38 66 39 67 47 68 40 69 46 70 48 71 45 72 41 73 42 74 43 75
REMARK SMILES IDX 44 76 70 77 71 78 79 79 72 80 78 81 80 82 77 83 73 84 74 85
REMARK SMILES IDX 75 86 76 87 55 88 56 89 64 90 57 91 63 92 65 93 62 94 58 95
REMARK SMILES IDX 59 96 60 97 61 98
REMARK H PARENT 8 16 85 51 53 62
REMARK Flexibility Score: inf
ROOT
ATOM      1  C   UNL A   1      34.695  20.119  24.803  1.00  0.00     0.202 C 
ENDROOT
BRANCH   1   2
ATOM      2  C   UNL A   1      33.433  19.294  24.529  1.00  0.00     0.261 C 
BRANCH   2   3
ATOM      3  O   UNL A   1      32.248  20.068  24.777  1.00  0.00    -0.460 OA
BRANCH   3   4
ATOM      4  C   UNL A   1      32.168  21.230  24.089  1.00  0.00     0.338 C 
ATOM      5  O   UNL A   1      32.105  21.368  22.874  1.00  0.00    -0.246 OA
BRANCH   4   6
ATOM      6  C   UNL A   1      31.951  22.350  25.031  1.00  0.00     0.060 A 
ATOM      7  C   UNL A   1      31.157  24.580  25.597  1.00  0.00    -0.038 A 
ATOM      8  C   UNL A   1      31.603  24.370  26.916  1.00  0.00     0.004 A 
ATOM      9  C   UNL A   1      31.366  23.564  24.645  1.00  0.00     0.020 A 
ATOM     10  C   UNL A   1      32.213  23.172  27.288  1.00  0.00     0.001 A 
ATOM     11  C   UNL A   1      32.371  22.158  26.353  1.00  0.00     0.016 A 
BRANCH   7  12
ATOM     12  C   UNL A   1      30.259  25.764  25.242  1.00  0.00     0.074 C 
ATOM     13  N   UNL A   1      30.557  28.172  24.486  1.00  0.00    -0.331 N 
ATOM     14  C   UNL A   1      29.712  27.921  23.317  1.00  0.00     0.262 C 
ATOM     15  C   UNL A   1      31.210  26.947  24.958  1.00  0.00     0.270 C 
ATOM     16  H   UNL A   1      29.926  28.489  25.222  1.00  0.00     0.348 HD
ATOM     17  C   UNL A   1      28.658  26.850  23.619  1.00  0.00     0.062 C 
ATOM     18  C   UNL A   1      29.309  25.537  24.054  1.00  0.00     0.020 C 
BRANCH  13  19
ATOM     19  C   UNL A   1      31.523  29.274  24.293  1.00  0.00     0.302 C 
BRANCH  19  20
ATOM     20  C   UNL A   1      32.513  29.497  25.402  1.00  0.00     0.043 A 
ATOM     21  C   UNL A   1      34.393  30.065  27.288  1.00  0.00     0.127 A 
ATOM     22  N   UNL A   1      33.217  30.719  27.355  1.00  0.00    -0.241 NA
ATOM     23  N   UNL A   1      34.686  29.119  26.378  1.00  0.00    -0.241 NA
ATOM     24  C   UNL A   1      32.302  30.410  26.413  1.00  0.00     0.124 A 
ATOM     25  C   UNL A   1      33.732  28.851  25.464  1.00  0.00     0.124 A 
BRANCH  21  26
ATOM     26  C   UNL A   1      35.489  30.479  28.229  1.00  0.00     0.074 C 
ATOM     27  C   UNL A   1      36.735  29.620  28.092  1.00  0.00     0.012 C 
ENDBRANCH  21  26
ENDBRANCH  19  20
ENDBRANCH  13  19
ENDBRANCH   7  12
ENDBRANCH   4   6
ENDBRANCH   3   4
ENDBRANCH   2   3
ENDBRANCH   1   2
BRANCH   1  28
ATOM     28  O   UNL A   1      35.908  19.389  24.989  1.00  0.00    -0.374 OA
BRANCH  28  29
ATOM     29  C   UNL A   1      37.125  20.037  24.616  1.00  0.00     0.202 C 
BRANCH  29  30
ATOM     30  C   UNL A   1      38.382  19.702  25.426  1.00  0.00     0.261 C 
BRANCH  30  31
ATOM     31  O   UNL A   1      39.263  20.831  25.569  1.00  0.00    -0.460 OA
BRANCH  31  32
ATOM     32  C   UNL A   1      40.134  20.739  26.602  1.00  0.00     0.338 C 
ATOM     33  O   UNL A   1      40.703  19.729  26.994  1.00  0.00    -0.246 OA
BRANCH  32  34
ATOM     34  C   UNL A   1      40.468  22.087  27.097  1.00  0.00     0.060 A 
ATOM     35  C   UNL A   1      39.797  23.174  26.521  1.00  0.00     0.016 A 
ATOM     36  C   UNL A   1      41.460  22.294  28.058  1.00  0.00     0.016 A 
ATOM     37  C   UNL A   1      40.148  24.476  26.869  1.00  0.00     0.010 A 
ATOM     38  C   UNL A   1      41.816  23.603  28.400  1.00  0.00     0.010 A 
ATOM     39  C   UNL A   1      41.185  24.700  27.783  1.00  0.00    -0.014 A 
BRANCH  39  40
ATOM     40  C   UNL A   1      41.710  26.075  27.978  1.00  0.00     0.031 A 
ATOM     41  C   UNL A   1      43.051  26.429  27.392  1.00  0.00     0.074 A 
ATOM     42  C   UNL A   1      40.995  26.999  28.643  1.00  0.00     0.049 A 
ATOM     43  N   UNL A   1      43.733  27.540  27.489  1.00  0.00    -0.248 NA
ATOM     44  C   UNL A   1      43.708  25.384  26.591  1.00  0.00     0.031 C 
ATOM     45  C   UNL A   1      39.663  26.788  29.206  1.00  0.00     0.029 A 
ATOM     46  N   UNL A   1      41.293  28.300  28.961  1.00  0.00    -0.354 N 
ATOM     47  C   UNL A   1      44.904  27.329  26.767  1.00  0.00     0.074 A 
ATOM     48  C   UNL A   1      44.854  25.968  26.275  1.00  0.00     0.031 C 
ATOM     49  C   UNL A   1      39.261  27.921  29.809  1.00  0.00     0.029 A 
ATOM     50  C   UNL A   1      40.323  28.920  29.716  1.00  0.00     0.049 A 
ATOM     51  H   UNL A   1      42.122  28.749  28.677  1.00  0.00     0.167 HD
ATOM     52  C   UNL A   1      45.921  28.195  26.529  1.00  0.00     0.034 A 
ATOM     53  C   UNL A   1      40.309  30.142  30.287  1.00  0.00     0.034 A 
ATOM     54  C   UNL A   1      45.960  29.544  27.038  1.00  0.00     0.049 A 
ATOM     55  C   UNL A   1      41.501  31.053  30.097  1.00  0.00     0.074 A 
ATOM     56  C   UNL A   1      46.938  30.507  26.855  1.00  0.00     0.029 A 
ATOM     57  N   UNL A   1      44.984  30.120  27.843  1.00  0.00    -0.354 N 
ATOM     58  N   UNL A   1      42.603  30.842  29.414  1.00  0.00    -0.248 NA
ATOM     59  C   UNL A   1      41.442  32.367  30.747  1.00  0.00     0.031 C 
ATOM     60  C   UNL A   1      46.591  31.634  27.608  1.00  0.00     0.029 A 
ATOM     61  C   UNL A   1      45.354  31.411  28.192  1.00  0.00     0.049 A 
ATOM     62  H   UNL A   1      44.151  29.677  28.123  1.00  0.00     0.167 HD
ATOM     63  C   UNL A   1      43.348  32.014  29.524  1.00  0.00     0.074 A 
ATOM     64  C   UNL A   1      42.566  32.929  30.329  1.00  0.00     0.031 C 
ATOM     65  C   UNL A   1      44.566  32.312  29.001  1.00  0.00     0.034 A 
BRANCH  52  66
ATOM     66  C   UNL A   1      47.095  27.683  25.727  1.00  0.00     0.023 A 
ATOM     67  C   UNL A   1      47.275  28.029  24.376  1.00  0.00     0.031 A 
ATOM     68  C   UNL A   1      48.030  26.814  26.314  1.00  0.00     0.131 A 
ATOM     69  C   UNL A   1      48.323  27.453  23.640  1.00  0.00     0.055 A 
ATOM     70  C   UNL A   1      49.119  26.310  25.599  1.00  0.00     0.041 A 
ATOM     71  F   UNL A   1      47.898  26.428  27.593  1.00  0.00    -0.206 F 
ATOM     72  C   UNL A   1      49.261  26.617  24.248  1.00  0.00     0.022 A 
BRANCH  69  73
ATOM     73  S   UNL A   1      48.354  27.695  21.842  1.00  0.00     0.124 S 
ATOM     74  O   UNL A   1      49.440  28.661  21.693  1.00  0.00    -0.237 OA
ATOM     75  O   UNL A   1      48.621  26.350  21.348  1.00  0.00    -0.237 OA
ATOM     76  O   UNL A   1      47.022  28.217  21.543  1.00  0.00    -0.744 OA
ENDBRANCH  69  73
ENDBRANCH  52  66
BRANCH  53  77
ATOM     77  C   UNL A   1      39.157  30.571  31.132  1.00  0.00     0.023 A 
ATOM     78  C   UNL A   1      38.214  31.496  30.657  1.00  0.00     0.031 A 
ATOM     79  C   UNL A   1      39.018  30.111  32.454  1.00  0.00     0.131 A 
ATOM     80  C   UNL A   1      37.208  31.972  31.512  1.00  0.00     0.055 A 
ATOM     81  C   UNL A   1      37.981  30.542  33.282  1.00  0.00     0.041 A 
ATOM     82  F   UNL A   1      39.894  29.229  32.962  1.00  0.00    -0.206 F 
ATOM     83  C   UNL A   1      37.075  31.490  32.816  1.00  0.00     0.022 A 
BRANCH  80  84
ATOM     84  S   UNL A   1      36.133  33.311  30.927  1.00  0.00     0.124 S 
ATOM     85  O   UNL A   1      36.706  33.599  29.618  1.00  0.00    -0.237 OA
ATOM     86  O   UNL A   1      34.822  32.668  30.929  1.00  0.00    -0.237 OA
ATOM     87  O   UNL A   1      36.313  34.356  31.933  1.00  0.00    -0.744 OA
ENDBRANCH  80  84
ENDBRANCH  53  77
BRANCH  65  88
ATOM     88  C   UNL A   1      45.097  33.707  29.235  1.00  0.00     0.023 A 
ATOM     89  C   UNL A   1      44.864  34.755  28.328  1.00  0.00     0.031 A 
ATOM     90  C   UNL A   1      45.853  33.987  30.388  1.00  0.00     0.131 A 
ATOM     91  C   UNL A   1      45.428  36.020  28.562  1.00  0.00     0.055 A 
ATOM     92  C   UNL A   1      46.356  35.262  30.647  1.00  0.00     0.041 A 
ATOM     93  F   UNL A   1      46.108  33.024  31.288  1.00  0.00    -0.206 F 
ATOM     94  C   UNL A   1      46.156  36.284  29.724  1.00  0.00     0.022 A 
BRANCH  91  95
ATOM     95  S   UNL A   1      45.274  37.294  27.280  1.00  0.00     0.124 S 
ATOM     96  O   UNL A   1      45.705  38.493  27.991  1.00  0.00    -0.237 OA
ATOM     97  O   UNL A   1      46.178  36.807  26.244  1.00  0.00    -0.237 OA
ATOM     98  O   UNL A   1      43.855  37.257  26.929  1.00  0.00    -0.744 OA
ENDBRANCH  91  95
ENDBRANCH  65  88
ENDBRANCH  39  40
ENDBRANCH  32  34
ENDBRANCH  31  32
ENDBRANCH  30  31
ENDBRANCH  29  30
ENDBRANCH  28  29
ENDBRANCH   1  28
TORSDOF 21
ENDMDL
MODEL 2
REMARK VINA RESULT:     -10.7      4.975     10.668
REMARK SMILES CCc1ncc(C[N@H+]2CCC[C@@H](c3cccc(C(=O)OCCOCCOC(=O)c4ccc(-c5c6nc(c(-c7cc(S(=O)(=O)[O-])ccc7F)c7ccc([nH]7)c(-c7cc(S(=O)(=O)[O-])ccc7F)c7nc(c(-c8cc(S(=O)(=O)[O-])ccc8F)c8ccc5[nH]8)C=C7)C=C6)cc4)c3)C2)cn1
REMARK SMILES IDX 22 1 21 2 20 3 18 4 19 5 17 6 13 7 14 8 92 9 15 10 16 11
REMARK SMILES IDX 12 12 8 13 9 14 93 15 10 17 11 18 7 19 6 20 3 21 4 22 95 23
REMARK SMILES IDX 5 24 94 25 2 26 1 27 23 28 24 29 25 30 26 31 27 32 28 33
REMARK SMILES IDX 29 34 30 35 91 36 31 37 90 38 32 39 33 40 34 41 84 42 35 43
REMARK SMILES IDX 89 44 83 45 85 46 36 47 88 48 82 49 81 50 37 52 69 53 49 54
REMARK SMILES IDX 68 55 50 56 53 57 67 58 86 59 51 60 52 61 66 63 87 64 54 65
REMARK SMILES IDX 38 66 39 67 47 68 40 69 46 70 48 71 45 72 41 73 42 74 43 75
REMARK SMILES IDX 44 76 70 77 71 78 79 79 72 80 78 81 80 82 77 83 73 84 74 85
REMARK SMILES IDX 75 86 76 87 55 88 56 89 64 90 57 91 63 92 65 93 62 94 58 95
REMARK SMILES IDX 59 96 60 97 61 98
REMARK H PARENT 8 16 85 51 53 62
REMARK Flexibility Score: inf
ROOT
ATOM      1  C   UNL A   1      43.102  18.679  26.297  1.00  0.00     0.202 C 
ENDROOT
BRANCH   1   2
ATOM      2  C   UNL A   1      44.294  18.791  25.339  1.00  0.00     0.261 C 
BRANCH   2   3
ATOM      3  O   UNL A   1      44.373  20.107  24.770  1.00  0.00    -0.460 OA
BRANCH   3   4
ATOM      4  C   UNL A   1      45.517  20.780  25.036  1.00  0.00     0.338 C 
ATOM      5  O   UNL A   1      46.663  20.367  24.915  1.00  0.00    -0.246 OA
BRANCH   4   6
ATOM      6  C   UNL A   1      45.204  22.201  25.307  1.00  0.00     0.060 A 
ATOM      7  C   UNL A   1      45.646  24.352  26.355  1.00  0.00    -0.038 A 
ATOM      8  C   UNL A   1      44.498  24.862  25.720  1.00  0.00     0.004 A 
ATOM      9  C   UNL A   1      45.976  22.997  26.164  1.00  0.00     0.020 A 
ATOM     10  C   UNL A   1      43.715  24.058  24.892  1.00  0.00     0.001 A 
ATOM     11  C   UNL A   1      44.077  22.735  24.672  1.00  0.00     0.016 A 
BRANCH   7  12
ATOM     12  C   UNL A   1      46.651  25.276  27.043  1.00  0.00     0.074 C 
ATOM     13  N   UNL A   1      47.315  25.874  29.422  1.00  0.00    -0.331 N 
ATOM     14  C   UNL A   1      48.707  25.525  29.132  1.00  0.00     0.262 C 
ATOM     15  C   UNL A   1      46.381  25.146  28.557  1.00  0.00     0.270 C 
ATOM     16  H   UNL A   1      47.226  26.867  29.205  1.00  0.00     0.348 HD
ATOM     17  C   UNL A   1      49.046  25.785  27.661  1.00  0.00     0.062 C 
ATOM     18  C   UNL A   1      48.129  24.991  26.729  1.00  0.00     0.020 C 
BRANCH  13  19
ATOM     19  C   UNL A   1      46.957  25.748  30.851  1.00  0.00     0.302 C 
BRANCH  19  20
ATOM     20  C   UNL A   1      45.870  26.659  31.350  1.00  0.00     0.043 A 
ATOM     21  C   UNL A   1      43.863  28.363  32.042  1.00  0.00     0.127 A 
ATOM     22  N   UNL A   1      43.537  27.084  31.772  1.00  0.00    -0.241 NA
ATOM     23  N   UNL A   1      45.118  28.845  32.035  1.00  0.00    -0.241 NA
ATOM     24  C   UNL A   1      44.553  26.260  31.441  1.00  0.00     0.124 A 
ATOM     25  C   UNL A   1      46.092  27.976  31.700  1.00  0.00     0.124 A 
BRANCH  21  26
ATOM     26  C   UNL A   1      42.748  29.344  32.276  1.00  0.00     0.074 C 
ATOM     27  C   UNL A   1      43.204  30.578  33.035  1.00  0.00     0.012 C 
ENDBRANCH  21  26
ENDBRANCH  19  20
ENDBRANCH  13  19
ENDBRANCH   7  12
ENDBRANCH   4   6
ENDBRANCH   3   4
ENDBRANCH   2   3
ENDBRANCH   1   2
BRANCH   1  28
ATOM     28  O   UNL A   1      41.802  18.713  25.705  1.00  0.00    -0.374 OA
BRANCH  28  29
ATOM     29  C   UNL A   1      40.885  19.689  26.200  1.00  0.00     0.202 C 
BRANCH  29  30
ATOM     30  C   UNL A   1      41.462  21.033  26.662  1.00  0.00     0.261 C 
BRANCH  30  31
ATOM     31  O   UNL A   1      40.492  21.842  27.349  1.00  0.00    -0.460 OA
BRANCH  31  32
ATOM     32  C   UNL A   1      39.806  22.697  26.552  1.00  0.00     0.338 C 
ATOM     33  O   UNL A   1      39.050  22.401  25.637  1.00  0.00    -0.246 OA
BRANCH  32  34
ATOM     34  C   UNL A   1      39.941  24.075  27.061  1.00  0.00     0.060 A 
ATOM     35  C   UNL A   1      40.118  25.099  26.121  1.00  0.00     0.016 A 
ATOM     36  C   UNL A   1      39.960  24.356  28.429  1.00  0.00     0.016 A 
ATOM     37  C   UNL A   1      40.360  26.402  26.545  1.00  0.00     0.010 A 
ATOM     38  C   UNL A   1      40.211  25.665  28.852  1.00  0.00     0.010 A 
ATOM     39  C   UNL A   1      40.445  26.688  27.914  1.00  0.00    -0.014 A 
BRANCH  39  40
ATOM     40  C   UNL A   1      40.929  28.019  28.359  1.00  0.00     0.031 A 
ATOM     41  C   UNL A   1      39.922  29.043  28.811  1.00  0.00     0.074 A 
ATOM     42  C   UNL A   1      42.243  28.303  28.384  1.00  0.00     0.049 A 
ATOM     43  N   UNL A   1      40.106  30.284  29.178  1.00  0.00    -0.248 NA
ATOM     44  C   UNL A   1      38.518  28.603  28.850  1.00  0.00     0.031 C 
ATOM     45  C   UNL A   1      43.312  27.375  28.023  1.00  0.00     0.029 A 
ATOM     46  N   UNL A   1      42.901  29.458  28.724  1.00  0.00    -0.354 N 
ATOM     47  C   UNL A   1      38.842  30.779  29.488  1.00  0.00     0.074 A 
ATOM     48  C   UNL A   1      37.898  29.712  29.223  1.00  0.00     0.031 C 
ATOM     49  C   UNL A   1      44.495  28.001  28.153  1.00  0.00     0.029 A 
ATOM     50  C   UNL A   1      44.265  29.385  28.562  1.00  0.00     0.049 A 
ATOM     51  H   UNL A   1      42.441  30.264  29.055  1.00  0.00     0.167 HD
ATOM     52  C   UNL A   1      38.503  32.004  29.958  1.00  0.00     0.034 A 
ATOM     53  C   UNL A   1      45.213  30.334  28.700  1.00  0.00     0.034 A 
ATOM     54  C   UNL A   1      39.456  33.060  30.205  1.00  0.00     0.049 A 
ATOM     55  C   UNL A   1      44.801  31.725  29.125  1.00  0.00     0.074 A 
ATOM     56  C   UNL A   1      39.223  34.337  30.685  1.00  0.00     0.029 A 
ATOM     57  N   UNL A   1      40.823  32.966  29.979  1.00  0.00    -0.354 N 
ATOM     58  N   UNL A   1      43.603  32.182  29.412  1.00  0.00    -0.248 NA
ATOM     59  C   UNL A   1      45.868  32.725  29.250  1.00  0.00     0.031 C 
ATOM     60  C   UNL A   1      40.434  35.037  30.678  1.00  0.00     0.029 A 
ATOM     61  C   UNL A   1      41.440  34.172  30.277  1.00  0.00     0.049 A 
ATOM     62  H   UNL A   1      41.287  32.160  29.656  1.00  0.00     0.167 HD
ATOM     63  C   UNL A   1      43.783  33.511  29.789  1.00  0.00     0.074 A 
ATOM     64  C   UNL A   1      45.203  33.778  29.702  1.00  0.00     0.031 C 
ATOM     65  C   UNL A   1      42.859  34.427  30.180  1.00  0.00     0.034 A 
BRANCH  52  66
ATOM     66  C   UNL A   1      37.035  32.280  30.183  1.00  0.00     0.023 A 
ATOM     67  C   UNL A   1      36.237  32.888  29.198  1.00  0.00     0.031 A 
ATOM     68  C   UNL A   1      36.431  31.958  31.410  1.00  0.00     0.131 A 
ATOM     69  C   UNL A   1      34.902  33.218  29.482  1.00  0.00     0.055 A 
ATOM     70  C   UNL A   1      35.081  32.213  31.658  1.00  0.00     0.041 A 
ATOM     71  F   UNL A   1      37.148  31.399  32.399  1.00  0.00    -0.206 F 
ATOM     72  C   UNL A   1      34.312  32.861  30.696  1.00  0.00     0.022 A 
BRANCH  69  73
ATOM     73  S   UNL A   1      33.994  34.253  28.301  1.00  0.00     0.124 S 
ATOM     74  O   UNL A   1      33.614  35.390  29.136  1.00  0.00    -0.237 OA
ATOM     75  O   UNL A   1      34.997  34.517  27.277  1.00  0.00    -0.237 OA
ATOM     76  O   UNL A   1      32.883  33.400  27.882  1.00  0.00    -0.744 OA
ENDBRANCH  69  73
ENDBRANCH  52  66
BRANCH  53  77
ATOM     77  C   UNL A   1      46.642  30.029  28.395  1.00  0.00     0.023 A 
ATOM     78  C   UNL A   1      47.539  29.663  29.410  1.00  0.00     0.031 A 
ATOM     79  C   UNL A   1      47.147  30.165  27.089  1.00  0.00     0.131 A 
ATOM     80  C   UNL A   1      48.900  29.498  29.115  1.00  0.00     0.055 A 
ATOM     81  C   UNL A   1      48.491  29.940  26.790  1.00  0.00     0.041 A 
ATOM     82  F   UNL A   1      46.335  30.518  26.079  1.00  0.00    -0.206 F 
ATOM     83  C   UNL A   1      49.381  29.618  27.810  1.00  0.00     0.022 A 
BRANCH  80  84
ATOM     84  S   UNL A   1      50.058  29.221  30.485  1.00  0.00     0.124 S 
ATOM     85  O   UNL A   1      49.734  27.854  30.873  1.00  0.00    -0.237 OA
ATOM     86  O   UNL A   1      51.350  29.416  29.832  1.00  0.00    -0.237 OA
ATOM     87  O   UNL A   1      49.691  30.251  31.454  1.00  0.00    -0.744 OA
ENDBRANCH  80  84
ENDBRANCH  53  77
BRANCH  65  88
ATOM     88  C   UNL A   1      43.368  35.786  30.600  1.00  0.00     0.023 A 
ATOM     89  C   UNL A   1      43.613  36.106  31.947  1.00  0.00     0.031 A 
ATOM     90  C   UNL A   1      43.609  36.778  29.632  1.00  0.00     0.131 A 
ATOM     91  C   UNL A   1      44.031  37.401  32.293  1.00  0.00     0.055 A 
ATOM     92  C   UNL A   1      44.085  38.043  29.975  1.00  0.00     0.041 A 
ATOM     93  F   UNL A   1      43.390  36.528  28.331  1.00  0.00    -0.206 F 
ATOM     94  C   UNL A   1      44.286  38.366  31.314  1.00  0.00     0.022 A 
BRANCH  91  95
ATOM     95  S   UNL A   1      44.149  37.840  34.049  1.00  0.00     0.124 S 
ATOM     96  O   UNL A   1      44.479  39.260  33.985  1.00  0.00    -0.237 OA
ATOM     97  O   UNL A   1      42.815  37.518  34.543  1.00  0.00    -0.237 OA
ATOM     98  O   UNL A   1      45.218  36.977  34.547  1.00  0.00    -0.744 OA
ENDBRANCH  91  95
ENDBRANCH  65  88
ENDBRANCH  39  40
ENDBRANCH  32  34
ENDBRANCH  31  32
ENDBRANCH  30  31
ENDBRANCH  29  30
ENDBRANCH  28  29
ENDBRANCH   1  28
TORSDOF 21
ENDMDL
MODEL 3
REMARK VINA RESULT:     -10.4      5.252      9.239
REMARK SMILES CCc1ncc(C[N@H+]2CCC[C@@H](c3cccc(C(=O)OCCOCCOC(=O)c4ccc(-c5c6nc(c(-c7cc(S(=O)(=O)[O-])ccc7F)c7ccc([nH]7)c(-c7cc(S(=O)(=O)[O-])ccc7F)c7nc(c(-c8cc(S(=O)(=O)[O-])ccc8F)c8ccc5[nH]8)C=C7)C=C6)cc4)c3)C2)cn1
REMARK SMILES IDX 22 1 21 2 20 3 18 4 19 5 17 6 13 7 14 8 92 9 15 10 16 11
REMARK SMILES IDX 12 12 8 13 9 14 93 15 10 17 11 18 7 19 6 20 3 21 4 22 95 23
REMARK SMILES IDX 5 24 94 25 2 26 1 27 23 28 24 29 25 30 26 31 27 32 28 33
REMARK SMILES IDX 29 34 30 35 91 36 31 37 90 38 32 39 33 40 34 41 84 42 35 43
REMARK SMILES IDX 89 44 83 45 85 46 36 47 88 48 82 49 81 50 37 52 69 53 49 54
REMARK SMILES IDX 68 55 50 56 53 57 67 58 86 59 51 60 52 61 66 63 87 64 54 65
REMARK SMILES IDX 38 66 39 67 47 68 40 69 46 70 48 71 45 72 41 73 42 74 43 75
REMARK SMILES IDX 44 76 70 77 71 78 79 79 72 80 78 81 80 82 77 83 73 84 74 85
REMARK SMILES IDX 75 86 76 87 55 88 56 89 64 90 57 91 63 92 65 93 62 94 58 95
REMARK SMILES IDX 59 96 60 97 61 98
REMARK H PARENT 8 16 85 51 53 62
REMARK Flexibility Score: inf
ROOT
ATOM      1  C   UNL A   1      42.770  23.162  27.735  1.00  0.00     0.202 C 
ENDROOT
BRANCH   1   2
ATOM      2  C   UNL A   1      41.555  23.968  28.210  1.00  0.00     0.261 C 
BRANCH   2   3
ATOM      3  O   UNL A   1      40.937  24.660  27.113  1.00  0.00    -0.460 OA
BRANCH   3   4
ATOM      4  C   UNL A   1      39.776  25.287  27.410  1.00  0.00     0.338 C 
ATOM      5  O   UNL A   1      38.694  24.766  27.647  1.00  0.00    -0.246 OA
BRANCH   4   6
ATOM      6  C   UNL A   1      40.031  26.729  27.624  1.00  0.00     0.060 A 
ATOM      7  C   UNL A   1      40.126  28.728  29.007  1.00  0.00    -0.038 A 
ATOM      8  C   UNL A   1      40.555  29.451  27.878  1.00  0.00     0.004 A 
ATOM      9  C   UNL A   1      39.834  27.359  28.859  1.00  0.00     0.020 A 
ATOM     10  C   UNL A   1      40.721  28.826  26.642  1.00  0.00     0.001 A 
ATOM     11  C   UNL A   1      40.476  27.464  26.519  1.00  0.00     0.016 A 
BRANCH   7  12
ATOM     12  C   UNL A   1      40.195  29.331  30.410  1.00  0.00     0.074 C 
ATOM     13  N   UNL A   1      39.458  31.474  31.559  1.00  0.00    -0.331 N 
ATOM     14  C   UNL A   1      38.716  30.698  32.555  1.00  0.00     0.262 C 
ATOM     15  C   UNL A   1      39.592  30.747  30.293  1.00  0.00     0.270 C 
ATOM     16  H   UNL A   1      40.394  31.599  31.945  1.00  0.00     0.348 HD
ATOM     17  C   UNL A   1      39.381  29.339  32.800  1.00  0.00     0.062 C 
ATOM     18  C   UNL A   1      39.480  28.527  31.508  1.00  0.00     0.020 C 
BRANCH  13  19
ATOM     19  C   UNL A   1      38.929  32.840  31.360  1.00  0.00     0.302 C 
BRANCH  19  20
ATOM     20  C   UNL A   1      37.651  32.954  30.576  1.00  0.00     0.043 A 
ATOM     21  C   UNL A   1      35.341  33.379  29.200  1.00  0.00     0.127 A 
ATOM     22  N   UNL A   1      36.502  33.472  28.524  1.00  0.00    -0.241 NA
ATOM     23  N   UNL A   1      35.242  33.048  30.500  1.00  0.00    -0.241 NA
ATOM     24  C   UNL A   1      37.630  33.247  29.229  1.00  0.00     0.124 A 
ATOM     25  C   UNL A   1      36.401  32.833  31.152  1.00  0.00     0.124 A 
BRANCH  21  26
ATOM     26  C   UNL A   1      34.073  33.759  28.487  1.00  0.00     0.074 C 
ATOM     27  C   UNL A   1      33.281  34.822  29.228  1.00  0.00     0.012 C 
ENDBRANCH  21  26
ENDBRANCH  19  20
ENDBRANCH  13  19
ENDBRANCH   7  12
ENDBRANCH   4   6
ENDBRANCH   3   4
ENDBRANCH   2   3
ENDBRANCH   1   2
BRANCH   1  28
ATOM     28  O   UNL A   1      43.392  23.596  26.525  1.00  0.00    -0.374 OA
BRANCH  28  29
ATOM     29  C   UNL A   1      44.488  22.822  26.040  1.00  0.00     0.202 C 
BRANCH  29  30
ATOM     30  C   UNL A   1      45.488  23.516  25.107  1.00  0.00     0.261 C 
BRANCH  30  31
ATOM     31  O   UNL A   1      45.045  24.822  24.698  1.00  0.00    -0.460 OA
BRANCH  31  32
ATOM     32  C   UNL A   1      45.905  25.826  24.993  1.00  0.00     0.338 C 
ATOM     33  O   UNL A   1      46.798  26.261  24.278  1.00  0.00    -0.246 OA
BRANCH  32  34
ATOM     34  C   UNL A   1      45.499  26.481  26.250  1.00  0.00     0.060 A 
ATOM     35  C   UNL A   1      44.126  26.611  26.500  1.00  0.00     0.016 A 
ATOM     36  C   UNL A   1      46.435  27.014  27.139  1.00  0.00     0.016 A 
ATOM     37  C   UNL A   1      43.683  27.316  27.615  1.00  0.00     0.010 A 
ATOM     38  C   UNL A   1      45.987  27.728  28.255  1.00  0.00     0.010 A 
ATOM     39  C   UNL A   1      44.609  27.911  28.481  1.00  0.00    -0.014 A 
BRANCH  39  40
ATOM     40  C   UNL A   1      44.139  28.849  29.531  1.00  0.00     0.031 A 
ATOM     41  C   UNL A   1      43.815  28.305  30.897  1.00  0.00     0.074 A 
ATOM     42  C   UNL A   1      44.025  30.165  29.280  1.00  0.00     0.049 A 
ATOM     43  N   UNL A   1      43.330  28.921  31.943  1.00  0.00    -0.248 NA
ATOM     44  C   UNL A   1      44.073  26.872  31.105  1.00  0.00     0.031 C 
ATOM     45  C   UNL A   1      44.362  30.813  28.014  1.00  0.00     0.029 A 
ATOM     46  N   UNL A   1      43.589  31.192  30.079  1.00  0.00    -0.354 N 
ATOM     47  C   UNL A   1      43.218  27.951  32.935  1.00  0.00     0.074 A 
ATOM     48  C   UNL A   1      43.647  26.699  32.348  1.00  0.00     0.031 C 
ATOM     49  C   UNL A   1      44.112  32.130  28.119  1.00  0.00     0.029 A 
ATOM     50  C   UNL A   1      43.556  32.411  29.441  1.00  0.00     0.049 A 
ATOM     51  H   UNL A   1      43.326  31.070  31.020  1.00  0.00     0.167 HD
ATOM     52  C   UNL A   1      42.805  28.095  34.219  1.00  0.00     0.034 A 
ATOM     53  C   UNL A   1      43.101  33.607  29.868  1.00  0.00     0.034 A 
ATOM     54  C   UNL A   1      42.369  29.349  34.785  1.00  0.00     0.049 A 
ATOM     55  C   UNL A   1      42.546  33.722  31.269  1.00  0.00     0.074 A 
ATOM     56  C   UNL A   1      41.935  29.609  36.073  1.00  0.00     0.029 A 
ATOM     57  N   UNL A   1      42.298  30.552  34.093  1.00  0.00    -0.354 N 
ATOM     58  N   UNL A   1      42.443  32.798  32.198  1.00  0.00    -0.248 NA
ATOM     59  C   UNL A   1      42.054  35.043  31.682  1.00  0.00     0.031 C 
ATOM     60  C   UNL A   1      41.532  30.947  36.139  1.00  0.00     0.029 A 
ATOM     61  C   UNL A   1      41.796  31.547  34.918  1.00  0.00     0.049 A 
ATOM     62  H   UNL A   1      42.567  30.680  33.155  1.00  0.00     0.167 HD
ATOM     63  C   UNL A   1      41.910  33.439  33.314  1.00  0.00     0.074 A 
ATOM     64  C   UNL A   1      41.724  34.827  32.946  1.00  0.00     0.031 C 
ATOM     65  C   UNL A   1      41.610  32.929  34.537  1.00  0.00     0.034 A 
BRANCH  52  66
ATOM     66  C   UNL A   1      42.757  26.852  35.076  1.00  0.00     0.023 A 
ATOM     67  C   UNL A   1      43.859  26.439  35.845  1.00  0.00     0.031 A 
ATOM     68  C   UNL A   1      41.601  26.052  35.102  1.00  0.00     0.131 A 
ATOM     69  C   UNL A   1      43.807  25.226  36.549  1.00  0.00     0.055 A 
ATOM     70  C   UNL A   1      41.526  24.889  35.870  1.00  0.00     0.041 A 
ATOM     71  F   UNL A   1      40.525  26.381  34.369  1.00  0.00    -0.206 F 
ATOM     72  C   UNL A   1      42.639  24.461  36.588  1.00  0.00     0.022 A 
BRANCH  69  73
ATOM     73  S   UNL A   1      45.334  24.588  37.291  1.00  0.00     0.124 S 
ATOM     74  O   UNL A   1      45.133  24.908  38.702  1.00  0.00    -0.237 OA
ATOM     75  O   UNL A   1      45.286  23.173  36.942  1.00  0.00    -0.237 OA
ATOM     76  O   UNL A   1      46.385  25.359  36.629  1.00  0.00    -0.744 OA
ENDBRANCH  69  73
ENDBRANCH  52  66
BRANCH  53  77
ATOM     77  C   UNL A   1      43.103  34.788  28.956  1.00  0.00     0.023 A 
ATOM     78  C   UNL A   1      44.298  35.443  28.619  1.00  0.00     0.031 A 
ATOM     79  C   UNL A   1      41.899  35.321  28.460  1.00  0.00     0.131 A 
ATOM     80  C   UNL A   1      44.260  36.620  27.856  1.00  0.00     0.055 A 
ATOM     81  C   UNL A   1      41.872  36.458  27.652  1.00  0.00     0.041 A 
ATOM     82  F   UNL A   1      40.726  34.738  28.755  1.00  0.00    -0.206 F 
ATOM     83  C   UNL A   1      43.058  37.124  27.357  1.00  0.00     0.022 A 
BRANCH  80  84
ATOM     84  S   UNL A   1      45.802  37.544  27.609  1.00  0.00     0.124 S 
ATOM     85  O   UNL A   1      45.443  38.427  26.507  1.00  0.00    -0.237 OA
ATOM     86  O   UNL A   1      45.984  38.180  28.910  1.00  0.00    -0.237 OA
ATOM     87  O   UNL A   1      46.775  36.503  27.286  1.00  0.00    -0.744 OA
ENDBRANCH  80  84
ENDBRANCH  53  77
BRANCH  65  88
ATOM     88  C   UNL A   1      41.103  33.894  35.583  1.00  0.00     0.023 A 
ATOM     89  C   UNL A   1      41.975  34.603  36.427  1.00  0.00     0.031 A 
ATOM     90  C   UNL A   1      39.720  34.103  35.737  1.00  0.00     0.131 A 
ATOM     91  C   UNL A   1      41.453  35.445  37.422  1.00  0.00     0.055 A 
ATOM     92  C   UNL A   1      39.210  34.989  36.686  1.00  0.00     0.041 A 
ATOM     93  F   UNL A   1      38.840  33.450  34.960  1.00  0.00    -0.206 F 
ATOM     94  C   UNL A   1      40.078  35.656  37.545  1.00  0.00     0.022 A 
BRANCH  91  95
ATOM     95  S   UNL A   1      42.594  36.192  38.619  1.00  0.00     0.124 S 
ATOM     96  O   UNL A   1      41.912  37.439  38.950  1.00  0.00    -0.237 OA
ATOM     97  O   UNL A   1      42.639  35.190  39.677  1.00  0.00    -0.237 OA
ATOM     98  O   UNL A   1      43.834  36.347  37.859  1.00  0.00    -0.744 OA
ENDBRANCH  91  95
ENDBRANCH  65  88
ENDBRANCH  39  40
ENDBRANCH  32  34
ENDBRANCH  31  32
ENDBRANCH  30  31
ENDBRANCH  29  30
ENDBRANCH  28  29
ENDBRANCH   1  28
TORSDOF 21
ENDMDL
