MODEL 1
REMARK VINA RESULT:     -11.9      0.000      0.000
REMARK SMILES CCOC(=O)c1c(NC(=O)[C@@H]2[C@@H](C(=O)OCCOCCOC(=O)c3ccc(-c4c5nc(c(-c6cc(S(=O)(=O)[O-])ccc6F)c6ccc([nH]6)c(-c6cc(S(=O)(=O)[O-])ccc6F)c6nc(c(-c7cc(S(=O)(=O)[O-])ccc7F)c7ccc4[nH]7)C=C6)C=C5)cc3)[C@@H]3C=C[C@H]2CC3)sc2c1CCC2
REMARK SMILES IDX 17 1 16 2 15 3 13 4 14 5 12 6 11 7 90 8 87 9 89 10 91 11
REMARK SMILES IDX 88 12 92 13 9 14 8 15 10 17 7 18 6 19 95 20 93 21 94 22
REMARK SMILES IDX 96 23 98 24 97 25 4 26 5 27 3 28 2 29 1 30 18 31 19 32 20 33
REMARK SMILES IDX 21 34 22 35 23 36 24 37 25 38 86 39 26 40 85 41 27 42 28 43
REMARK SMILES IDX 29 44 79 45 30 46 84 47 78 48 80 49 31 50 83 51 77 52 76 53
REMARK SMILES IDX 32 55 64 56 44 57 63 58 45 59 48 60 62 61 81 62 46 63 47 64
REMARK SMILES IDX 61 66 82 67 49 68 33 69 34 70 42 71 35 72 41 73 43 74 40 75
REMARK SMILES IDX 36 76 37 77 38 78 39 79 65 80 66 81 74 82 67 83 73 84 75 85
REMARK SMILES IDX 72 86 68 87 69 88 70 89 71 90 50 91 51 92 59 93 52 94 58 95
REMARK SMILES IDX 60 96 57 97 53 98 54 99 55 100 56 101
REMARK H PARENT 8 16 80 54 48 65
REMARK Flexibility Score: inf
ROOT
ATOM      1  C   UNL A   1      35.033  29.541  27.262  1.00  0.00     0.202 C 
ENDROOT
BRANCH   1   2
ATOM      2  C   UNL A   1      33.891  29.029  26.358  1.00  0.00     0.261 C 
BRANCH   2   3
ATOM      3  O   UNL A   1      33.450  27.664  26.529  1.00  0.00    -0.463 OA
BRANCH   3   4
ATOM      4  C   UNL A   1      32.134  27.540  26.852  1.00  0.00     0.310 C 
ATOM      5  O   UNL A   1      31.558  28.343  27.575  1.00  0.00    -0.252 OA
BRANCH   4   6
ATOM      6  C   UNL A   1      31.504  26.260  26.288  1.00  0.00     0.119 C 
ATOM      7  C   UNL A   1      32.511  25.145  25.804  1.00  0.00     0.100 C 
ATOM      8  C   UNL A   1      32.250  24.859  24.285  1.00  0.00     0.025 C 
ATOM      9  C   UNL A   1      30.580  26.678  25.098  1.00  0.00     0.026 C 
ATOM     10  C   UNL A   1      30.779  24.504  24.101  1.00  0.00    -0.027 C 
ATOM     11  C   UNL A   1      32.489  26.170  23.508  1.00  0.00     0.009 C 
ATOM     12  C   UNL A   1      29.917  25.423  24.572  1.00  0.00    -0.027 C 
ATOM     13  C   UNL A   1      31.408  27.203  23.891  1.00  0.00     0.009 C 
BRANCH   7  14
ATOM     14  C   UNL A   1      32.311  23.808  26.535  1.00  0.00     0.229 C 
ATOM     15  N   UNL A   1      32.938  22.631  26.262  1.00  0.00    -0.317 N 
ATOM     16  H   UNL A   1      32.398  21.839  26.484  1.00  0.00     0.170 HD
ATOM     17  O   UNL A   1      31.465  23.726  27.439  1.00  0.00    -0.274 OA
BRANCH  15  18
ATOM     18  C   UNL A   1      34.178  22.321  25.735  1.00  0.00     0.110 A 
ATOM     19  C   UNL A   1      34.458  21.154  25.012  1.00  0.00     0.098 A 
ATOM     20  C   UNL A   1      35.869  20.946  25.016  1.00  0.00    -0.017 A 
ATOM     21  S   UNL A   1      35.543  23.336  25.859  1.00  0.00    -0.122 S 
ATOM     22  C   UNL A   1      36.545  22.074  25.407  1.00  0.00     0.011 A 
ATOM     23  C   UNL A   1      36.839  19.851  24.716  1.00  0.00     0.038 C 
ATOM     24  C   UNL A   1      38.027  21.912  25.435  1.00  0.00     0.047 C 
ATOM     25  C   UNL A   1      38.141  20.360  25.420  1.00  0.00     0.010 C 
BRANCH  19  26
ATOM     26  C   UNL A   1      33.380  20.317  24.496  1.00  0.00     0.341 C 
ATOM     27  O   UNL A   1      32.538  20.765  23.727  1.00  0.00    -0.246 OA
BRANCH  26  28
ATOM     28  O   UNL A   1      33.289  19.111  25.110  1.00  0.00    -0.462 OA
BRANCH  28  29
ATOM     29  C   UNL A   1      32.686  18.049  24.343  1.00  0.00     0.230 C 
ATOM     30  C   UNL A   1      33.690  17.374  23.436  1.00  0.00     0.049 C 
ENDBRANCH  28  29
ENDBRANCH  26  28
ENDBRANCH  19  26
ENDBRANCH  15  18
ENDBRANCH   7  14
ENDBRANCH   4   6
ENDBRANCH   3   4
ENDBRANCH   2   3
ENDBRANCH   1   2
BRANCH   1  31
ATOM     31  O   UNL A   1      35.185  30.928  27.475  1.00  0.00    -0.374 OA
BRANCH  31  32
ATOM     32  C   UNL A   1      34.111  31.672  28.010  1.00  0.00     0.202 C 
BRANCH  32  33
ATOM     33  C   UNL A   1      34.296  32.938  28.868  1.00  0.00     0.261 C 
BRANCH  33  34
ATOM     34  O   UNL A   1      35.603  33.167  29.394  1.00  0.00    -0.460 OA
BRANCH  34  35
ATOM     35  C   UNL A   1      35.890  32.485  30.526  1.00  0.00     0.338 C 
ATOM     36  O   UNL A   1      35.236  32.594  31.552  1.00  0.00    -0.246 OA
BRANCH  35  37
ATOM     37  C   UNL A   1      37.033  31.558  30.369  1.00  0.00     0.060 A 
ATOM     38  C   UNL A   1      38.318  32.095  30.253  1.00  0.00     0.016 A 
ATOM     39  C   UNL A   1      36.840  30.175  30.333  1.00  0.00     0.016 A 
ATOM     40  C   UNL A   1      39.407  31.253  30.026  1.00  0.00     0.010 A 
ATOM     41  C   UNL A   1      37.932  29.346  30.123  1.00  0.00     0.010 A 
ATOM     42  C   UNL A   1      39.214  29.872  29.919  1.00  0.00    -0.014 A 
BRANCH  42  43
ATOM     43  C   UNL A   1      40.377  28.977  29.931  1.00  0.00     0.031 A 
ATOM     44  C   UNL A   1      40.758  28.605  31.315  1.00  0.00     0.074 A 
ATOM     45  C   UNL A   1      41.007  28.359  28.907  1.00  0.00     0.049 A 
ATOM     46  N   UNL A   1      41.762  29.062  31.984  1.00  0.00    -0.248 NA
ATOM     47  C   UNL A   1      39.826  27.790  32.108  1.00  0.00     0.031 C 
ATOM     48  C   UNL A   1      40.671  28.344  27.486  1.00  0.00     0.029 A 
ATOM     49  N   UNL A   1      42.036  27.454  28.976  1.00  0.00    -0.354 N 
ATOM     50  C   UNL A   1      41.712  28.413  33.209  1.00  0.00     0.074 A 
ATOM     51  C   UNL A   1      40.384  27.876  33.315  1.00  0.00     0.031 C 
ATOM     52  C   UNL A   1      41.282  27.290  26.888  1.00  0.00     0.029 A 
ATOM     53  C   UNL A   1      42.186  26.661  27.838  1.00  0.00     0.049 A 
ATOM     54  H   UNL A   1      42.620  27.371  29.764  1.00  0.00     0.167 HD
ATOM     55  C   UNL A   1      42.841  28.137  33.915  1.00  0.00     0.034 A 
ATOM     56  C   UNL A   1      42.967  25.553  27.709  1.00  0.00     0.034 A 
ATOM     57  C   UNL A   1      43.978  28.872  33.400  1.00  0.00     0.049 A 
ATOM     58  C   UNL A   1      44.057  25.675  28.703  1.00  0.00     0.074 A 
ATOM     59  C   UNL A   1      44.235  30.207  33.140  1.00  0.00     0.029 A 
ATOM     60  N   UNL A   1      44.941  28.178  32.701  1.00  0.00    -0.354 N 
ATOM     61  N   UNL A   1      44.970  26.602  28.644  1.00  0.00    -0.248 NA
ATOM     62  C   UNL A   1      43.906  25.038  30.003  1.00  0.00     0.031 C 
ATOM     63  C   UNL A   1      44.977  30.212  31.922  1.00  0.00     0.029 A 
ATOM     64  C   UNL A   1      45.189  28.885  31.548  1.00  0.00     0.049 A 
ATOM     65  H   UNL A   1      45.371  27.336  32.974  1.00  0.00     0.167 HD
ATOM     66  C   UNL A   1      45.164  26.986  29.958  1.00  0.00     0.074 A 
ATOM     67  C   UNL A   1      44.596  25.901  30.755  1.00  0.00     0.031 C 
ATOM     68  C   UNL A   1      45.491  28.274  30.268  1.00  0.00     0.034 A 
BRANCH  55  69
ATOM     69  C   UNL A   1      42.996  26.950  34.840  1.00  0.00     0.023 A 
ATOM     70  C   UNL A   1      43.736  25.858  34.358  1.00  0.00     0.031 A 
ATOM     71  C   UNL A   1      42.267  26.717  36.031  1.00  0.00     0.131 A 
ATOM     72  C   UNL A   1      43.665  24.603  34.984  1.00  0.00     0.055 A 
ATOM     73  C   UNL A   1      42.272  25.491  36.701  1.00  0.00     0.041 A 
ATOM     74  F   UNL A   1      41.429  27.612  36.563  1.00  0.00    -0.206 F 
ATOM     75  C   UNL A   1      42.948  24.414  36.161  1.00  0.00     0.022 A 
BRANCH  72  76
ATOM     76  S   UNL A   1      44.365  23.178  34.118  1.00  0.00     0.124 S 
ATOM     77  O   UNL A   1      44.270  22.140  35.140  1.00  0.00    -0.237 OA
ATOM     78  O   UNL A   1      43.461  23.048  32.980  1.00  0.00    -0.237 OA
ATOM     79  O   UNL A   1      45.721  23.612  33.794  1.00  0.00    -0.744 OA
ENDBRANCH  72  76
ENDBRANCH  55  69
BRANCH  56  80
ATOM     80  C   UNL A   1      42.713  24.292  26.960  1.00  0.00     0.023 A 
ATOM     81  C   UNL A   1      43.666  23.708  26.097  1.00  0.00     0.031 A 
ATOM     82  C   UNL A   1      41.612  23.486  27.317  1.00  0.00     0.131 A 
ATOM     83  C   UNL A   1      43.491  22.385  25.627  1.00  0.00     0.055 A 
ATOM     84  C   UNL A   1      41.437  22.182  26.845  1.00  0.00     0.041 A 
ATOM     85  F   UNL A   1      40.725  23.905  28.232  1.00  0.00    -0.206 F 
ATOM     86  C   UNL A   1      42.383  21.621  26.003  1.00  0.00     0.022 A 
BRANCH  83  87
ATOM     87  S   UNL A   1      44.782  21.583  24.619  1.00  0.00     0.124 S 
ATOM     88  O   UNL A   1      45.987  21.836  25.402  1.00  0.00    -0.237 OA
ATOM     89  O   UNL A   1      44.323  20.199  24.561  1.00  0.00    -0.237 OA
ATOM     90  O   UNL A   1      44.715  22.300  23.345  1.00  0.00    -0.744 OA
ENDBRANCH  83  87
ENDBRANCH  56  80
BRANCH  68  91
ATOM     91  C   UNL A   1      45.944  29.193  29.150  1.00  0.00     0.023 A 
ATOM     92  C   UNL A   1      45.084  30.018  28.389  1.00  0.00     0.031 A 
ATOM     93  C   UNL A   1      47.326  29.317  28.927  1.00  0.00     0.131 A 
ATOM     94  C   UNL A   1      45.615  30.913  27.440  1.00  0.00     0.055 A 
ATOM     95  C   UNL A   1      47.850  30.216  27.998  1.00  0.00     0.041 A 
ATOM     96  F   UNL A   1      48.199  28.585  29.639  1.00  0.00    -0.206 F 
ATOM     97  C   UNL A   1      46.995  31.014  27.245  1.00  0.00     0.022 A 
BRANCH  94  98
ATOM     98  S   UNL A   1      44.507  31.960  26.440  1.00  0.00     0.124 S 
ATOM     99  O   UNL A   1      43.465  31.040  26.003  1.00  0.00    -0.237 OA
ATOM    100  O   UNL A   1      44.091  32.985  27.396  1.00  0.00    -0.237 OA
ATOM    101  O   UNL A   1      45.377  32.450  25.370  1.00  0.00    -0.744 OA
ENDBRANCH  94  98
ENDBRANCH  68  91
ENDBRANCH  42  43
ENDBRANCH  35  37
ENDBRANCH  34  35
ENDBRANCH  33  34
ENDBRANCH  32  33
ENDBRANCH  31  32
ENDBRANCH   1  31
TORSDOF 22
ENDMDL
MODEL 2
REMARK VINA RESULT:     -11.4      3.204      9.535
REMARK SMILES CCOC(=O)c1c(NC(=O)[C@@H]2[C@@H](C(=O)OCCOCCOC(=O)c3ccc(-c4c5nc(c(-c6cc(S(=O)(=O)[O-])ccc6F)c6ccc([nH]6)c(-c6cc(S(=O)(=O)[O-])ccc6F)c6nc(c(-c7cc(S(=O)(=O)[O-])ccc7F)c7ccc4[nH]7)C=C6)C=C5)cc3)[C@@H]3C=C[C@H]2CC3)sc2c1CCC2
REMARK SMILES IDX 17 1 16 2 15 3 13 4 14 5 12 6 11 7 90 8 87 9 89 10 91 11
REMARK SMILES IDX 88 12 92 13 9 14 8 15 10 17 7 18 6 19 95 20 93 21 94 22
REMARK SMILES IDX 96 23 98 24 97 25 4 26 5 27 3 28 2 29 1 30 18 31 19 32 20 33
REMARK SMILES IDX 21 34 22 35 23 36 24 37 25 38 86 39 26 40 85 41 27 42 28 43
REMARK SMILES IDX 29 44 79 45 30 46 84 47 78 48 80 49 31 50 83 51 77 52 76 53
REMARK SMILES IDX 32 55 64 56 44 57 63 58 45 59 48 60 62 61 81 62 46 63 47 64
REMARK SMILES IDX 61 66 82 67 49 68 33 69 34 70 42 71 35 72 41 73 43 74 40 75
REMARK SMILES IDX 36 76 37 77 38 78 39 79 65 80 66 81 74 82 67 83 73 84 75 85
REMARK SMILES IDX 72 86 68 87 69 88 70 89 71 90 50 91 51 92 59 93 52 94 58 95
REMARK SMILES IDX 60 96 57 97 53 98 54 99 55 100 56 101
REMARK H PARENT 8 16 80 54 48 65
REMARK Flexibility Score: inf
ROOT
ATOM      1  C   UNL A   1      37.895  22.480  25.437  1.00  0.00     0.202 C 
ENDROOT
BRANCH   1   2
ATOM      2  C   UNL A   1      36.648  23.388  25.493  1.00  0.00     0.261 C 
BRANCH   2   3
ATOM      3  O   UNL A   1      35.410  22.813  25.969  1.00  0.00    -0.463 OA
BRANCH   3   4
ATOM      4  C   UNL A   1      34.897  21.848  25.159  1.00  0.00     0.310 C 
ATOM      5  O   UNL A   1      35.239  20.675  25.238  1.00  0.00    -0.252 OA
BRANCH   4   6
ATOM      6  C   UNL A   1      33.933  22.410  24.107  1.00  0.00     0.119 C 
ATOM      7  C   UNL A   1      33.261  23.796  24.449  1.00  0.00     0.100 C 
ATOM      8  C   UNL A   1      31.705  23.610  24.457  1.00  0.00     0.025 C 
ATOM      9  C   UNL A   1      32.821  21.337  23.870  1.00  0.00     0.026 C 
ATOM     10  C   UNL A   1      31.277  23.014  23.121  1.00  0.00    -0.027 C 
ATOM     11  C   UNL A   1      31.357  22.565  25.538  1.00  0.00     0.009 C 
ATOM     12  C   UNL A   1      31.896  21.867  22.795  1.00  0.00    -0.027 C 
ATOM     13  C   UNL A   1      31.903  21.184  25.116  1.00  0.00     0.009 C 
BRANCH   7  14
ATOM     14  C   UNL A   1      33.560  24.876  23.397  1.00  0.00     0.229 C 
ATOM     15  N   UNL A   1      33.095  26.156  23.392  1.00  0.00    -0.317 N 
ATOM     16  H   UNL A   1      32.999  26.533  22.489  1.00  0.00     0.170 HD
ATOM     17  O   UNL A   1      34.248  24.590  22.405  1.00  0.00    -0.274 OA
BRANCH  15  18
ATOM     18  C   UNL A   1      32.727  27.032  24.396  1.00  0.00     0.110 A 
ATOM     19  C   UNL A   1      31.691  27.968  24.286  1.00  0.00     0.098 A 
ATOM     20  C   UNL A   1      31.876  28.970  25.283  1.00  0.00    -0.017 A 
ATOM     21  S   UNL A   1      33.465  27.077  25.933  1.00  0.00    -0.122 S 
ATOM     22  C   UNL A   1      32.772  28.569  26.242  1.00  0.00     0.011 A 
ATOM     23  C   UNL A   1      31.378  30.342  25.596  1.00  0.00     0.038 C 
ATOM     24  C   UNL A   1      33.009  29.582  27.309  1.00  0.00     0.047 C 
ATOM     25  C   UNL A   1      32.446  30.857  26.618  1.00  0.00     0.010 C 
BRANCH  19  26
ATOM     26  C   UNL A   1      30.715  27.878  23.205  1.00  0.00     0.341 C 
ATOM     27  O   UNL A   1      31.065  27.793  22.034  1.00  0.00    -0.246 OA
BRANCH  26  28
ATOM     28  O   UNL A   1      29.440  28.114  23.604  1.00  0.00    -0.462 OA
BRANCH  28  29
ATOM     29  C   UNL A   1      28.532  28.592  22.591  1.00  0.00     0.230 C 
ATOM     30  C   UNL A   1      27.187  28.961  23.173  1.00  0.00     0.049 C 
ENDBRANCH  28  29
ENDBRANCH  26  28
ENDBRANCH  19  26
ENDBRANCH  15  18
ENDBRANCH   7  14
ENDBRANCH   4   6
ENDBRANCH   3   4
ENDBRANCH   2   3
ENDBRANCH   1   2
BRANCH   1  31
ATOM     31  O   UNL A   1      38.884  22.592  26.437  1.00  0.00    -0.374 OA
BRANCH  31  32
ATOM     32  C   UNL A   1      39.900  21.615  26.525  1.00  0.00     0.202 C 
BRANCH  32  33
ATOM     33  C   UNL A   1      40.963  21.590  27.639  1.00  0.00     0.261 C 
BRANCH  33  34
ATOM     34  O   UNL A   1      42.290  21.957  27.262  1.00  0.00    -0.460 OA
BRANCH  34  35
ATOM     35  C   UNL A   1      42.375  23.033  26.446  1.00  0.00     0.338 C 
ATOM     36  O   UNL A   1      42.625  22.945  25.254  1.00  0.00    -0.246 OA
BRANCH  35  37
ATOM     37  C   UNL A   1      42.074  24.307  27.135  1.00  0.00     0.060 A 
ATOM     38  C   UNL A   1      42.898  24.708  28.191  1.00  0.00     0.016 A 
ATOM     39  C   UNL A   1      40.990  25.098  26.748  1.00  0.00     0.016 A 
ATOM     40  C   UNL A   1      42.596  25.864  28.911  1.00  0.00     0.010 A 
ATOM     41  C   UNL A   1      40.708  26.254  27.460  1.00  0.00     0.010 A 
ATOM     42  C   UNL A   1      41.472  26.624  28.575  1.00  0.00    -0.014 A 
BRANCH  42  43
ATOM     43  C   UNL A   1      41.300  27.957  29.163  1.00  0.00     0.031 A 
ATOM     44  C   UNL A   1      42.194  28.951  28.522  1.00  0.00     0.074 A 
ATOM     45  C   UNL A   1      40.378  28.404  30.046  1.00  0.00     0.049 A 
ATOM     46  N   UNL A   1      43.276  29.446  29.022  1.00  0.00    -0.248 NA
ATOM     47  C   UNL A   1      41.975  29.289  27.108  1.00  0.00     0.031 C 
ATOM     48  C   UNL A   1      39.233  27.705  30.624  1.00  0.00     0.029 A 
ATOM     49  N   UNL A   1      40.198  29.687  30.497  1.00  0.00    -0.354 N 
ATOM     50  C   UNL A   1      43.750  30.331  28.066  1.00  0.00     0.074 A 
ATOM     51  C   UNL A   1      43.078  29.988  26.844  1.00  0.00     0.031 C 
ATOM     52  C   UNL A   1      38.347  28.612  31.108  1.00  0.00     0.029 A 
ATOM     53  C   UNL A   1      38.936  29.940  31.034  1.00  0.00     0.049 A 
ATOM     54  H   UNL A   1      40.902  30.372  30.447  1.00  0.00     0.167 HD
ATOM     55  C   UNL A   1      44.449  31.446  28.412  1.00  0.00     0.034 A 
ATOM     56  C   UNL A   1      38.410  31.154  31.354  1.00  0.00     0.034 A 
ATOM     57  C   UNL A   1      44.885  31.387  29.792  1.00  0.00     0.049 A 
ATOM     58  C   UNL A   1      39.548  32.061  31.625  1.00  0.00     0.074 A 
ATOM     59  C   UNL A   1      45.596  30.471  30.548  1.00  0.00     0.029 A 
ATOM     60  N   UNL A   1      44.257  32.200  30.710  1.00  0.00    -0.354 N 
ATOM     61  N   UNL A   1      40.362  31.896  32.628  1.00  0.00    -0.248 NA
ATOM     62  C   UNL A   1      40.052  32.906  30.553  1.00  0.00     0.031 C 
ATOM     63  C   UNL A   1      44.951  30.459  31.820  1.00  0.00     0.029 A 
ATOM     64  C   UNL A   1      43.934  31.413  31.791  1.00  0.00     0.049 A 
ATOM     65  H   UNL A   1      44.075  33.162  30.613  1.00  0.00     0.167 HD
ATOM     66  C   UNL A   1      41.611  32.205  32.120  1.00  0.00     0.074 A 
ATOM     67  C   UNL A   1      41.343  32.952  30.894  1.00  0.00     0.031 C 
ATOM     68  C   UNL A   1      42.728  31.570  32.579  1.00  0.00     0.034 A 
BRANCH  55  69
ATOM     69  C   UNL A   1      44.440  32.735  27.620  1.00  0.00     0.023 A 
ATOM     70  C   UNL A   1      43.770  33.830  28.191  1.00  0.00     0.031 A 
ATOM     71  C   UNL A   1      44.811  32.885  26.263  1.00  0.00     0.131 A 
ATOM     72  C   UNL A   1      43.421  34.948  27.416  1.00  0.00     0.055 A 
ATOM     73  C   UNL A   1      44.542  34.038  25.521  1.00  0.00     0.041 A 
ATOM     74  F   UNL A   1      45.358  31.901  25.540  1.00  0.00    -0.206 F 
ATOM     75  C   UNL A   1      43.814  35.067  26.087  1.00  0.00     0.022 A 
BRANCH  72  76
ATOM     76  S   UNL A   1      42.272  36.151  28.126  1.00  0.00     0.124 S 
ATOM     77  O   UNL A   1      42.218  37.159  27.071  1.00  0.00    -0.237 OA
ATOM     78  O   UNL A   1      41.071  35.343  28.309  1.00  0.00    -0.237 OA
ATOM     79  O   UNL A   1      42.938  36.570  29.355  1.00  0.00    -0.744 OA
ENDBRANCH  72  76
ENDBRANCH  55  69
BRANCH  56  80
ATOM     80  C   UNL A   1      37.014  31.654  31.215  1.00  0.00     0.023 A 
ATOM     81  C   UNL A   1      36.360  32.391  32.226  1.00  0.00     0.031 A 
ATOM     82  C   UNL A   1      36.402  31.650  29.944  1.00  0.00     0.131 A 
ATOM     83  C   UNL A   1      35.152  33.073  31.948  1.00  0.00     0.055 A 
ATOM     84  C   UNL A   1      35.204  32.317  29.674  1.00  0.00     0.041 A 
ATOM     85  F   UNL A   1      37.013  31.088  28.892  1.00  0.00    -0.206 F 
ATOM     86  C   UNL A   1      34.576  33.041  30.675  1.00  0.00     0.022 A 
BRANCH  83  87
ATOM     87  S   UNL A   1      34.374  34.132  33.213  1.00  0.00     0.124 S 
ATOM     88  O   UNL A   1      32.960  34.042  32.864  1.00  0.00    -0.237 OA
ATOM     89  O   UNL A   1      34.778  33.485  34.457  1.00  0.00    -0.237 OA
ATOM     90  O   UNL A   1      34.983  35.442  32.983  1.00  0.00    -0.744 OA
ENDBRANCH  83  87
ENDBRANCH  56  80
BRANCH  68  91
ATOM     91  C   UNL A   1      42.624  30.760  33.858  1.00  0.00     0.023 A 
ATOM     92  C   UNL A   1      42.238  29.401  33.920  1.00  0.00     0.031 A 
ATOM     93  C   UNL A   1      43.047  31.369  35.052  1.00  0.00     0.131 A 
ATOM     94  C   UNL A   1      42.271  28.709  35.145  1.00  0.00     0.055 A 
ATOM     95  C   UNL A   1      43.095  30.676  36.261  1.00  0.00     0.041 A 
ATOM     96  F   UNL A   1      43.456  32.649  35.056  1.00  0.00    -0.206 F 
ATOM     97  C   UNL A   1      42.700  29.343  36.314  1.00  0.00     0.022 A 
BRANCH  94  98
ATOM     98  S   UNL A   1      41.751  26.964  35.233  1.00  0.00     0.124 S 
ATOM     99  O   UNL A   1      40.702  26.867  34.226  1.00  0.00    -0.237 OA
ATOM    100  O   UNL A   1      42.990  26.248  34.933  1.00  0.00    -0.237 OA
ATOM    101  O   UNL A   1      41.287  26.817  36.613  1.00  0.00    -0.744 OA
ENDBRANCH  94  98
ENDBRANCH  68  91
ENDBRANCH  42  43
ENDBRANCH  35  37
ENDBRANCH  34  35
ENDBRANCH  33  34
ENDBRANCH  32  33
ENDBRANCH  31  32
ENDBRANCH   1  31
TORSDOF 22
ENDMDL
MODEL 3
REMARK VINA RESULT:     -10.8      1.598      2.026
REMARK SMILES CCOC(=O)c1c(NC(=O)[C@@H]2[C@@H](C(=O)OCCOCCOC(=O)c3ccc(-c4c5nc(c(-c6cc(S(=O)(=O)[O-])ccc6F)c6ccc([nH]6)c(-c6cc(S(=O)(=O)[O-])ccc6F)c6nc(c(-c7cc(S(=O)(=O)[O-])ccc7F)c7ccc4[nH]7)C=C6)C=C5)cc3)[C@@H]3C=C[C@H]2CC3)sc2c1CCC2
REMARK SMILES IDX 17 1 16 2 15 3 13 4 14 5 12 6 11 7 90 8 87 9 89 10 91 11
REMARK SMILES IDX 88 12 92 13 9 14 8 15 10 17 7 18 6 19 95 20 93 21 94 22
REMARK SMILES IDX 96 23 98 24 97 25 4 26 5 27 3 28 2 29 1 30 18 31 19 32 20 33
REMARK SMILES IDX 21 34 22 35 23 36 24 37 25 38 86 39 26 40 85 41 27 42 28 43
REMARK SMILES IDX 29 44 79 45 30 46 84 47 78 48 80 49 31 50 83 51 77 52 76 53
REMARK SMILES IDX 32 55 64 56 44 57 63 58 45 59 48 60 62 61 81 62 46 63 47 64
REMARK SMILES IDX 61 66 82 67 49 68 33 69 34 70 42 71 35 72 41 73 43 74 40 75
REMARK SMILES IDX 36 76 37 77 38 78 39 79 65 80 66 81 74 82 67 83 73 84 75 85
REMARK SMILES IDX 72 86 68 87 69 88 70 89 71 90 50 91 51 92 59 93 52 94 58 95
REMARK SMILES IDX 60 96 57 97 53 98 54 99 55 100 56 101
REMARK H PARENT 8 16 80 54 48 65
REMARK Flexibility Score: inf
ROOT
ATOM      1  C   UNL A   1      31.735  31.459  26.397  1.00  0.00     0.202 C 
ENDROOT
BRANCH   1   2
ATOM      2  C   UNL A   1      32.130  30.162  27.135  1.00  0.00     0.261 C 
BRANCH   2   3
ATOM      3  O   UNL A   1      31.406  28.952  26.817  1.00  0.00    -0.463 OA
BRANCH   3   4
ATOM      4  C   UNL A   1      32.162  27.992  26.220  1.00  0.00     0.310 C 
ATOM      5  O   UNL A   1      33.249  27.643  26.662  1.00  0.00    -0.252 OA
BRANCH   4   6
ATOM      6  C   UNL A   1      31.544  27.481  24.912  1.00  0.00     0.119 C 
ATOM      7  C   UNL A   1      32.286  26.274  24.217  1.00  0.00     0.100 C 
ATOM      8  C   UNL A   1      32.724  26.716  22.778  1.00  0.00     0.025 C 
ATOM      9  C   UNL A   1      31.479  28.690  23.922  1.00  0.00     0.026 C 
ATOM     10  C   UNL A   1      31.496  27.218  22.027  1.00  0.00    -0.027 C 
ATOM     11  C   UNL A   1      33.678  27.920  22.920  1.00  0.00     0.009 C 
ATOM     12  C   UNL A   1      30.823  28.202  22.647  1.00  0.00    -0.027 C 
ATOM     13  C   UNL A   1      32.899  29.134  23.471  1.00  0.00     0.009 C 
BRANCH   7  14
ATOM     14  C   UNL A   1      31.380  25.047  24.034  1.00  0.00     0.229 C 
ATOM     15  N   UNL A   1      31.764  23.808  23.620  1.00  0.00    -0.317 N 
ATOM     16  H   UNL A   1      31.056  23.319  23.143  1.00  0.00     0.170 HD
ATOM     17  O   UNL A   1      30.158  25.156  24.219  1.00  0.00    -0.274 OA
BRANCH  15  18
ATOM     18  C   UNL A   1      32.945  23.097  23.731  1.00  0.00     0.110 A 
ATOM     19  C   UNL A   1      33.135  22.017  24.601  1.00  0.00     0.098 A 
ATOM     20  C   UNL A   1      34.537  21.824  24.785  1.00  0.00    -0.017 A 
ATOM     21  S   UNL A   1      34.335  23.415  22.795  1.00  0.00    -0.122 S 
ATOM     22  C   UNL A   1      35.267  22.492  23.836  1.00  0.00     0.011 A 
ATOM     23  C   UNL A   1      35.454  21.101  25.716  1.00  0.00     0.038 C 
ATOM     24  C   UNL A   1      36.742  22.330  23.982  1.00  0.00     0.047 C 
ATOM     25  C   UNL A   1      36.824  21.809  25.446  1.00  0.00     0.010 C 
BRANCH  19  26
ATOM     26  C   UNL A   1      31.998  21.361  25.240  1.00  0.00     0.341 C 
ATOM     27  O   UNL A   1      31.188  21.995  25.904  1.00  0.00    -0.246 OA
BRANCH  26  28
ATOM     28  O   UNL A   1      32.063  20.007  25.202  1.00  0.00    -0.462 OA
BRANCH  28  29
ATOM     29  C   UNL A   1      32.263  19.413  23.903  1.00  0.00     0.230 C 
ATOM     30  C   UNL A   1      33.405  18.423  23.909  1.00  0.00     0.049 C 
ENDBRANCH  28  29
ENDBRANCH  26  28
ENDBRANCH  19  26
ENDBRANCH  15  18
ENDBRANCH   7  14
ENDBRANCH   4   6
ENDBRANCH   3   4
ENDBRANCH   2   3
ENDBRANCH   1   2
BRANCH   1  31
ATOM     31  O   UNL A   1      31.856  32.700  27.056  1.00  0.00    -0.374 OA
BRANCH  31  32
ATOM     32  C   UNL A   1      32.944  32.923  27.928  1.00  0.00     0.202 C 
BRANCH  32  33
ATOM     33  C   UNL A   1      34.287  32.175  27.822  1.00  0.00     0.261 C 
BRANCH  33  34
ATOM     34  O   UNL A   1      35.386  32.731  28.544  1.00  0.00    -0.460 OA
BRANCH  34  35
ATOM     35  C   UNL A   1      35.671  32.113  29.714  1.00  0.00     0.338 C 
ATOM     36  O   UNL A   1      34.932  32.155  30.685  1.00  0.00    -0.246 OA
BRANCH  35  37
ATOM     37  C   UNL A   1      36.931  31.339  29.667  1.00  0.00     0.060 A 
ATOM     38  C   UNL A   1      38.119  31.971  30.048  1.00  0.00     0.016 A 
ATOM     39  C   UNL A   1      36.944  30.006  29.250  1.00  0.00     0.016 A 
ATOM     40  C   UNL A   1      39.334  31.293  29.941  1.00  0.00     0.010 A 
ATOM     41  C   UNL A   1      38.155  29.336  29.163  1.00  0.00     0.010 A 
ATOM     42  C   UNL A   1      39.363  29.981  29.458  1.00  0.00    -0.014 A 
BRANCH  42  43
ATOM     43  C   UNL A   1      40.596  29.194  29.583  1.00  0.00     0.031 A 
ATOM     44  C   UNL A   1      40.843  28.796  30.989  1.00  0.00     0.074 A 
ATOM     45  C   UNL A   1      41.398  28.680  28.624  1.00  0.00     0.049 A 
ATOM     46  N   UNL A   1      41.714  29.311  31.791  1.00  0.00    -0.248 NA
ATOM     47  C   UNL A   1      39.905  27.867  31.635  1.00  0.00     0.031 C 
ATOM     48  C   UNL A   1      41.236  28.699  27.172  1.00  0.00     0.029 A 
ATOM     49  N   UNL A   1      42.491  27.869  28.787  1.00  0.00    -0.354 N 
ATOM     50  C   UNL A   1      41.580  28.607  32.978  1.00  0.00     0.074 A 
ATOM     51  C   UNL A   1      40.306  27.948  32.904  1.00  0.00     0.031 C 
ATOM     52  C   UNL A   1      42.009  27.731  26.619  1.00  0.00     0.029 A 
ATOM     53  C   UNL A   1      42.850  27.144  27.651  1.00  0.00     0.049 A 
ATOM     54  H   UNL A   1      42.984  27.803  29.637  1.00  0.00     0.167 HD
ATOM     55  C   UNL A   1      42.638  28.401  33.808  1.00  0.00     0.034 A 
ATOM     56  C   UNL A   1      43.741  26.117  27.581  1.00  0.00     0.034 A 
ATOM     57  C   UNL A   1      43.754  29.256  33.460  1.00  0.00     0.049 A 
ATOM     58  C   UNL A   1      44.690  26.291  28.704  1.00  0.00     0.074 A 
ATOM     59  C   UNL A   1      43.913  30.619  33.278  1.00  0.00     0.029 A 
ATOM     60  N   UNL A   1      44.854  28.683  32.861  1.00  0.00    -0.354 N 
ATOM     61  N   UNL A   1      45.512  27.297  28.788  1.00  0.00    -0.248 NA
ATOM     62  C   UNL A   1      44.445  25.586  29.954  1.00  0.00     0.031 C 
ATOM     63  C   UNL A   1      44.791  30.745  32.160  1.00  0.00     0.029 A 
ATOM     64  C   UNL A   1      45.170  29.460  31.771  1.00  0.00     0.049 A 
ATOM     65  H   UNL A   1      45.326  27.871  33.156  1.00  0.00     0.167 HD
ATOM     66  C   UNL A   1      45.512  27.638  30.128  1.00  0.00     0.074 A 
ATOM     67  C   UNL A   1      44.958  26.473  30.812  1.00  0.00     0.031 C 
ATOM     68  C   UNL A   1      45.677  28.936  30.518  1.00  0.00     0.034 A 
BRANCH  55  69
ATOM     69  C   UNL A   1      42.793  27.193  34.705  1.00  0.00     0.023 A 
ATOM     70  C   UNL A   1      43.595  26.143  34.227  1.00  0.00     0.031 A 
ATOM     71  C   UNL A   1      42.018  26.897  35.852  1.00  0.00     0.131 A 
ATOM     72  C   UNL A   1      43.541  24.868  34.813  1.00  0.00     0.055 A 
ATOM     73  C   UNL A   1      42.037  25.653  36.486  1.00  0.00     0.041 A 
ATOM     74  F   UNL A   1      41.123  27.746  36.369  1.00  0.00    -0.206 F 
ATOM     75  C   UNL A   1      42.777  24.617  35.949  1.00  0.00     0.022 A 
BRANCH  72  76
ATOM     76  S   UNL A   1      44.333  23.496  33.941  1.00  0.00     0.124 S 
ATOM     77  O   UNL A   1      45.694  23.999  33.782  1.00  0.00    -0.237 OA
ATOM     78  O   UNL A   1      44.157  22.399  34.887  1.00  0.00    -0.237 OA
ATOM     79  O   UNL A   1      43.560  23.388  32.707  1.00  0.00    -0.744 OA
ENDBRANCH  72  76
ENDBRANCH  55  69
BRANCH  56  80
ATOM     80  C   UNL A   1      43.697  24.872  26.765  1.00  0.00     0.023 A 
ATOM     81  C   UNL A   1      42.835  23.793  27.061  1.00  0.00     0.031 A 
ATOM     82  C   UNL A   1      44.315  24.853  25.498  1.00  0.00     0.131 A 
ATOM     83  C   UNL A   1      42.629  22.761  26.116  1.00  0.00     0.055 A 
ATOM     84  C   UNL A   1      44.118  23.827  24.569  1.00  0.00     0.041 A 
ATOM     85  F   UNL A   1      45.046  25.896  25.077  1.00  0.00    -0.206 F 
ATOM     86  C   UNL A   1      43.265  22.778  24.871  1.00  0.00     0.022 A 
BRANCH  83  87
ATOM     87  S   UNL A   1      41.418  21.436  26.440  1.00  0.00     0.124 S 
ATOM     88  O   UNL A   1      41.997  20.306  25.722  1.00  0.00    -0.237 OA
ATOM     89  O   UNL A   1      41.425  21.353  27.897  1.00  0.00    -0.237 OA
ATOM     90  O   UNL A   1      40.178  21.959  25.866  1.00  0.00    -0.744 OA
ENDBRANCH  83  87
ENDBRANCH  56  80
BRANCH  68  91
ATOM     91  C   UNL A   1      46.171  29.940  29.495  1.00  0.00     0.023 A 
ATOM     92  C   UNL A   1      45.336  30.677  28.624  1.00  0.00     0.031 A 
ATOM     93  C   UNL A   1      47.544  30.241  29.486  1.00  0.00     0.131 A 
ATOM     94  C   UNL A   1      45.884  31.662  27.779  1.00  0.00     0.055 A 
ATOM     95  C   UNL A   1      48.082  31.228  28.661  1.00  0.00     0.041 A 
ATOM     96  F   UNL A   1      48.387  29.599  30.312  1.00  0.00    -0.206 F 
ATOM     97  C   UNL A   1      47.254  31.939  27.798  1.00  0.00     0.022 A 
BRANCH  94  98
ATOM     98  S   UNL A   1      44.814  32.597  26.638  1.00  0.00     0.124 S 
ATOM     99  O   UNL A   1      44.052  33.473  27.520  1.00  0.00    -0.237 OA
ATOM    100  O   UNL A   1      45.782  33.260  25.765  1.00  0.00    -0.237 OA
ATOM    101  O   UNL A   1      44.023  31.555  25.983  1.00  0.00    -0.744 OA
ENDBRANCH  94  98
ENDBRANCH  68  91
ENDBRANCH  42  43
ENDBRANCH  35  37
ENDBRANCH  34  35
ENDBRANCH  33  34
ENDBRANCH  32  33
ENDBRANCH  31  32
ENDBRANCH   1  31
TORSDOF 22
ENDMDL
