MODEL 1
REMARK VINA RESULT:      -9.3      0.000      0.000
REMARK SMILES CC[NH2+]C[C@@H](C)C(=O)N1CCO[C@@H](CC(=O)OCCOCCOC(=O)c2ccc(-c3c4nc(c(-c5cc(S(=O)(=O)[O-])ccc5F)c5ccc([nH]5)c(-c5cc(S(=O)(=O)[O-])ccc5F)c5nc(c(-c6cc(S(=O)(=O)[O-])ccc6F)c6ccc3[nH]6)C=C5)C=C4)cc2)C1
REMARK SMILES IDX 18 1 17 2 15 3 16 4 14 5 13 6 9 7 10 8 89 9 11 10 12 11 7 12
REMARK SMILES IDX 8 13 5 14 6 15 4 16 3 17 2 20 1 21 19 22 20 23 21 24 22 25
REMARK SMILES IDX 23 26 24 27 25 28 26 29 27 30 88 31 28 32 87 33 29 34 30 35
REMARK SMILES IDX 31 36 81 37 32 38 86 39 80 40 82 41 33 42 85 43 79 44 78 45
REMARK SMILES IDX 34 47 66 48 46 49 65 50 47 51 50 52 64 53 83 54 48 55 49 56
REMARK SMILES IDX 63 58 84 59 51 60 35 61 36 62 44 63 37 64 43 65 45 66 42 67
REMARK SMILES IDX 38 68 39 69 40 70 41 71 67 72 68 73 76 74 69 75 75 76 77 77
REMARK SMILES IDX 74 78 70 79 71 80 72 81 73 82 52 83 53 84 61 85 54 86 60 87
REMARK SMILES IDX 62 88 59 89 55 90 56 91 57 92 58 93
REMARK H PARENT 3 18 3 19 82 46 50 57
REMARK Flexibility Score: inf
ROOT
ATOM      1  C   UNL A   1      35.123  22.364  26.022  1.00  0.00     0.261 C 
ENDROOT
BRANCH   1   2
ATOM      2  O   UNL A   1      33.725  22.491  26.355  1.00  0.00    -0.463 OA
BRANCH   2   3
ATOM      3  C   UNL A   1      33.151  23.687  26.078  1.00  0.00     0.308 C 
ATOM      4  O   UNL A   1      33.618  24.780  26.372  1.00  0.00    -0.252 OA
BRANCH   3   5
ATOM      5  C   UNL A   1      31.810  23.529  25.416  1.00  0.00     0.156 C 
BRANCH   5   6
ATOM      6  C   UNL A   1      31.579  24.307  24.121  1.00  0.00     0.148 C 
ATOM      7  N   UNL A   1      31.485  26.553  23.062  1.00  0.00    -0.337 N 
ATOM      8  C   UNL A   1      32.733  26.258  22.378  1.00  0.00     0.148 C 
ATOM      9  C   UNL A   1      31.356  25.831  24.337  1.00  0.00     0.152 C 
ATOM     10  C   UNL A   1      32.792  24.768  22.091  1.00  0.00     0.182 C 
ATOM     11  O   UNL A   1      32.769  24.043  23.326  1.00  0.00    -0.374 OA
BRANCH   7  12
ATOM     12  C   UNL A   1      30.713  27.672  22.818  1.00  0.00     0.231 C 
ATOM     13  O   UNL A   1      30.439  28.000  21.662  1.00  0.00    -0.274 OA
BRANCH  12  14
ATOM     14  C   UNL A   1      30.390  28.636  23.981  1.00  0.00     0.130 C 
ATOM     15  C   UNL A   1      29.548  29.801  23.456  1.00  0.00     0.024 C 
BRANCH  14  16
ATOM     16  C   UNL A   1      31.577  29.097  24.836  1.00  0.00     0.273 C 
BRANCH  16  17
ATOM     17  N   UNL A   1      32.824  29.416  24.127  1.00  0.00    -0.346 N 
ATOM     18  H   UNL A   1      32.710  29.157  23.147  1.00  0.00     0.346 HD
ATOM     19  H   UNL A   1      32.988  30.414  24.254  1.00  0.00     0.346 HD
BRANCH  17  20
ATOM     20  C   UNL A   1      33.999  28.725  24.651  1.00  0.00     0.257 C 
ATOM     21  C   UNL A   1      33.691  28.240  26.061  1.00  0.00     0.071 C 
ENDBRANCH  17  20
ENDBRANCH  16  17
ENDBRANCH  14  16
ENDBRANCH  12  14
ENDBRANCH   7  12
ENDBRANCH   5   6
ENDBRANCH   3   5
ENDBRANCH   2   3
ENDBRANCH   1   2
BRANCH   1  22
ATOM     22  C   UNL A   1      35.326  21.583  24.723  1.00  0.00     0.202 C 
BRANCH  22  23
ATOM     23  O   UNL A   1      36.190  20.449  24.820  1.00  0.00    -0.374 OA
BRANCH  23  24
ATOM     24  C   UNL A   1      37.578  20.717  25.001  1.00  0.00     0.202 C 
BRANCH  24  25
ATOM     25  C   UNL A   1      38.472  19.491  25.206  1.00  0.00     0.261 C 
BRANCH  25  26
ATOM     26  O   UNL A   1      39.231  19.579  26.426  1.00  0.00    -0.460 OA
BRANCH  26  27
ATOM     27  C   UNL A   1      40.531  19.931  26.268  1.00  0.00     0.338 C 
ATOM     28  O   UNL A   1      41.394  19.289  25.684  1.00  0.00    -0.246 OA
BRANCH  27  29
ATOM     29  C   UNL A   1      40.749  21.310  26.747  1.00  0.00     0.060 A 
ATOM     30  C   UNL A   1      40.370  22.363  25.907  1.00  0.00     0.016 A 
ATOM     31  C   UNL A   1      41.365  21.576  27.969  1.00  0.00     0.016 A 
ATOM     32  C   UNL A   1      40.644  23.682  26.270  1.00  0.00     0.010 A 
ATOM     33  C   UNL A   1      41.626  22.901  28.341  1.00  0.00     0.010 A 
ATOM     34  C   UNL A   1      41.305  23.961  27.474  1.00  0.00    -0.014 A 
BRANCH  34  35
ATOM     35  C   UNL A   1      41.795  25.338  27.747  1.00  0.00     0.031 A 
ATOM     36  C   UNL A   1      43.179  25.722  27.292  1.00  0.00     0.074 A 
ATOM     37  C   UNL A   1      41.014  26.246  28.361  1.00  0.00     0.049 A 
ATOM     38  N   UNL A   1      43.814  26.860  27.422  1.00  0.00    -0.248 NA
ATOM     39  C   UNL A   1      43.952  24.676  26.609  1.00  0.00     0.031 C 
ATOM     40  C   UNL A   1      39.653  26.002  28.835  1.00  0.00     0.029 A 
ATOM     41  N   UNL A   1      41.256  27.556  28.691  1.00  0.00    -0.354 N 
ATOM     42  C   UNL A   1      45.064  26.663  26.843  1.00  0.00     0.074 A 
ATOM     43  C   UNL A   1      45.112  25.282  26.412  1.00  0.00     0.031 C 
ATOM     44  C   UNL A   1      39.180  27.128  29.397  1.00  0.00     0.029 A 
ATOM     45  C   UNL A   1      40.213  28.161  29.351  1.00  0.00     0.049 A 
ATOM     46  H   UNL A   1      42.098  28.019  28.473  1.00  0.00     0.167 HD
ATOM     47  C   UNL A   1      46.073  27.555  26.671  1.00  0.00     0.034 A 
ATOM     48  C   UNL A   1      40.110  29.399  29.876  1.00  0.00     0.034 A 
ATOM     49  C   UNL A   1      46.015  28.928  27.114  1.00  0.00     0.049 A 
ATOM     50  C   UNL A   1      41.266  30.359  29.734  1.00  0.00     0.074 A 
ATOM     51  C   UNL A   1      46.962  29.925  26.961  1.00  0.00     0.029 A 
ATOM     52  N   UNL A   1      44.956  29.494  27.813  1.00  0.00    -0.354 N 
ATOM     53  N   UNL A   1      42.431  30.172  29.156  1.00  0.00    -0.248 NA
ATOM     54  C   UNL A   1      41.088  31.700  30.307  1.00  0.00     0.031 C 
ATOM     55  C   UNL A   1      46.511  31.068  27.630  1.00  0.00     0.029 A 
ATOM     56  C   UNL A   1      45.244  30.813  28.132  1.00  0.00     0.049 A 
ATOM     57  H   UNL A   1      44.122  29.026  28.048  1.00  0.00     0.167 HD
ATOM     58  C   UNL A   1      43.114  31.380  29.274  1.00  0.00     0.074 A 
ATOM     59  C   UNL A   1      42.225  32.292  29.967  1.00  0.00     0.031 C 
ATOM     60  C   UNL A   1      44.359  31.709  28.843  1.00  0.00     0.034 A 
BRANCH  47  61
ATOM     61  C   UNL A   1      47.338  27.044  26.018  1.00  0.00     0.023 A 
ATOM     62  C   UNL A   1      48.299  26.311  26.737  1.00  0.00     0.031 A 
ATOM     63  C   UNL A   1      47.615  27.347  24.673  1.00  0.00     0.131 A 
ATOM     64  C   UNL A   1      49.527  25.990  26.138  1.00  0.00     0.055 A 
ATOM     65  C   UNL A   1      48.803  26.946  24.056  1.00  0.00     0.041 A 
ATOM     66  F   UNL A   1      46.748  28.062  23.939  1.00  0.00    -0.206 F 
ATOM     67  C   UNL A   1      49.776  26.280  24.796  1.00  0.00     0.022 A 
BRANCH  64  68
ATOM     68  S   UNL A   1      50.861  25.350  27.190  1.00  0.00     0.124 S 
ATOM     69  O   UNL A   1      51.825  24.886  26.196  1.00  0.00    -0.237 OA
ATOM     70  O   UNL A   1      51.249  26.526  27.958  1.00  0.00    -0.237 OA
ATOM     71  O   UNL A   1      50.212  24.288  27.958  1.00  0.00    -0.744 OA
ENDBRANCH  64  68
ENDBRANCH  47  61
BRANCH  48  72
ATOM     72  C   UNL A   1      38.879  29.797  30.618  1.00  0.00     0.023 A 
ATOM     73  C   UNL A   1      38.020  30.794  30.128  1.00  0.00     0.031 A 
ATOM     74  C   UNL A   1      38.561  29.197  31.849  1.00  0.00     0.131 A 
ATOM     75  C   UNL A   1      36.902  31.185  30.883  1.00  0.00     0.055 A 
ATOM     76  C   UNL A   1      37.423  29.556  32.574  1.00  0.00     0.041 A 
ATOM     77  F   UNL A   1      39.350  28.238  32.360  1.00  0.00    -0.206 F 
ATOM     78  C   UNL A   1      36.591  30.562  32.095  1.00  0.00     0.022 A 
BRANCH  75  79
ATOM     79  S   UNL A   1      35.883  32.561  30.285  1.00  0.00     0.124 S 
ATOM     80  O   UNL A   1      35.826  33.421  31.461  1.00  0.00    -0.237 OA
ATOM     81  O   UNL A   1      36.673  33.058  29.163  1.00  0.00    -0.237 OA
ATOM     82  O   UNL A   1      34.623  31.918  29.919  1.00  0.00    -0.744 OA
ENDBRANCH  75  79
ENDBRANCH  48  72
BRANCH  60  83
ATOM     83  C   UNL A   1      44.817  33.130  29.075  1.00  0.00     0.023 A 
ATOM     84  C   UNL A   1      45.538  33.500  30.224  1.00  0.00     0.031 A 
ATOM     85  C   UNL A   1      44.520  34.131  28.131  1.00  0.00     0.131 A 
ATOM     86  C   UNL A   1      45.894  34.844  30.424  1.00  0.00     0.055 A 
ATOM     87  C   UNL A   1      44.927  35.453  28.307  1.00  0.00     0.041 A 
ATOM     88  F   UNL A   1      43.831  33.836  27.017  1.00  0.00    -0.206 F 
ATOM     89  C   UNL A   1      45.608  35.819  29.465  1.00  0.00     0.022 A 
BRANCH  86  90
ATOM     90  S   UNL A   1      46.659  35.320  31.999  1.00  0.00     0.124 S 
ATOM     91  O   UNL A   1      45.620  36.145  32.604  1.00  0.00    -0.237 OA
ATOM     92  O   UNL A   1      46.899  34.029  32.633  1.00  0.00    -0.237 OA
ATOM     93  O   UNL A   1      47.864  36.042  31.591  1.00  0.00    -0.744 OA
ENDBRANCH  86  90
ENDBRANCH  60  83
ENDBRANCH  34  35
ENDBRANCH  27  29
ENDBRANCH  26  27
ENDBRANCH  25  26
ENDBRANCH  24  25
ENDBRANCH  23  24
ENDBRANCH  22  23
ENDBRANCH   1  22
TORSDOF 23
ENDMDL
MODEL 2
REMARK VINA RESULT:      -9.3      2.559      3.725
REMARK SMILES CC[NH2+]C[C@@H](C)C(=O)N1CCO[C@@H](CC(=O)OCCOCCOC(=O)c2ccc(-c3c4nc(c(-c5cc(S(=O)(=O)[O-])ccc5F)c5ccc([nH]5)c(-c5cc(S(=O)(=O)[O-])ccc5F)c5nc(c(-c6cc(S(=O)(=O)[O-])ccc6F)c6ccc3[nH]6)C=C5)C=C4)cc2)C1
REMARK SMILES IDX 18 1 17 2 15 3 16 4 14 5 13 6 9 7 10 8 89 9 11 10 12 11 7 12
REMARK SMILES IDX 8 13 5 14 6 15 4 16 3 17 2 20 1 21 19 22 20 23 21 24 22 25
REMARK SMILES IDX 23 26 24 27 25 28 26 29 27 30 88 31 28 32 87 33 29 34 30 35
REMARK SMILES IDX 31 36 81 37 32 38 86 39 80 40 82 41 33 42 85 43 79 44 78 45
REMARK SMILES IDX 34 47 66 48 46 49 65 50 47 51 50 52 64 53 83 54 48 55 49 56
REMARK SMILES IDX 63 58 84 59 51 60 35 61 36 62 44 63 37 64 43 65 45 66 42 67
REMARK SMILES IDX 38 68 39 69 40 70 41 71 67 72 68 73 76 74 69 75 75 76 77 77
REMARK SMILES IDX 74 78 70 79 71 80 72 81 73 82 52 83 53 84 61 85 54 86 60 87
REMARK SMILES IDX 62 88 59 89 55 90 56 91 57 92 58 93
REMARK H PARENT 3 18 3 19 82 46 50 57
REMARK Flexibility Score: inf
ROOT
ATOM      1  C   UNL A   1      38.202  21.442  25.627  1.00  0.00     0.261 C 
ENDROOT
BRANCH   1   2
ATOM      2  O   UNL A   1      37.148  22.368  25.286  1.00  0.00    -0.463 OA
BRANCH   2   3
ATOM      3  C   UNL A   1      35.883  21.954  25.543  1.00  0.00     0.308 C 
ATOM      4  O   UNL A   1      35.506  21.444  26.590  1.00  0.00    -0.252 OA
BRANCH   3   5
ATOM      5  C   UNL A   1      34.981  22.127  24.353  1.00  0.00     0.156 C 
BRANCH   5   6
ATOM      6  C   UNL A   1      34.097  23.373  24.328  1.00  0.00     0.148 C 
ATOM      7  N   UNL A   1      33.134  25.181  22.920  1.00  0.00    -0.337 N 
ATOM      8  C   UNL A   1      31.830  24.553  23.046  1.00  0.00     0.148 C 
ATOM      9  C   UNL A   1      34.238  24.215  23.027  1.00  0.00     0.152 C 
ATOM     10  C   UNL A   1      31.742  23.876  24.402  1.00  0.00     0.182 C 
ATOM     11  O   UNL A   1      32.746  22.859  24.493  1.00  0.00    -0.374 OA
BRANCH   7  12
ATOM     12  C   UNL A   1      33.348  26.416  22.340  1.00  0.00     0.231 C 
ATOM     13  O   UNL A   1      33.613  26.503  21.140  1.00  0.00    -0.274 OA
BRANCH  12  14
ATOM     14  C   UNL A   1      33.480  27.663  23.242  1.00  0.00     0.130 C 
ATOM     15  C   UNL A   1      33.588  27.223  24.704  1.00  0.00     0.024 C 
BRANCH  14  16
ATOM     16  C   UNL A   1      32.444  28.774  23.029  1.00  0.00     0.273 C 
BRANCH  16  17
ATOM     17  N   UNL A   1      31.367  28.503  22.066  1.00  0.00    -0.346 N 
ATOM     18  H   UNL A   1      31.286  29.306  21.442  1.00  0.00     0.346 HD
ATOM     19  H   UNL A   1      31.619  27.647  21.575  1.00  0.00     0.346 HD
BRANCH  17  20
ATOM     20  C   UNL A   1      30.065  28.268  22.683  1.00  0.00     0.257 C 
ATOM     21  C   UNL A   1      29.552  29.582  23.256  1.00  0.00     0.071 C 
ENDBRANCH  17  20
ENDBRANCH  16  17
ENDBRANCH  14  16
ENDBRANCH  12  14
ENDBRANCH   7  12
ENDBRANCH   5   6
ENDBRANCH   3   5
ENDBRANCH   2   3
ENDBRANCH   1   2
BRANCH   1  22
ATOM     22  C   UNL A   1      39.448  22.167  26.137  1.00  0.00     0.202 C 
BRANCH  22  23
ATOM     23  O   UNL A   1      39.991  21.663  27.359  1.00  0.00    -0.374 OA
BRANCH  23  24
ATOM     24  C   UNL A   1      40.911  20.580  27.250  1.00  0.00     0.202 C 
BRANCH  24  25
ATOM     25  C   UNL A   1      41.940  20.688  26.121  1.00  0.00     0.261 C 
BRANCH  25  26
ATOM     26  O   UNL A   1      42.957  21.663  26.416  1.00  0.00    -0.460 OA
BRANCH  26  27
ATOM     27  C   UNL A   1      43.043  22.687  25.532  1.00  0.00     0.338 C 
ATOM     28  O   UNL A   1      43.130  22.594  24.314  1.00  0.00    -0.246 OA
BRANCH  27  29
ATOM     29  C   UNL A   1      42.834  23.976  26.218  1.00  0.00     0.060 A 
ATOM     30  C   UNL A   1      42.633  25.114  25.428  1.00  0.00     0.016 A 
ATOM     31  C   UNL A   1      42.888  24.089  27.607  1.00  0.00     0.016 A 
ATOM     32  C   UNL A   1      42.528  26.371  26.025  1.00  0.00     0.010 A 
ATOM     33  C   UNL A   1      42.765  25.348  28.207  1.00  0.00     0.010 A 
ATOM     34  C   UNL A   1      42.627  26.503  27.417  1.00  0.00    -0.014 A 
BRANCH  34  35
ATOM     35  C   UNL A   1      42.744  27.856  28.025  1.00  0.00     0.031 A 
ATOM     36  C   UNL A   1      44.104  28.495  28.125  1.00  0.00     0.074 A 
ATOM     37  C   UNL A   1      41.655  28.521  28.454  1.00  0.00     0.049 A 
ATOM     38  N   UNL A   1      44.444  29.660  28.617  1.00  0.00    -0.248 NA
ATOM     39  C   UNL A   1      45.232  27.707  27.610  1.00  0.00     0.031 C 
ATOM     40  C   UNL A   1      40.284  28.017  28.400  1.00  0.00     0.029 A 
ATOM     41  N   UNL A   1      41.535  29.766  29.022  1.00  0.00    -0.354 N 
ATOM     42  C   UNL A   1      45.826  29.740  28.476  1.00  0.00     0.074 A 
ATOM     43  C   UNL A   1      46.261  28.485  27.904  1.00  0.00     0.031 C 
ATOM     44  C   UNL A   1      39.459  28.946  28.914  1.00  0.00     0.029 A 
ATOM     45  C   UNL A   1      40.244  30.093  29.364  1.00  0.00     0.049 A 
ATOM     46  H   UNL A   1      42.301  30.366  29.169  1.00  0.00     0.167 HD
ATOM     47  C   UNL A   1      46.654  30.772  28.781  1.00  0.00     0.034 A 
ATOM     48  C   UNL A   1      39.755  31.185  29.986  1.00  0.00     0.034 A 
ATOM     49  C   UNL A   1      46.207  32.016  29.360  1.00  0.00     0.049 A 
ATOM     50  C   UNL A   1      40.698  32.296  30.377  1.00  0.00     0.074 A 
ATOM     51  C   UNL A   1      46.953  33.138  29.676  1.00  0.00     0.029 A 
ATOM     52  N   UNL A   1      44.897  32.297  29.728  1.00  0.00    -0.354 N 
ATOM     53  N   UNL A   1      41.999  32.375  30.210  1.00  0.00    -0.248 NA
ATOM     54  C   UNL A   1      40.105  33.469  31.032  1.00  0.00     0.031 C 
ATOM     55  C   UNL A   1      46.111  34.066  30.300  1.00  0.00     0.029 A 
ATOM     56  C   UNL A   1      44.821  33.558  30.301  1.00  0.00     0.049 A 
ATOM     57  H   UNL A   1      44.133  31.690  29.599  1.00  0.00     0.167 HD
ATOM     58  C   UNL A   1      42.374  33.617  30.717  1.00  0.00     0.074 A 
ATOM     59  C   UNL A   1      41.160  34.257  31.184  1.00  0.00     0.031 C 
ATOM     60  C   UNL A   1      43.608  34.181  30.784  1.00  0.00     0.034 A 
BRANCH  47  61
ATOM     61  C   UNL A   1      48.132  30.563  28.534  1.00  0.00     0.023 A 
ATOM     62  C   UNL A   1      48.943  29.863  29.445  1.00  0.00     0.031 A 
ATOM     63  C   UNL A   1      48.749  31.123  27.402  1.00  0.00     0.131 A 
ATOM     64  C   UNL A   1      50.334  29.825  29.258  1.00  0.00     0.055 A 
ATOM     65  C   UNL A   1      50.123  31.003  27.176  1.00  0.00     0.041 A 
ATOM     66  F   UNL A   1      48.033  31.821  26.506  1.00  0.00    -0.206 F 
ATOM     67  C   UNL A   1      50.926  30.368  28.118  1.00  0.00     0.022 A 
BRANCH  64  68
ATOM     68  S   UNL A   1      51.372  29.212  30.615  1.00  0.00     0.124 S 
ATOM     69  O   UNL A   1      51.311  27.768  30.406  1.00  0.00    -0.237 OA
ATOM     70  O   UNL A   1      52.656  29.845  30.340  1.00  0.00    -0.237 OA
ATOM     71  O   UNL A   1      50.685  29.689  31.815  1.00  0.00    -0.744 OA
ENDBRANCH  64  68
ENDBRANCH  47  61
BRANCH  48  72
ATOM     72  C   UNL A   1      38.302  31.272  30.311  1.00  0.00     0.023 A 
ATOM     73  C   UNL A   1      37.363  31.704  29.360  1.00  0.00     0.031 A 
ATOM     74  C   UNL A   1      37.836  30.947  31.598  1.00  0.00     0.131 A 
ATOM     75  C   UNL A   1      36.012  31.831  29.720  1.00  0.00     0.055 A 
ATOM     76  C   UNL A   1      36.485  31.031  31.937  1.00  0.00     0.041 A 
ATOM     77  F   UNL A   1      38.693  30.529  32.543  1.00  0.00    -0.206 F 
ATOM     78  C   UNL A   1      35.565  31.484  30.998  1.00  0.00     0.022 A 
BRANCH  75  79
ATOM     79  S   UNL A   1      34.846  32.510  28.508  1.00  0.00     0.124 S 
ATOM     80  O   UNL A   1      33.933  33.261  29.362  1.00  0.00    -0.237 OA
ATOM     81  O   UNL A   1      35.724  33.303  27.653  1.00  0.00    -0.237 OA
ATOM     82  O   UNL A   1      34.277  31.320  27.878  1.00  0.00    -0.744 OA
ENDBRANCH  75  79
ENDBRANCH  48  72
BRANCH  60  83
ATOM     83  C   UNL A   1      43.699  35.579  31.349  1.00  0.00     0.023 A 
ATOM     84  C   UNL A   1      43.693  36.716  30.523  1.00  0.00     0.031 A 
ATOM     85  C   UNL A   1      43.801  35.773  32.739  1.00  0.00     0.131 A 
ATOM     86  C   UNL A   1      43.837  37.993  31.090  1.00  0.00     0.055 A 
ATOM     87  C   UNL A   1      43.885  37.047  33.301  1.00  0.00     0.041 A 
ATOM     88  F   UNL A   1      43.816  34.723  33.577  1.00  0.00    -0.206 F 
ATOM     89  C   UNL A   1      43.916  38.167  32.474  1.00  0.00     0.022 A 
BRANCH  86  90
ATOM     90  S   UNL A   1      44.010  39.424  29.987  1.00  0.00     0.124 S 
ATOM     91  O   UNL A   1      45.374  39.861  30.269  1.00  0.00    -0.237 OA
ATOM     92  O   UNL A   1      43.789  38.834  28.671  1.00  0.00    -0.237 OA
ATOM     93  O   UNL A   1      42.962  40.336  30.441  1.00  0.00    -0.744 OA
ENDBRANCH  86  90
ENDBRANCH  60  83
ENDBRANCH  34  35
ENDBRANCH  27  29
ENDBRANCH  26  27
ENDBRANCH  25  26
ENDBRANCH  24  25
ENDBRANCH  23  24
ENDBRANCH  22  23
ENDBRANCH   1  22
TORSDOF 23
ENDMDL
MODEL 3
REMARK VINA RESULT:      -9.1      5.200     10.711
REMARK SMILES CC[NH2+]C[C@@H](C)C(=O)N1CCO[C@@H](CC(=O)OCCOCCOC(=O)c2ccc(-c3c4nc(c(-c5cc(S(=O)(=O)[O-])ccc5F)c5ccc([nH]5)c(-c5cc(S(=O)(=O)[O-])ccc5F)c5nc(c(-c6cc(S(=O)(=O)[O-])ccc6F)c6ccc3[nH]6)C=C5)C=C4)cc2)C1
REMARK SMILES IDX 18 1 17 2 15 3 16 4 14 5 13 6 9 7 10 8 89 9 11 10 12 11 7 12
REMARK SMILES IDX 8 13 5 14 6 15 4 16 3 17 2 20 1 21 19 22 20 23 21 24 22 25
REMARK SMILES IDX 23 26 24 27 25 28 26 29 27 30 88 31 28 32 87 33 29 34 30 35
REMARK SMILES IDX 31 36 81 37 32 38 86 39 80 40 82 41 33 42 85 43 79 44 78 45
REMARK SMILES IDX 34 47 66 48 46 49 65 50 47 51 50 52 64 53 83 54 48 55 49 56
REMARK SMILES IDX 63 58 84 59 51 60 35 61 36 62 44 63 37 64 43 65 45 66 42 67
REMARK SMILES IDX 38 68 39 69 40 70 41 71 67 72 68 73 76 74 69 75 75 76 77 77
REMARK SMILES IDX 74 78 70 79 71 80 72 81 73 82 52 83 53 84 61 85 54 86 60 87
REMARK SMILES IDX 62 88 59 89 55 90 56 91 57 92 58 93
REMARK H PARENT 3 18 3 19 82 46 50 57
REMARK Flexibility Score: inf
ROOT
ATOM      1  C   UNL A   1      31.886  30.876  26.451  1.00  0.00     0.261 C 
ENDROOT
BRANCH   1   2
ATOM      2  O   UNL A   1      31.435  29.857  25.535  1.00  0.00    -0.463 OA
BRANCH   2   3
ATOM      3  C   UNL A   1      32.158  28.710  25.515  1.00  0.00     0.308 C 
ATOM      4  O   UNL A   1      33.375  28.640  25.628  1.00  0.00    -0.252 OA
BRANCH   3   5
ATOM      5  C   UNL A   1      31.295  27.505  25.265  1.00  0.00     0.156 C 
BRANCH   5   6
ATOM      6  C   UNL A   1      31.978  26.274  24.670  1.00  0.00     0.148 C 
ATOM      7  N   UNL A   1      32.307  23.817  24.852  1.00  0.00    -0.337 N 
ATOM      8  C   UNL A   1      31.493  23.643  23.662  1.00  0.00     0.148 C 
ATOM      9  C   UNL A   1      31.954  25.030  25.604  1.00  0.00     0.152 C 
ATOM     10  C   UNL A   1      31.692  24.843  22.753  1.00  0.00     0.182 C 
ATOM     11  O   UNL A   1      31.259  26.029  23.428  1.00  0.00    -0.374 OA
BRANCH   7  12
ATOM     12  C   UNL A   1      33.008  22.799  25.468  1.00  0.00     0.231 C 
ATOM     13  O   UNL A   1      32.415  21.817  25.917  1.00  0.00    -0.274 OA
BRANCH  12  14
ATOM     14  C   UNL A   1      34.504  23.002  25.797  1.00  0.00     0.130 C 
ATOM     15  C   UNL A   1      35.163  23.818  24.683  1.00  0.00     0.024 C 
BRANCH  14  16
ATOM     16  C   UNL A   1      35.300  21.743  26.164  1.00  0.00     0.273 C 
BRANCH  16  17
ATOM     17  N   UNL A   1      35.143  20.577  25.283  1.00  0.00    -0.346 N 
ATOM     18  H   UNL A   1      34.501  19.922  25.730  1.00  0.00     0.346 HD
ATOM     19  H   UNL A   1      34.792  20.926  24.392  1.00  0.00     0.346 HD
BRANCH  17  20
ATOM     20  C   UNL A   1      36.391  19.875  24.999  1.00  0.00     0.257 C 
ATOM     21  C   UNL A   1      37.496  20.905  24.802  1.00  0.00     0.071 C 
ENDBRANCH  17  20
ENDBRANCH  16  17
ENDBRANCH  14  16
ENDBRANCH  12  14
ENDBRANCH   7  12
ENDBRANCH   5   6
ENDBRANCH   3   5
ENDBRANCH   2   3
ENDBRANCH   1   2
BRANCH   1  22
ATOM     22  C   UNL A   1      31.054  32.154  26.330  1.00  0.00     0.202 C 
BRANCH  22  23
ATOM     23  O   UNL A   1      31.641  33.322  26.906  1.00  0.00    -0.374 OA
BRANCH  23  24
ATOM     24  C   UNL A   1      32.790  33.124  27.725  1.00  0.00     0.202 C 
BRANCH  24  25
ATOM     25  C   UNL A   1      33.875  34.199  27.625  1.00  0.00     0.261 C 
BRANCH  25  26
ATOM     26  O   UNL A   1      33.724  35.208  28.642  1.00  0.00    -0.460 OA
BRANCH  26  27
ATOM     27  C   UNL A   1      33.766  34.747  29.916  1.00  0.00     0.338 C 
ATOM     28  O   UNL A   1      32.908  34.901  30.776  1.00  0.00    -0.246 OA
BRANCH  27  29
ATOM     29  C   UNL A   1      34.928  33.856  30.100  1.00  0.00     0.060 A 
ATOM     30  C   UNL A   1      34.744  32.686  30.847  1.00  0.00     0.016 A 
ATOM     31  C   UNL A   1      36.190  34.179  29.604  1.00  0.00     0.016 A 
ATOM     32  C   UNL A   1      35.832  31.860  31.133  1.00  0.00     0.010 A 
ATOM     33  C   UNL A   1      37.278  33.341  29.877  1.00  0.00     0.010 A 
ATOM     34  C   UNL A   1      37.115  32.199  30.679  1.00  0.00    -0.014 A 
BRANCH  34  35
ATOM     35  C   UNL A   1      38.297  31.444  31.175  1.00  0.00     0.031 A 
ATOM     36  C   UNL A   1      38.856  31.777  32.534  1.00  0.00     0.074 A 
ATOM     37  C   UNL A   1      38.848  30.457  30.446  1.00  0.00     0.049 A 
ATOM     38  N   UNL A   1      39.876  31.256  33.167  1.00  0.00    -0.248 NA
ATOM     39  C   UNL A   1      38.177  32.852  33.270  1.00  0.00     0.031 C 
ATOM     40  C   UNL A   1      38.391  30.030  29.124  1.00  0.00     0.029 A 
ATOM     41  N   UNL A   1      39.915  29.635  30.715  1.00  0.00    -0.354 N 
ATOM     42  C   UNL A   1      39.965  31.944  34.373  1.00  0.00     0.074 A 
ATOM     43  C   UNL A   1      38.928  32.953  34.355  1.00  0.00     0.031 C 
ATOM     44  C   UNL A   1      39.174  29.024  28.697  1.00  0.00     0.029 A 
ATOM     45  C   UNL A   1      40.205  28.757  29.697  1.00  0.00     0.049 A 
ATOM     46  H   UNL A   1      40.422  29.671  31.558  1.00  0.00     0.167 HD
ATOM     47  C   UNL A   1      40.820  31.742  35.408  1.00  0.00     0.034 A 
ATOM     48  C   UNL A   1      41.201  27.856  29.578  1.00  0.00     0.034 A 
ATOM     49  C   UNL A   1      41.856  30.737  35.408  1.00  0.00     0.049 A 
ATOM     50  C   UNL A   1      42.185  27.689  30.711  1.00  0.00     0.074 A 
ATOM     51  C   UNL A   1      42.754  30.423  36.414  1.00  0.00     0.029 A 
ATOM     52  N   UNL A   1      42.145  29.891  34.344  1.00  0.00    -0.354 N 
ATOM     53  N   UNL A   1      42.239  28.323  31.861  1.00  0.00    -0.248 NA
ATOM     54  C   UNL A   1      43.234  26.677  30.533  1.00  0.00     0.031 C 
ATOM     55  C   UNL A   1      43.630  29.443  35.933  1.00  0.00     0.029 A 
ATOM     56  C   UNL A   1      43.230  29.084  34.655  1.00  0.00     0.049 A 
ATOM     57  H   UNL A   1      41.650  29.867  33.493  1.00  0.00     0.167 HD
ATOM     58  C   UNL A   1      43.314  27.768  32.552  1.00  0.00     0.074 A 
ATOM     59  C   UNL A   1      43.870  26.740  31.695  1.00  0.00     0.031 C 
ATOM     60  C   UNL A   1      43.792  28.075  33.785  1.00  0.00     0.034 A 
BRANCH  47  61
ATOM     61  C   UNL A   1      40.692  32.669  36.596  1.00  0.00     0.023 A 
ATOM     62  C   UNL A   1      39.814  32.393  37.660  1.00  0.00     0.031 A 
ATOM     63  C   UNL A   1      41.413  33.875  36.637  1.00  0.00     0.131 A 
ATOM     64  C   UNL A   1      39.609  33.350  38.665  1.00  0.00     0.055 A 
ATOM     65  C   UNL A   1      41.271  34.784  37.688  1.00  0.00     0.041 A 
ATOM     66  F   UNL A   1      42.251  34.207  35.642  1.00  0.00    -0.206 F 
ATOM     67  C   UNL A   1      40.350  34.533  38.701  1.00  0.00     0.022 A 
BRANCH  64  68
ATOM     68  S   UNL A   1      38.234  33.107  39.824  1.00  0.00     0.124 S 
ATOM     69  O   UNL A   1      38.674  31.926  40.562  1.00  0.00    -0.237 OA
ATOM     70  O   UNL A   1      38.223  34.360  40.569  1.00  0.00    -0.237 OA
ATOM     71  O   UNL A   1      37.082  32.890  38.949  1.00  0.00    -0.744 OA
ENDBRANCH  64  68
ENDBRANCH  47  61
BRANCH  48  72
ATOM     72  C   UNL A   1      41.344  27.060  28.325  1.00  0.00     0.023 A 
ATOM     73  C   UNL A   1      40.984  25.704  28.274  1.00  0.00     0.031 A 
ATOM     74  C   UNL A   1      41.873  27.648  27.162  1.00  0.00     0.131 A 
ATOM     75  C   UNL A   1      41.188  24.971  27.093  1.00  0.00     0.055 A 
ATOM     76  C   UNL A   1      42.030  26.928  25.977  1.00  0.00     0.041 A 
ATOM     77  F   UNL A   1      42.231  28.942  27.159  1.00  0.00    -0.206 F 
ATOM     78  C   UNL A   1      41.696  25.578  25.941  1.00  0.00     0.022 A 
BRANCH  75  79
ATOM     79  S   UNL A   1      40.831  23.193  27.097  1.00  0.00     0.124 S 
ATOM     80  O   UNL A   1      41.506  22.752  25.881  1.00  0.00    -0.237 OA
ATOM     81  O   UNL A   1      41.432  22.766  28.356  1.00  0.00    -0.237 OA
ATOM     82  O   UNL A   1      39.371  23.138  27.056  1.00  0.00    -0.744 OA
ENDBRANCH  75  79
ENDBRANCH  48  72
BRANCH  60  83
ATOM     83  C   UNL A   1      44.955  27.258  34.298  1.00  0.00     0.023 A 
ATOM     84  C   UNL A   1      44.765  26.085  35.049  1.00  0.00     0.031 A 
ATOM     85  C   UNL A   1      46.275  27.668  34.034  1.00  0.00     0.131 A 
ATOM     86  C   UNL A   1      45.877  25.390  35.552  1.00  0.00     0.055 A 
ATOM     87  C   UNL A   1      47.376  26.940  34.487  1.00  0.00     0.041 A 
ATOM     88  F   UNL A   1      46.517  28.782  33.325  1.00  0.00    -0.206 F 
ATOM     89  C   UNL A   1      47.181  25.800  35.262  1.00  0.00     0.022 A 
BRANCH  86  90
ATOM     90  S   UNL A   1      45.598  23.987  36.670  1.00  0.00     0.124 S 
ATOM     91  O   UNL A   1      46.899  23.851  37.316  1.00  0.00    -0.237 OA
ATOM     92  O   UNL A   1      44.513  24.472  37.516  1.00  0.00    -0.237 OA
ATOM     93  O   UNL A   1      45.238  22.895  35.767  1.00  0.00    -0.744 OA
ENDBRANCH  86  90
ENDBRANCH  60  83
ENDBRANCH  34  35
ENDBRANCH  27  29
ENDBRANCH  26  27
ENDBRANCH  25  26
ENDBRANCH  24  25
ENDBRANCH  23  24
ENDBRANCH  22  23
ENDBRANCH   1  22
TORSDOF 23
ENDMDL
