MODEL 1
REMARK VINA RESULT:     -11.3      0.000      0.000
REMARK SMILES CCc1ccc(C[NH+]2CCC(Oc3ccccc3OC)(C(=O)OCCOCCOC(=O)c3ccc(-c4c5nc(c(-c6cc(S(=O)(=O)[O-])ccc6F)c6ccc([nH]6)c(-c6cc(S(=O)(=O)[O-])ccc6F)c6nc(c(-c7cc(S(=O)(=O)[O-])ccc7F)c7ccc4[nH]7)C=C6)C=C5)cc3)CC2)nc1
REMARK SMILES IDX 26 1 25 2 24 3 23 4 21 5 22 6 11 7 8 8 9 9 96 10 10 12 95 13
REMARK SMILES IDX 7 14 6 15 3 16 4 17 98 18 5 19 97 20 2 21 1 22 12 23 13 24
REMARK SMILES IDX 14 25 18 26 15 27 17 28 16 29 19 30 20 31 27 32 28 33 29 34
REMARK SMILES IDX 30 35 31 36 32 37 33 38 94 39 34 40 93 41 35 42 36 43 37 44
REMARK SMILES IDX 87 45 38 46 92 47 86 48 88 49 39 50 91 51 85 52 84 53 40 55
REMARK SMILES IDX 72 56 52 57 71 58 53 59 56 60 70 61 89 62 54 63 55 64 69 66
REMARK SMILES IDX 90 67 57 68 41 69 42 70 50 71 43 72 49 73 51 74 48 75 44 76
REMARK SMILES IDX 45 77 46 78 47 79 73 80 74 81 82 82 75 83 81 84 83 85 80 86
REMARK SMILES IDX 76 87 77 88 78 89 79 90 58 91 59 92 67 93 60 94 66 95 68 96
REMARK SMILES IDX 65 97 61 98 62 99 63 100 64 101
REMARK H PARENT 8 11 88 54 56 65
REMARK Flexibility Score: inf
ROOT
ATOM      1  O   UNL A   1      35.394  21.990  24.243  1.00  0.00    -0.374 OA
ENDROOT
BRANCH   1   2
ATOM      2  C   UNL A   1      35.509  23.141  23.411  1.00  0.00     0.202 C 
BRANCH   2   3
ATOM      3  C   UNL A   1      34.312  23.540  22.543  1.00  0.00     0.261 C 
BRANCH   3   4
ATOM      4  O   UNL A   1      34.227  24.958  22.264  1.00  0.00    -0.460 OA
BRANCH   4   5
ATOM      5  C   UNL A   1      32.960  25.459  22.155  1.00  0.00     0.351 C 
ATOM      6  O   UNL A   1      32.374  25.568  21.077  1.00  0.00    -0.247 OA
BRANCH   5   7
ATOM      7  C   UNL A   1      32.385  26.011  23.475  1.00  0.00     0.216 C 
ATOM      8  N   UNL A   1      31.218  23.893  25.212  1.00  0.00    -0.330 N 
ATOM      9  C   UNL A   1      32.574  24.334  25.504  1.00  0.00     0.267 C 
ATOM     10  C   UNL A   1      30.766  24.133  23.848  1.00  0.00     0.267 C 
ATOM     11  H   UNL A   1      30.636  24.520  25.768  1.00  0.00     0.348 HD
ATOM     12  C   UNL A   1      33.089  25.584  24.773  1.00  0.00     0.122 C 
ATOM     13  C   UNL A   1      30.898  25.625  23.524  1.00  0.00     0.122 C 
BRANCH   8  14
ATOM     14  C   UNL A   1      30.924  22.524  25.703  1.00  0.00     0.319 C 
BRANCH  14  15
ATOM     15  C   UNL A   1      31.877  21.403  25.294  1.00  0.00     0.095 A 
ATOM     16  C   UNL A   1      33.462  19.212  24.650  1.00  0.00    -0.030 A 
ATOM     17  C   UNL A   1      32.722  19.859  23.654  1.00  0.00     0.007 A 
ATOM     18  C   UNL A   1      33.418  19.778  25.918  1.00  0.00     0.115 A 
ATOM     19  C   UNL A   1      31.920  20.957  23.974  1.00  0.00     0.030 A 
ATOM     20  N   UNL A   1      32.647  20.842  26.260  1.00  0.00    -0.255 NA
BRANCH  16  21
ATOM     21  C   UNL A   1      34.129  17.895  24.327  1.00  0.00     0.034 C 
ATOM     22  C   UNL A   1      33.770  17.247  22.993  1.00  0.00     0.009 C 
ENDBRANCH  16  21
ENDBRANCH  14  15
ENDBRANCH   8  14
BRANCH   7  23
ATOM     23  O   UNL A   1      32.663  27.405  23.137  1.00  0.00    -0.471 OA
BRANCH  23  24
ATOM     24  C   UNL A   1      32.584  28.352  24.110  1.00  0.00     0.162 A 
ATOM     25  C   UNL A   1      33.701  28.498  24.938  1.00  0.00     0.050 A 
ATOM     26  C   UNL A   1      31.405  29.050  24.400  1.00  0.00     0.160 A 
ATOM     27  C   UNL A   1      33.683  29.412  25.991  1.00  0.00     0.004 A 
ATOM     28  C   UNL A   1      31.410  29.999  25.425  1.00  0.00     0.050 A 
ATOM     29  C   UNL A   1      32.543  30.178  26.222  1.00  0.00     0.004 A 
BRANCH  26  30
ATOM     30  O   UNL A   1      30.236  28.967  23.693  1.00  0.00    -0.493 OA
ATOM     31  C   UNL A   1      29.560  30.204  23.481  1.00  0.00     0.278 C 
ENDBRANCH  26  30
ENDBRANCH  23  24
ENDBRANCH   7  23
ENDBRANCH   5   7
ENDBRANCH   4   5
ENDBRANCH   3   4
ENDBRANCH   2   3
ENDBRANCH   1   2
BRANCH   1  32
ATOM     32  C   UNL A   1      36.261  21.889  25.357  1.00  0.00     0.202 C 
BRANCH  32  33
ATOM     33  C   UNL A   1      37.313  20.781  25.365  1.00  0.00     0.261 C 
BRANCH  33  34
ATOM     34  O   UNL A   1      38.663  21.183  25.160  1.00  0.00    -0.460 OA
BRANCH  34  35
ATOM     35  C   UNL A   1      39.466  20.944  26.220  1.00  0.00     0.338 C 
ATOM     36  O   UNL A   1      39.887  19.865  26.623  1.00  0.00    -0.246 OA
BRANCH  35  37
ATOM     37  C   UNL A   1      39.893  22.223  26.778  1.00  0.00     0.060 A 
ATOM     38  C   UNL A   1      39.343  23.383  26.225  1.00  0.00     0.016 A 
ATOM     39  C   UNL A   1      40.864  22.280  27.779  1.00  0.00     0.016 A 
ATOM     40  C   UNL A   1      39.799  24.623  26.652  1.00  0.00     0.010 A 
ATOM     41  C   UNL A   1      41.321  23.527  28.205  1.00  0.00     0.010 A 
ATOM     42  C   UNL A   1      40.811  24.700  27.619  1.00  0.00    -0.014 A 
BRANCH  42  43
ATOM     43  C   UNL A   1      41.421  26.014  27.911  1.00  0.00     0.031 A 
ATOM     44  C   UNL A   1      42.824  26.280  27.447  1.00  0.00     0.074 A 
ATOM     45  C   UNL A   1      40.703  26.962  28.536  1.00  0.00     0.049 A 
ATOM     46  N   UNL A   1      43.549  27.360  27.576  1.00  0.00    -0.248 NA
ATOM     47  C   UNL A   1      43.499  25.179  26.742  1.00  0.00     0.031 C 
ATOM     48  C   UNL A   1      39.321  26.807  28.990  1.00  0.00     0.029 A 
ATOM     49  N   UNL A   1      41.033  28.243  28.893  1.00  0.00    -0.354 N 
ATOM     50  C   UNL A   1      44.765  27.072  26.966  1.00  0.00     0.074 A 
ATOM     51  C   UNL A   1      44.693  25.701  26.506  1.00  0.00     0.031 C 
ATOM     52  C   UNL A   1      38.920  27.954  29.565  1.00  0.00     0.029 A 
ATOM     53  C   UNL A   1      40.026  28.907  29.552  1.00  0.00     0.049 A 
ATOM     54  H   UNL A   1      41.908  28.649  28.696  1.00  0.00     0.167 HD
ATOM     55  C   UNL A   1      45.837  27.885  26.797  1.00  0.00     0.034 A 
ATOM     56  C   UNL A   1      40.012  30.139  30.097  1.00  0.00     0.034 A 
ATOM     57  C   UNL A   1      45.887  29.243  27.283  1.00  0.00     0.049 A 
ATOM     58  C   UNL A   1      41.246  30.998  29.967  1.00  0.00     0.074 A 
ATOM     59  C   UNL A   1      46.913  30.163  27.170  1.00  0.00     0.029 A 
ATOM     60  N   UNL A   1      44.867  29.870  27.991  1.00  0.00    -0.354 N 
ATOM     61  N   UNL A   1      42.387  30.722  29.375  1.00  0.00    -0.248 NA
ATOM     62  C   UNL A   1      41.187  32.336  30.567  1.00  0.00     0.031 C 
ATOM     63  C   UNL A   1      46.543  31.319  27.869  1.00  0.00     0.029 A 
ATOM     64  C   UNL A   1      45.253  31.151  28.351  1.00  0.00     0.049 A 
ATOM     65  H   UNL A   1      43.997  29.462  28.207  1.00  0.00     0.167 HD
ATOM     66  C   UNL A   1      43.170  31.865  29.508  1.00  0.00     0.074 A 
ATOM     67  C   UNL A   1      42.365  32.836  30.221  1.00  0.00     0.031 C 
ATOM     68  C   UNL A   1      44.437  32.097  29.076  1.00  0.00     0.034 A 
BRANCH  55  69
ATOM     69  C   UNL A   1      47.047  27.301  26.108  1.00  0.00     0.023 A 
ATOM     70  C   UNL A   1      47.999  26.534  26.804  1.00  0.00     0.031 A 
ATOM     71  C   UNL A   1      47.275  27.549  24.743  1.00  0.00     0.131 A 
ATOM     72  C   UNL A   1      49.165  26.104  26.152  1.00  0.00     0.055 A 
ATOM     73  C   UNL A   1      48.398  27.052  24.080  1.00  0.00     0.041 A 
ATOM     74  F   UNL A   1      46.415  28.296  24.032  1.00  0.00    -0.206 F 
ATOM     75  C   UNL A   1      49.360  26.338  24.788  1.00  0.00     0.022 A 
BRANCH  72  76
ATOM     76  S   UNL A   1      50.492  25.363  27.142  1.00  0.00     0.124 S 
ATOM     77  O   UNL A   1      49.791  24.259  27.795  1.00  0.00    -0.237 OA
ATOM     78  O   UNL A   1      51.471  24.988  26.130  1.00  0.00    -0.237 OA
ATOM     79  O   UNL A   1      50.900  26.446  28.035  1.00  0.00    -0.744 OA
ENDBRANCH  72  76
ENDBRANCH  55  69
BRANCH  56  80
ATOM     80  C   UNL A   1      38.813  30.622  30.840  1.00  0.00     0.023 A 
ATOM     81  C   UNL A   1      37.715  31.181  30.169  1.00  0.00     0.031 A 
ATOM     82  C   UNL A   1      38.767  30.565  32.245  1.00  0.00     0.131 A 
ATOM     83  C   UNL A   1      36.638  31.702  30.903  1.00  0.00     0.055 A 
ATOM     84  C   UNL A   1      37.671  31.036  32.968  1.00  0.00     0.041 A 
ATOM     85  F   UNL A   1      39.790  30.038  32.937  1.00  0.00    -0.206 F 
ATOM     86  C   UNL A   1      36.602  31.622  32.297  1.00  0.00     0.022 A 
BRANCH  83  87
ATOM     87  S   UNL A   1      35.314  32.563  30.011  1.00  0.00     0.124 S 
ATOM     88  O   UNL A   1      34.316  32.743  31.060  1.00  0.00    -0.237 OA
ATOM     89  O   UNL A   1      35.992  33.772  29.557  1.00  0.00    -0.237 OA
ATOM     90  O   UNL A   1      34.947  31.622  28.955  1.00  0.00    -0.744 OA
ENDBRANCH  83  87
ENDBRANCH  56  80
BRANCH  68  91
ATOM     91  C   UNL A   1      45.004  33.471  29.336  1.00  0.00     0.023 A 
ATOM     92  C   UNL A   1      44.844  34.523  28.419  1.00  0.00     0.031 A 
ATOM     93  C   UNL A   1      45.724  33.724  30.517  1.00  0.00     0.131 A 
ATOM     94  C   UNL A   1      45.445  35.765  28.669  1.00  0.00     0.055 A 
ATOM     95  C   UNL A   1      46.268  34.981  30.790  1.00  0.00     0.041 A 
ATOM     96  F   UNL A   1      45.908  32.755  31.428  1.00  0.00    -0.206 F 
ATOM     97  C   UNL A   1      46.142  36.005  29.857  1.00  0.00     0.022 A 
BRANCH  94  98
ATOM     98  S   UNL A   1      45.387  37.037  27.377  1.00  0.00     0.124 S 
ATOM     99  O   UNL A   1      46.404  36.566  26.442  1.00  0.00    -0.237 OA
ATOM    100  O   UNL A   1      44.006  36.949  26.915  1.00  0.00    -0.237 OA
ATOM    101  O   UNL A   1      45.724  38.266  28.091  1.00  0.00    -0.744 OA
ENDBRANCH  94  98
ENDBRANCH  68  91
ENDBRANCH  42  43
ENDBRANCH  35  37
ENDBRANCH  34  35
ENDBRANCH  33  34
ENDBRANCH  32  33
ENDBRANCH   1  32
TORSDOF 23
ENDMDL
MODEL 2
REMARK VINA RESULT:     -10.8      1.603      7.420
REMARK SMILES CCc1ccc(C[NH+]2CCC(Oc3ccccc3OC)(C(=O)OCCOCCOC(=O)c3ccc(-c4c5nc(c(-c6cc(S(=O)(=O)[O-])ccc6F)c6ccc([nH]6)c(-c6cc(S(=O)(=O)[O-])ccc6F)c6nc(c(-c7cc(S(=O)(=O)[O-])ccc7F)c7ccc4[nH]7)C=C6)C=C5)cc3)CC2)nc1
REMARK SMILES IDX 26 1 25 2 24 3 23 4 21 5 22 6 11 7 8 8 9 9 96 10 10 12 95 13
REMARK SMILES IDX 7 14 6 15 3 16 4 17 98 18 5 19 97 20 2 21 1 22 12 23 13 24
REMARK SMILES IDX 14 25 18 26 15 27 17 28 16 29 19 30 20 31 27 32 28 33 29 34
REMARK SMILES IDX 30 35 31 36 32 37 33 38 94 39 34 40 93 41 35 42 36 43 37 44
REMARK SMILES IDX 87 45 38 46 92 47 86 48 88 49 39 50 91 51 85 52 84 53 40 55
REMARK SMILES IDX 72 56 52 57 71 58 53 59 56 60 70 61 89 62 54 63 55 64 69 66
REMARK SMILES IDX 90 67 57 68 41 69 42 70 50 71 43 72 49 73 51 74 48 75 44 76
REMARK SMILES IDX 45 77 46 78 47 79 73 80 74 81 82 82 75 83 81 84 83 85 80 86
REMARK SMILES IDX 76 87 77 88 78 89 79 90 58 91 59 92 67 93 60 94 66 95 68 96
REMARK SMILES IDX 65 97 61 98 62 99 63 100 64 101
REMARK H PARENT 8 11 88 54 56 65
REMARK Flexibility Score: inf
ROOT
ATOM      1  O   UNL A   1      35.292  22.517  23.506  1.00  0.00    -0.374 OA
ENDROOT
BRANCH   1   2
ATOM      2  C   UNL A   1      34.648  23.622  22.876  1.00  0.00     0.202 C 
BRANCH   2   3
ATOM      3  C   UNL A   1      33.118  23.632  22.801  1.00  0.00     0.261 C 
BRANCH   3   4
ATOM      4  O   UNL A   1      32.522  24.936  23.002  1.00  0.00    -0.460 OA
BRANCH   4   5
ATOM      5  C   UNL A   1      31.334  24.940  23.677  1.00  0.00     0.351 C 
ATOM      6  O   UNL A   1      30.245  24.815  23.116  1.00  0.00    -0.247 OA
BRANCH   5   7
ATOM      7  C   UNL A   1      31.463  25.260  25.181  1.00  0.00     0.216 C 
ATOM      8  N   UNL A   1      32.623  23.015  26.754  1.00  0.00    -0.330 N 
ATOM      9  C   UNL A   1      33.520  24.088  26.348  1.00  0.00     0.267 C 
ATOM     10  C   UNL A   1      31.416  22.876  25.951  1.00  0.00     0.267 C 
ATOM     11  H   UNL A   1      32.270  23.326  27.660  1.00  0.00     0.348 HD
ATOM     12  C   UNL A   1      32.888  25.355  25.751  1.00  0.00     0.122 C 
ATOM     13  C   UNL A   1      30.652  24.204  25.946  1.00  0.00     0.122 C 
BRANCH   8  14
ATOM     14  C   UNL A   1      33.319  21.729  27.010  1.00  0.00     0.319 C 
BRANCH  14  15
ATOM     15  C   UNL A   1      33.373  20.714  25.872  1.00  0.00     0.095 A 
ATOM     16  C   UNL A   1      33.458  18.694  23.962  1.00  0.00    -0.030 A 
ATOM     17  C   UNL A   1      32.296  19.456  24.126  1.00  0.00     0.007 A 
ATOM     18  C   UNL A   1      34.554  19.065  24.733  1.00  0.00     0.115 A 
ATOM     19  C   UNL A   1      32.247  20.468  25.087  1.00  0.00     0.030 A 
ATOM     20  N   UNL A   1      34.536  20.041  25.676  1.00  0.00    -0.255 NA
BRANCH  16  21
ATOM     21  C   UNL A   1      33.409  17.462  23.089  1.00  0.00     0.034 C 
ATOM     22  C   UNL A   1      34.224  16.257  23.548  1.00  0.00     0.009 C 
ENDBRANCH  16  21
ENDBRANCH  14  15
ENDBRANCH   8  14
BRANCH   7  23
ATOM     23  O   UNL A   1      30.835  26.574  25.063  1.00  0.00    -0.471 OA
BRANCH  23  24
ATOM     24  C   UNL A   1      31.492  27.669  25.532  1.00  0.00     0.162 A 
ATOM     25  C   UNL A   1      31.410  27.910  26.907  1.00  0.00     0.050 A 
ATOM     26  C   UNL A   1      32.094  28.614  24.694  1.00  0.00     0.160 A 
ATOM     27  C   UNL A   1      32.014  29.037  27.462  1.00  0.00     0.004 A 
ATOM     28  C   UNL A   1      32.739  29.716  25.261  1.00  0.00     0.050 A 
ATOM     29  C   UNL A   1      32.697  29.930  26.640  1.00  0.00     0.004 A 
BRANCH  26  30
ATOM     30  O   UNL A   1      32.205  28.515  23.333  1.00  0.00    -0.493 OA
ATOM     31  C   UNL A   1      31.049  28.902  22.594  1.00  0.00     0.278 C 
ENDBRANCH  26  30
ENDBRANCH  23  24
ENDBRANCH   7  23
ENDBRANCH   5   7
ENDBRANCH   4   5
ENDBRANCH   3   4
ENDBRANCH   2   3
ENDBRANCH   1   2
BRANCH   1  32
ATOM     32  C   UNL A   1      36.678  22.620  23.766  1.00  0.00     0.202 C 
BRANCH  32  33
ATOM     33  C   UNL A   1      37.352  21.516  24.580  1.00  0.00     0.261 C 
BRANCH  33  34
ATOM     34  O   UNL A   1      37.743  21.850  25.906  1.00  0.00    -0.460 OA
BRANCH  34  35
ATOM     35  C   UNL A   1      39.069  21.713  26.132  1.00  0.00     0.338 C 
ATOM     36  O   UNL A   1      39.800  20.787  25.802  1.00  0.00    -0.246 OA
BRANCH  35  37
ATOM     37  C   UNL A   1      39.565  22.942  26.744  1.00  0.00     0.060 A 
ATOM     38  C   UNL A   1      39.032  24.150  26.287  1.00  0.00     0.016 A 
ATOM     39  C   UNL A   1      40.582  22.906  27.699  1.00  0.00     0.016 A 
ATOM     40  C   UNL A   1      39.550  25.347  26.764  1.00  0.00     0.010 A 
ATOM     41  C   UNL A   1      41.100  24.109  28.176  1.00  0.00     0.010 A 
ATOM     42  C   UNL A   1      40.606  25.331  27.685  1.00  0.00    -0.014 A 
BRANCH  42  43
ATOM     43  C   UNL A   1      41.275  26.605  28.026  1.00  0.00     0.031 A 
ATOM     44  C   UNL A   1      40.472  27.694  28.676  1.00  0.00     0.074 A 
ATOM     45  C   UNL A   1      42.592  26.752  27.798  1.00  0.00     0.049 A 
ATOM     46  N   UNL A   1      40.852  28.879  29.076  1.00  0.00    -0.248 NA
ATOM     47  C   UNL A   1      39.048  27.406  28.908  1.00  0.00     0.031 C 
ATOM     48  C   UNL A   1      43.461  25.735  27.205  1.00  0.00     0.029 A 
ATOM     49  N   UNL A   1      43.428  27.809  28.043  1.00  0.00    -0.354 N 
ATOM     50  C   UNL A   1      39.717  29.478  29.610  1.00  0.00     0.074 A 
ATOM     51  C   UNL A   1      38.626  28.542  29.442  1.00  0.00     0.031 C 
ATOM     52  C   UNL A   1      44.712  26.220  27.134  1.00  0.00     0.029 A 
ATOM     53  C   UNL A   1      44.723  27.589  27.641  1.00  0.00     0.049 A 
ATOM     54  H   UNL A   1      43.130  28.646  28.466  1.00  0.00     0.167 HD
ATOM     55  C   UNL A   1      39.603  30.696  30.196  1.00  0.00     0.034 A 
ATOM     56  C   UNL A   1      45.790  28.412  27.665  1.00  0.00     0.034 A 
ATOM     57  C   UNL A   1      40.705  31.617  30.331  1.00  0.00     0.049 A 
ATOM     58  C   UNL A   1      45.620  29.793  28.249  1.00  0.00     0.074 A 
ATOM     59  C   UNL A   1      40.714  32.874  30.908  1.00  0.00     0.029 A 
ATOM     60  N   UNL A   1      41.996  31.384  29.868  1.00  0.00    -0.354 N 
ATOM     61  N   UNL A   1      44.546  30.347  28.765  1.00  0.00    -0.248 NA
ATOM     62  C   UNL A   1      46.808  30.656  28.264  1.00  0.00     0.031 C 
ATOM     63  C   UNL A   1      41.987  33.428  30.731  1.00  0.00     0.029 A 
ATOM     64  C   UNL A   1      42.799  32.486  30.114  1.00  0.00     0.049 A 
ATOM     65  H   UNL A   1      42.295  30.555  29.428  1.00  0.00     0.167 HD
ATOM     66  C   UNL A   1      44.937  31.612  29.192  1.00  0.00     0.074 A 
ATOM     67  C   UNL A   1      46.349  31.732  28.887  1.00  0.00     0.031 C 
ATOM     68  C   UNL A   1      44.202  32.587  29.787  1.00  0.00     0.034 A 
BRANCH  55  69
ATOM     69  C   UNL A   1      38.231  31.108  30.675  1.00  0.00     0.023 A 
ATOM     70  C   UNL A   1      37.319  31.770  29.834  1.00  0.00     0.031 A 
ATOM     71  C   UNL A   1      37.846  30.871  32.007  1.00  0.00     0.131 A 
ATOM     72  C   UNL A   1      36.099  32.234  30.351  1.00  0.00     0.055 A 
ATOM     73  C   UNL A   1      36.598  31.265  32.493  1.00  0.00     0.041 A 
ATOM     74  F   UNL A   1      38.683  30.267  32.864  1.00  0.00    -0.206 F 
ATOM     75  C   UNL A   1      35.723  31.965  31.669  1.00  0.00     0.022 A 
BRANCH  72  76
ATOM     76  S   UNL A   1      35.074  33.319  29.320  1.00  0.00     0.124 S 
ATOM     77  O   UNL A   1      35.981  34.441  29.081  1.00  0.00    -0.237 OA
ATOM     78  O   UNL A   1      34.782  32.477  28.167  1.00  0.00    -0.237 OA
ATOM     79  O   UNL A   1      33.930  33.625  30.176  1.00  0.00    -0.744 OA
ENDBRANCH  72  76
ENDBRANCH  55  69
BRANCH  56  80
ATOM     80  C   UNL A   1      47.096  27.973  27.095  1.00  0.00     0.023 A 
ATOM     81  C   UNL A   1      47.295  27.886  25.709  1.00  0.00     0.031 A 
ATOM     82  C   UNL A   1      48.157  27.595  27.938  1.00  0.00     0.131 A 
ATOM     83  C   UNL A   1      48.509  27.391  25.207  1.00  0.00     0.055 A 
ATOM     84  C   UNL A   1      49.380  27.153  27.434  1.00  0.00     0.041 A 
ATOM     85  F   UNL A   1      48.021  27.661  29.273  1.00  0.00    -0.206 F 
ATOM     86  C   UNL A   1      49.557  27.036  26.059  1.00  0.00     0.022 A 
BRANCH  83  87
ATOM     87  S   UNL A   1      48.671  27.138  23.418  1.00  0.00     0.124 S 
ATOM     88  O   UNL A   1      50.120  27.101  23.252  1.00  0.00    -0.237 OA
ATOM     89  O   UNL A   1      47.970  25.873  23.226  1.00  0.00    -0.237 OA
ATOM     90  O   UNL A   1      48.007  28.308  22.848  1.00  0.00    -0.744 OA
ENDBRANCH  83  87
ENDBRANCH  56  80
BRANCH  68  91
ATOM     91  C   UNL A   1      44.933  33.848  30.178  1.00  0.00     0.023 A 
ATOM     92  C   UNL A   1      45.009  34.956  29.318  1.00  0.00     0.031 A 
ATOM     93  C   UNL A   1      45.571  33.934  31.428  1.00  0.00     0.131 A 
ATOM     94  C   UNL A   1      45.757  36.082  29.694  1.00  0.00     0.055 A 
ATOM     95  C   UNL A   1      46.262  35.081  31.823  1.00  0.00     0.041 A 
ATOM     96  F   UNL A   1      45.531  32.904  32.289  1.00  0.00    -0.206 F 
ATOM     97  C   UNL A   1      46.369  36.158  30.948  1.00  0.00     0.022 A 
BRANCH  94  98
ATOM     98  S   UNL A   1      45.998  37.410  28.483  1.00  0.00     0.124 S 
ATOM     99  O   UNL A   1      44.765  38.178  28.624  1.00  0.00    -0.237 OA
ATOM    100  O   UNL A   1      47.212  38.058  28.968  1.00  0.00    -0.237 OA
ATOM    101  O   UNL A   1      46.141  36.696  27.215  1.00  0.00    -0.744 OA
ENDBRANCH  94  98
ENDBRANCH  68  91
ENDBRANCH  42  43
ENDBRANCH  35  37
ENDBRANCH  34  35
ENDBRANCH  33  34
ENDBRANCH  32  33
ENDBRANCH   1  32
TORSDOF 23
ENDMDL
MODEL 3
REMARK VINA RESULT:     -10.7      0.936      7.539
REMARK SMILES CCc1ccc(C[NH+]2CCC(Oc3ccccc3OC)(C(=O)OCCOCCOC(=O)c3ccc(-c4c5nc(c(-c6cc(S(=O)(=O)[O-])ccc6F)c6ccc([nH]6)c(-c6cc(S(=O)(=O)[O-])ccc6F)c6nc(c(-c7cc(S(=O)(=O)[O-])ccc7F)c7ccc4[nH]7)C=C6)C=C5)cc3)CC2)nc1
REMARK SMILES IDX 26 1 25 2 24 3 23 4 21 5 22 6 11 7 8 8 9 9 96 10 10 12 95 13
REMARK SMILES IDX 7 14 6 15 3 16 4 17 98 18 5 19 97 20 2 21 1 22 12 23 13 24
REMARK SMILES IDX 14 25 18 26 15 27 17 28 16 29 19 30 20 31 27 32 28 33 29 34
REMARK SMILES IDX 30 35 31 36 32 37 33 38 94 39 34 40 93 41 35 42 36 43 37 44
REMARK SMILES IDX 87 45 38 46 92 47 86 48 88 49 39 50 91 51 85 52 84 53 40 55
REMARK SMILES IDX 72 56 52 57 71 58 53 59 56 60 70 61 89 62 54 63 55 64 69 66
REMARK SMILES IDX 90 67 57 68 41 69 42 70 50 71 43 72 49 73 51 74 48 75 44 76
REMARK SMILES IDX 45 77 46 78 47 79 73 80 74 81 82 82 75 83 81 84 83 85 80 86
REMARK SMILES IDX 76 87 77 88 78 89 79 90 58 91 59 92 67 93 60 94 66 95 68 96
REMARK SMILES IDX 65 97 61 98 62 99 63 100 64 101
REMARK H PARENT 8 11 88 54 56 65
REMARK Flexibility Score: inf
ROOT
ATOM      1  O   UNL A   1      34.887  23.227  24.744  1.00  0.00    -0.374 OA
ENDROOT
BRANCH   1   2
ATOM      2  C   UNL A   1      34.929  23.028  23.334  1.00  0.00     0.202 C 
BRANCH   2   3
ATOM      3  C   UNL A   1      33.851  23.689  22.469  1.00  0.00     0.261 C 
BRANCH   3   4
ATOM      4  O   UNL A   1      33.798  25.131  22.585  1.00  0.00    -0.460 OA
BRANCH   4   5
ATOM      5  C   UNL A   1      32.547  25.679  22.519  1.00  0.00     0.351 C 
ATOM      6  O   UNL A   1      31.845  25.626  21.509  1.00  0.00    -0.247 OA
BRANCH   5   7
ATOM      7  C   UNL A   1      32.150  26.494  23.767  1.00  0.00     0.216 C 
ATOM      8  N   UNL A   1      31.386  24.784  26.080  1.00  0.00    -0.330 N 
ATOM      9  C   UNL A   1      32.744  25.308  26.049  1.00  0.00     0.267 C 
ATOM     10  C   UNL A   1      30.718  24.708  24.788  1.00  0.00     0.267 C 
ATOM     11  H   UNL A   1      30.861  25.504  26.577  1.00  0.00     0.348 HD
ATOM     12  C   UNL A   1      33.068  26.378  24.995  1.00  0.00     0.122 C 
ATOM     13  C   UNL A   1      30.713  26.095  24.136  1.00  0.00     0.122 C 
BRANCH   8  14
ATOM     14  C   UNL A   1      31.249  23.549  26.894  1.00  0.00     0.319 C 
BRANCH  14  15
ATOM     15  C   UNL A   1      31.957  22.291  26.398  1.00  0.00     0.095 A 
ATOM     16  C   UNL A   1      33.359  20.136  25.337  1.00  0.00    -0.030 A 
ATOM     17  C   UNL A   1      33.710  20.654  26.589  1.00  0.00     0.007 A 
ATOM     18  C   UNL A   1      32.244  20.699  24.727  1.00  0.00     0.115 A 
ATOM     19  C   UNL A   1      33.013  21.740  27.124  1.00  0.00     0.030 A 
ATOM     20  N   UNL A   1      31.548  21.755  25.220  1.00  0.00    -0.255 NA
BRANCH  16  21
ATOM     21  C   UNL A   1      34.270  19.126  24.681  1.00  0.00     0.034 C 
ATOM     22  C   UNL A   1      33.602  17.996  23.903  1.00  0.00     0.009 C 
ENDBRANCH  16  21
ENDBRANCH  14  15
ENDBRANCH   8  14
BRANCH   7  23
ATOM     23  O   UNL A   1      32.294  27.786  23.099  1.00  0.00    -0.471 OA
BRANCH  23  24
ATOM     24  C   UNL A   1      31.310  28.715  23.235  1.00  0.00     0.162 A 
ATOM     25  C   UNL A   1      30.398  28.823  22.181  1.00  0.00     0.050 A 
ATOM     26  C   UNL A   1      31.276  29.641  24.284  1.00  0.00     0.160 A 
ATOM     27  C   UNL A   1      29.388  29.785  22.219  1.00  0.00     0.004 A 
ATOM     28  C   UNL A   1      30.234  30.570  24.340  1.00  0.00     0.050 A 
ATOM     29  C   UNL A   1      29.294  30.645  23.310  1.00  0.00     0.004 A 
BRANCH  26  30
ATOM     30  O   UNL A   1      32.132  29.667  25.352  1.00  0.00    -0.493 OA
ATOM     31  C   UNL A   1      31.863  30.669  26.329  1.00  0.00     0.278 C 
ENDBRANCH  26  30
ENDBRANCH  23  24
ENDBRANCH   7  23
ENDBRANCH   5   7
ENDBRANCH   4   5
ENDBRANCH   3   4
ENDBRANCH   2   3
ENDBRANCH   1   2
BRANCH   1  32
ATOM     32  C   UNL A   1      36.088  23.056  25.473  1.00  0.00     0.202 C 
BRANCH  32  33
ATOM     33  C   UNL A   1      36.846  21.737  25.334  1.00  0.00     0.261 C 
BRANCH  33  34
ATOM     34  O   UNL A   1      38.232  21.827  25.029  1.00  0.00    -0.460 OA
BRANCH  34  35
ATOM     35  C   UNL A   1      39.038  21.497  26.063  1.00  0.00     0.338 C 
ATOM     36  O   UNL A   1      39.338  20.377  26.460  1.00  0.00    -0.246 OA
BRANCH  35  37
ATOM     37  C   UNL A   1      39.636  22.717  26.594  1.00  0.00     0.060 A 
ATOM     38  C   UNL A   1      39.220  23.932  26.042  1.00  0.00     0.016 A 
ATOM     39  C   UNL A   1      40.635  22.660  27.567  1.00  0.00     0.016 A 
ATOM     40  C   UNL A   1      39.839  25.109  26.441  1.00  0.00     0.010 A 
ATOM     41  C   UNL A   1      41.255  23.844  27.966  1.00  0.00     0.010 A 
ATOM     42  C   UNL A   1      40.880  25.066  27.380  1.00  0.00    -0.014 A 
BRANCH  42  43
ATOM     43  C   UNL A   1      41.658  26.296  27.640  1.00  0.00     0.031 A 
ATOM     44  C   UNL A   1      40.989  27.441  28.345  1.00  0.00     0.074 A 
ATOM     45  C   UNL A   1      42.954  26.355  27.292  1.00  0.00     0.049 A 
ATOM     46  N   UNL A   1      41.479  28.602  28.691  1.00  0.00    -0.248 NA
ATOM     47  C   UNL A   1      39.576  27.249  28.709  1.00  0.00     0.031 C 
ATOM     48  C   UNL A   1      43.698  25.278  26.638  1.00  0.00     0.029 A 
ATOM     49  N   UNL A   1      43.875  27.357  27.445  1.00  0.00    -0.354 N 
ATOM     50  C   UNL A   1      40.439  29.279  29.317  1.00  0.00     0.074 A 
ATOM     51  C   UNL A   1      39.279  28.414  29.263  1.00  0.00     0.031 C 
ATOM     52  C   UNL A   1      44.967  25.680  26.446  1.00  0.00     0.029 A 
ATOM     53  C   UNL A   1      45.112  27.050  26.930  1.00  0.00     0.049 A 
ATOM     54  H   UNL A   1      43.672  28.216  27.881  1.00  0.00     0.167 HD
ATOM     55  C   UNL A   1      40.457  30.506  29.893  1.00  0.00     0.034 A 
ATOM     56  C   UNL A   1      46.227  27.802  26.846  1.00  0.00     0.034 A 
ATOM     57  C   UNL A   1      41.624  31.355  29.915  1.00  0.00     0.049 A 
ATOM     58  C   UNL A   1      46.201  29.196  27.423  1.00  0.00     0.074 A 
ATOM     59  C   UNL A   1      41.767  32.613  30.471  1.00  0.00     0.029 A 
ATOM     60  N   UNL A   1      42.849  31.033  29.340  1.00  0.00    -0.354 N 
ATOM     61  N   UNL A   1      45.216  29.822  28.026  1.00  0.00    -0.248 NA
ATOM     62  C   UNL A   1      47.438  29.979  27.318  1.00  0.00     0.031 C 
ATOM     63  C   UNL A   1      43.051  33.081  30.171  1.00  0.00     0.029 A 
ATOM     64  C   UNL A   1      43.740  32.083  29.497  1.00  0.00     0.049 A 
ATOM     65  H   UNL A   1      43.053  30.183  28.887  1.00  0.00     0.167 HD
ATOM     66  C   UNL A   1      45.725  31.063  28.398  1.00  0.00     0.074 A 
ATOM     67  C   UNL A   1      47.108  31.087  27.965  1.00  0.00     0.031 C 
ATOM     68  C   UNL A   1      45.111  32.089  29.043  1.00  0.00     0.034 A 
BRANCH  55  69
ATOM     69  C   UNL A   1      39.164  31.011  30.489  1.00  0.00     0.023 A 
ATOM     70  C   UNL A   1      38.119  31.504  29.687  1.00  0.00     0.031 A 
ATOM     71  C   UNL A   1      38.990  31.038  31.884  1.00  0.00     0.131 A 
ATOM     72  C   UNL A   1      36.981  32.065  30.285  1.00  0.00     0.055 A 
ATOM     73  C   UNL A   1      37.822  31.526  32.472  1.00  0.00     0.041 A 
ATOM     74  F   UNL A   1      39.962  30.606  32.703  1.00  0.00    -0.206 F 
ATOM     75  C   UNL A   1      36.815  32.059  31.672  1.00  0.00     0.022 A 
BRANCH  72  76
ATOM     76  S   UNL A   1      35.787  32.937  29.234  1.00  0.00     0.124 S 
ATOM     77  O   UNL A   1      34.517  32.555  29.851  1.00  0.00    -0.237 OA
ATOM     78  O   UNL A   1      36.182  34.330  29.395  1.00  0.00    -0.237 OA
ATOM     79  O   UNL A   1      36.020  32.371  27.907  1.00  0.00    -0.744 OA
ENDBRANCH  72  76
ENDBRANCH  55  69
BRANCH  56  80
ATOM     80  C   UNL A   1      47.445  27.273  26.166  1.00  0.00     0.023 A 
ATOM     81  C   UNL A   1      48.412  26.538  26.869  1.00  0.00     0.031 A 
ATOM     82  C   UNL A   1      47.676  27.532  24.803  1.00  0.00     0.131 A 
ATOM     83  C   UNL A   1      49.586  26.126  26.218  1.00  0.00     0.055 A 
ATOM     84  C   UNL A   1      48.820  27.075  24.147  1.00  0.00     0.041 A 
ATOM     85  F   UNL A   1      46.782  28.229  24.082  1.00  0.00    -0.206 F 
ATOM     86  C   UNL A   1      49.790  26.378  24.860  1.00  0.00     0.022 A 
BRANCH  83  87
ATOM     87  S   UNL A   1      50.885  25.322  27.196  1.00  0.00     0.124 S 
ATOM     88  O   UNL A   1      50.142  24.256  27.859  1.00  0.00    -0.237 OA
ATOM     89  O   UNL A   1      51.825  24.903  26.163  1.00  0.00    -0.237 OA
ATOM     90  O   UNL A   1      51.360  26.390  28.073  1.00  0.00    -0.744 OA
ENDBRANCH  83  87
ENDBRANCH  56  80
BRANCH  68  91
ATOM     91  C   UNL A   1      45.955  33.302  29.348  1.00  0.00     0.023 A 
ATOM     92  C   UNL A   1      46.010  34.403  28.476  1.00  0.00     0.031 A 
ATOM     93  C   UNL A   1      46.722  33.350  30.525  1.00  0.00     0.131 A 
ATOM     94  C   UNL A   1      46.860  35.481  28.766  1.00  0.00     0.055 A 
ATOM     95  C   UNL A   1      47.519  34.453  30.839  1.00  0.00     0.041 A 
ATOM     96  F   UNL A   1      46.707  32.325  31.394  1.00  0.00    -0.206 F 
ATOM     97  C   UNL A   1      47.601  35.520  29.950  1.00  0.00     0.022 A 
BRANCH  94  98
ATOM     98  S   UNL A   1      47.058  36.791  27.527  1.00  0.00     0.124 S 
ATOM     99  O   UNL A   1      45.705  36.907  26.990  1.00  0.00    -0.237 OA
ATOM    100  O   UNL A   1      47.523  37.914  28.331  1.00  0.00    -0.237 OA
ATOM    101  O   UNL A   1      48.045  36.240  26.601  1.00  0.00    -0.744 OA
ENDBRANCH  94  98
ENDBRANCH  68  91
ENDBRANCH  42  43
ENDBRANCH  35  37
ENDBRANCH  34  35
ENDBRANCH  33  34
ENDBRANCH  32  33
ENDBRANCH   1  32
TORSDOF 23
ENDMDL
