MODEL 1
REMARK VINA RESULT:     -11.4      0.000      0.000
REMARK SMILES Cc1ccc(C(=O)N[C@@H]2C=C[C@H](C(=O)OCCOCCOC(=O)c3ccc(-c4c5nc(c(-c6cc(S(=O)(=O)[O-])ccc6F)c6ccc([nH]6)c(-c6cc(S(=O)(=O)[O-])ccc6F)c6nc(c(-c7cc(S(=O)(=O)[O-])ccc7F)c7ccc4[nH]7)C=C6)C=C5)cc3)C2)c(F)c1
REMARK SMILES IDX 19 1 18 2 17 3 16 4 15 5 13 6 14 7 12 8 9 9 10 10 87 11
REMARK SMILES IDX 11 12 8 13 6 14 7 15 5 17 1 18 2 19 3 20 90 21 4 22 88 23
REMARK SMILES IDX 89 24 20 25 21 26 22 27 23 28 24 29 25 30 86 31 26 32 85 33
REMARK SMILES IDX 27 34 28 35 29 36 79 37 30 38 84 39 78 40 80 41 31 42 83 43
REMARK SMILES IDX 77 44 76 45 32 47 64 48 44 49 63 50 45 51 48 52 62 53 81 54
REMARK SMILES IDX 46 55 47 56 61 58 82 59 49 60 33 61 34 62 42 63 35 64 41 65
REMARK SMILES IDX 43 66 40 67 36 68 37 69 38 70 39 71 65 72 66 73 74 74 67 75
REMARK SMILES IDX 73 76 75 77 72 78 68 79 69 80 70 81 71 82 50 83 51 84 59 85
REMARK SMILES IDX 52 86 58 87 60 88 57 89 53 90 54 91 55 92 56 93
REMARK H PARENT 8 16 80 46 48 57
REMARK Flexibility Score: inf
ROOT
ATOM      1  C   UNL A   1      35.799  20.476  25.007  1.00  0.00     0.202 C 
ENDROOT
BRANCH   1   2
ATOM      2  O   UNL A   1      35.096  19.301  24.629  1.00  0.00    -0.374 OA
BRANCH   2   3
ATOM      3  C   UNL A   1      33.705  19.242  24.926  1.00  0.00     0.202 C 
BRANCH   3   4
ATOM      4  C   UNL A   1      32.727  20.033  24.046  1.00  0.00     0.261 C 
BRANCH   4   5
ATOM      5  O   UNL A   1      32.675  21.453  24.281  1.00  0.00    -0.463 OA
BRANCH   5   6
ATOM      6  C   UNL A   1      32.941  22.229  23.184  1.00  0.00     0.312 C 
ATOM      7  O   UNL A   1      32.541  21.991  22.051  1.00  0.00    -0.252 OA
BRANCH   6   8
ATOM      8  C   UNL A   1      33.881  23.384  23.536  1.00  0.00     0.124 C 
ATOM      9  C   UNL A   1      33.205  25.147  25.150  1.00  0.00     0.106 C 
ATOM     10  C   UNL A   1      33.017  25.575  23.734  1.00  0.00    -0.006 C 
ATOM     11  C   UNL A   1      33.907  23.783  25.020  1.00  0.00     0.048 C 
ATOM     12  C   UNL A   1      33.417  24.645  22.863  1.00  0.00    -0.014 C 
BRANCH   9  13
ATOM     13  N   UNL A   1      31.918  25.148  25.815  1.00  0.00    -0.346 N 
ATOM     14  C   UNL A   1      31.053  26.173  26.139  1.00  0.00     0.254 C 
ATOM     15  O   UNL A   1      29.912  25.881  26.488  1.00  0.00    -0.269 OA
ATOM     16  H   UNL A   1      31.604  24.255  26.087  1.00  0.00     0.164 HD
BRANCH  14  17
ATOM     17  C   UNL A   1      31.494  27.589  26.164  1.00  0.00     0.075 A 
ATOM     18  C   UNL A   1      31.647  31.871  26.499  1.00  0.00     0.044 C 
ATOM     19  C   UNL A   1      31.735  30.382  26.329  1.00  0.00    -0.048 A 
ATOM     20  C   UNL A   1      32.211  29.569  27.362  1.00  0.00     0.004 A 
ATOM     21  C   UNL A   1      31.308  29.784  25.140  1.00  0.00     0.043 A 
ATOM     22  C   UNL A   1      32.118  28.176  27.267  1.00  0.00     0.017 A 
ATOM     23  C   UNL A   1      31.176  28.396  25.068  1.00  0.00     0.136 A 
ATOM     24  F   UNL A   1      30.602  27.884  23.970  1.00  0.00    -0.206 F 
ENDBRANCH  14  17
ENDBRANCH   9  13
ENDBRANCH   6   8
ENDBRANCH   5   6
ENDBRANCH   4   5
ENDBRANCH   3   4
ENDBRANCH   2   3
ENDBRANCH   1   2
BRANCH   1  25
ATOM     25  C   UNL A   1      37.330  20.433  24.994  1.00  0.00     0.261 C 
BRANCH  25  26
ATOM     26  O   UNL A   1      37.969  21.653  25.370  1.00  0.00    -0.460 OA
BRANCH  26  27
ATOM     27  C   UNL A   1      39.135  21.483  26.038  1.00  0.00     0.338 C 
ATOM     28  O   UNL A   1      39.777  20.457  26.170  1.00  0.00    -0.246 OA
BRANCH  27  29
ATOM     29  C   UNL A   1      39.533  22.772  26.615  1.00  0.00     0.060 A 
ATOM     30  C   UNL A   1      38.941  23.951  26.151  1.00  0.00     0.016 A 
ATOM     31  C   UNL A   1      40.564  22.804  27.555  1.00  0.00     0.016 A 
ATOM     32  C   UNL A   1      39.408  25.180  26.615  1.00  0.00     0.010 A 
ATOM     33  C   UNL A   1      41.020  24.035  28.027  1.00  0.00     0.010 A 
ATOM     34  C   UNL A   1      40.464  25.230  27.538  1.00  0.00    -0.014 A 
BRANCH  34  35
ATOM     35  C   UNL A   1      41.055  26.536  27.915  1.00  0.00     0.031 A 
ATOM     36  C   UNL A   1      42.488  26.824  27.558  1.00  0.00     0.074 A 
ATOM     37  C   UNL A   1      40.309  27.449  28.563  1.00  0.00     0.049 A 
ATOM     38  N   UNL A   1      43.199  27.896  27.790  1.00  0.00    -0.248 NA
ATOM     39  C   UNL A   1      43.216  25.758  26.853  1.00  0.00     0.031 C 
ATOM     40  C   UNL A   1      38.911  27.267  28.954  1.00  0.00     0.029 A 
ATOM     41  N   UNL A   1      40.624  28.705  29.014  1.00  0.00    -0.354 N 
ATOM     42  C   UNL A   1      44.460  27.636  27.264  1.00  0.00     0.074 A 
ATOM     43  C   UNL A   1      44.424  26.290  26.732  1.00  0.00     0.031 C 
ATOM     44  C   UNL A   1      38.491  28.371  29.595  1.00  0.00     0.029 A 
ATOM     45  C   UNL A   1      39.594  29.323  29.684  1.00  0.00     0.049 A 
ATOM     46  H   UNL A   1      41.502  29.124  28.873  1.00  0.00     0.167 HD
ATOM     47  C   UNL A   1      45.543  28.451  27.222  1.00  0.00     0.034 A 
ATOM     48  C   UNL A   1      39.555  30.515  30.312  1.00  0.00     0.034 A 
ATOM     49  C   UNL A   1      45.557  29.788  27.765  1.00  0.00     0.049 A 
ATOM     50  C   UNL A   1      40.783  31.391  30.279  1.00  0.00     0.074 A 
ATOM     51  C   UNL A   1      46.582  30.718  27.742  1.00  0.00     0.029 A 
ATOM     52  N   UNL A   1      44.500  30.381  28.443  1.00  0.00    -0.354 N 
ATOM     53  N   UNL A   1      41.953  31.153  29.729  1.00  0.00    -0.248 NA
ATOM     54  C   UNL A   1      40.680  32.702  30.933  1.00  0.00     0.031 C 
ATOM     55  C   UNL A   1      46.170  31.843  28.464  1.00  0.00     0.029 A 
ATOM     56  C   UNL A   1      44.861  31.648  28.875  1.00  0.00     0.049 A 
ATOM     57  H   UNL A   1      43.623  29.963  28.595  1.00  0.00     0.167 HD
ATOM     58  C   UNL A   1      42.717  32.295  29.953  1.00  0.00     0.074 A 
ATOM     59  C   UNL A   1      41.867  33.228  30.666  1.00  0.00     0.031 C 
ATOM     60  C   UNL A   1      44.002  32.554  29.600  1.00  0.00     0.034 A 
BRANCH  47  61
ATOM     61  C   UNL A   1      46.810  27.898  26.616  1.00  0.00     0.023 A 
ATOM     62  C   UNL A   1      47.094  28.022  25.244  1.00  0.00     0.031 A 
ATOM     63  C   UNL A   1      47.742  27.221  27.422  1.00  0.00     0.131 A 
ATOM     64  C   UNL A   1      48.249  27.427  24.712  1.00  0.00     0.055 A 
ATOM     65  C   UNL A   1      48.924  26.693  26.899  1.00  0.00     0.041 A 
ATOM     66  F   UNL A   1      47.514  27.053  28.735  1.00  0.00    -0.206 F 
ATOM     67  C   UNL A   1      49.177  26.784  25.535  1.00  0.00     0.022 A 
BRANCH  64  68
ATOM     68  S   UNL A   1      48.466  27.403  22.911  1.00  0.00     0.124 S 
ATOM     69  O   UNL A   1      49.779  28.026  22.763  1.00  0.00    -0.237 OA
ATOM     70  O   UNL A   1      48.396  25.980  22.604  1.00  0.00    -0.237 OA
ATOM     71  O   UNL A   1      47.346  28.203  22.420  1.00  0.00    -0.744 OA
ENDBRANCH  64  68
ENDBRANCH  47  61
BRANCH  48  72
ATOM     72  C   UNL A   1      38.331  30.940  31.052  1.00  0.00     0.023 A 
ATOM     73  C   UNL A   1      37.288  31.625  30.412  1.00  0.00     0.031 A 
ATOM     74  C   UNL A   1      38.214  30.704  32.435  1.00  0.00     0.131 A 
ATOM     75  C   UNL A   1      36.194  32.091  31.159  1.00  0.00     0.055 A 
ATOM     76  C   UNL A   1      37.100  31.125  33.165  1.00  0.00     0.041 A 
ATOM     77  F   UNL A   1      39.181  30.049  33.097  1.00  0.00    -0.206 F 
ATOM     78  C   UNL A   1      36.088  31.835  32.528  1.00  0.00     0.022 A 
BRANCH  75  79
ATOM     79  S   UNL A   1      34.948  33.117  30.330  1.00  0.00     0.124 S 
ATOM     80  O   UNL A   1      34.345  32.165  29.404  1.00  0.00    -0.237 OA
ATOM     81  O   UNL A   1      34.114  33.539  31.451  1.00  0.00    -0.237 OA
ATOM     82  O   UNL A   1      35.739  34.177  29.710  1.00  0.00    -0.744 OA
ENDBRANCH  75  79
ENDBRANCH  48  72
BRANCH  60  83
ATOM     83  C   UNL A   1      44.544  33.916  29.960  1.00  0.00     0.023 A 
ATOM     84  C   UNL A   1      44.366  35.027  29.116  1.00  0.00     0.031 A 
ATOM     85  C   UNL A   1      45.266  34.099  31.153  1.00  0.00     0.131 A 
ATOM     86  C   UNL A   1      44.954  36.256  29.446  1.00  0.00     0.055 A 
ATOM     87  C   UNL A   1      45.797  35.340  31.506  1.00  0.00     0.041 A 
ATOM     88  F   UNL A   1      45.466  33.073  31.994  1.00  0.00    -0.206 F 
ATOM     89  C   UNL A   1      45.656  36.424  30.643  1.00  0.00     0.022 A 
BRANCH  86  90
ATOM     90  S   UNL A   1      44.873  37.610  28.243  1.00  0.00     0.124 S 
ATOM     91  O   UNL A   1      46.260  38.065  28.205  1.00  0.00    -0.237 OA
ATOM     92  O   UNL A   1      44.392  36.933  27.042  1.00  0.00    -0.237 OA
ATOM     93  O   UNL A   1      43.929  38.550  28.845  1.00  0.00    -0.744 OA
ENDBRANCH  86  90
ENDBRANCH  60  83
ENDBRANCH  34  35
ENDBRANCH  27  29
ENDBRANCH  26  27
ENDBRANCH  25  26
ENDBRANCH   1  25
TORSDOF 19
ENDMDL
MODEL 2
REMARK VINA RESULT:     -11.2      4.829     10.240
REMARK SMILES Cc1ccc(C(=O)N[C@@H]2C=C[C@H](C(=O)OCCOCCOC(=O)c3ccc(-c4c5nc(c(-c6cc(S(=O)(=O)[O-])ccc6F)c6ccc([nH]6)c(-c6cc(S(=O)(=O)[O-])ccc6F)c6nc(c(-c7cc(S(=O)(=O)[O-])ccc7F)c7ccc4[nH]7)C=C6)C=C5)cc3)C2)c(F)c1
REMARK SMILES IDX 19 1 18 2 17 3 16 4 15 5 13 6 14 7 12 8 9 9 10 10 87 11
REMARK SMILES IDX 11 12 8 13 6 14 7 15 5 17 1 18 2 19 3 20 90 21 4 22 88 23
REMARK SMILES IDX 89 24 20 25 21 26 22 27 23 28 24 29 25 30 86 31 26 32 85 33
REMARK SMILES IDX 27 34 28 35 29 36 79 37 30 38 84 39 78 40 80 41 31 42 83 43
REMARK SMILES IDX 77 44 76 45 32 47 64 48 44 49 63 50 45 51 48 52 62 53 81 54
REMARK SMILES IDX 46 55 47 56 61 58 82 59 49 60 33 61 34 62 42 63 35 64 41 65
REMARK SMILES IDX 43 66 40 67 36 68 37 69 38 70 39 71 65 72 66 73 74 74 67 75
REMARK SMILES IDX 73 76 75 77 72 78 68 79 69 80 70 81 71 82 50 83 51 84 59 85
REMARK SMILES IDX 52 86 58 87 60 88 57 89 53 90 54 91 55 92 56 93
REMARK H PARENT 8 16 80 46 48 57
REMARK Flexibility Score: inf
ROOT
ATOM      1  C   UNL A   1      31.414  29.580  25.428  1.00  0.00     0.202 C 
ENDROOT
BRANCH   1   2
ATOM      2  O   UNL A   1      31.643  29.330  24.048  1.00  0.00    -0.374 OA
BRANCH   2   3
ATOM      3  C   UNL A   1      30.514  29.336  23.181  1.00  0.00     0.202 C 
BRANCH   3   4
ATOM      4  C   UNL A   1      29.841  27.999  22.836  1.00  0.00     0.261 C 
BRANCH   4   5
ATOM      5  O   UNL A   1      30.432  26.825  23.424  1.00  0.00    -0.463 OA
BRANCH   5   6
ATOM      6  C   UNL A   1      29.764  26.327  24.510  1.00  0.00     0.312 C 
ATOM      7  O   UNL A   1      28.546  26.335  24.641  1.00  0.00    -0.252 OA
BRANCH   6   8
ATOM      8  C   UNL A   1      30.737  25.840  25.585  1.00  0.00     0.124 C 
ATOM      9  C   UNL A   1      32.835  24.655  24.981  1.00  0.00     0.106 C 
ATOM     10  C   UNL A   1      31.747  23.714  25.371  1.00  0.00    -0.006 C 
ATOM     11  C   UNL A   1      32.227  26.040  25.265  1.00  0.00     0.048 C 
ATOM     12  C   UNL A   1      30.630  24.348  25.736  1.00  0.00    -0.014 C 
BRANCH   9  13
ATOM     13  N   UNL A   1      33.217  24.388  23.609  1.00  0.00    -0.346 N 
ATOM     14  C   UNL A   1      34.073  23.457  23.059  1.00  0.00     0.254 C 
ATOM     15  O   UNL A   1      34.037  23.282  21.843  1.00  0.00    -0.269 OA
ATOM     16  H   UNL A   1      32.787  24.979  22.949  1.00  0.00     0.164 HD
BRANCH  14  17
ATOM     17  C   UNL A   1      35.084  22.746  23.877  1.00  0.00     0.075 A 
ATOM     18  C   UNL A   1      38.099  20.027  25.289  1.00  0.00     0.044 C 
ATOM     19  C   UNL A   1      37.039  21.030  24.937  1.00  0.00    -0.048 A 
ATOM     20  C   UNL A   1      37.382  22.318  24.515  1.00  0.00     0.004 A 
ATOM     21  C   UNL A   1      35.688  20.676  24.997  1.00  0.00     0.043 A 
ATOM     22  C   UNL A   1      36.403  23.183  24.014  1.00  0.00     0.017 A 
ATOM     23  C   UNL A   1      34.722  21.525  24.455  1.00  0.00     0.136 A 
ATOM     24  F   UNL A   1      33.464  21.067  24.382  1.00  0.00    -0.206 F 
ENDBRANCH  14  17
ENDBRANCH   9  13
ENDBRANCH   6   8
ENDBRANCH   5   6
ENDBRANCH   4   5
ENDBRANCH   3   4
ENDBRANCH   2   3
ENDBRANCH   1   2
BRANCH   1  25
ATOM     25  C   UNL A   1      31.780  30.960  25.979  1.00  0.00     0.261 C 
BRANCH  25  26
ATOM     26  O   UNL A   1      32.445  30.947  27.243  1.00  0.00    -0.460 OA
BRANCH  26  27
ATOM     27  C   UNL A   1      33.285  31.990  27.436  1.00  0.00     0.338 C 
ATOM     28  O   UNL A   1      33.066  33.172  27.243  1.00  0.00    -0.246 OA
BRANCH  27  29
ATOM     29  C   UNL A   1      34.565  31.471  27.931  1.00  0.00     0.060 A 
ATOM     30  C   UNL A   1      34.708  30.102  28.178  1.00  0.00     0.016 A 
ATOM     31  C   UNL A   1      35.590  32.369  28.233  1.00  0.00     0.016 A 
ATOM     32  C   UNL A   1      35.883  29.630  28.762  1.00  0.00     0.010 A 
ATOM     33  C   UNL A   1      36.770  31.892  28.804  1.00  0.00     0.010 A 
ATOM     34  C   UNL A   1      36.911  30.525  29.098  1.00  0.00    -0.014 A 
BRANCH  34  35
ATOM     35  C   UNL A   1      38.093  30.043  29.851  1.00  0.00     0.031 A 
ATOM     36  C   UNL A   1      38.326  30.541  31.252  1.00  0.00     0.074 A 
ATOM     37  C   UNL A   1      38.940  29.166  29.283  1.00  0.00     0.049 A 
ATOM     38  N   UNL A   1      39.290  30.250  32.085  1.00  0.00    -0.248 NA
ATOM     39  C   UNL A   1      37.343  31.501  31.779  1.00  0.00     0.031 C 
ATOM     40  C   UNL A   1      38.803  28.621  27.931  1.00  0.00     0.029 A 
ATOM     41  N   UNL A   1      40.085  28.585  29.765  1.00  0.00    -0.354 N 
ATOM     42  C   UNL A   1      39.036  30.991  33.234  1.00  0.00     0.074 A 
ATOM     43  C   UNL A   1      37.845  31.772  32.975  1.00  0.00     0.031 C 
ATOM     44  C   UNL A   1      39.832  27.791  27.690  1.00  0.00     0.029 A 
ATOM     45  C   UNL A   1      40.712  27.766  28.855  1.00  0.00     0.049 A 
ATOM     46  H   UNL A   1      40.426  28.740  30.675  1.00  0.00     0.167 HD
ATOM     47  C   UNL A   1      39.730  31.010  34.398  1.00  0.00     0.034 A 
ATOM     48  C   UNL A   1      41.874  27.088  28.949  1.00  0.00     0.034 A 
ATOM     49  C   UNL A   1      40.920  30.227  34.631  1.00  0.00     0.049 A 
ATOM     50  C   UNL A   1      42.644  27.149  30.245  1.00  0.00     0.074 A 
ATOM     51  C   UNL A   1      41.680  30.133  35.784  1.00  0.00     0.029 A 
ATOM     52  N   UNL A   1      41.532  29.413  33.686  1.00  0.00    -0.354 N 
ATOM     53  N   UNL A   1      42.362  27.813  31.343  1.00  0.00    -0.248 NA
ATOM     54  C   UNL A   1      43.878  26.357  30.320  1.00  0.00     0.031 C 
ATOM     55  C   UNL A   1      42.786  29.321  35.516  1.00  0.00     0.029 A 
ATOM     56  C   UNL A   1      42.679  28.845  34.218  1.00  0.00     0.049 A 
ATOM     57  H   UNL A   1      41.201  29.262  32.773  1.00  0.00     0.167 HD
ATOM     58  C   UNL A   1      43.372  27.499  32.247  1.00  0.00     0.074 A 
ATOM     59  C   UNL A   1      44.256  26.569  31.573  1.00  0.00     0.031 C 
ATOM     60  C   UNL A   1      43.556  27.933  33.520  1.00  0.00     0.034 A 
BRANCH  47  61
ATOM     61  C   UNL A   1      39.248  31.941  35.484  1.00  0.00     0.023 A 
ATOM     62  C   UNL A   1      39.717  33.262  35.594  1.00  0.00     0.031 A 
ATOM     63  C   UNL A   1      38.315  31.493  36.436  1.00  0.00     0.131 A 
ATOM     64  C   UNL A   1      39.296  34.068  36.663  1.00  0.00     0.055 A 
ATOM     65  C   UNL A   1      37.846  32.323  37.457  1.00  0.00     0.041 A 
ATOM     66  F   UNL A   1      37.849  30.235  36.394  1.00  0.00    -0.206 F 
ATOM     67  C   UNL A   1      38.346  33.614  37.582  1.00  0.00     0.022 A 
BRANCH  64  68
ATOM     68  S   UNL A   1      40.094  35.678  36.908  1.00  0.00     0.124 S 
ATOM     69  O   UNL A   1      39.529  36.097  38.188  1.00  0.00    -0.237 OA
ATOM     70  O   UNL A   1      41.511  35.330  36.918  1.00  0.00    -0.237 OA
ATOM     71  O   UNL A   1      39.653  36.460  35.754  1.00  0.00    -0.744 OA
ENDBRANCH  64  68
ENDBRANCH  47  61
BRANCH  48  72
ATOM     72  C   UNL A   1      42.398  26.323  27.781  1.00  0.00     0.023 A 
ATOM     73  C   UNL A   1      41.983  25.009  27.520  1.00  0.00     0.031 A 
ATOM     74  C   UNL A   1      43.369  26.888  26.933  1.00  0.00     0.131 A 
ATOM     75  C   UNL A   1      42.568  24.286  26.466  1.00  0.00     0.055 A 
ATOM     76  C   UNL A   1      43.910  26.185  25.856  1.00  0.00     0.041 A 
ATOM     77  F   UNL A   1      43.799  28.145  27.135  1.00  0.00    -0.206 F 
ATOM     78  C   UNL A   1      43.520  24.870  25.627  1.00  0.00     0.022 A 
BRANCH  75  79
ATOM     79  S   UNL A   1      42.131  22.538  26.263  1.00  0.00     0.124 S 
ATOM     80  O   UNL A   1      40.673  22.596  26.233  1.00  0.00    -0.237 OA
ATOM     81  O   UNL A   1      42.786  22.209  25.001  1.00  0.00    -0.237 OA
ATOM     82  O   UNL A   1      42.706  21.903  27.446  1.00  0.00    -0.744 OA
ENDBRANCH  75  79
ENDBRANCH  48  72
BRANCH  60  83
ATOM     83  C   UNL A   1      44.744  27.376  34.265  1.00  0.00     0.023 A 
ATOM     84  C   UNL A   1      44.645  26.208  35.042  1.00  0.00     0.031 A 
ATOM     85  C   UNL A   1      45.985  28.034  34.213  1.00  0.00     0.131 A 
ATOM     86  C   UNL A   1      45.750  25.766  35.784  1.00  0.00     0.055 A 
ATOM     87  C   UNL A   1      47.099  27.556  34.905  1.00  0.00     0.041 A 
ATOM     88  F   UNL A   1      46.135  29.153  33.488  1.00  0.00    -0.206 F 
ATOM     89  C   UNL A   1      46.981  26.425  35.708  1.00  0.00     0.022 A 
BRANCH  86  90
ATOM     90  S   UNL A   1      45.532  24.376  36.927  1.00  0.00     0.124 S 
ATOM     91  O   UNL A   1      44.648  23.496  36.168  1.00  0.00    -0.237 OA
ATOM     92  O   UNL A   1      46.901  23.902  37.106  1.00  0.00    -0.237 OA
ATOM     93  O   UNL A   1      44.930  24.992  38.107  1.00  0.00    -0.744 OA
ENDBRANCH  86  90
ENDBRANCH  60  83
ENDBRANCH  34  35
ENDBRANCH  27  29
ENDBRANCH  26  27
ENDBRANCH  25  26
ENDBRANCH   1  25
TORSDOF 19
ENDMDL
MODEL 3
REMARK VINA RESULT:     -11.2      1.465      1.980
REMARK SMILES Cc1ccc(C(=O)N[C@@H]2C=C[C@H](C(=O)OCCOCCOC(=O)c3ccc(-c4c5nc(c(-c6cc(S(=O)(=O)[O-])ccc6F)c6ccc([nH]6)c(-c6cc(S(=O)(=O)[O-])ccc6F)c6nc(c(-c7cc(S(=O)(=O)[O-])ccc7F)c7ccc4[nH]7)C=C6)C=C5)cc3)C2)c(F)c1
REMARK SMILES IDX 19 1 18 2 17 3 16 4 15 5 13 6 14 7 12 8 9 9 10 10 87 11
REMARK SMILES IDX 11 12 8 13 6 14 7 15 5 17 1 18 2 19 3 20 90 21 4 22 88 23
REMARK SMILES IDX 89 24 20 25 21 26 22 27 23 28 24 29 25 30 86 31 26 32 85 33
REMARK SMILES IDX 27 34 28 35 29 36 79 37 30 38 84 39 78 40 80 41 31 42 83 43
REMARK SMILES IDX 77 44 76 45 32 47 64 48 44 49 63 50 45 51 48 52 62 53 81 54
REMARK SMILES IDX 46 55 47 56 61 58 82 59 49 60 33 61 34 62 42 63 35 64 41 65
REMARK SMILES IDX 43 66 40 67 36 68 37 69 38 70 39 71 65 72 66 73 74 74 67 75
REMARK SMILES IDX 73 76 75 77 72 78 68 79 69 80 70 81 71 82 50 83 51 84 59 85
REMARK SMILES IDX 52 86 58 87 60 88 57 89 53 90 54 91 55 92 56 93
REMARK H PARENT 8 16 80 46 48 57
REMARK Flexibility Score: inf
ROOT
ATOM      1  C   UNL A   1      36.059  20.390  25.042  1.00  0.00     0.202 C 
ENDROOT
BRANCH   1   2
ATOM      2  O   UNL A   1      34.927  21.034  24.473  1.00  0.00    -0.374 OA
BRANCH   2   3
ATOM      3  C   UNL A   1      33.646  20.700  24.998  1.00  0.00     0.202 C 
BRANCH   3   4
ATOM      4  C   UNL A   1      32.502  21.713  24.853  1.00  0.00     0.261 C 
BRANCH   4   5
ATOM      5  O   UNL A   1      32.892  23.096  24.762  1.00  0.00    -0.463 OA
BRANCH   5   6
ATOM      6  C   UNL A   1      33.061  23.727  25.966  1.00  0.00     0.312 C 
ATOM      7  O   UNL A   1      34.106  23.738  26.604  1.00  0.00    -0.252 OA
BRANCH   6   8
ATOM      8  C   UNL A   1      31.748  24.339  26.460  1.00  0.00     0.124 C 
ATOM      9  C   UNL A   1      30.278  25.636  24.935  1.00  0.00     0.106 C 
ATOM     10  C   UNL A   1      31.142  26.517  25.772  1.00  0.00    -0.006 C 
ATOM     11  C   UNL A   1      30.563  24.228  25.488  1.00  0.00     0.048 C 
ATOM     12  C   UNL A   1      31.905  25.824  26.623  1.00  0.00    -0.014 C 
BRANCH   9  13
ATOM     13  N   UNL A   1      30.597  25.856  23.539  1.00  0.00    -0.346 N 
ATOM     14  C   UNL A   1      30.513  26.981  22.744  1.00  0.00     0.254 C 
ATOM     15  O   UNL A   1      31.074  26.962  21.652  1.00  0.00    -0.269 OA
ATOM     16  H   UNL A   1      30.936  25.058  23.073  1.00  0.00     0.164 HD
BRANCH  14  17
ATOM     17  C   UNL A   1      29.693  28.153  23.134  1.00  0.00     0.075 A 
ATOM     18  C   UNL A   1      27.678  31.948  23.228  1.00  0.00     0.044 C 
ATOM     19  C   UNL A   1      28.340  30.606  23.340  1.00  0.00    -0.048 A 
ATOM     20  C   UNL A   1      27.638  29.433  23.044  1.00  0.00     0.004 A 
ATOM     21  C   UNL A   1      29.685  30.513  23.712  1.00  0.00     0.043 A 
ATOM     22  C   UNL A   1      28.307  28.207  22.971  1.00  0.00     0.017 A 
ATOM     23  C   UNL A   1      30.356  29.295  23.594  1.00  0.00     0.136 A 
ATOM     24  F   UNL A   1      31.681  29.296  23.798  1.00  0.00    -0.206 F 
ENDBRANCH  14  17
ENDBRANCH   9  13
ENDBRANCH   6   8
ENDBRANCH   5   6
ENDBRANCH   4   5
ENDBRANCH   3   4
ENDBRANCH   2   3
ENDBRANCH   1   2
BRANCH   1  25
ATOM     25  C   UNL A   1      37.058  21.251  25.820  1.00  0.00     0.261 C 
BRANCH  25  26
ATOM     26  O   UNL A   1      38.348  21.367  25.218  1.00  0.00    -0.460 OA
BRANCH  26  27
ATOM     27  C   UNL A   1      39.378  21.196  26.080  1.00  0.00     0.338 C 
ATOM     28  O   UNL A   1      39.914  20.152  26.405  1.00  0.00    -0.246 OA
BRANCH  27  29
ATOM     29  C   UNL A   1      39.773  22.510  26.600  1.00  0.00     0.060 A 
ATOM     30  C   UNL A   1      39.195  23.667  26.067  1.00  0.00     0.016 A 
ATOM     31  C   UNL A   1      40.787  22.584  27.555  1.00  0.00     0.016 A 
ATOM     32  C   UNL A   1      39.661  24.915  26.478  1.00  0.00     0.010 A 
ATOM     33  C   UNL A   1      41.241  23.835  27.974  1.00  0.00     0.010 A 
ATOM     34  C   UNL A   1      40.701  25.006  27.416  1.00  0.00    -0.014 A 
BRANCH  34  35
ATOM     35  C   UNL A   1      41.293  26.327  27.738  1.00  0.00     0.031 A 
ATOM     36  C   UNL A   1      42.670  26.658  27.232  1.00  0.00     0.074 A 
ATOM     37  C   UNL A   1      40.596  27.214  28.471  1.00  0.00     0.049 A 
ATOM     38  N   UNL A   1      43.372  27.749  27.395  1.00  0.00    -0.248 NA
ATOM     39  C   UNL A   1      43.348  25.617  26.444  1.00  0.00     0.031 C 
ATOM     40  C   UNL A   1      39.253  26.991  29.008  1.00  0.00     0.029 A 
ATOM     41  N   UNL A   1      40.922  28.476  28.896  1.00  0.00    -0.354 N 
ATOM     42  C   UNL A   1      44.576  27.527  26.734  1.00  0.00     0.074 A 
ATOM     43  C   UNL A   1      44.520  26.184  26.198  1.00  0.00     0.031 C 
ATOM     44  C   UNL A   1      38.874  28.078  29.700  1.00  0.00     0.029 A 
ATOM     45  C   UNL A   1      39.953  29.061  29.678  1.00  0.00     0.049 A 
ATOM     46  H   UNL A   1      41.768  28.922  28.664  1.00  0.00     0.167 HD
ATOM     47  C   UNL A   1      45.625  28.373  26.583  1.00  0.00     0.034 A 
ATOM     48  C   UNL A   1      39.949  30.249  30.317  1.00  0.00     0.034 A 
ATOM     49  C   UNL A   1      45.660  29.707  27.132  1.00  0.00     0.049 A 
ATOM     50  C   UNL A   1      41.142  31.160  30.158  1.00  0.00     0.074 A 
ATOM     51  C   UNL A   1      46.650  30.666  27.007  1.00  0.00     0.029 A 
ATOM     52  N   UNL A   1      44.666  30.266  27.925  1.00  0.00    -0.354 N 
ATOM     53  N   UNL A   1      42.252  30.958  29.484  1.00  0.00    -0.248 NA
ATOM     54  C   UNL A   1      41.074  32.463  30.831  1.00  0.00     0.031 C 
ATOM     55  C   UNL A   1      46.287  31.775  27.779  1.00  0.00     0.029 A 
ATOM     56  C   UNL A   1      45.035  31.540  28.326  1.00  0.00     0.049 A 
ATOM     57  H   UNL A   1      43.822  29.822  28.167  1.00  0.00     0.167 HD
ATOM     58  C   UNL A   1      43.003  32.120  29.634  1.00  0.00     0.074 A 
ATOM     59  C   UNL A   1      42.210  33.024  30.442  1.00  0.00     0.031 C 
ATOM     60  C   UNL A   1      44.235  32.418  29.148  1.00  0.00     0.034 A 
BRANCH  47  61
ATOM     61  C   UNL A   1      46.834  27.860  25.839  1.00  0.00     0.023 A 
ATOM     62  C   UNL A   1      47.043  28.139  24.477  1.00  0.00     0.031 A 
ATOM     63  C   UNL A   1      47.785  27.063  26.501  1.00  0.00     0.131 A 
ATOM     64  C   UNL A   1      48.144  27.580  23.809  1.00  0.00     0.055 A 
ATOM     65  C   UNL A   1      48.915  26.567  25.848  1.00  0.00     0.041 A 
ATOM     66  F   UNL A   1      47.626  26.745  27.796  1.00  0.00    -0.206 F 
ATOM     67  C   UNL A   1      49.093  26.815  24.491  1.00  0.00     0.022 A 
BRANCH  64  68
ATOM     68  S   UNL A   1      48.257  27.766  22.008  1.00  0.00     0.124 S 
ATOM     69  O   UNL A   1      49.383  28.687  21.876  1.00  0.00    -0.237 OA
ATOM     70  O   UNL A   1      48.495  26.398  21.563  1.00  0.00    -0.237 OA
ATOM     71  O   UNL A   1      46.958  28.325  21.639  1.00  0.00    -0.744 OA
ENDBRANCH  64  68
ENDBRANCH  47  61
BRANCH  48  72
ATOM     72  C   UNL A   1      38.801  30.634  31.187  1.00  0.00     0.023 A 
ATOM     73  C   UNL A   1      37.681  31.303  30.671  1.00  0.00     0.031 A 
ATOM     74  C   UNL A   1      38.835  30.377  32.570  1.00  0.00     0.131 A 
ATOM     75  C   UNL A   1      36.662  31.733  31.536  1.00  0.00     0.055 A 
ATOM     76  C   UNL A   1      37.795  30.761  33.420  1.00  0.00     0.041 A 
ATOM     77  F   UNL A   1      39.880  29.735  33.117  1.00  0.00    -0.206 F 
ATOM     78  C   UNL A   1      36.706  31.456  32.904  1.00  0.00     0.022 A 
BRANCH  75  79
ATOM     79  S   UNL A   1      35.314  32.741  30.859  1.00  0.00     0.124 S 
ATOM     80  O   UNL A   1      35.904  34.075  30.869  1.00  0.00    -0.237 OA
ATOM     81  O   UNL A   1      35.118  32.136  29.545  1.00  0.00    -0.237 OA
ATOM     82  O   UNL A   1      34.224  32.533  31.809  1.00  0.00    -0.744 OA
ENDBRANCH  75  79
ENDBRANCH  48  72
BRANCH  60  83
ATOM     83  C   UNL A   1      44.774  33.793  29.458  1.00  0.00     0.023 A 
ATOM     84  C   UNL A   1      44.499  34.896  28.632  1.00  0.00     0.031 A 
ATOM     85  C   UNL A   1      45.592  33.995  30.584  1.00  0.00     0.131 A 
ATOM     86  C   UNL A   1      45.084  36.140  28.909  1.00  0.00     0.055 A 
ATOM     87  C   UNL A   1      46.123  35.249  30.889  1.00  0.00     0.041 A 
ATOM     88  F   UNL A   1      45.888  32.976  31.406  1.00  0.00    -0.206 F 
ATOM     89  C   UNL A   1      45.883  36.327  30.041  1.00  0.00     0.022 A 
BRANCH  86  90
ATOM     90  S   UNL A   1      44.869  37.489  27.716  1.00  0.00     0.124 S 
ATOM     91  O   UNL A   1      46.143  37.468  27.003  1.00  0.00    -0.237 OA
ATOM     92  O   UNL A   1      43.705  37.049  26.954  1.00  0.00    -0.237 OA
ATOM     93  O   UNL A   1      44.650  38.662  28.560  1.00  0.00    -0.744 OA
ENDBRANCH  86  90
ENDBRANCH  60  83
ENDBRANCH  34  35
ENDBRANCH  27  29
ENDBRANCH  26  27
ENDBRANCH  25  26
ENDBRANCH   1  25
TORSDOF 19
ENDMDL
