MODEL 1
REMARK VINA RESULT:     -12.6      0.000      0.000
REMARK SMILES Cc1ccc(-c2cc([C@@H](C)C(=O)OCCOCCOC(=O)c3ccc(-c4c5nc(c(-c6cc(S(=O)(=O)[O-])ccc6F)c6ccc([nH]6)c(-c6cc(S(=O)(=O)[O-])ccc6F)c6nc(c(-c7cc(S(=O)(=O)[O-])ccc7F)c7ccc4[nH]7)C=C6)C=C5)cc3)ccc2C[C@H]2CCCC2=O)cc1
REMARK SMILES IDX 16 1 15 2 14 3 13 4 11 5 12 6 9 7 10 8 8 9 6 10 7 11 87 12
REMARK SMILES IDX 86 13 85 14 5 15 1 16 2 17 3 18 96 19 4 20 95 21 88 22 89 23
REMARK SMILES IDX 90 24 93 25 91 26 92 27 94 28 17 29 18 30 19 31 20 32 21 33
REMARK SMILES IDX 22 34 23 35 84 36 24 37 83 38 25 39 26 40 27 41 77 42 28 43
REMARK SMILES IDX 82 44 76 45 78 46 29 47 81 48 75 49 74 50 30 52 62 53 42 54
REMARK SMILES IDX 61 55 43 56 46 57 60 58 79 59 44 60 45 61 59 63 80 64 47 65
REMARK SMILES IDX 31 66 32 67 40 68 33 69 39 70 41 71 38 72 34 73 35 74 36 75
REMARK SMILES IDX 37 76 63 77 64 78 72 79 65 80 71 81 73 82 70 83 66 84 67 85
REMARK SMILES IDX 68 86 69 87 48 88 49 89 57 90 50 91 56 92 58 93 55 94 51 95
REMARK SMILES IDX 52 96 53 97 54 98
REMARK H PARENT 78 51 46 62
REMARK Flexibility Score: inf
ROOT
ATOM      1  O   UNL A   1      32.788  29.715  24.986  1.00  0.00    -0.374 OA
ENDROOT
BRANCH   1   2
ATOM      2  C   UNL A   1      31.369  29.681  25.114  1.00  0.00     0.202 C 
BRANCH   2   3
ATOM      3  C   UNL A   1      30.811  29.472  23.741  1.00  0.00     0.261 C 
BRANCH   3   4
ATOM      4  O   UNL A   1      29.935  28.349  23.621  1.00  0.00    -0.463 OA
BRANCH   4   5
ATOM      5  C   UNL A   1      30.421  27.211  23.044  1.00  0.00     0.313 C 
ATOM      6  O   UNL A   1      31.386  27.127  22.314  1.00  0.00    -0.252 OA
BRANCH   5   7
ATOM      7  C   UNL A   1      29.597  26.023  23.543  1.00  0.00     0.126 C 
ATOM      8  C   UNL A   1      28.277  26.482  24.151  1.00  0.00     0.025 C 
BRANCH   7   9
ATOM      9  C   UNL A   1      30.462  25.163  24.465  1.00  0.00    -0.033 A 
ATOM     10  C   UNL A   1      31.848  23.162  24.757  1.00  0.00    -0.015 A 
ATOM     11  C   UNL A   1      30.894  23.906  24.031  1.00  0.00     0.013 A 
ATOM     12  C   UNL A   1      32.465  23.736  25.899  1.00  0.00    -0.039 A 
ATOM     13  C   UNL A   1      32.026  24.996  26.329  1.00  0.00     0.004 A 
ATOM     14  C   UNL A   1      31.006  25.671  25.656  1.00  0.00     0.005 A 
BRANCH  10  15
ATOM     15  C   UNL A   1      32.050  21.764  24.359  1.00  0.00    -0.018 A 
ATOM     16  C   UNL A   1      32.764  17.734  22.993  1.00  0.00     0.044 C 
ATOM     17  C   UNL A   1      32.528  19.128  23.485  1.00  0.00    -0.051 A 
ATOM     18  C   UNL A   1      32.397  20.165  22.558  1.00  0.00     0.004 A 
ATOM     19  C   UNL A   1      32.434  19.417  24.853  1.00  0.00     0.004 A 
ATOM     20  C   UNL A   1      32.174  21.466  22.993  1.00  0.00     0.009 A 
ATOM     21  C   UNL A   1      32.198  20.726  25.287  1.00  0.00     0.009 A 
ENDBRANCH  10  15
BRANCH  12  22
ATOM     22  C   UNL A   1      33.491  23.012  26.749  1.00  0.00     0.047 C 
BRANCH  22  23
ATOM     23  C   UNL A   1      34.950  22.905  26.301  1.00  0.00     0.060 C 
ATOM     24  C   UNL A   1      35.508  21.543  25.889  1.00  0.00     0.012 C 
ATOM     25  C   UNL A   1      35.343  23.805  25.147  1.00  0.00     0.136 C 
ATOM     26  C   UNL A   1      35.749  21.632  24.388  1.00  0.00     0.009 C 
ATOM     27  C   UNL A   1      36.153  23.070  24.114  1.00  0.00     0.076 C 
ATOM     28  O   UNL A   1      35.170  25.018  25.161  1.00  0.00    -0.299 OA
ENDBRANCH  22  23
ENDBRANCH  12  22
ENDBRANCH   7   9
ENDBRANCH   5   7
ENDBRANCH   4   5
ENDBRANCH   3   4
ENDBRANCH   2   3
ENDBRANCH   1   2
BRANCH   1  29
ATOM     29  C   UNL A   1      33.502  29.517  26.188  1.00  0.00     0.202 C 
BRANCH  29  30
ATOM     30  C   UNL A   1      33.254  30.602  27.248  1.00  0.00     0.261 C 
BRANCH  30  31
ATOM     31  O   UNL A   1      34.404  31.465  27.370  1.00  0.00    -0.460 OA
BRANCH  31  32
ATOM     32  C   UNL A   1      35.002  31.480  28.594  1.00  0.00     0.338 C 
ATOM     33  O   UNL A   1      34.815  32.334  29.452  1.00  0.00    -0.246 OA
BRANCH  32  34
ATOM     34  C   UNL A   1      36.020  30.394  28.678  1.00  0.00     0.060 A 
ATOM     35  C   UNL A   1      36.235  29.690  29.880  1.00  0.00     0.016 A 
ATOM     36  C   UNL A   1      36.938  30.281  27.640  1.00  0.00     0.016 A 
ATOM     37  C   UNL A   1      37.438  28.992  30.087  1.00  0.00     0.010 A 
ATOM     38  C   UNL A   1      38.161  29.705  27.898  1.00  0.00     0.010 A 
ATOM     39  C   UNL A   1      38.439  29.067  29.121  1.00  0.00    -0.014 A 
BRANCH  39  40
ATOM     40  C   UNL A   1      39.848  28.678  29.274  1.00  0.00     0.031 A 
ATOM     41  C   UNL A   1      40.234  27.293  28.919  1.00  0.00     0.074 A 
ATOM     42  C   UNL A   1      40.829  29.610  29.372  1.00  0.00     0.049 A 
ATOM     43  N   UNL A   1      41.405  26.796  29.108  1.00  0.00    -0.248 NA
ATOM     44  C   UNL A   1      39.313  26.339  28.312  1.00  0.00     0.031 C 
ATOM     45  C   UNL A   1      42.218  29.509  28.916  1.00  0.00     0.029 A 
ATOM     46  N   UNL A   1      40.787  30.874  29.962  1.00  0.00    -0.354 N 
ATOM     47  C   UNL A   1      41.501  25.655  28.348  1.00  0.00     0.074 A 
ATOM     48  C   UNL A   1      40.152  25.378  27.924  1.00  0.00     0.031 C 
ATOM     49  C   UNL A   1      42.938  30.508  29.452  1.00  0.00     0.029 A 
ATOM     50  C   UNL A   1      42.082  31.193  30.399  1.00  0.00     0.049 A 
ATOM     51  H   UNL A   1      39.989  31.443  30.055  1.00  0.00     0.167 HD
ATOM     52  C   UNL A   1      42.739  25.164  28.059  1.00  0.00     0.034 A 
ATOM     53  C   UNL A   1      42.312  31.467  31.708  1.00  0.00     0.034 A 
ATOM     54  C   UNL A   1      43.796  25.983  28.685  1.00  0.00     0.049 A 
ATOM     55  C   UNL A   1      43.223  30.420  32.288  1.00  0.00     0.074 A 
ATOM     56  C   UNL A   1      44.719  26.901  28.209  1.00  0.00     0.029 A 
ATOM     57  N   UNL A   1      43.796  26.146  30.068  1.00  0.00    -0.354 N 
ATOM     58  N   UNL A   1      43.677  29.404  31.607  1.00  0.00    -0.248 NA
ATOM     59  C   UNL A   1      43.666  30.398  33.669  1.00  0.00     0.031 C 
ATOM     60  C   UNL A   1      45.259  27.614  29.326  1.00  0.00     0.029 A 
ATOM     61  C   UNL A   1      44.701  27.108  30.487  1.00  0.00     0.049 A 
ATOM     62  H   UNL A   1      43.217  25.635  30.679  1.00  0.00     0.167 HD
ATOM     63  C   UNL A   1      44.375  28.555  32.409  1.00  0.00     0.074 A 
ATOM     64  C   UNL A   1      44.334  29.232  33.705  1.00  0.00     0.031 C 
ATOM     65  C   UNL A   1      44.872  27.369  31.922  1.00  0.00     0.034 A 
BRANCH  52  66
ATOM     66  C   UNL A   1      43.010  24.090  27.020  1.00  0.00     0.023 A 
ATOM     67  C   UNL A   1      42.388  22.833  27.155  1.00  0.00     0.031 A 
ATOM     68  C   UNL A   1      43.852  24.214  25.892  1.00  0.00     0.131 A 
ATOM     69  C   UNL A   1      42.668  21.769  26.273  1.00  0.00     0.055 A 
ATOM     70  C   UNL A   1      44.186  23.139  25.055  1.00  0.00     0.041 A 
ATOM     71  F   UNL A   1      44.333  25.393  25.485  1.00  0.00    -0.206 F 
ATOM     72  C   UNL A   1      43.596  21.903  25.246  1.00  0.00     0.022 A 
BRANCH  69  73
ATOM     73  S   UNL A   1      41.764  20.209  26.460  1.00  0.00     0.124 S 
ATOM     74  O   UNL A   1      42.228  19.446  25.307  1.00  0.00    -0.237 OA
ATOM     75  O   UNL A   1      42.214  19.745  27.768  1.00  0.00    -0.237 OA
ATOM     76  O   UNL A   1      40.362  20.621  26.405  1.00  0.00    -0.744 OA
ENDBRANCH  69  73
ENDBRANCH  52  66
BRANCH  53  77
ATOM     77  C   UNL A   1      41.132  32.157  32.330  1.00  0.00     0.023 A 
ATOM     78  C   UNL A   1      40.210  31.323  33.014  1.00  0.00     0.031 A 
ATOM     79  C   UNL A   1      41.207  33.504  32.727  1.00  0.00     0.131 A 
ATOM     80  C   UNL A   1      39.557  31.786  34.169  1.00  0.00     0.055 A 
ATOM     81  C   UNL A   1      40.507  33.973  33.850  1.00  0.00     0.041 A 
ATOM     82  F   UNL A   1      42.079  34.338  32.143  1.00  0.00    -0.206 F 
ATOM     83  C   UNL A   1      39.721  33.103  34.606  1.00  0.00     0.022 A 
BRANCH  80  84
ATOM     84  S   UNL A   1      38.671  30.627  35.260  1.00  0.00     0.124 S 
ATOM     85  O   UNL A   1      39.765  29.991  35.985  1.00  0.00    -0.237 OA
ATOM     86  O   UNL A   1      37.800  31.493  36.048  1.00  0.00    -0.237 OA
ATOM     87  O   UNL A   1      37.973  29.767  34.305  1.00  0.00    -0.744 OA
ENDBRANCH  80  84
ENDBRANCH  53  77
BRANCH  65  88
ATOM     88  C   UNL A   1      45.513  26.309  32.792  1.00  0.00     0.023 A 
ATOM     89  C   UNL A   1      44.759  25.501  33.643  1.00  0.00     0.031 A 
ATOM     90  C   UNL A   1      46.902  26.041  32.784  1.00  0.00     0.131 A 
ATOM     91  C   UNL A   1      45.308  24.365  34.250  1.00  0.00     0.055 A 
ATOM     92  C   UNL A   1      47.473  24.964  33.467  1.00  0.00     0.041 A 
ATOM     93  F   UNL A   1      47.778  26.792  32.104  1.00  0.00    -0.206 F 
ATOM     94  C   UNL A   1      46.667  24.087  34.174  1.00  0.00     0.022 A 
BRANCH  91  95
ATOM     95  S   UNL A   1      44.167  23.226  35.068  1.00  0.00     0.124 S 
ATOM     96  O   UNL A   1      43.317  22.784  33.966  1.00  0.00    -0.237 OA
ATOM     97  O   UNL A   1      45.083  22.220  35.598  1.00  0.00    -0.237 OA
ATOM     98  O   UNL A   1      43.508  24.061  36.068  1.00  0.00    -0.744 OA
ENDBRANCH  91  95
ENDBRANCH  65  88
ENDBRANCH  39  40
ENDBRANCH  32  34
ENDBRANCH  31  32
ENDBRANCH  30  31
ENDBRANCH  29  30
ENDBRANCH   1  29
TORSDOF 21
ENDMDL
MODEL 2
REMARK VINA RESULT:     -12.2      3.998      9.911
REMARK SMILES Cc1ccc(-c2cc([C@@H](C)C(=O)OCCOCCOC(=O)c3ccc(-c4c5nc(c(-c6cc(S(=O)(=O)[O-])ccc6F)c6ccc([nH]6)c(-c6cc(S(=O)(=O)[O-])ccc6F)c6nc(c(-c7cc(S(=O)(=O)[O-])ccc7F)c7ccc4[nH]7)C=C6)C=C5)cc3)ccc2C[C@H]2CCCC2=O)cc1
REMARK SMILES IDX 16 1 15 2 14 3 13 4 11 5 12 6 9 7 10 8 8 9 6 10 7 11 87 12
REMARK SMILES IDX 86 13 85 14 5 15 1 16 2 17 3 18 96 19 4 20 95 21 88 22 89 23
REMARK SMILES IDX 90 24 93 25 91 26 92 27 94 28 17 29 18 30 19 31 20 32 21 33
REMARK SMILES IDX 22 34 23 35 84 36 24 37 83 38 25 39 26 40 27 41 77 42 28 43
REMARK SMILES IDX 82 44 76 45 78 46 29 47 81 48 75 49 74 50 30 52 62 53 42 54
REMARK SMILES IDX 61 55 43 56 46 57 60 58 79 59 44 60 45 61 59 63 80 64 47 65
REMARK SMILES IDX 31 66 32 67 40 68 33 69 39 70 41 71 38 72 34 73 35 74 36 75
REMARK SMILES IDX 37 76 63 77 64 78 72 79 65 80 71 81 73 82 70 83 66 84 67 85
REMARK SMILES IDX 68 86 69 87 48 88 49 89 57 90 50 91 56 92 58 93 55 94 51 95
REMARK SMILES IDX 52 96 53 97 54 98
REMARK H PARENT 78 51 46 62
REMARK Flexibility Score: inf
ROOT
ATOM      1  O   UNL A   1      37.615  23.089  24.831  1.00  0.00    -0.374 OA
ENDROOT
BRANCH   1   2
ATOM      2  C   UNL A   1      36.315  23.670  24.872  1.00  0.00     0.202 C 
BRANCH   2   3
ATOM      3  C   UNL A   1      35.402  22.752  24.121  1.00  0.00     0.261 C 
BRANCH   3   4
ATOM      4  O   UNL A   1      35.174  23.123  22.760  1.00  0.00    -0.463 OA
BRANCH   4   5
ATOM      5  C   UNL A   1      33.887  23.322  22.351  1.00  0.00     0.313 C 
ATOM      6  O   UNL A   1      33.529  23.732  21.268  1.00  0.00    -0.252 OA
BRANCH   5   7
ATOM      7  C   UNL A   1      32.946  22.852  23.463  1.00  0.00     0.126 C 
ATOM      8  C   UNL A   1      32.271  21.536  23.096  1.00  0.00     0.025 C 
BRANCH   7   9
ATOM      9  C   UNL A   1      31.986  23.986  23.821  1.00  0.00    -0.033 A 
ATOM     10  C   UNL A   1      31.679  26.302  24.567  1.00  0.00    -0.015 A 
ATOM     11  C   UNL A   1      32.486  25.156  24.400  1.00  0.00     0.013 A 
ATOM     12  C   UNL A   1      30.358  26.310  24.048  1.00  0.00    -0.039 A 
ATOM     13  C   UNL A   1      29.862  25.133  23.471  1.00  0.00     0.004 A 
ATOM     14  C   UNL A   1      30.644  23.978  23.409  1.00  0.00     0.005 A 
BRANCH  10  15
ATOM     15  C   UNL A   1      32.216  27.383  25.402  1.00  0.00    -0.018 A 
ATOM     16  C   UNL A   1      33.880  30.668  27.649  1.00  0.00     0.044 C 
ATOM     17  C   UNL A   1      33.282  29.534  26.875  1.00  0.00    -0.051 A 
ATOM     18  C   UNL A   1      33.897  29.118  25.693  1.00  0.00     0.004 A 
ATOM     19  C   UNL A   1      32.123  28.880  27.312  1.00  0.00     0.004 A 
ATOM     20  C   UNL A   1      33.361  28.064  24.961  1.00  0.00     0.009 A 
ATOM     21  C   UNL A   1      31.592  27.813  26.579  1.00  0.00     0.009 A 
ENDBRANCH  10  15
BRANCH  12  22
ATOM     22  C   UNL A   1      29.412  27.487  24.189  1.00  0.00     0.047 C 
BRANCH  22  23
ATOM     23  C   UNL A   1      28.885  28.225  22.956  1.00  0.00     0.060 C 
ATOM     24  C   UNL A   1      27.468  28.797  22.977  1.00  0.00     0.012 C 
ATOM     25  C   UNL A   1      29.726  29.396  22.491  1.00  0.00     0.136 C 
ATOM     26  C   UNL A   1      27.633  30.311  22.989  1.00  0.00     0.009 C 
ATOM     27  C   UNL A   1      28.882  30.601  22.176  1.00  0.00     0.076 C 
ATOM     28  O   UNL A   1      30.920  29.298  22.236  1.00  0.00    -0.299 OA
ENDBRANCH  22  23
ENDBRANCH  12  22
ENDBRANCH   7   9
ENDBRANCH   5   7
ENDBRANCH   4   5
ENDBRANCH   3   4
ENDBRANCH   2   3
ENDBRANCH   1   2
BRANCH   1  29
ATOM     29  C   UNL A   1      37.876  22.134  25.839  1.00  0.00     0.202 C 
BRANCH  29  30
ATOM     30  C   UNL A   1      39.371  21.938  26.142  1.00  0.00     0.261 C 
BRANCH  30  31
ATOM     31  O   UNL A   1      40.063  23.204  26.123  1.00  0.00    -0.460 OA
BRANCH  31  32
ATOM     32  C   UNL A   1      40.419  23.700  27.340  1.00  0.00     0.338 C 
ATOM     33  O   UNL A   1      40.863  23.030  28.264  1.00  0.00    -0.246 OA
BRANCH  32  34
ATOM     34  C   UNL A   1      40.055  25.143  27.429  1.00  0.00     0.060 A 
ATOM     35  C   UNL A   1      40.559  26.080  26.505  1.00  0.00     0.016 A 
ATOM     36  C   UNL A   1      39.441  25.588  28.595  1.00  0.00     0.016 A 
ATOM     37  C   UNL A   1      40.575  27.450  26.820  1.00  0.00     0.010 A 
ATOM     38  C   UNL A   1      39.575  26.911  28.950  1.00  0.00     0.010 A 
ATOM     39  C   UNL A   1      40.152  27.858  28.083  1.00  0.00    -0.014 A 
BRANCH  39  40
ATOM     40  C   UNL A   1      40.371  29.170  28.709  1.00  0.00     0.031 A 
ATOM     41  C   UNL A   1      39.249  30.137  28.719  1.00  0.00     0.074 A 
ATOM     42  C   UNL A   1      41.401  29.378  29.568  1.00  0.00     0.049 A 
ATOM     43  N   UNL A   1      39.341  31.350  29.135  1.00  0.00    -0.248 NA
ATOM     44  C   UNL A   1      37.907  29.806  28.250  1.00  0.00     0.031 C 
ATOM     45  C   UNL A   1      41.452  30.293  30.711  1.00  0.00     0.029 A 
ATOM     46  N   UNL A   1      42.679  28.817  29.561  1.00  0.00    -0.354 N 
ATOM     47  C   UNL A   1      38.065  31.819  29.337  1.00  0.00     0.074 A 
ATOM     48  C   UNL A   1      37.209  30.845  28.709  1.00  0.00     0.031 C 
ATOM     49  C   UNL A   1      42.724  30.425  31.121  1.00  0.00     0.029 A 
ATOM     50  C   UNL A   1      43.558  29.732  30.161  1.00  0.00     0.049 A 
ATOM     51  H   UNL A   1      42.921  27.933  29.201  1.00  0.00     0.167 HD
ATOM     52  C   UNL A   1      37.888  32.910  30.134  1.00  0.00     0.034 A 
ATOM     53  C   UNL A   1      44.629  30.200  29.471  1.00  0.00     0.034 A 
ATOM     54  C   UNL A   1      39.181  33.425  30.626  1.00  0.00     0.049 A 
ATOM     55  C   UNL A   1      44.482  31.682  29.261  1.00  0.00     0.074 A 
ATOM     56  C   UNL A   1      39.832  33.397  31.850  1.00  0.00     0.029 A 
ATOM     57  N   UNL A   1      40.149  33.816  29.704  1.00  0.00    -0.354 N 
ATOM     58  N   UNL A   1      43.450  32.368  29.671  1.00  0.00    -0.248 NA
ATOM     59  C   UNL A   1      45.441  32.505  28.549  1.00  0.00     0.031 C 
ATOM     60  C   UNL A   1      41.198  33.768  31.640  1.00  0.00     0.029 A 
ATOM     61  C   UNL A   1      41.375  34.064  30.299  1.00  0.00     0.049 A 
ATOM     62  H   UNL A   1      39.980  33.906  28.739  1.00  0.00     0.167 HD
ATOM     63  C   UNL A   1      43.522  33.657  29.240  1.00  0.00     0.074 A 
ATOM     64  C   UNL A   1      44.801  33.687  28.532  1.00  0.00     0.031 C 
ATOM     65  C   UNL A   1      42.497  34.542  29.480  1.00  0.00     0.034 A 
BRANCH  52  66
ATOM     66  C   UNL A   1      36.541  33.370  30.665  1.00  0.00     0.023 A 
ATOM     67  C   UNL A   1      35.677  34.087  29.813  1.00  0.00     0.031 A 
ATOM     68  C   UNL A   1      36.039  33.154  31.968  1.00  0.00     0.131 A 
ATOM     69  C   UNL A   1      34.454  34.615  30.273  1.00  0.00     0.055 A 
ATOM     70  C   UNL A   1      34.857  33.737  32.447  1.00  0.00     0.041 A 
ATOM     71  F   UNL A   1      36.616  32.304  32.824  1.00  0.00    -0.206 F 
ATOM     72  C   UNL A   1      34.057  34.479  31.598  1.00  0.00     0.022 A 
BRANCH  69  73
ATOM     73  S   UNL A   1      33.358  35.453  29.096  1.00  0.00     0.124 S 
ATOM     74  O   UNL A   1      32.615  36.361  29.962  1.00  0.00    -0.237 OA
ATOM     75  O   UNL A   1      34.307  36.068  28.173  1.00  0.00    -0.237 OA
ATOM     76  O   UNL A   1      32.572  34.359  28.527  1.00  0.00    -0.744 OA
ENDBRANCH  69  73
ENDBRANCH  52  66
BRANCH  53  77
ATOM     77  C   UNL A   1      45.174  29.152  28.543  1.00  0.00     0.023 A 
ATOM     78  C   UNL A   1      45.791  28.034  29.159  1.00  0.00     0.031 A 
ATOM     79  C   UNL A   1      44.631  28.970  27.259  1.00  0.00     0.131 A 
ATOM     80  C   UNL A   1      45.677  26.756  28.586  1.00  0.00     0.055 A 
ATOM     81  C   UNL A   1      44.570  27.697  26.668  1.00  0.00     0.041 A 
ATOM     82  F   UNL A   1      44.006  29.977  26.634  1.00  0.00    -0.206 F 
ATOM     83  C   UNL A   1      45.046  26.578  27.352  1.00  0.00     0.022 A 
BRANCH  80  84
ATOM     84  S   UNL A   1      46.133  25.270  29.535  1.00  0.00     0.124 S 
ATOM     85  O   UNL A   1      45.977  24.212  28.543  1.00  0.00    -0.237 OA
ATOM     86  O   UNL A   1      47.499  25.544  29.969  1.00  0.00    -0.237 OA
ATOM     87  O   UNL A   1      45.141  25.266  30.610  1.00  0.00    -0.744 OA
ENDBRANCH  80  84
ENDBRANCH  53  77
BRANCH  65  88
ATOM     88  C   UNL A   1      42.438  35.935  28.893  1.00  0.00     0.023 A 
ATOM     89  C   UNL A   1      42.951  37.041  29.571  1.00  0.00     0.031 A 
ATOM     90  C   UNL A   1      41.894  36.213  27.617  1.00  0.00     0.131 A 
ATOM     91  C   UNL A   1      43.126  38.275  28.932  1.00  0.00     0.055 A 
ATOM     92  C   UNL A   1      41.979  37.469  27.010  1.00  0.00     0.041 A 
ATOM     93  F   UNL A   1      41.270  35.285  26.880  1.00  0.00    -0.206 F 
ATOM     94  C   UNL A   1      42.640  38.504  27.651  1.00  0.00     0.022 A 
BRANCH  91  95
ATOM     95  S   UNL A   1      44.084  39.534  29.806  1.00  0.00     0.124 S 
ATOM     96  O   UNL A   1      43.807  39.228  31.206  1.00  0.00    -0.237 OA
ATOM     97  O   UNL A   1      45.441  39.239  29.354  1.00  0.00    -0.237 OA
ATOM     98  O   UNL A   1      43.523  40.791  29.319  1.00  0.00    -0.744 OA
ENDBRANCH  91  95
ENDBRANCH  65  88
ENDBRANCH  39  40
ENDBRANCH  32  34
ENDBRANCH  31  32
ENDBRANCH  30  31
ENDBRANCH  29  30
ENDBRANCH   1  29
TORSDOF 21
ENDMDL
MODEL 3
REMARK VINA RESULT:     -11.8      2.483      3.931
REMARK SMILES Cc1ccc(-c2cc([C@@H](C)C(=O)OCCOCCOC(=O)c3ccc(-c4c5nc(c(-c6cc(S(=O)(=O)[O-])ccc6F)c6ccc([nH]6)c(-c6cc(S(=O)(=O)[O-])ccc6F)c6nc(c(-c7cc(S(=O)(=O)[O-])ccc7F)c7ccc4[nH]7)C=C6)C=C5)cc3)ccc2C[C@H]2CCCC2=O)cc1
REMARK SMILES IDX 16 1 15 2 14 3 13 4 11 5 12 6 9 7 10 8 8 9 6 10 7 11 87 12
REMARK SMILES IDX 86 13 85 14 5 15 1 16 2 17 3 18 96 19 4 20 95 21 88 22 89 23
REMARK SMILES IDX 90 24 93 25 91 26 92 27 94 28 17 29 18 30 19 31 20 32 21 33
REMARK SMILES IDX 22 34 23 35 84 36 24 37 83 38 25 39 26 40 27 41 77 42 28 43
REMARK SMILES IDX 82 44 76 45 78 46 29 47 81 48 75 49 74 50 30 52 62 53 42 54
REMARK SMILES IDX 61 55 43 56 46 57 60 58 79 59 44 60 45 61 59 63 80 64 47 65
REMARK SMILES IDX 31 66 32 67 40 68 33 69 39 70 41 71 38 72 34 73 35 74 36 75
REMARK SMILES IDX 37 76 63 77 64 78 72 79 65 80 71 81 73 82 70 83 66 84 67 85
REMARK SMILES IDX 68 86 69 87 48 88 49 89 57 90 50 91 56 92 58 93 55 94 51 95
REMARK SMILES IDX 52 96 53 97 54 98
REMARK H PARENT 78 51 46 62
REMARK Flexibility Score: inf
ROOT
ATOM      1  O   UNL A   1      34.694  33.154  27.653  1.00  0.00    -0.374 OA
ENDROOT
BRANCH   1   2
ATOM      2  C   UNL A   1      34.822  31.737  27.722  1.00  0.00     0.202 C 
BRANCH   2   3
ATOM      3  C   UNL A   1      33.484  31.160  27.377  1.00  0.00     0.261 C 
BRANCH   3   4
ATOM      4  O   UNL A   1      33.470  29.738  27.236  1.00  0.00    -0.463 OA
BRANCH   4   5
ATOM      5  C   UNL A   1      32.283  29.131  26.940  1.00  0.00     0.313 C 
ATOM      6  O   UNL A   1      31.452  28.747  27.735  1.00  0.00    -0.252 OA
BRANCH   5   7
ATOM      7  C   UNL A   1      32.123  29.091  25.419  1.00  0.00     0.126 C 
ATOM      8  C   UNL A   1      31.049  30.065  24.951  1.00  0.00     0.025 C 
BRANCH   7   9
ATOM      9  C   UNL A   1      31.913  27.644  24.974  1.00  0.00    -0.033 A 
ATOM     10  C   UNL A   1      32.797  25.363  24.812  1.00  0.00    -0.015 A 
ATOM     11  C   UNL A   1      32.983  26.746  25.023  1.00  0.00     0.013 A 
ATOM     12  C   UNL A   1      31.485  24.849  24.646  1.00  0.00    -0.039 A 
ATOM     13  C   UNL A   1      30.417  25.755  24.595  1.00  0.00     0.004 A 
ATOM     14  C   UNL A   1      30.635  27.130  24.703  1.00  0.00     0.005 A 
BRANCH  10  15
ATOM     15  C   UNL A   1      34.003  24.544  24.638  1.00  0.00    -0.018 A 
ATOM     16  C   UNL A   1      37.552  22.106  24.371  1.00  0.00     0.044 C 
ATOM     17  C   UNL A   1      36.309  22.936  24.452  1.00  0.00    -0.051 A 
ATOM     18  C   UNL A   1      36.085  23.718  25.588  1.00  0.00     0.004 A 
ATOM     19  C   UNL A   1      35.367  22.951  23.414  1.00  0.00     0.004 A 
ATOM     20  C   UNL A   1      34.940  24.500  25.682  1.00  0.00     0.009 A 
ATOM     21  C   UNL A   1      34.222  23.747  23.507  1.00  0.00     0.009 A 
ENDBRANCH  10  15
BRANCH  12  22
ATOM     22  C   UNL A   1      31.185  23.383  24.402  1.00  0.00     0.047 C 
BRANCH  22  23
ATOM     23  C   UNL A   1      31.303  22.357  25.532  1.00  0.00     0.060 C 
ATOM     24  C   UNL A   1      32.277  21.189  25.383  1.00  0.00     0.012 C 
ATOM     25  C   UNL A   1      31.647  22.926  26.893  1.00  0.00     0.136 C 
ATOM     26  C   UNL A   1      33.384  21.443  26.397  1.00  0.00     0.009 C 
ATOM     27  C   UNL A   1      32.720  22.125  27.579  1.00  0.00     0.076 C 
ATOM     28  O   UNL A   1      30.996  23.816  27.426  1.00  0.00    -0.299 OA
ENDBRANCH  22  23
ENDBRANCH  12  22
ENDBRANCH   7   9
ENDBRANCH   5   7
ENDBRANCH   4   5
ENDBRANCH   3   4
ENDBRANCH   2   3
ENDBRANCH   1   2
BRANCH   1  29
ATOM     29  C   UNL A   1      33.379  33.646  27.806  1.00  0.00     0.202 C 
BRANCH  29  30
ATOM     30  C   UNL A   1      33.231  34.696  28.919  1.00  0.00     0.261 C 
BRANCH  30  31
ATOM     31  O   UNL A   1      34.478  34.867  29.625  1.00  0.00    -0.460 OA
BRANCH  31  32
ATOM     32  C   UNL A   1      34.615  34.139  30.767  1.00  0.00     0.338 C 
ATOM     33  O   UNL A   1      33.691  33.817  31.504  1.00  0.00    -0.246 OA
BRANCH  32  34
ATOM     34  C   UNL A   1      36.059  33.916  31.060  1.00  0.00     0.060 A 
ATOM     35  C   UNL A   1      37.040  34.090  30.063  1.00  0.00     0.016 A 
ATOM     36  C   UNL A   1      36.389  33.267  32.246  1.00  0.00     0.016 A 
ATOM     37  C   UNL A   1      38.304  33.490  30.199  1.00  0.00     0.010 A 
ATOM     38  C   UNL A   1      37.579  32.579  32.314  1.00  0.00     0.010 A 
ATOM     39  C   UNL A   1      38.546  32.664  31.295  1.00  0.00    -0.014 A 
BRANCH  39  40
ATOM     40  C   UNL A   1      39.661  31.720  31.462  1.00  0.00     0.031 A 
ATOM     41  C   UNL A   1      39.644  30.469  30.670  1.00  0.00     0.074 A 
ATOM     42  C   UNL A   1      40.837  32.111  32.016  1.00  0.00     0.049 A 
ATOM     43  N   UNL A   1      40.497  29.516  30.802  1.00  0.00    -0.248 NA
ATOM     44  C   UNL A   1      38.644  30.188  29.645  1.00  0.00     0.031 C 
ATOM     45  C   UNL A   1      42.182  31.606  31.727  1.00  0.00     0.029 A 
ATOM     46  N   UNL A   1      41.067  33.050  33.022  1.00  0.00    -0.354 N 
ATOM     47  C   UNL A   1      40.399  28.713  29.691  1.00  0.00     0.074 A 
ATOM     48  C   UNL A   1      39.187  29.134  29.035  1.00  0.00     0.031 C 
ATOM     49  C   UNL A   1      43.031  32.028  32.678  1.00  0.00     0.029 A 
ATOM     50  C   UNL A   1      42.240  32.682  33.699  1.00  0.00     0.049 A 
ATOM     51  H   UNL A   1      40.506  33.834  33.221  1.00  0.00     0.167 HD
ATOM     52  C   UNL A   1      41.436  27.880  29.393  1.00  0.00     0.034 A 
ATOM     53  C   UNL A   1      42.209  32.441  35.034  1.00  0.00     0.034 A 
ATOM     54  C   UNL A   1      42.510  27.985  30.401  1.00  0.00     0.049 A 
ATOM     55  C   UNL A   1      42.546  30.998  35.292  1.00  0.00     0.074 A 
ATOM     56  C   UNL A   1      43.773  28.556  30.413  1.00  0.00     0.029 A 
ATOM     57  N   UNL A   1      42.215  27.717  31.735  1.00  0.00    -0.354 N 
ATOM     58  N   UNL A   1      42.795  30.137  34.343  1.00  0.00    -0.248 NA
ATOM     59  C   UNL A   1      42.593  30.393  36.609  1.00  0.00     0.031 C 
ATOM     60  C   UNL A   1      44.218  28.630  31.771  1.00  0.00     0.029 A 
ATOM     61  C   UNL A   1      43.250  28.068  32.586  1.00  0.00     0.049 A 
ATOM     62  H   UNL A   1      41.365  27.322  32.039  1.00  0.00     0.167 HD
ATOM     63  C   UNL A   1      42.947  28.884  34.853  1.00  0.00     0.074 A 
ATOM     64  C   UNL A   1      42.806  29.104  36.291  1.00  0.00     0.031 C 
ATOM     65  C   UNL A   1      43.129  27.801  34.026  1.00  0.00     0.034 A 
BRANCH  52  66
ATOM     66  C   UNL A   1      41.589  27.147  28.072  1.00  0.00     0.023 A 
ATOM     67  C   UNL A   1      41.856  25.764  28.082  1.00  0.00     0.031 A 
ATOM     68  C   UNL A   1      41.494  27.721  26.784  1.00  0.00     0.131 A 
ATOM     69  C   UNL A   1      42.096  25.047  26.891  1.00  0.00     0.055 A 
ATOM     70  C   UNL A   1      41.801  27.026  25.604  1.00  0.00     0.041 A 
ATOM     71  F   UNL A   1      41.022  28.956  26.584  1.00  0.00    -0.206 F 
ATOM     72  C   UNL A   1      42.109  25.680  25.653  1.00  0.00     0.022 A 
BRANCH  69  73
ATOM     73  S   UNL A   1      42.348  23.254  26.979  1.00  0.00     0.124 S 
ATOM     74  O   UNL A   1      42.095  22.841  25.603  1.00  0.00    -0.237 OA
ATOM     75  O   UNL A   1      43.728  23.157  27.441  1.00  0.00    -0.237 OA
ATOM     76  O   UNL A   1      41.345  22.817  27.949  1.00  0.00    -0.744 OA
ENDBRANCH  69  73
ENDBRANCH  52  66
BRANCH  53  77
ATOM     77  C   UNL A   1      41.207  33.326  35.720  1.00  0.00     0.023 A 
ATOM     78  C   UNL A   1      39.944  32.741  35.995  1.00  0.00     0.031 A 
ATOM     79  C   UNL A   1      41.622  34.391  36.538  1.00  0.00     0.131 A 
ATOM     80  C   UNL A   1      39.242  33.086  37.163  1.00  0.00     0.055 A 
ATOM     81  C   UNL A   1      40.886  34.767  37.673  1.00  0.00     0.041 A 
ATOM     82  F   UNL A   1      42.818  34.967  36.352  1.00  0.00    -0.206 F 
ATOM     83  C   UNL A   1      39.721  34.081  38.019  1.00  0.00     0.022 A 
BRANCH  80  84
ATOM     84  S   UNL A   1      37.822  32.090  37.718  1.00  0.00     0.124 S 
ATOM     85  O   UNL A   1      37.927  30.907  36.873  1.00  0.00    -0.237 OA
ATOM     86  O   UNL A   1      38.080  31.886  39.140  1.00  0.00    -0.237 OA
ATOM     87  O   UNL A   1      36.688  32.967  37.424  1.00  0.00    -0.744 OA
ENDBRANCH  80  84
ENDBRANCH  53  77
BRANCH  65  88
ATOM     88  C   UNL A   1      43.143  26.368  34.512  1.00  0.00     0.023 A 
ATOM     89  C   UNL A   1      44.317  25.616  34.554  1.00  0.00     0.031 A 
ATOM     90  C   UNL A   1      41.986  25.702  34.983  1.00  0.00     0.131 A 
ATOM     91  C   UNL A   1      44.379  24.392  35.232  1.00  0.00     0.055 A 
ATOM     92  C   UNL A   1      42.025  24.437  35.575  1.00  0.00     0.041 A 
ATOM     93  F   UNL A   1      40.764  26.244  34.915  1.00  0.00    -0.206 F 
ATOM     94  C   UNL A   1      43.237  23.789  35.744  1.00  0.00     0.022 A 
BRANCH  91  95
ATOM     95  S   UNL A   1      46.014  23.667  35.490  1.00  0.00     0.124 S 
ATOM     96  O   UNL A   1      45.696  22.363  36.063  1.00  0.00    -0.237 OA
ATOM     97  O   UNL A   1      46.545  23.644  34.129  1.00  0.00    -0.237 OA
ATOM     98  O   UNL A   1      46.666  24.606  36.398  1.00  0.00    -0.744 OA
ENDBRANCH  91  95
ENDBRANCH  65  88
ENDBRANCH  39  40
ENDBRANCH  32  34
ENDBRANCH  31  32
ENDBRANCH  30  31
ENDBRANCH  29  30
ENDBRANCH   1  29
TORSDOF 21
ENDMDL
