MODEL 1
REMARK VINA RESULT:     -10.4      0.000      0.000
REMARK SMILES C[C@H](C1CCCC1)[N@@H+](CC(=O)OCCOCCOC(=O)c1ccc(-c2c3nc(c(-c4cc(S(=O)(=O)[O-])ccc4F)c4ccc([nH]4)c(-c4cc(S(=O)(=O)[O-])ccc4F)c4nc(c(-c5cc(S(=O)(=O)[O-])ccc5F)c5ccc2[nH]5)C=C4)C=C3)cc1)CC(F)(F)F
REMARK SMILES IDX 15 1 14 2 13 3 12 4 10 5 11 6 9 7 8 8 2 10 1 11 3 12 4 13
REMARK SMILES IDX 7 14 5 15 6 16 84 17 85 18 86 19 87 20 88 21 16 22 17 23
REMARK SMILES IDX 18 24 19 25 20 26 21 27 22 28 83 29 23 30 82 31 24 32 25 33
REMARK SMILES IDX 26 34 76 35 27 36 81 37 75 38 77 39 28 40 80 41 74 42 73 43
REMARK SMILES IDX 29 45 61 46 41 47 60 48 42 49 45 50 59 51 78 52 43 53 44 54
REMARK SMILES IDX 58 56 79 57 46 58 30 59 31 60 39 61 32 62 38 63 40 64 37 65
REMARK SMILES IDX 33 66 34 67 35 68 36 69 62 70 63 71 71 72 64 73 70 74 72 75
REMARK SMILES IDX 69 76 65 77 66 78 67 79 68 80 47 81 48 82 56 83 49 84 55 85
REMARK SMILES IDX 57 86 54 87 50 88 51 89 52 90 53 91
REMARK H PARENT 8 9 77 44 45 55
REMARK Flexibility Score: inf
ROOT
ATOM      1  O   UNL A   1      35.692  23.142  24.266  1.00  0.00    -0.374 OA
ENDROOT
BRANCH   1   2
ATOM      2  C   UNL A   1      34.455  22.576  23.828  1.00  0.00     0.202 C 
BRANCH   2   3
ATOM      3  C   UNL A   1      33.426  23.633  23.412  1.00  0.00     0.261 C 
BRANCH   3   4
ATOM      4  O   UNL A   1      34.022  24.695  22.638  1.00  0.00    -0.459 OA
BRANCH   4   5
ATOM      5  C   UNL A   1      33.298  25.782  22.275  1.00  0.00     0.361 C 
ATOM      6  O   UNL A   1      33.762  26.810  21.799  1.00  0.00    -0.245 OA
BRANCH   5   7
ATOM      7  C   UNL A   1      31.809  25.581  22.588  1.00  0.00     0.387 C 
BRANCH   7   8
ATOM      8  N   UNL A   1      31.226  26.442  23.638  1.00  0.00    -0.316 N 
ATOM      9  H   UNL A   1      31.897  27.105  24.026  1.00  0.00     0.349 HD
BRANCH   8  10
ATOM     10  C   UNL A   1      31.363  26.051  25.058  1.00  0.00     0.184 C 
ATOM     11  C   UNL A   1      30.010  25.672  25.669  1.00  0.00     0.075 C 
BRANCH  10  12
ATOM     12  C   UNL A   1      32.302  26.864  26.033  1.00  0.00     0.047 C 
ATOM     13  C   UNL A   1      33.659  27.397  25.572  1.00  0.00     0.010 C 
ATOM     14  C   UNL A   1      31.671  28.165  26.586  1.00  0.00     0.010 C 
ATOM     15  C   UNL A   1      34.086  28.345  26.691  1.00  0.00     0.001 C 
ATOM     16  C   UNL A   1      32.804  28.993  27.182  1.00  0.00     0.001 C 
ENDBRANCH  10  12
ENDBRANCH   8  10
BRANCH   8  17
ATOM     17  C   UNL A   1      30.350  27.525  23.177  1.00  0.00     0.380 C 
BRANCH  17  18
ATOM     18  C   UNL A   1      30.869  28.970  23.066  1.00  0.00     0.438 C 
ATOM     19  F   UNL A   1      30.564  29.538  21.886  1.00  0.00    -0.165 F 
ATOM     20  F   UNL A   1      30.334  29.748  24.038  1.00  0.00    -0.165 F 
ATOM     21  F   UNL A   1      32.212  29.027  23.212  1.00  0.00    -0.165 F 
ENDBRANCH  17  18
ENDBRANCH   8  17
ENDBRANCH   7   8
ENDBRANCH   5   7
ENDBRANCH   4   5
ENDBRANCH   3   4
ENDBRANCH   2   3
ENDBRANCH   1   2
BRANCH   1  22
ATOM     22  C   UNL A   1      36.857  22.525  23.718  1.00  0.00     0.202 C 
BRANCH  22  23
ATOM     23  C   UNL A   1      37.373  21.357  24.561  1.00  0.00     0.261 C 
BRANCH  23  24
ATOM     24  O   UNL A   1      37.805  21.838  25.851  1.00  0.00    -0.460 OA
BRANCH  24  25
ATOM     25  C   UNL A   1      39.138  21.768  26.065  1.00  0.00     0.338 C 
ATOM     26  O   UNL A   1      39.920  20.984  25.557  1.00  0.00    -0.246 OA
BRANCH  25  27
ATOM     27  C   UNL A   1      39.585  22.923  26.873  1.00  0.00     0.060 A 
ATOM     28  C   UNL A   1      38.915  24.128  26.648  1.00  0.00     0.016 A 
ATOM     29  C   UNL A   1      40.664  22.873  27.760  1.00  0.00     0.016 A 
ATOM     30  C   UNL A   1      39.375  25.304  27.232  1.00  0.00     0.010 A 
ATOM     31  C   UNL A   1      41.117  24.061  28.361  1.00  0.00     0.010 A 
ATOM     32  C   UNL A   1      40.508  25.294  28.057  1.00  0.00    -0.014 A 
BRANCH  32  33
ATOM     33  C   UNL A   1      41.115  26.603  28.435  1.00  0.00     0.031 A 
ATOM     34  C   UNL A   1      42.536  26.907  28.027  1.00  0.00     0.074 A 
ATOM     35  C   UNL A   1      40.373  27.568  29.014  1.00  0.00     0.049 A 
ATOM     36  N   UNL A   1      43.221  28.015  28.158  1.00  0.00    -0.248 NA
ATOM     37  C   UNL A   1      43.283  25.817  27.381  1.00  0.00     0.031 C 
ATOM     38  C   UNL A   1      38.972  27.428  29.410  1.00  0.00     0.029 A 
ATOM     39  N   UNL A   1      40.683  28.866  29.341  1.00  0.00    -0.354 N 
ATOM     40  C   UNL A   1      44.475  27.757  27.613  1.00  0.00     0.074 A 
ATOM     41  C   UNL A   1      44.471  26.372  27.197  1.00  0.00     0.031 C 
ATOM     42  C   UNL A   1      38.536  28.601  29.900  1.00  0.00     0.029 A 
ATOM     43  C   UNL A   1      39.636  29.566  29.896  1.00  0.00     0.049 A 
ATOM     44  H   UNL A   1      41.574  29.259  29.193  1.00  0.00     0.167 HD
ATOM     45  C   UNL A   1      45.528  28.599  27.457  1.00  0.00     0.034 A 
ATOM     46  C   UNL A   1      39.567  30.833  30.358  1.00  0.00     0.034 A 
ATOM     47  C   UNL A   1      45.526  29.983  27.868  1.00  0.00     0.049 A 
ATOM     48  C   UNL A   1      40.786  31.722  30.260  1.00  0.00     0.074 A 
ATOM     49  C   UNL A   1      46.535  30.922  27.728  1.00  0.00     0.029 A 
ATOM     50  N   UNL A   1      44.477  30.626  28.511  1.00  0.00    -0.354 N 
ATOM     51  N   UNL A   1      41.959  31.466  29.729  1.00  0.00    -0.248 NA
ATOM     52  C   UNL A   1      40.666  33.076  30.818  1.00  0.00     0.031 C 
ATOM     53  C   UNL A   1      46.133  32.100  28.365  1.00  0.00     0.029 A 
ATOM     54  C   UNL A   1      44.834  31.932  28.817  1.00  0.00     0.049 A 
ATOM     55  H   UNL A   1      43.608  30.215  28.721  1.00  0.00     0.167 HD
ATOM     56  C   UNL A   1      42.701  32.638  29.859  1.00  0.00     0.074 A 
ATOM     57  C   UNL A   1      41.839  33.606  30.504  1.00  0.00     0.031 C 
ATOM     58  C   UNL A   1      43.978  32.893  29.472  1.00  0.00     0.034 A 
BRANCH  45  59
ATOM     59  C   UNL A   1      46.795  28.028  26.862  1.00  0.00     0.023 A 
ATOM     60  C   UNL A   1      47.071  28.096  25.485  1.00  0.00     0.031 A 
ATOM     61  C   UNL A   1      47.737  27.390  27.691  1.00  0.00     0.131 A 
ATOM     62  C   UNL A   1      48.221  27.476  24.971  1.00  0.00     0.055 A 
ATOM     63  C   UNL A   1      48.920  26.851  27.184  1.00  0.00     0.041 A 
ATOM     64  F   UNL A   1      47.519  27.274  29.010  1.00  0.00    -0.206 F 
ATOM     65  C   UNL A   1      49.161  26.878  25.814  1.00  0.00     0.022 A 
BRANCH  62  66
ATOM     66  S   UNL A   1      48.397  27.328  23.172  1.00  0.00     0.124 S 
ATOM     67  O   UNL A   1      47.297  28.165  22.698  1.00  0.00    -0.237 OA
ATOM     68  O   UNL A   1      49.740  27.847  22.943  1.00  0.00    -0.237 OA
ATOM     69  O   UNL A   1      48.231  25.896  22.927  1.00  0.00    -0.744 OA
ENDBRANCH  62  66
ENDBRANCH  45  59
BRANCH  46  70
ATOM     70  C   UNL A   1      38.317  31.341  30.997  1.00  0.00     0.023 A 
ATOM     71  C   UNL A   1      37.238  31.809  30.229  1.00  0.00     0.031 A 
ATOM     72  C   UNL A   1      38.216  31.435  32.397  1.00  0.00     0.131 A 
ATOM     73  C   UNL A   1      36.130  32.396  30.862  1.00  0.00     0.055 A 
ATOM     74  C   UNL A   1      37.085  31.962  33.024  1.00  0.00     0.041 A 
ATOM     75  F   UNL A   1      39.220  31.012  33.181  1.00  0.00    -0.206 F 
ATOM     76  C   UNL A   1      36.040  32.460  32.255  1.00  0.00     0.022 A 
BRANCH  73  77
ATOM     77  S   UNL A   1      34.850  33.172  29.838  1.00  0.00     0.124 S 
ATOM     78  O   UNL A   1      34.290  32.020  29.140  1.00  0.00    -0.237 OA
ATOM     79  O   UNL A   1      33.994  33.794  30.842  1.00  0.00    -0.237 OA
ATOM     80  O   UNL A   1      35.603  34.104  29.001  1.00  0.00    -0.744 OA
ENDBRANCH  73  77
ENDBRANCH  46  70
BRANCH  58  81
ATOM     81  C   UNL A   1      44.507  34.293  29.694  1.00  0.00     0.023 A 
ATOM     82  C   UNL A   1      44.409  35.292  28.708  1.00  0.00     0.031 A 
ATOM     83  C   UNL A   1      45.123  34.632  30.912  1.00  0.00     0.131 A 
ATOM     84  C   UNL A   1      44.971  36.559  28.936  1.00  0.00     0.055 A 
ATOM     85  C   UNL A   1      45.620  35.913  31.159  1.00  0.00     0.041 A 
ATOM     86  F   UNL A   1      45.251  33.720  31.891  1.00  0.00    -0.206 F 
ATOM     87  C   UNL A   1      45.558  36.882  30.162  1.00  0.00     0.022 A 
BRANCH  84  88
ATOM     88  S   UNL A   1      45.016  37.752  27.570  1.00  0.00     0.124 S 
ATOM     89  O   UNL A   1      45.688  38.892  28.185  1.00  0.00    -0.237 OA
ATOM     90  O   UNL A   1      45.776  37.035  26.553  1.00  0.00    -0.237 OA
ATOM     91  O   UNL A   1      43.603  37.964  27.253  1.00  0.00    -0.744 OA
ENDBRANCH  84  88
ENDBRANCH  58  81
ENDBRANCH  32  33
ENDBRANCH  25  27
ENDBRANCH  24  25
ENDBRANCH  23  24
ENDBRANCH  22  23
ENDBRANCH   1  22
TORSDOF 22
ENDMDL
MODEL 2
REMARK VINA RESULT:     -10.3      2.036      2.497
REMARK SMILES C[C@H](C1CCCC1)[N@@H+](CC(=O)OCCOCCOC(=O)c1ccc(-c2c3nc(c(-c4cc(S(=O)(=O)[O-])ccc4F)c4ccc([nH]4)c(-c4cc(S(=O)(=O)[O-])ccc4F)c4nc(c(-c5cc(S(=O)(=O)[O-])ccc5F)c5ccc2[nH]5)C=C4)C=C3)cc1)CC(F)(F)F
REMARK SMILES IDX 15 1 14 2 13 3 12 4 10 5 11 6 9 7 8 8 2 10 1 11 3 12 4 13
REMARK SMILES IDX 7 14 5 15 6 16 84 17 85 18 86 19 87 20 88 21 16 22 17 23
REMARK SMILES IDX 18 24 19 25 20 26 21 27 22 28 83 29 23 30 82 31 24 32 25 33
REMARK SMILES IDX 26 34 76 35 27 36 81 37 75 38 77 39 28 40 80 41 74 42 73 43
REMARK SMILES IDX 29 45 61 46 41 47 60 48 42 49 45 50 59 51 78 52 43 53 44 54
REMARK SMILES IDX 58 56 79 57 46 58 30 59 31 60 39 61 32 62 38 63 40 64 37 65
REMARK SMILES IDX 33 66 34 67 35 68 36 69 62 70 63 71 71 72 64 73 70 74 72 75
REMARK SMILES IDX 69 76 65 77 66 78 67 79 68 80 47 81 48 82 56 83 49 84 55 85
REMARK SMILES IDX 57 86 54 87 50 88 51 89 52 90 53 91
REMARK H PARENT 8 9 77 44 45 55
REMARK Flexibility Score: inf
ROOT
ATOM      1  O   UNL A   1      35.617  21.286  26.159  1.00  0.00    -0.374 OA
ENDROOT
BRANCH   1   2
ATOM      2  C   UNL A   1      34.794  22.421  25.881  1.00  0.00     0.202 C 
BRANCH   2   3
ATOM      3  C   UNL A   1      35.295  23.247  24.692  1.00  0.00     0.261 C 
BRANCH   3   4
ATOM      4  O   UNL A   1      34.456  24.393  24.435  1.00  0.00    -0.459 OA
BRANCH   4   5
ATOM      5  C   UNL A   1      33.801  24.526  23.255  1.00  0.00     0.361 C 
ATOM      6  O   UNL A   1      34.096  23.947  22.218  1.00  0.00    -0.245 OA
BRANCH   5   7
ATOM      7  C   UNL A   1      32.661  25.546  23.371  1.00  0.00     0.387 C 
BRANCH   7   8
ATOM      8  N   UNL A   1      31.683  25.335  24.459  1.00  0.00    -0.316 N 
ATOM      9  H   UNL A   1      30.716  25.422  24.146  1.00  0.00     0.349 HD
BRANCH   8  10
ATOM     10  C   UNL A   1      31.154  26.502  25.197  1.00  0.00     0.184 C 
ATOM     11  C   UNL A   1      30.284  27.387  24.298  1.00  0.00     0.075 C 
BRANCH  10  12
ATOM     12  C   UNL A   1      32.069  27.308  26.199  1.00  0.00     0.047 C 
ATOM     13  C   UNL A   1      33.590  27.330  26.046  1.00  0.00     0.010 C 
ATOM     14  C   UNL A   1      31.778  28.828  26.245  1.00  0.00     0.010 C 
ATOM     15  C   UNL A   1      34.045  28.429  27.005  1.00  0.00     0.001 C 
ATOM     16  C   UNL A   1      32.959  29.488  26.948  1.00  0.00     0.001 C 
ENDBRANCH  10  12
ENDBRANCH   8  10
BRANCH   8  17
ATOM     17  C   UNL A   1      31.473  23.946  24.881  1.00  0.00     0.380 C 
BRANCH  17  18
ATOM     18  C   UNL A   1      30.928  23.619  26.283  1.00  0.00     0.438 C 
ATOM     19  F   UNL A   1      31.823  23.871  27.255  1.00  0.00    -0.165 F 
ATOM     20  F   UNL A   1      29.823  24.356  26.553  1.00  0.00    -0.165 F 
ATOM     21  F   UNL A   1      30.568  22.320  26.386  1.00  0.00    -0.165 F 
ENDBRANCH  17  18
ENDBRANCH   8  17
ENDBRANCH   7   8
ENDBRANCH   5   7
ENDBRANCH   4   5
ENDBRANCH   3   4
ENDBRANCH   2   3
ENDBRANCH   1   2
BRANCH   1  22
ATOM     22  C   UNL A   1      35.883  20.454  25.030  1.00  0.00     0.202 C 
BRANCH  22  23
ATOM     23  C   UNL A   1      37.327  19.950  24.980  1.00  0.00     0.261 C 
BRANCH  23  24
ATOM     24  O   UNL A   1      38.237  21.048  25.194  1.00  0.00    -0.460 OA
BRANCH  24  25
ATOM     25  C   UNL A   1      39.324  20.747  25.939  1.00  0.00     0.338 C 
ATOM     26  O   UNL A   1      39.979  19.721  25.895  1.00  0.00    -0.246 OA
BRANCH  25  27
ATOM     27  C   UNL A   1      39.756  21.932  26.711  1.00  0.00     0.060 A 
ATOM     28  C   UNL A   1      39.160  23.145  26.360  1.00  0.00     0.016 A 
ATOM     29  C   UNL A   1      40.760  21.896  27.684  1.00  0.00     0.016 A 
ATOM     30  C   UNL A   1      39.624  24.337  26.908  1.00  0.00     0.010 A 
ATOM     31  C   UNL A   1      41.216  23.100  28.247  1.00  0.00     0.010 A 
ATOM     32  C   UNL A   1      40.688  24.335  27.821  1.00  0.00    -0.014 A 
BRANCH  32  33
ATOM     33  C   UNL A   1      41.320  25.641  28.169  1.00  0.00     0.031 A 
ATOM     34  C   UNL A   1      42.706  25.952  27.658  1.00  0.00     0.074 A 
ATOM     35  C   UNL A   1      40.623  26.598  28.814  1.00  0.00     0.049 A 
ATOM     36  N   UNL A   1      43.398  27.060  27.750  1.00  0.00    -0.248 NA
ATOM     37  C   UNL A   1      43.403  24.871  26.944  1.00  0.00     0.031 C 
ATOM     38  C   UNL A   1      39.256  26.450  29.313  1.00  0.00     0.029 A 
ATOM     39  N   UNL A   1      40.956  27.892  29.132  1.00  0.00    -0.354 N 
ATOM     40  C   UNL A   1      44.608  26.811  27.109  1.00  0.00     0.074 A 
ATOM     41  C   UNL A   1      44.573  25.430  26.678  1.00  0.00     0.031 C 
ATOM     42  C   UNL A   1      38.858  27.616  29.849  1.00  0.00     0.029 A 
ATOM     43  C   UNL A   1      39.953  28.583  29.773  1.00  0.00     0.049 A 
ATOM     44  H   UNL A   1      41.833  28.288  28.922  1.00  0.00     0.167 HD
ATOM     45  C   UNL A   1      45.645  27.656  26.884  1.00  0.00     0.034 A 
ATOM     46  C   UNL A   1      39.919  29.844  30.254  1.00  0.00     0.034 A 
ATOM     47  C   UNL A   1      45.673  29.035  27.310  1.00  0.00     0.049 A 
ATOM     48  C   UNL A   1      41.125  30.737  30.075  1.00  0.00     0.074 A 
ATOM     49  C   UNL A   1      46.667  29.978  27.106  1.00  0.00     0.029 A 
ATOM     50  N   UNL A   1      44.675  29.668  28.039  1.00  0.00    -0.354 N 
ATOM     51  N   UNL A   1      42.255  30.489  29.454  1.00  0.00    -0.248 NA
ATOM     52  C   UNL A   1      41.047  32.084  30.657  1.00  0.00     0.031 C 
ATOM     53  C   UNL A   1      46.313  31.147  27.786  1.00  0.00     0.029 A 
ATOM     54  C   UNL A   1      45.053  30.971  28.332  1.00  0.00     0.049 A 
ATOM     55  H   UNL A   1      43.824  29.253  28.309  1.00  0.00     0.167 HD
ATOM     56  C   UNL A   1      43.004  31.661  29.542  1.00  0.00     0.074 A 
ATOM     57  C   UNL A   1      42.192  32.619  30.262  1.00  0.00     0.031 C 
ATOM     58  C   UNL A   1      44.248  31.923  29.063  1.00  0.00     0.034 A 
BRANCH  45  59
ATOM     59  C   UNL A   1      46.863  27.095  26.188  1.00  0.00     0.023 A 
ATOM     60  C   UNL A   1      47.880  26.420  26.888  1.00  0.00     0.031 A 
ATOM     61  C   UNL A   1      47.017  27.252  24.798  1.00  0.00     0.131 A 
ATOM     62  C   UNL A   1      49.031  25.992  26.209  1.00  0.00     0.055 A 
ATOM     63  C   UNL A   1      48.124  26.747  24.116  1.00  0.00     0.041 A 
ATOM     64  F   UNL A   1      46.092  27.906  24.079  1.00  0.00    -0.206 F 
ATOM     65  C   UNL A   1      49.149  26.127  24.824  1.00  0.00     0.022 A 
BRANCH  62  66
ATOM     66  S   UNL A   1      50.441  25.394  27.182  1.00  0.00     0.124 S 
ATOM     67  O   UNL A   1      51.402  25.059  26.134  1.00  0.00    -0.237 OA
ATOM     68  O   UNL A   1      50.770  26.552  28.004  1.00  0.00    -0.237 OA
ATOM     69  O   UNL A   1      49.896  24.248  27.908  1.00  0.00    -0.744 OA
ENDBRANCH  62  66
ENDBRANCH  45  59
BRANCH  46  70
ATOM     70  C   UNL A   1      38.719  30.342  30.992  1.00  0.00     0.023 A 
ATOM     71  C   UNL A   1      37.658  30.975  30.325  1.00  0.00     0.031 A 
ATOM     72  C   UNL A   1      38.656  30.258  32.395  1.00  0.00     0.131 A 
ATOM     73  C   UNL A   1      36.606  31.543  31.063  1.00  0.00     0.055 A 
ATOM     74  C   UNL A   1      37.578  30.768  33.120  1.00  0.00     0.041 A 
ATOM     75  F   UNL A   1      39.647  29.671  33.086  1.00  0.00    -0.206 F 
ATOM     76  C   UNL A   1      36.551  31.429  32.455  1.00  0.00     0.022 A 
BRANCH  73  77
ATOM     77  S   UNL A   1      35.359  32.527  30.188  1.00  0.00     0.124 S 
ATOM     78  O   UNL A   1      36.119  33.720  29.833  1.00  0.00    -0.237 OA
ATOM     79  O   UNL A   1      34.995  31.645  29.085  1.00  0.00    -0.237 OA
ATOM     80  O   UNL A   1      34.316  32.726  31.193  1.00  0.00    -0.744 OA
ENDBRANCH  73  77
ENDBRANCH  46  70
BRANCH  58  81
ATOM     81  C   UNL A   1      44.791  33.321  29.260  1.00  0.00     0.023 A 
ATOM     82  C   UNL A   1      44.539  34.356  28.342  1.00  0.00     0.031 A 
ATOM     83  C   UNL A   1      45.578  33.621  30.387  1.00  0.00     0.131 A 
ATOM     84  C   UNL A   1      45.116  35.622  28.535  1.00  0.00     0.055 A 
ATOM     85  C   UNL A   1      46.094  34.899  30.609  1.00  0.00     0.041 A 
ATOM     86  F   UNL A   1      45.858  32.674  31.298  1.00  0.00    -0.206 F 
ATOM     87  C   UNL A   1      45.875  35.905  29.673  1.00  0.00     0.022 A 
BRANCH  84  88
ATOM     88  S   UNL A   1      44.947  36.868  27.228  1.00  0.00     0.124 S 
ATOM     89  O   UNL A   1      43.636  36.548  26.672  1.00  0.00    -0.237 OA
ATOM     90  O   UNL A   1      45.037  38.118  27.973  1.00  0.00    -0.237 OA
ATOM     91  O   UNL A   1      46.078  36.592  26.342  1.00  0.00    -0.744 OA
ENDBRANCH  84  88
ENDBRANCH  58  81
ENDBRANCH  32  33
ENDBRANCH  25  27
ENDBRANCH  24  25
ENDBRANCH  23  24
ENDBRANCH  22  23
ENDBRANCH   1  22
TORSDOF 22
ENDMDL
MODEL 3
REMARK VINA RESULT:     -10.1      2.652      3.858
REMARK SMILES C[C@H](C1CCCC1)[N@@H+](CC(=O)OCCOCCOC(=O)c1ccc(-c2c3nc(c(-c4cc(S(=O)(=O)[O-])ccc4F)c4ccc([nH]4)c(-c4cc(S(=O)(=O)[O-])ccc4F)c4nc(c(-c5cc(S(=O)(=O)[O-])ccc5F)c5ccc2[nH]5)C=C4)C=C3)cc1)CC(F)(F)F
REMARK SMILES IDX 15 1 14 2 13 3 12 4 10 5 11 6 9 7 8 8 2 10 1 11 3 12 4 13
REMARK SMILES IDX 7 14 5 15 6 16 84 17 85 18 86 19 87 20 88 21 16 22 17 23
REMARK SMILES IDX 18 24 19 25 20 26 21 27 22 28 83 29 23 30 82 31 24 32 25 33
REMARK SMILES IDX 26 34 76 35 27 36 81 37 75 38 77 39 28 40 80 41 74 42 73 43
REMARK SMILES IDX 29 45 61 46 41 47 60 48 42 49 45 50 59 51 78 52 43 53 44 54
REMARK SMILES IDX 58 56 79 57 46 58 30 59 31 60 39 61 32 62 38 63 40 64 37 65
REMARK SMILES IDX 33 66 34 67 35 68 36 69 62 70 63 71 71 72 64 73 70 74 72 75
REMARK SMILES IDX 69 76 65 77 66 78 67 79 68 80 47 81 48 82 56 83 49 84 55 85
REMARK SMILES IDX 57 86 54 87 50 88 51 89 52 90 53 91
REMARK H PARENT 8 9 77 44 45 55
REMARK Flexibility Score: inf
ROOT
ATOM      1  O   UNL A   1      36.032  21.699  25.953  1.00  0.00    -0.374 OA
ENDROOT
BRANCH   1   2
ATOM      2  C   UNL A   1      36.209  23.114  25.869  1.00  0.00     0.202 C 
BRANCH   2   3
ATOM      3  C   UNL A   1      36.040  23.655  24.444  1.00  0.00     0.261 C 
BRANCH   3   4
ATOM      4  O   UNL A   1      34.687  24.082  24.183  1.00  0.00    -0.459 OA
BRANCH   4   5
ATOM      5  C   UNL A   1      33.881  23.373  23.354  1.00  0.00     0.361 C 
ATOM      6  O   UNL A   1      33.997  23.319  22.137  1.00  0.00    -0.245 OA
BRANCH   5   7
ATOM      7  C   UNL A   1      32.759  22.680  24.138  1.00  0.00     0.387 C 
BRANCH   7   8
ATOM      8  N   UNL A   1      33.095  21.399  24.793  1.00  0.00    -0.316 N 
ATOM      9  H   UNL A   1      34.095  21.197  24.780  1.00  0.00     0.349 HD
BRANCH   8  10
ATOM     10  C   UNL A   1      33.221  20.174  23.973  1.00  0.00     0.184 C 
ATOM     11  C   UNL A   1      32.135  20.107  22.894  1.00  0.00     0.075 C 
BRANCH  10  12
ATOM     12  C   UNL A   1      33.546  18.783  24.644  1.00  0.00     0.047 C 
ATOM     13  C   UNL A   1      32.471  17.982  25.379  1.00  0.00     0.010 C 
ATOM     14  C   UNL A   1      34.061  17.706  23.658  1.00  0.00     0.010 C 
ATOM     15  C   UNL A   1      33.113  16.614  25.604  1.00  0.00     0.001 C 
ATOM     16  C   UNL A   1      33.965  16.362  24.373  1.00  0.00     0.001 C 
ENDBRANCH  10  12
ENDBRANCH   8  10
BRANCH   8  17
ATOM     17  C   UNL A   1      33.064  21.392  26.260  1.00  0.00     0.380 C 
BRANCH  17  18
ATOM     18  C   UNL A   1      32.467  22.575  27.044  1.00  0.00     0.438 C 
ATOM     19  F   UNL A   1      33.093  23.736  26.778  1.00  0.00    -0.165 F 
ATOM     20  F   UNL A   1      31.158  22.744  26.737  1.00  0.00    -0.165 F 
ATOM     21  F   UNL A   1      32.535  22.371  28.378  1.00  0.00    -0.165 F 
ENDBRANCH  17  18
ENDBRANCH   8  17
ENDBRANCH   7   8
ENDBRANCH   5   7
ENDBRANCH   4   5
ENDBRANCH   3   4
ENDBRANCH   2   3
ENDBRANCH   1   2
BRANCH   1  22
ATOM     22  C   UNL A   1      36.641  20.958  24.896  1.00  0.00     0.202 C 
BRANCH  22  23
ATOM     23  C   UNL A   1      37.956  20.292  25.306  1.00  0.00     0.261 C 
BRANCH  23  24
ATOM     24  O   UNL A   1      39.004  21.280  25.376  1.00  0.00    -0.460 OA
BRANCH  24  25
ATOM     25  C   UNL A   1      39.957  21.031  26.302  1.00  0.00     0.338 C 
ATOM     26  O   UNL A   1      40.601  20.005  26.432  1.00  0.00    -0.246 OA
BRANCH  25  27
ATOM     27  C   UNL A   1      40.275  22.266  27.051  1.00  0.00     0.060 A 
ATOM     28  C   UNL A   1      39.560  23.409  26.684  1.00  0.00     0.016 A 
ATOM     29  C   UNL A   1      41.282  22.346  28.017  1.00  0.00     0.016 A 
ATOM     30  C   UNL A   1      39.908  24.649  27.209  1.00  0.00     0.010 A 
ATOM     31  C   UNL A   1      41.621  23.599  28.557  1.00  0.00     0.010 A 
ATOM     32  C   UNL A   1      40.971  24.768  28.115  1.00  0.00    -0.014 A 
BRANCH  32  33
ATOM     33  C   UNL A   1      41.473  26.135  28.436  1.00  0.00     0.031 A 
ATOM     34  C   UNL A   1      42.841  26.554  27.954  1.00  0.00     0.074 A 
ATOM     35  C   UNL A   1      40.674  27.045  29.029  1.00  0.00     0.049 A 
ATOM     36  N   UNL A   1      43.428  27.723  28.029  1.00  0.00    -0.248 NA
ATOM     37  C   UNL A   1      43.653  25.519  27.297  1.00  0.00     0.031 C 
ATOM     38  C   UNL A   1      39.311  26.791  29.494  1.00  0.00     0.029 A 
ATOM     39  N   UNL A   1      40.880  28.373  29.313  1.00  0.00    -0.354 N 
ATOM     40  C   UNL A   1      44.675  27.564  27.431  1.00  0.00     0.074 A 
ATOM     41  C   UNL A   1      44.777  26.173  27.045  1.00  0.00     0.031 C 
ATOM     42  C   UNL A   1      38.794  27.932  29.979  1.00  0.00     0.029 A 
ATOM     43  C   UNL A   1      39.801  28.991  29.901  1.00  0.00     0.049 A 
ATOM     44  H   UNL A   1      41.725  28.841  29.114  1.00  0.00     0.167 HD
ATOM     45  C   UNL A   1      45.640  28.491  27.206  1.00  0.00     0.034 A 
ATOM     46  C   UNL A   1      39.639  30.258  30.339  1.00  0.00     0.034 A 
ATOM     47  C   UNL A   1      45.531  29.880  27.587  1.00  0.00     0.049 A 
ATOM     48  C   UNL A   1      40.766  31.250  30.164  1.00  0.00     0.074 A 
ATOM     49  C   UNL A   1      46.443  30.902  27.380  1.00  0.00     0.029 A 
ATOM     50  N   UNL A   1      44.458  30.443  28.266  1.00  0.00    -0.354 N 
ATOM     51  N   UNL A   1      41.932  31.085  29.584  1.00  0.00    -0.248 NA
ATOM     52  C   UNL A   1      40.550  32.602  30.698  1.00  0.00     0.031 C 
ATOM     53  C   UNL A   1      45.965  32.055  28.010  1.00  0.00     0.029 A 
ATOM     54  C   UNL A   1      44.709  31.783  28.526  1.00  0.00     0.049 A 
ATOM     55  H   UNL A   1      43.640  29.962  28.525  1.00  0.00     0.167 HD
ATOM     56  C   UNL A   1      42.571  32.322  29.653  1.00  0.00     0.074 A 
ATOM     57  C   UNL A   1      41.655  33.225  30.318  1.00  0.00     0.031 C 
ATOM     58  C   UNL A   1      43.800  32.681  29.201  1.00  0.00     0.034 A 
BRANCH  45  59
ATOM     59  C   UNL A   1      46.924  28.021  26.565  1.00  0.00     0.023 A 
ATOM     60  C   UNL A   1      47.143  28.107  25.178  1.00  0.00     0.031 A 
ATOM     61  C   UNL A   1      47.943  27.461  27.357  1.00  0.00     0.131 A 
ATOM     62  C   UNL A   1      48.318  27.579  24.621  1.00  0.00     0.055 A 
ATOM     63  C   UNL A   1      49.146  27.016  26.806  1.00  0.00     0.041 A 
ATOM     64  F   UNL A   1      47.784  27.331  28.683  1.00  0.00    -0.206 F 
ATOM     65  C   UNL A   1      49.333  27.059  25.428  1.00  0.00     0.022 A 
BRANCH  62  66
ATOM     66  S   UNL A   1      48.438  27.441  22.817  1.00  0.00     0.124 S 
ATOM     67  O   UNL A   1      48.347  25.996  22.624  1.00  0.00    -0.237 OA
ATOM     68  O   UNL A   1      47.291  28.220  22.365  1.00  0.00    -0.237 OA
ATOM     69  O   UNL A   1      49.745  28.022  22.514  1.00  0.00    -0.744 OA
ENDBRANCH  62  66
ENDBRANCH  45  59
BRANCH  46  70
ATOM     70  C   UNL A   1      38.378  30.669  31.026  1.00  0.00     0.023 A 
ATOM     71  C   UNL A   1      37.346  31.324  30.335  1.00  0.00     0.031 A 
ATOM     72  C   UNL A   1      38.222  30.475  32.411  1.00  0.00     0.131 A 
ATOM     73  C   UNL A   1      36.230  31.807  31.037  1.00  0.00     0.055 A 
ATOM     74  C   UNL A   1      37.082  30.902  33.094  1.00  0.00     0.041 A 
ATOM     75  F   UNL A   1      39.179  29.863  33.124  1.00  0.00    -0.206 F 
ATOM     76  C   UNL A   1      36.083  31.586  32.409  1.00  0.00     0.022 A 
BRANCH  73  77
ATOM     77  S   UNL A   1      35.016  32.825  30.152  1.00  0.00     0.124 S 
ATOM     78  O   UNL A   1      35.852  33.903  29.638  1.00  0.00    -0.237 OA
ATOM     79  O   UNL A   1      34.497  31.886  29.164  1.00  0.00    -0.237 OA
ATOM     80  O   UNL A   1      34.070  33.212  31.197  1.00  0.00    -0.744 OA
ENDBRANCH  73  77
ENDBRANCH  46  70
BRANCH  58  81
ATOM     81  C   UNL A   1      44.210  34.127  29.367  1.00  0.00     0.023 A 
ATOM     82  C   UNL A   1      44.940  34.573  30.483  1.00  0.00     0.031 A 
ATOM     83  C   UNL A   1      43.858  35.078  28.391  1.00  0.00     0.131 A 
ATOM     84  C   UNL A   1      45.243  35.937  30.624  1.00  0.00     0.055 A 
ATOM     85  C   UNL A   1      44.221  36.421  28.503  1.00  0.00     0.041 A 
ATOM     86  F   UNL A   1      43.156  34.715  27.304  1.00  0.00    -0.206 F 
ATOM     87  C   UNL A   1      44.906  36.860  29.632  1.00  0.00     0.022 A 
BRANCH  84  88
ATOM     88  S   UNL A   1      45.997  36.508  32.172  1.00  0.00     0.124 S 
ATOM     89  O   UNL A   1      47.397  36.665  31.788  1.00  0.00    -0.237 OA
ATOM     90  O   UNL A   1      45.267  37.743  32.439  1.00  0.00    -0.237 OA
ATOM     91  O   UNL A   1      45.731  35.416  33.108  1.00  0.00    -0.744 OA
ENDBRANCH  84  88
ENDBRANCH  58  81
ENDBRANCH  32  33
ENDBRANCH  25  27
ENDBRANCH  24  25
ENDBRANCH  23  24
ENDBRANCH  22  23
ENDBRANCH   1  22
TORSDOF 22
ENDMDL
