MODEL 1
REMARK VINA RESULT:     -11.2      0.000      0.000
REMARK SMILES COc1cc2cc(C(=O)OCCOCCOC(=O)c3ccc(-c4c5nc(c(-c6cc(S(=O)(=O)[O-])ccc6F)c6ccc([nH]6)c(-c6cc(S(=O)(=O)[O-])ccc6F)c6nc(c(-c7cc(S(=O)(=O)[O-])ccc7F)c7ccc4[nH]7)C=C6)C=C5)cc3)n(Cc3ccccc3)c2c(OC)c1OC
REMARK SMILES IDX 14 1 13 2 12 3 11 4 10 5 8 6 9 7 7 8 3 9 4 10 94 11 5 12
REMARK SMILES IDX 91 13 6 14 90 15 82 16 2 17 1 18 95 19 96 20 92 21 93 22
REMARK SMILES IDX 83 23 84 24 85 25 89 26 86 27 88 28 87 29 15 30 16 31 17 32
REMARK SMILES IDX 18 33 19 34 20 35 81 36 21 37 80 38 22 39 23 40 24 41 74 42
REMARK SMILES IDX 25 43 79 44 73 45 75 46 26 47 78 48 72 49 71 50 27 52 59 53
REMARK SMILES IDX 39 54 58 55 40 56 43 57 57 58 76 59 41 60 42 61 56 63 77 64
REMARK SMILES IDX 44 65 28 66 29 67 37 68 30 69 36 70 38 71 35 72 31 73 32 74
REMARK SMILES IDX 33 75 34 76 60 77 61 78 69 79 62 80 68 81 70 82 67 83 63 84
REMARK SMILES IDX 64 85 65 86 66 87 45 88 46 89 54 90 47 91 53 92 55 93 52 94
REMARK SMILES IDX 48 95 49 96 50 97 51 98
REMARK H PARENT 75 51 43 62
REMARK Flexibility Score: inf
ROOT
ATOM      1  C   UNL A   1      41.173  20.128  27.225  1.00  0.00     0.202 C 
ENDROOT
BRANCH   1   2
ATOM      2  O   UNL A   1      41.051  21.504  27.597  1.00  0.00    -0.374 OA
BRANCH   2   3
ATOM      3  C   UNL A   1      39.990  22.269  27.028  1.00  0.00     0.202 C 
BRANCH   3   4
ATOM      4  C   UNL A   1      39.169  21.673  25.872  1.00  0.00     0.261 C 
BRANCH   4   5
ATOM      5  O   UNL A   1      37.834  22.192  25.755  1.00  0.00    -0.459 OA
BRANCH   5   6
ATOM      6  C   UNL A   1      37.005  21.346  25.084  1.00  0.00     0.355 C 
ATOM      7  O   UNL A   1      37.175  20.135  24.999  1.00  0.00    -0.244 OA
BRANCH   6   8
ATOM      8  C   UNL A   1      35.802  21.993  24.595  1.00  0.00     0.129 A 
ATOM      9  C   UNL A   1      32.847  25.277  23.198  1.00  0.00     0.165 A 
ATOM     10  C   UNL A   1      34.182  24.898  23.082  1.00  0.00     0.061 A 
ATOM     11  C   UNL A   1      31.932  24.476  23.900  1.00  0.00     0.205 A 
ATOM     12  C   UNL A   1      34.612  23.704  23.686  1.00  0.00     0.008 A 
ATOM     13  C   UNL A   1      32.345  23.254  24.505  1.00  0.00     0.189 A 
ATOM     14  C   UNL A   1      35.882  23.113  23.784  1.00  0.00     0.044 A 
ATOM     15  C   UNL A   1      33.711  22.881  24.367  1.00  0.00     0.096 A 
ATOM     16  N   UNL A   1      34.443  21.754  24.797  1.00  0.00    -0.327 N 
BRANCH   9  17
ATOM     17  O   UNL A   1      32.419  26.371  22.483  1.00  0.00    -0.493 OA
ATOM     18  C   UNL A   1      32.739  27.602  23.132  1.00  0.00     0.278 C 
ENDBRANCH   9  17
BRANCH  11  19
ATOM     19  O   UNL A   1      30.588  24.784  23.909  1.00  0.00    -0.490 OA
ATOM     20  C   UNL A   1      30.184  25.687  24.934  1.00  0.00     0.278 C 
ENDBRANCH  11  19
BRANCH  13  21
ATOM     21  O   UNL A   1      31.530  22.389  25.184  1.00  0.00    -0.491 OA
ATOM     22  C   UNL A   1      31.222  22.677  26.539  1.00  0.00     0.278 C 
ENDBRANCH  13  21
BRANCH  16  23
ATOM     23  C   UNL A   1      33.860  20.591  25.485  1.00  0.00     0.158 C 
BRANCH  23  24
ATOM     24  C   UNL A   1      33.587  19.405  24.575  1.00  0.00    -0.028 A 
ATOM     25  C   UNL A   1      32.536  19.434  23.654  1.00  0.00     0.005 A 
ATOM     26  C   UNL A   1      34.431  18.284  24.551  1.00  0.00     0.005 A 
ATOM     27  C   UNL A   1      32.323  18.394  22.743  1.00  0.00     0.000 A 
ATOM     28  C   UNL A   1      34.224  17.239  23.637  1.00  0.00     0.000 A 
ATOM     29  C   UNL A   1      33.172  17.297  22.728  1.00  0.00     0.000 A 
ENDBRANCH  23  24
ENDBRANCH  16  23
ENDBRANCH   6   8
ENDBRANCH   5   6
ENDBRANCH   4   5
ENDBRANCH   3   4
ENDBRANCH   2   3
ENDBRANCH   1   2
BRANCH   1  30
ATOM     30  C   UNL A   1      42.052  19.780  26.012  1.00  0.00     0.261 C 
BRANCH  30  31
ATOM     31  O   UNL A   1      43.402  20.198  26.254  1.00  0.00    -0.460 OA
BRANCH  31  32
ATOM     32  C   UNL A   1      44.015  20.870  25.249  1.00  0.00     0.338 C 
ATOM     33  O   UNL A   1      44.147  20.500  24.095  1.00  0.00    -0.246 OA
BRANCH  32  34
ATOM     34  C   UNL A   1      44.137  22.259  25.737  1.00  0.00     0.060 A 
ATOM     35  C   UNL A   1      44.914  22.565  26.859  1.00  0.00     0.016 A 
ATOM     36  C   UNL A   1      43.199  23.175  25.239  1.00  0.00     0.016 A 
ATOM     37  C   UNL A   1      44.684  23.767  27.526  1.00  0.00     0.010 A 
ATOM     38  C   UNL A   1      42.962  24.365  25.920  1.00  0.00     0.010 A 
ATOM     39  C   UNL A   1      43.672  24.646  27.089  1.00  0.00    -0.014 A 
BRANCH  39  40
ATOM     40  C   UNL A   1      43.556  25.956  27.747  1.00  0.00     0.031 A 
ATOM     41  C   UNL A   1      44.732  26.822  27.472  1.00  0.00     0.074 A 
ATOM     42  C   UNL A   1      42.483  26.459  28.400  1.00  0.00     0.049 A 
ATOM     43  N   UNL A   1      45.638  27.211  28.307  1.00  0.00    -0.248 NA
ATOM     44  C   UNL A   1      45.034  27.131  26.065  1.00  0.00     0.031 C 
ATOM     45  C   UNL A   1      41.147  25.871  28.518  1.00  0.00     0.029 A 
ATOM     46  N   UNL A   1      42.332  27.673  29.023  1.00  0.00    -0.354 N 
ATOM     47  C   UNL A   1      46.504  28.013  27.567  1.00  0.00     0.074 A 
ATOM     48  C   UNL A   1      46.205  27.755  26.181  1.00  0.00     0.031 C 
ATOM     49  C   UNL A   1      40.276  26.814  28.951  1.00  0.00     0.029 A 
ATOM     50  C   UNL A   1      41.007  28.028  29.277  1.00  0.00     0.049 A 
ATOM     51  H   UNL A   1      43.094  28.245  29.269  1.00  0.00     0.167 HD
ATOM     52  C   UNL A   1      47.215  29.017  28.151  1.00  0.00     0.034 A 
ATOM     53  C   UNL A   1      40.530  29.240  29.674  1.00  0.00     0.034 A 
ATOM     54  C   UNL A   1      47.228  28.882  29.584  1.00  0.00     0.049 A 
ATOM     55  C   UNL A   1      41.641  30.012  30.263  1.00  0.00     0.074 A 
ATOM     56  C   UNL A   1      47.686  27.941  30.484  1.00  0.00     0.029 A 
ATOM     57  N   UNL A   1      46.365  29.687  30.282  1.00  0.00    -0.354 N 
ATOM     58  N   UNL A   1      42.192  29.746  31.410  1.00  0.00    -0.248 NA
ATOM     59  C   UNL A   1      42.406  30.880  29.385  1.00  0.00     0.031 C 
ATOM     60  C   UNL A   1      46.755  27.969  31.562  1.00  0.00     0.029 A 
ATOM     61  C   UNL A   1      45.809  28.960  31.298  1.00  0.00     0.049 A 
ATOM     62  H   UNL A   1      46.177  30.633  30.084  1.00  0.00     0.167 HD
ATOM     63  C   UNL A   1      43.538  29.962  31.185  1.00  0.00     0.074 A 
ATOM     64  C   UNL A   1      43.592  30.799  29.988  1.00  0.00     0.031 C 
ATOM     65  C   UNL A   1      44.475  29.194  31.814  1.00  0.00     0.034 A 
BRANCH  52  66
ATOM     66  C   UNL A   1      47.525  30.327  27.457  1.00  0.00     0.023 A 
ATOM     67  C   UNL A   1      46.529  31.220  27.016  1.00  0.00     0.031 A 
ATOM     68  C   UNL A   1      48.842  30.829  27.441  1.00  0.00     0.131 A 
ATOM     69  C   UNL A   1      46.836  32.514  26.578  1.00  0.00     0.055 A 
ATOM     70  C   UNL A   1      49.142  32.148  27.076  1.00  0.00     0.041 A 
ATOM     71  F   UNL A   1      49.874  30.072  27.848  1.00  0.00    -0.206 F 
ATOM     72  C   UNL A   1      48.136  33.000  26.640  1.00  0.00     0.022 A 
BRANCH  69  73
ATOM     73  S   UNL A   1      45.528  33.593  25.932  1.00  0.00     0.124 S 
ATOM     74  O   UNL A   1      44.747  32.667  25.121  1.00  0.00    -0.237 OA
ATOM     75  O   UNL A   1      44.891  34.049  27.165  1.00  0.00    -0.237 OA
ATOM     76  O   UNL A   1      46.264  34.620  25.200  1.00  0.00    -0.744 OA
ENDBRANCH  69  73
ENDBRANCH  52  66
BRANCH  53  77
ATOM     77  C   UNL A   1      39.327  29.958  29.173  1.00  0.00     0.023 A 
ATOM     78  C   UNL A   1      38.503  30.629  30.089  1.00  0.00     0.031 A 
ATOM     79  C   UNL A   1      38.777  29.664  27.907  1.00  0.00     0.131 A 
ATOM     80  C   UNL A   1      37.163  30.895  29.776  1.00  0.00     0.055 A 
ATOM     81  C   UNL A   1      37.445  29.954  27.587  1.00  0.00     0.041 A 
ATOM     82  F   UNL A   1      39.495  28.997  26.989  1.00  0.00    -0.206 F 
ATOM     83  C   UNL A   1      36.623  30.553  28.536  1.00  0.00     0.022 A 
BRANCH  80  84
ATOM     84  S   UNL A   1      36.063  31.580  31.044  1.00  0.00     0.124 S 
ATOM     85  O   UNL A   1      35.915  30.457  31.966  1.00  0.00    -0.237 OA
ATOM     86  O   UNL A   1      36.849  32.703  31.540  1.00  0.00    -0.237 OA
ATOM     87  O   UNL A   1      34.858  31.926  30.296  1.00  0.00    -0.744 OA
ENDBRANCH  80  84
ENDBRANCH  53  77
BRANCH  65  88
ATOM     88  C   UNL A   1      44.042  28.353  32.997  1.00  0.00     0.023 A 
ATOM     89  C   UNL A   1      44.153  28.942  34.268  1.00  0.00     0.031 A 
ATOM     90  C   UNL A   1      43.690  26.989  32.946  1.00  0.00     0.131 A 
ATOM     91  C   UNL A   1      43.949  28.182  35.425  1.00  0.00     0.055 A 
ATOM     92  C   UNL A   1      43.411  26.252  34.103  1.00  0.00     0.041 A 
ATOM     93  F   UNL A   1      43.675  26.306  31.793  1.00  0.00    -0.206 F 
ATOM     94  C   UNL A   1      43.556  26.844  35.352  1.00  0.00     0.022 A 
BRANCH  91  95
ATOM     95  S   UNL A   1      44.342  28.877  37.049  1.00  0.00     0.124 S 
ATOM     96  O   UNL A   1      43.257  29.834  37.247  1.00  0.00    -0.237 OA
ATOM     97  O   UNL A   1      44.303  27.697  37.911  1.00  0.00    -0.237 OA
ATOM     98  O   UNL A   1      45.668  29.463  36.872  1.00  0.00    -0.744 OA
ENDBRANCH  91  95
ENDBRANCH  65  88
ENDBRANCH  39  40
ENDBRANCH  32  34
ENDBRANCH  31  32
ENDBRANCH  30  31
ENDBRANCH   1  30
TORSDOF 22
ENDMDL
MODEL 2
REMARK VINA RESULT:     -10.9      2.344      2.987
REMARK SMILES COc1cc2cc(C(=O)OCCOCCOC(=O)c3ccc(-c4c5nc(c(-c6cc(S(=O)(=O)[O-])ccc6F)c6ccc([nH]6)c(-c6cc(S(=O)(=O)[O-])ccc6F)c6nc(c(-c7cc(S(=O)(=O)[O-])ccc7F)c7ccc4[nH]7)C=C6)C=C5)cc3)n(Cc3ccccc3)c2c(OC)c1OC
REMARK SMILES IDX 14 1 13 2 12 3 11 4 10 5 8 6 9 7 7 8 3 9 4 10 94 11 5 12
REMARK SMILES IDX 91 13 6 14 90 15 82 16 2 17 1 18 95 19 96 20 92 21 93 22
REMARK SMILES IDX 83 23 84 24 85 25 89 26 86 27 88 28 87 29 15 30 16 31 17 32
REMARK SMILES IDX 18 33 19 34 20 35 81 36 21 37 80 38 22 39 23 40 24 41 74 42
REMARK SMILES IDX 25 43 79 44 73 45 75 46 26 47 78 48 72 49 71 50 27 52 59 53
REMARK SMILES IDX 39 54 58 55 40 56 43 57 57 58 76 59 41 60 42 61 56 63 77 64
REMARK SMILES IDX 44 65 28 66 29 67 37 68 30 69 36 70 38 71 35 72 31 73 32 74
REMARK SMILES IDX 33 75 34 76 60 77 61 78 69 79 62 80 68 81 70 82 67 83 63 84
REMARK SMILES IDX 64 85 65 86 66 87 45 88 46 89 54 90 47 91 53 92 55 93 52 94
REMARK SMILES IDX 48 95 49 96 50 97 51 98
REMARK H PARENT 75 51 43 62
REMARK Flexibility Score: inf
ROOT
ATOM      1  C   UNL A   1      41.227  20.343  27.499  1.00  0.00     0.202 C 
ENDROOT
BRANCH   1   2
ATOM      2  O   UNL A   1      40.119  19.947  26.684  1.00  0.00    -0.374 OA
BRANCH   2   3
ATOM      3  C   UNL A   1      39.636  20.864  25.704  1.00  0.00     0.202 C 
BRANCH   3   4
ATOM      4  C   UNL A   1      38.677  21.988  26.134  1.00  0.00     0.261 C 
BRANCH   4   5
ATOM      5  O   UNL A   1      37.799  22.456  25.098  1.00  0.00    -0.459 OA
BRANCH   5   6
ATOM      6  C   UNL A   1      36.793  21.578  24.834  1.00  0.00     0.355 C 
ATOM      7  O   UNL A   1      36.845  20.376  25.067  1.00  0.00    -0.244 OA
BRANCH   6   8
ATOM      8  C   UNL A   1      35.574  22.224  24.382  1.00  0.00     0.129 A 
ATOM      9  C   UNL A   1      32.563  25.509  23.112  1.00  0.00     0.165 A 
ATOM     10  C   UNL A   1      33.898  25.144  22.962  1.00  0.00     0.061 A 
ATOM     11  C   UNL A   1      31.669  24.686  23.816  1.00  0.00     0.205 A 
ATOM     12  C   UNL A   1      34.351  23.943  23.532  1.00  0.00     0.008 A 
ATOM     13  C   UNL A   1      32.105  23.456  24.387  1.00  0.00     0.189 A 
ATOM     14  C   UNL A   1      35.628  23.361  23.593  1.00  0.00     0.044 A 
ATOM     15  C   UNL A   1      33.471  23.098  24.215  1.00  0.00     0.096 A 
ATOM     16  N   UNL A   1      34.221  21.969  24.607  1.00  0.00    -0.327 N 
BRANCH   9  17
ATOM     17  O   UNL A   1      32.112  26.613  22.428  1.00  0.00    -0.493 OA
ATOM     18  C   UNL A   1      32.726  27.820  22.880  1.00  0.00     0.278 C 
ENDBRANCH   9  17
BRANCH  11  19
ATOM     19  O   UNL A   1      30.324  24.982  23.858  1.00  0.00    -0.490 OA
ATOM     20  C   UNL A   1      29.951  25.953  24.831  1.00  0.00     0.278 C 
ENDBRANCH  11  19
BRANCH  13  21
ATOM     21  O   UNL A   1      31.312  22.570  25.065  1.00  0.00    -0.491 OA
ATOM     22  C   UNL A   1      30.994  22.851  26.420  1.00  0.00     0.278 C 
ENDBRANCH  13  21
BRANCH  16  23
ATOM     23  C   UNL A   1      33.662  20.787  25.283  1.00  0.00     0.158 C 
BRANCH  23  24
ATOM     24  C   UNL A   1      33.532  19.565  24.389  1.00  0.00    -0.028 A 
ATOM     25  C   UNL A   1      34.395  18.475  24.534  1.00  0.00     0.005 A 
ATOM     26  C   UNL A   1      32.487  19.438  23.461  1.00  0.00     0.005 A 
ATOM     27  C   UNL A   1      34.236  17.303  23.787  1.00  0.00     0.000 A 
ATOM     28  C   UNL A   1      32.321  18.263  22.712  1.00  0.00     0.000 A 
ATOM     29  C   UNL A   1      33.193  17.192  22.879  1.00  0.00     0.000 A 
ENDBRANCH  23  24
ENDBRANCH  16  23
ENDBRANCH   6   8
ENDBRANCH   5   6
ENDBRANCH   4   5
ENDBRANCH   3   4
ENDBRANCH   2   3
ENDBRANCH   1   2
BRANCH   1  30
ATOM     30  C   UNL A   1      42.511  20.812  26.796  1.00  0.00     0.261 C 
BRANCH  30  31
ATOM     31  O   UNL A   1      42.710  22.213  27.030  1.00  0.00    -0.460 OA
BRANCH  31  32
ATOM     32  C   UNL A   1      42.800  23.001  25.931  1.00  0.00     0.338 C 
ATOM     33  O   UNL A   1      42.679  22.654  24.768  1.00  0.00    -0.246 OA
BRANCH  32  34
ATOM     34  C   UNL A   1      42.688  24.383  26.443  1.00  0.00     0.060 A 
ATOM     35  C   UNL A   1      43.613  24.890  27.362  1.00  0.00     0.016 A 
ATOM     36  C   UNL A   1      41.461  25.027  26.226  1.00  0.00     0.016 A 
ATOM     37  C   UNL A   1      43.261  26.003  28.121  1.00  0.00     0.010 A 
ATOM     38  C   UNL A   1      41.109  26.127  27.001  1.00  0.00     0.010 A 
ATOM     39  C   UNL A   1      41.988  26.594  27.980  1.00  0.00    -0.014 A 
BRANCH  39  40
ATOM     40  C   UNL A   1      41.714  27.840  28.710  1.00  0.00     0.031 A 
ATOM     41  C   UNL A   1      42.574  28.959  28.240  1.00  0.00     0.074 A 
ATOM     42  C   UNL A   1      40.717  28.078  29.593  1.00  0.00     0.049 A 
ATOM     43  N   UNL A   1      43.520  29.552  28.889  1.00  0.00    -0.248 NA
ATOM     44  C   UNL A   1      42.492  29.327  26.818  1.00  0.00     0.031 C 
ATOM     45  C   UNL A   1      39.608  27.192  29.955  1.00  0.00     0.029 A 
ATOM     46  N   UNL A   1      40.424  29.224  30.290  1.00  0.00    -0.354 N 
ATOM     47  C   UNL A   1      44.002  30.534  28.026  1.00  0.00     0.074 A 
ATOM     48  C   UNL A   1      43.485  30.210  26.721  1.00  0.00     0.031 C 
ATOM     49  C   UNL A   1      38.655  27.904  30.601  1.00  0.00     0.029 A 
ATOM     50  C   UNL A   1      39.137  29.258  30.828  1.00  0.00     0.049 A 
ATOM     51  H   UNL A   1      41.068  29.960  30.401  1.00  0.00     0.167 HD
ATOM     52  C   UNL A   1      44.568  31.679  28.499  1.00  0.00     0.034 A 
ATOM     53  C   UNL A   1      38.488  30.323  31.371  1.00  0.00     0.034 A 
ATOM     54  C   UNL A   1      44.915  31.554  29.890  1.00  0.00     0.049 A 
ATOM     55  C   UNL A   1      39.490  31.337  31.755  1.00  0.00     0.074 A 
ATOM     56  C   UNL A   1      45.756  30.750  30.631  1.00  0.00     0.029 A 
ATOM     57  N   UNL A   1      44.056  32.134  30.788  1.00  0.00    -0.354 N 
ATOM     58  N   UNL A   1      40.316  31.211  32.750  1.00  0.00    -0.248 NA
ATOM     59  C   UNL A   1      39.831  32.359  30.781  1.00  0.00     0.031 C 
ATOM     60  C   UNL A   1      45.092  30.559  31.878  1.00  0.00     0.029 A 
ATOM     61  C   UNL A   1      43.910  31.300  31.861  1.00  0.00     0.049 A 
ATOM     62  H   UNL A   1      43.617  33.009  30.678  1.00  0.00     0.167 HD
ATOM     63  C   UNL A   1      41.497  31.738  32.264  1.00  0.00     0.074 A 
ATOM     64  C   UNL A   1      41.103  32.561  31.123  1.00  0.00     0.031 C 
ATOM     65  C   UNL A   1      42.697  31.213  32.651  1.00  0.00     0.034 A 
BRANCH  52  66
ATOM     66  C   UNL A   1      44.415  33.024  27.819  1.00  0.00     0.023 A 
ATOM     67  C   UNL A   1      43.503  34.007  28.253  1.00  0.00     0.031 A 
ATOM     68  C   UNL A   1      45.358  33.449  26.862  1.00  0.00     0.131 A 
ATOM     69  C   UNL A   1      43.529  35.313  27.752  1.00  0.00     0.055 A 
ATOM     70  C   UNL A   1      45.435  34.775  26.417  1.00  0.00     0.041 A 
ATOM     71  F   UNL A   1      46.283  32.603  26.381  1.00  0.00    -0.206 F 
ATOM     72  C   UNL A   1      44.516  35.717  26.861  1.00  0.00     0.022 A 
BRANCH  69  73
ATOM     73  S   UNL A   1      42.276  36.517  28.273  1.00  0.00     0.124 S 
ATOM     74  O   UNL A   1      41.939  37.166  27.011  1.00  0.00    -0.237 OA
ATOM     75  O   UNL A   1      41.247  35.642  28.830  1.00  0.00    -0.237 OA
ATOM     76  O   UNL A   1      42.980  37.343  29.249  1.00  0.00    -0.744 OA
ENDBRANCH  69  73
ENDBRANCH  52  66
BRANCH  53  77
ATOM     77  C   UNL A   1      37.074  30.736  31.163  1.00  0.00     0.023 A 
ATOM     78  C   UNL A   1      36.581  30.846  29.854  1.00  0.00     0.031 A 
ATOM     79  C   UNL A   1      36.349  31.391  32.181  1.00  0.00     0.131 A 
ATOM     80  C   UNL A   1      35.474  31.659  29.578  1.00  0.00     0.055 A 
ATOM     81  C   UNL A   1      35.226  32.183  31.907  1.00  0.00     0.041 A 
ATOM     82  F   UNL A   1      36.776  31.356  33.454  1.00  0.00    -0.206 F 
ATOM     83  C   UNL A   1      34.798  32.339  30.593  1.00  0.00     0.022 A 
BRANCH  80  84
ATOM     84  S   UNL A   1      34.976  31.948  27.859  1.00  0.00     0.124 S 
ATOM     85  O   UNL A   1      35.681  33.185  27.534  1.00  0.00    -0.237 OA
ATOM     86  O   UNL A   1      35.476  30.746  27.202  1.00  0.00    -0.237 OA
ATOM     87  O   UNL A   1      33.523  32.070  27.943  1.00  0.00    -0.744 OA
ENDBRANCH  80  84
ENDBRANCH  53  77
BRANCH  65  88
ATOM     88  C   UNL A   1      42.729  30.297  33.856  1.00  0.00     0.023 A 
ATOM     89  C   UNL A   1      43.002  30.893  35.099  1.00  0.00     0.031 A 
ATOM     90  C   UNL A   1      42.667  28.889  33.816  1.00  0.00     0.131 A 
ATOM     91  C   UNL A   1      43.230  30.105  36.232  1.00  0.00     0.055 A 
ATOM     92  C   UNL A   1      42.818  28.107  34.966  1.00  0.00     0.041 A 
ATOM     93  F   UNL A   1      42.532  28.221  32.661  1.00  0.00    -0.206 F 
ATOM     94  C   UNL A   1      43.117  28.714  36.180  1.00  0.00     0.022 A 
BRANCH  91  95
ATOM     95  S   UNL A   1      43.828  30.864  37.762  1.00  0.00     0.124 S 
ATOM     96  O   UNL A   1      44.724  31.903  37.262  1.00  0.00    -0.237 OA
ATOM     97  O   UNL A   1      42.591  31.344  38.376  1.00  0.00    -0.237 OA
ATOM     98  O   UNL A   1      44.480  29.766  38.471  1.00  0.00    -0.744 OA
ENDBRANCH  91  95
ENDBRANCH  65  88
ENDBRANCH  39  40
ENDBRANCH  32  34
ENDBRANCH  31  32
ENDBRANCH  30  31
ENDBRANCH   1  30
TORSDOF 22
ENDMDL
MODEL 3
REMARK VINA RESULT:     -10.6      2.339      4.797
REMARK SMILES COc1cc2cc(C(=O)OCCOCCOC(=O)c3ccc(-c4c5nc(c(-c6cc(S(=O)(=O)[O-])ccc6F)c6ccc([nH]6)c(-c6cc(S(=O)(=O)[O-])ccc6F)c6nc(c(-c7cc(S(=O)(=O)[O-])ccc7F)c7ccc4[nH]7)C=C6)C=C5)cc3)n(Cc3ccccc3)c2c(OC)c1OC
REMARK SMILES IDX 14 1 13 2 12 3 11 4 10 5 8 6 9 7 7 8 3 9 4 10 94 11 5 12
REMARK SMILES IDX 91 13 6 14 90 15 82 16 2 17 1 18 95 19 96 20 92 21 93 22
REMARK SMILES IDX 83 23 84 24 85 25 89 26 86 27 88 28 87 29 15 30 16 31 17 32
REMARK SMILES IDX 18 33 19 34 20 35 81 36 21 37 80 38 22 39 23 40 24 41 74 42
REMARK SMILES IDX 25 43 79 44 73 45 75 46 26 47 78 48 72 49 71 50 27 52 59 53
REMARK SMILES IDX 39 54 58 55 40 56 43 57 57 58 76 59 41 60 42 61 56 63 77 64
REMARK SMILES IDX 44 65 28 66 29 67 37 68 30 69 36 70 38 71 35 72 31 73 32 74
REMARK SMILES IDX 33 75 34 76 60 77 61 78 69 79 62 80 68 81 70 82 67 83 63 84
REMARK SMILES IDX 64 85 65 86 66 87 45 88 46 89 54 90 47 91 53 92 55 93 52 94
REMARK SMILES IDX 48 95 49 96 50 97 51 98
REMARK H PARENT 75 51 43 62
REMARK Flexibility Score: inf
ROOT
ATOM      1  C   UNL A   1      36.009  21.127  25.264  1.00  0.00     0.202 C 
ENDROOT
BRANCH   1   2
ATOM      2  O   UNL A   1      35.198  21.592  24.180  1.00  0.00    -0.374 OA
BRANCH   2   3
ATOM      3  C   UNL A   1      33.818  21.852  24.429  1.00  0.00     0.202 C 
BRANCH   3   4
ATOM      4  C   UNL A   1      33.427  23.034  25.334  1.00  0.00     0.261 C 
BRANCH   4   5
ATOM      5  O   UNL A   1      32.021  23.133  25.616  1.00  0.00    -0.459 OA
BRANCH   5   6
ATOM      6  C   UNL A   1      31.731  24.171  26.448  1.00  0.00     0.355 C 
ATOM      7  O   UNL A   1      31.951  24.172  27.653  1.00  0.00    -0.244 OA
BRANCH   6   8
ATOM      8  C   UNL A   1      31.267  25.354  25.746  1.00  0.00     0.129 A 
ATOM      9  C   UNL A   1      28.852  28.102  22.902  1.00  0.00     0.165 A 
ATOM     10  C   UNL A   1      28.683  27.047  23.796  1.00  0.00     0.061 A 
ATOM     11  C   UNL A   1      30.115  28.687  22.715  1.00  0.00     0.205 A 
ATOM     12  C   UNL A   1      29.793  26.565  24.509  1.00  0.00     0.008 A 
ATOM     13  C   UNL A   1      31.249  28.224  23.441  1.00  0.00     0.189 A 
ATOM     14  C   UNL A   1      29.932  25.499  25.413  1.00  0.00     0.044 A 
ATOM     15  C   UNL A   1      31.052  27.152  24.356  1.00  0.00     0.096 A 
ATOM     16  N   UNL A   1      31.920  26.479  25.242  1.00  0.00    -0.327 N 
BRANCH   9  17
ATOM     17  O   UNL A   1      27.732  28.648  22.324  1.00  0.00    -0.493 OA
ATOM     18  C   UNL A   1      26.659  28.800  23.255  1.00  0.00     0.278 C 
ENDBRANCH   9  17
BRANCH  11  19
ATOM     19  O   UNL A   1      30.260  29.809  21.928  1.00  0.00    -0.490 OA
ATOM     20  C   UNL A   1      29.537  30.954  22.370  1.00  0.00     0.278 C 
ENDBRANCH  11  19
BRANCH  13  21
ATOM     21  O   UNL A   1      32.513  28.743  23.355  1.00  0.00    -0.491 OA
ATOM     22  C   UNL A   1      33.360  28.286  22.312  1.00  0.00     0.278 C 
ENDBRANCH  13  21
BRANCH  16  23
ATOM     23  C   UNL A   1      33.330  26.836  25.464  1.00  0.00     0.158 C 
BRANCH  23  24
ATOM     24  C   UNL A   1      33.529  28.096  26.288  1.00  0.00    -0.028 A 
ATOM     25  C   UNL A   1      34.811  28.582  26.559  1.00  0.00     0.005 A 
ATOM     26  C   UNL A   1      32.443  28.873  26.721  1.00  0.00     0.005 A 
ATOM     27  C   UNL A   1      35.016  29.790  27.236  1.00  0.00     0.000 A 
ATOM     28  C   UNL A   1      32.643  30.087  27.396  1.00  0.00     0.000 A 
ATOM     29  C   UNL A   1      33.931  30.549  27.649  1.00  0.00     0.000 A 
ENDBRANCH  23  24
ENDBRANCH  16  23
ENDBRANCH   6   8
ENDBRANCH   5   6
ENDBRANCH   4   5
ENDBRANCH   3   4
ENDBRANCH   2   3
ENDBRANCH   1   2
BRANCH   1  30
ATOM     30  C   UNL A   1      36.761  22.172  26.105  1.00  0.00     0.261 C 
BRANCH  30  31
ATOM     31  O   UNL A   1      38.048  22.427  25.527  1.00  0.00    -0.460 OA
BRANCH  31  32
ATOM     32  C   UNL A   1      39.124  22.044  26.257  1.00  0.00     0.338 C 
ATOM     33  O   UNL A   1      39.633  20.937  26.286  1.00  0.00    -0.246 OA
BRANCH  32  34
ATOM     34  C   UNL A   1      39.760  23.306  26.690  1.00  0.00     0.060 A 
ATOM     35  C   UNL A   1      40.817  23.305  27.606  1.00  0.00     0.016 A 
ATOM     36  C   UNL A   1      39.055  24.484  26.405  1.00  0.00     0.016 A 
ATOM     37  C   UNL A   1      41.108  24.480  28.294  1.00  0.00     0.010 A 
ATOM     38  C   UNL A   1      39.339  25.650  27.110  1.00  0.00     0.010 A 
ATOM     39  C   UNL A   1      40.337  25.642  28.086  1.00  0.00    -0.014 A 
BRANCH  39  40
ATOM     40  C   UNL A   1      40.764  26.888  28.740  1.00  0.00     0.031 A 
ATOM     41  C   UNL A   1      42.085  27.352  28.240  1.00  0.00     0.074 A 
ATOM     42  C   UNL A   1      40.044  27.670  29.576  1.00  0.00     0.049 A 
ATOM     43  N   UNL A   1      43.203  27.395  28.887  1.00  0.00    -0.248 NA
ATOM     44  C   UNL A   1      42.211  27.619  26.798  1.00  0.00     0.031 C 
ATOM     45  C   UNL A   1      38.635  27.528  29.948  1.00  0.00     0.029 A 
ATOM     46  N   UNL A   1      40.402  28.838  30.202  1.00  0.00    -0.354 N 
ATOM     47  C   UNL A   1      44.130  27.919  27.990  1.00  0.00     0.074 A 
ATOM     48  C   UNL A   1      43.520  27.836  26.687  1.00  0.00     0.031 C 
ATOM     49  C   UNL A   1      38.203  28.675  30.524  1.00  0.00     0.029 A 
ATOM     50  C   UNL A   1      39.328  29.580  30.695  1.00  0.00     0.049 A 
ATOM     51  H   UNL A   1      41.338  29.129  30.295  1.00  0.00     0.167 HD
ATOM     52  C   UNL A   1      45.217  28.618  28.420  1.00  0.00     0.034 A 
ATOM     53  C   UNL A   1      39.341  30.859  31.160  1.00  0.00     0.034 A 
ATOM     54  C   UNL A   1      45.445  28.415  29.826  1.00  0.00     0.049 A 
ATOM     55  C   UNL A   1      40.728  31.213  31.523  1.00  0.00     0.074 A 
ATOM     56  C   UNL A   1      45.734  27.336  30.635  1.00  0.00     0.029 A 
ATOM     57  N   UNL A   1      45.024  29.416  30.663  1.00  0.00    -0.354 N 
ATOM     58  N   UNL A   1      41.363  30.731  32.549  1.00  0.00    -0.248 NA
ATOM     59  C   UNL A   1      41.558  31.838  30.507  1.00  0.00     0.031 C 
ATOM     60  C   UNL A   1      45.071  27.602  31.868  1.00  0.00     0.029 A 
ATOM     61  C   UNL A   1      44.459  28.853  31.774  1.00  0.00     0.049 A 
ATOM     62  H   UNL A   1      45.115  30.382  30.493  1.00  0.00     0.167 HD
ATOM     63  C   UNL A   1      42.644  30.523  32.075  1.00  0.00     0.074 A 
ATOM     64  C   UNL A   1      42.744  31.358  30.879  1.00  0.00     0.031 C 
ATOM     65  C   UNL A   1      43.384  29.469  32.527  1.00  0.00     0.034 A 
BRANCH  52  66
ATOM     66  C   UNL A   1      45.798  29.796  27.665  1.00  0.00     0.023 A 
ATOM     67  C   UNL A   1      45.013  30.853  27.165  1.00  0.00     0.031 A 
ATOM     68  C   UNL A   1      47.191  30.010  27.643  1.00  0.00     0.131 A 
ATOM     69  C   UNL A   1      45.585  32.029  26.666  1.00  0.00     0.055 A 
ATOM     70  C   UNL A   1      47.762  31.216  27.217  1.00  0.00     0.041 A 
ATOM     71  F   UNL A   1      48.040  29.077  28.103  1.00  0.00    -0.206 F 
ATOM     72  C   UNL A   1      46.958  32.236  26.723  1.00  0.00     0.022 A 
BRANCH  69  73
ATOM     73  S   UNL A   1      44.536  33.323  25.947  1.00  0.00     0.124 S 
ATOM     74  O   UNL A   1      45.501  34.103  25.182  1.00  0.00    -0.237 OA
ATOM     75  O   UNL A   1      43.595  32.530  25.159  1.00  0.00    -0.237 OA
ATOM     76  O   UNL A   1      43.960  33.984  27.114  1.00  0.00    -0.744 OA
ENDBRANCH  69  73
ENDBRANCH  52  66
BRANCH  53  77
ATOM     77  C   UNL A   1      38.361  31.943  30.885  1.00  0.00     0.023 A 
ATOM     78  C   UNL A   1      37.671  32.527  31.957  1.00  0.00     0.031 A 
ATOM     79  C   UNL A   1      37.818  32.124  29.595  1.00  0.00     0.131 A 
ATOM     80  C   UNL A   1      36.444  33.170  31.747  1.00  0.00     0.055 A 
ATOM     81  C   UNL A   1      36.604  32.790  29.383  1.00  0.00     0.041 A 
ATOM     82  F   UNL A   1      38.405  31.569  28.522  1.00  0.00    -0.206 F 
ATOM     83  C   UNL A   1      35.898  33.298  30.468  1.00  0.00     0.022 A 
BRANCH  80  84
ATOM     84  S   UNL A   1      35.472  33.742  33.167  1.00  0.00     0.124 S 
ATOM     85  O   UNL A   1      34.105  33.443  32.748  1.00  0.00    -0.237 OA
ATOM     86  O   UNL A   1      35.999  32.906  34.239  1.00  0.00    -0.237 OA
ATOM     87  O   UNL A   1      35.795  35.163  33.249  1.00  0.00    -0.744 OA
ENDBRANCH  80  84
ENDBRANCH  53  77
BRANCH  65  88
ATOM     88  C   UNL A   1      42.927  28.750  33.780  1.00  0.00     0.023 A 
ATOM     89  C   UNL A   1      43.718  28.914  34.929  1.00  0.00     0.031 A 
ATOM     90  C   UNL A   1      41.876  27.815  33.848  1.00  0.00     0.131 A 
ATOM     91  C   UNL A   1      43.476  28.149  36.075  1.00  0.00     0.055 A 
ATOM     92  C   UNL A   1      41.588  27.107  35.021  1.00  0.00     0.041 A 
ATOM     93  F   UNL A   1      41.141  27.498  32.772  1.00  0.00    -0.206 F 
ATOM     94  C   UNL A   1      42.401  27.262  36.138  1.00  0.00     0.022 A 
BRANCH  91  95
ATOM     95  S   UNL A   1      44.649  28.181  37.453  1.00  0.00     0.124 S 
ATOM     96  O   UNL A   1      44.131  27.130  38.325  1.00  0.00    -0.237 OA
ATOM     97  O   UNL A   1      45.917  27.879  36.790  1.00  0.00    -0.237 OA
ATOM     98  O   UNL A   1      44.540  29.539  37.979  1.00  0.00    -0.744 OA
ENDBRANCH  91  95
ENDBRANCH  65  88
ENDBRANCH  39  40
ENDBRANCH  32  34
ENDBRANCH  31  32
ENDBRANCH  30  31
ENDBRANCH   1  30
TORSDOF 22
ENDMDL
