MODEL 1
REMARK VINA RESULT:      -9.5      0.000      0.000
REMARK SMILES C[C@@H]1CCCCN1S(=O)(=O)c1ccc(CCC(=O)OCCOCCOC(=O)c2ccc(-c3c4nc(c(-c5cc(S(=O)(=O)[O-])ccc5F)c5ccc([nH]5)c(-c5cc(S(=O)(=O)[O-])ccc5F)c5nc(c(-c6cc(S(=O)(=O)[O-])ccc6F)c6ccc3[nH]6)C=C5)C=C4)cc2)cc1
REMARK SMILES IDX 21 1 20 2 19 3 17 4 18 5 16 6 15 7 14 8 11 9 12 10 92 11
REMARK SMILES IDX 13 12 91 13 8 14 9 15 10 16 7 17 1 18 2 19 3 20 4 21 6 22
REMARK SMILES IDX 5 23 22 24 23 25 24 26 25 27 26 28 27 29 28 30 29 31 90 32
REMARK SMILES IDX 30 33 89 34 31 35 32 36 33 37 83 38 34 39 88 40 82 41 84 42
REMARK SMILES IDX 35 43 87 44 81 45 80 46 36 48 68 49 48 50 67 51 49 52 52 53
REMARK SMILES IDX 66 54 85 55 50 56 51 57 65 59 86 60 53 61 37 62 38 63 46 64
REMARK SMILES IDX 39 65 45 66 47 67 44 68 40 69 41 70 42 71 43 72 69 73 70 74
REMARK SMILES IDX 78 75 71 76 77 77 79 78 76 79 72 80 73 81 74 82 75 83 54 84
REMARK SMILES IDX 55 85 63 86 56 87 62 88 64 89 61 90 57 91 58 92 59 93 60 94
REMARK H PARENT 84 47 52 58
REMARK Flexibility Score: inf
ROOT
ATOM      1  C   UNL A   1      41.789  21.621  26.868  1.00  0.00     0.202 C 
ENDROOT
BRANCH   1   2
ATOM      2  C   UNL A   1      41.035  22.779  26.200  1.00  0.00     0.261 C 
BRANCH   2   3
ATOM      3  O   UNL A   1      40.501  23.699  27.177  1.00  0.00    -0.463 OA
BRANCH   3   4
ATOM      4  C   UNL A   1      39.178  23.993  27.115  1.00  0.00     0.306 C 
ATOM      5  O   UNL A   1      38.519  24.489  28.019  1.00  0.00    -0.252 OA
BRANCH   4   6
ATOM      6  C   UNL A   1      38.596  23.646  25.762  1.00  0.00     0.127 C 
BRANCH   6   7
ATOM      7  C   UNL A   1      37.388  22.705  25.821  1.00  0.00     0.047 C 
BRANCH   7   8
ATOM      8  C   UNL A   1      36.172  23.253  25.108  1.00  0.00    -0.047 A 
ATOM      9  C   UNL A   1      34.075  24.504  23.703  1.00  0.00     0.082 A 
ATOM     10  C   UNL A   1      34.268  24.760  25.060  1.00  0.00     0.022 A 
ATOM     11  C   UNL A   1      34.915  23.600  23.054  1.00  0.00     0.022 A 
ATOM     12  C   UNL A   1      35.291  24.120  25.758  1.00  0.00     0.005 A 
ATOM     13  C   UNL A   1      35.952  22.972  23.755  1.00  0.00     0.005 A 
BRANCH   9  14
ATOM     14  S   UNL A   1      32.949  25.554  22.796  1.00  0.00     0.243 S 
ATOM     15  O   UNL A   1      31.738  24.792  22.587  1.00  0.00    -0.207 OA
ATOM     16  O   UNL A   1      33.706  26.047  21.665  1.00  0.00    -0.207 OA
BRANCH  14  17
ATOM     17  N   UNL A   1      32.613  26.901  23.799  1.00  0.00    -0.195 NA
ATOM     18  C   UNL A   1      30.695  27.839  22.402  1.00  0.00     0.026 C 
ATOM     19  C   UNL A   1      31.250  27.529  23.793  1.00  0.00     0.070 C 
ATOM     20  C   UNL A   1      31.235  28.846  24.602  1.00  0.00     0.020 C 
ATOM     21  C   UNL A   1      32.297  28.879  25.685  1.00  0.00     0.003 C 
ATOM     22  C   UNL A   1      33.713  27.917  23.787  1.00  0.00     0.103 C 
ATOM     23  C   UNL A   1      33.686  28.751  25.070  1.00  0.00     0.017 C 
ENDBRANCH  14  17
ENDBRANCH   9  14
ENDBRANCH   7   8
ENDBRANCH   6   7
ENDBRANCH   4   6
ENDBRANCH   3   4
ENDBRANCH   2   3
ENDBRANCH   1   2
BRANCH   1  24
ATOM     24  O   UNL A   1      41.428  20.331  26.366  1.00  0.00    -0.374 OA
BRANCH  24  25
ATOM     25  C   UNL A   1      42.271  19.253  26.763  1.00  0.00     0.202 C 
BRANCH  25  26
ATOM     26  C   UNL A   1      43.112  18.657  25.630  1.00  0.00     0.261 C 
BRANCH  26  27
ATOM     27  O   UNL A   1      43.402  19.640  24.619  1.00  0.00    -0.460 OA
BRANCH  27  28
ATOM     28  C   UNL A   1      44.722  19.841  24.378  1.00  0.00     0.338 C 
ATOM     29  O   UNL A   1      45.485  19.066  23.829  1.00  0.00    -0.246 OA
BRANCH  28  30
ATOM     30  C   UNL A   1      45.096  21.228  24.736  1.00  0.00     0.060 A 
ATOM     31  C   UNL A   1      45.473  21.470  26.062  1.00  0.00     0.016 A 
ATOM     32  C   UNL A   1      45.058  22.280  23.817  1.00  0.00     0.016 A 
ATOM     33  C   UNL A   1      45.779  22.766  26.482  1.00  0.00     0.010 A 
ATOM     34  C   UNL A   1      45.381  23.578  24.238  1.00  0.00     0.010 A 
ATOM     35  C   UNL A   1      45.713  23.838  25.580  1.00  0.00    -0.014 A 
BRANCH  35  36
ATOM     36  C   UNL A   1      45.841  25.235  26.083  1.00  0.00     0.031 A 
ATOM     37  C   UNL A   1      47.201  25.884  26.088  1.00  0.00     0.074 A 
ATOM     38  C   UNL A   1      44.767  25.942  26.488  1.00  0.00     0.049 A 
ATOM     39  N   UNL A   1      47.553  27.082  26.482  1.00  0.00    -0.248 NA
ATOM     40  C   UNL A   1      48.315  25.066  25.585  1.00  0.00     0.031 C 
ATOM     41  C   UNL A   1      43.392  25.447  26.519  1.00  0.00     0.029 A 
ATOM     42  N   UNL A   1      44.667  27.229  26.960  1.00  0.00    -0.354 N 
ATOM     43  C   UNL A   1      48.925  27.164  26.266  1.00  0.00     0.074 A 
ATOM     44  C   UNL A   1      49.349  25.872  25.772  1.00  0.00     0.031 C 
ATOM     45  C   UNL A   1      42.589  26.410  27.003  1.00  0.00     0.029 A 
ATOM     46  C   UNL A   1      43.392  27.586  27.332  1.00  0.00     0.049 A 
ATOM     47  H   UNL A   1      45.437  27.839  27.025  1.00  0.00     0.167 HD
ATOM     48  C   UNL A   1      49.753  28.225  26.436  1.00  0.00     0.034 A 
ATOM     49  C   UNL A   1      42.926  28.722  27.891  1.00  0.00     0.034 A 
ATOM     50  C   UNL A   1      49.327  29.513  26.925  1.00  0.00     0.049 A 
ATOM     51  C   UNL A   1      43.880  29.863  28.149  1.00  0.00     0.074 A 
ATOM     52  C   UNL A   1      50.082  30.657  27.112  1.00  0.00     0.029 A 
ATOM     53  N   UNL A   1      48.031  29.827  27.314  1.00  0.00    -0.354 N 
ATOM     54  N   UNL A   1      45.170  29.933  27.918  1.00  0.00    -0.248 NA
ATOM     55  C   UNL A   1      43.308  31.086  28.731  1.00  0.00     0.031 C 
ATOM     56  C   UNL A   1      49.260  31.643  27.669  1.00  0.00     0.029 A 
ATOM     57  C   UNL A   1      47.974  31.136  27.766  1.00  0.00     0.049 A 
ATOM     58  H   UNL A   1      47.265  29.209  27.274  1.00  0.00     0.167 HD
ATOM     59  C   UNL A   1      45.552  31.222  28.284  1.00  0.00     0.074 A 
ATOM     60  C   UNL A   1      44.358  31.895  28.750  1.00  0.00     0.031 C 
ATOM     61  C   UNL A   1      46.779  31.800  28.229  1.00  0.00     0.034 A 
BRANCH  48  62
ATOM     62  C   UNL A   1      51.211  28.014  26.112  1.00  0.00     0.023 A 
ATOM     63  C   UNL A   1      52.135  27.623  27.099  1.00  0.00     0.031 A 
ATOM     64  C   UNL A   1      51.692  28.244  24.813  1.00  0.00     0.131 A 
ATOM     65  C   UNL A   1      53.501  27.551  26.788  1.00  0.00     0.055 A 
ATOM     66  C   UNL A   1      53.041  28.091  24.490  1.00  0.00     0.041 A 
ATOM     67  F   UNL A   1      50.860  28.639  23.836  1.00  0.00    -0.206 F 
ATOM     68  C   UNL A   1      53.957  27.758  25.485  1.00  0.00     0.022 A 
BRANCH  65  69
ATOM     69  S   UNL A   1      54.687  27.326  28.141  1.00  0.00     0.124 S 
ATOM     70  O   UNL A   1      53.946  26.439  29.036  1.00  0.00    -0.237 OA
ATOM     71  O   UNL A   1      55.834  26.735  27.461  1.00  0.00    -0.237 OA
ATOM     72  O   UNL A   1      54.891  28.682  28.647  1.00  0.00    -0.744 OA
ENDBRANCH  65  69
ENDBRANCH  48  62
BRANCH  49  73
ATOM     73  C   UNL A   1      41.491  28.845  28.280  1.00  0.00     0.023 A 
ATOM     74  C   UNL A   1      41.086  28.715  29.619  1.00  0.00     0.031 A 
ATOM     75  C   UNL A   1      40.494  29.013  27.303  1.00  0.00     0.131 A 
ATOM     76  C   UNL A   1      39.719  28.699  29.938  1.00  0.00     0.055 A 
ATOM     77  C   UNL A   1      39.138  29.051  27.631  1.00  0.00     0.041 A 
ATOM     78  F   UNL A   1      40.828  29.130  26.007  1.00  0.00    -0.206 F 
ATOM     79  C   UNL A   1      38.744  28.878  28.954  1.00  0.00     0.022 A 
BRANCH  76  80
ATOM     80  S   UNL A   1      39.229  28.339  31.647  1.00  0.00     0.124 S 
ATOM     81  O   UNL A   1      38.456  29.526  31.991  1.00  0.00    -0.237 OA
ATOM     82  O   UNL A   1      38.470  27.102  31.491  1.00  0.00    -0.237 OA
ATOM     83  O   UNL A   1      40.505  28.200  32.347  1.00  0.00    -0.744 OA
ENDBRANCH  76  80
ENDBRANCH  49  73
BRANCH  61  84
ATOM     84  C   UNL A   1      46.876  33.253  28.625  1.00  0.00     0.023 A 
ATOM     85  C   UNL A   1      46.541  34.290  27.737  1.00  0.00     0.031 A 
ATOM     86  C   UNL A   1      47.321  33.602  29.913  1.00  0.00     0.131 A 
ATOM     87  C   UNL A   1      46.703  35.627  28.132  1.00  0.00     0.055 A 
ATOM     88  C   UNL A   1      47.428  34.932  30.318  1.00  0.00     0.041 A 
ATOM     89  F   UNL A   1      47.653  32.652  30.801  1.00  0.00    -0.206 F 
ATOM     90  C   UNL A   1      47.131  35.955  29.422  1.00  0.00     0.022 A 
BRANCH  87  91
ATOM     91  S   UNL A   1      46.423  36.939  26.910  1.00  0.00     0.124 S 
ATOM     92  O   UNL A   1      46.814  38.134  27.651  1.00  0.00    -0.237 OA
ATOM     93  O   UNL A   1      47.311  36.547  25.821  1.00  0.00    -0.237 OA
ATOM     94  O   UNL A   1      44.996  36.833  26.613  1.00  0.00    -0.744 OA
ENDBRANCH  87  91
ENDBRANCH  61  84
ENDBRANCH  35  36
ENDBRANCH  28  30
ENDBRANCH  27  28
ENDBRANCH  26  27
ENDBRANCH  25  26
ENDBRANCH  24  25
ENDBRANCH   1  24
TORSDOF 21
ENDMDL
MODEL 2
REMARK VINA RESULT:      -9.3      9.979     14.277
REMARK SMILES C[C@@H]1CCCCN1S(=O)(=O)c1ccc(CCC(=O)OCCOCCOC(=O)c2ccc(-c3c4nc(c(-c5cc(S(=O)(=O)[O-])ccc5F)c5ccc([nH]5)c(-c5cc(S(=O)(=O)[O-])ccc5F)c5nc(c(-c6cc(S(=O)(=O)[O-])ccc6F)c6ccc3[nH]6)C=C5)C=C4)cc2)cc1
REMARK SMILES IDX 21 1 20 2 19 3 17 4 18 5 16 6 15 7 14 8 11 9 12 10 92 11
REMARK SMILES IDX 13 12 91 13 8 14 9 15 10 16 7 17 1 18 2 19 3 20 4 21 6 22
REMARK SMILES IDX 5 23 22 24 23 25 24 26 25 27 26 28 27 29 28 30 29 31 90 32
REMARK SMILES IDX 30 33 89 34 31 35 32 36 33 37 83 38 34 39 88 40 82 41 84 42
REMARK SMILES IDX 35 43 87 44 81 45 80 46 36 48 68 49 48 50 67 51 49 52 52 53
REMARK SMILES IDX 66 54 85 55 50 56 51 57 65 59 86 60 53 61 37 62 38 63 46 64
REMARK SMILES IDX 39 65 45 66 47 67 44 68 40 69 41 70 42 71 43 72 69 73 70 74
REMARK SMILES IDX 78 75 71 76 77 77 79 78 76 79 72 80 73 81 74 82 75 83 54 84
REMARK SMILES IDX 55 85 63 86 56 87 62 88 64 89 61 90 57 91 58 92 59 93 60 94
REMARK H PARENT 84 47 52 58
REMARK Flexibility Score: inf
ROOT
ATOM      1  C   UNL A   1      49.448  19.520  39.728  1.00  0.00     0.202 C 
ENDROOT
BRANCH   1   2
ATOM      2  C   UNL A   1      48.796  18.407  40.559  1.00  0.00     0.261 C 
BRANCH   2   3
ATOM      3  O   UNL A   1      47.569  18.854  41.176  1.00  0.00    -0.463 OA
BRANCH   3   4
ATOM      4  C   UNL A   1      46.430  18.791  40.443  1.00  0.00     0.306 C 
ATOM      5  O   UNL A   1      45.652  19.718  40.260  1.00  0.00    -0.252 OA
BRANCH   4   6
ATOM      6  C   UNL A   1      46.231  17.415  39.846  1.00  0.00     0.127 C 
BRANCH   6   7
ATOM      7  C   UNL A   1      44.852  17.199  39.213  1.00  0.00     0.047 C 
BRANCH   7   8
ATOM      8  C   UNL A   1      43.923  16.377  40.078  1.00  0.00    -0.047 A 
ATOM      9  C   UNL A   1      42.403  14.641  41.695  1.00  0.00     0.082 A 
ATOM     10  C   UNL A   1      42.303  14.582  40.304  1.00  0.00     0.022 A 
ATOM     11  C   UNL A   1      43.243  15.590  42.277  1.00  0.00     0.022 A 
ATOM     12  C   UNL A   1      43.038  15.459  39.509  1.00  0.00     0.005 A 
ATOM     13  C   UNL A   1      43.991  16.458  41.474  1.00  0.00     0.005 A 
BRANCH   9  14
ATOM     14  S   UNL A   1      41.673  13.321  42.652  1.00  0.00     0.243 S 
ATOM     15  O   UNL A   1      41.069  12.403  41.712  1.00  0.00    -0.207 OA
ATOM     16  O   UNL A   1      40.864  13.974  43.659  1.00  0.00    -0.207 OA
BRANCH  14  17
ATOM     17  N   UNL A   1      42.957  12.538  43.472  1.00  0.00    -0.195 NA
ATOM     18  C   UNL A   1      41.890  10.221  43.547  1.00  0.00     0.026 C 
ATOM     19  C   UNL A   1      43.153  11.056  43.333  1.00  0.00     0.070 C 
ATOM     20  C   UNL A   1      44.225  10.538  44.319  1.00  0.00     0.020 C 
ATOM     21  C   UNL A   1      45.236  11.603  44.698  1.00  0.00     0.003 C 
ATOM     22  C   UNL A   1      43.108  13.006  44.886  1.00  0.00     0.103 C 
ATOM     23  C   UNL A   1      44.539  12.777  45.376  1.00  0.00     0.017 C 
ENDBRANCH  14  17
ENDBRANCH   9  14
ENDBRANCH   7   8
ENDBRANCH   6   7
ENDBRANCH   4   6
ENDBRANCH   3   4
ENDBRANCH   2   3
ENDBRANCH   1   2
BRANCH   1  24
ATOM     24  O   UNL A   1      49.427  19.276  38.318  1.00  0.00    -0.374 OA
BRANCH  24  25
ATOM     25  C   UNL A   1      48.306  19.805  37.615  1.00  0.00     0.202 C 
BRANCH  25  26
ATOM     26  C   UNL A   1      48.391  21.307  37.327  1.00  0.00     0.261 C 
BRANCH  26  27
ATOM     27  O   UNL A   1      47.555  21.676  36.215  1.00  0.00    -0.460 OA
BRANCH  27  28
ATOM     28  C   UNL A   1      48.185  22.364  35.229  1.00  0.00     0.338 C 
ATOM     29  O   UNL A   1      49.177  22.009  34.617  1.00  0.00    -0.246 OA
BRANCH  28  30
ATOM     30  C   UNL A   1      47.401  23.567  34.870  1.00  0.00     0.060 A 
ATOM     31  C   UNL A   1      46.111  23.676  35.402  1.00  0.00     0.016 A 
ATOM     32  C   UNL A   1      47.890  24.557  34.015  1.00  0.00     0.016 A 
ATOM     33  C   UNL A   1      45.295  24.754  35.055  1.00  0.00     0.010 A 
ATOM     34  C   UNL A   1      47.074  25.647  33.679  1.00  0.00     0.010 A 
ATOM     35  C   UNL A   1      45.758  25.739  34.172  1.00  0.00    -0.014 A 
BRANCH  35  36
ATOM     36  C   UNL A   1      44.814  26.768  33.651  1.00  0.00     0.031 A 
ATOM     37  C   UNL A   1      44.244  26.595  32.266  1.00  0.00     0.074 A 
ATOM     38  C   UNL A   1      44.424  27.816  34.402  1.00  0.00     0.049 A 
ATOM     39  N   UNL A   1      43.413  27.360  31.604  1.00  0.00    -0.248 NA
ATOM     40  C   UNL A   1      44.678  25.400  31.527  1.00  0.00     0.031 C 
ATOM     41  C   UNL A   1      44.880  28.097  35.763  1.00  0.00     0.029 A 
ATOM     42  N   UNL A   1      43.561  28.848  34.122  1.00  0.00    -0.354 N 
ATOM     43  C   UNL A   1      43.217  26.735  30.377  1.00  0.00     0.074 A 
ATOM     44  C   UNL A   1      44.070  25.566  30.362  1.00  0.00     0.031 C 
ATOM     45  C   UNL A   1      44.309  29.235  36.192  1.00  0.00     0.029 A 
ATOM     46  C   UNL A   1      43.458  29.775  35.134  1.00  0.00     0.049 A 
ATOM     47  H   UNL A   1      43.062  28.917  33.276  1.00  0.00     0.167 HD
ATOM     48  C   UNL A   1      42.383  27.083  29.365  1.00  0.00     0.034 A 
ATOM     49  C   UNL A   1      42.773  30.935  35.195  1.00  0.00     0.034 A 
ATOM     50  C   UNL A   1      41.531  28.246  29.384  1.00  0.00     0.049 A 
ATOM     51  C   UNL A   1      41.914  31.349  34.023  1.00  0.00     0.074 A 
ATOM     52  C   UNL A   1      40.635  28.675  28.420  1.00  0.00     0.029 A 
ATOM     53  N   UNL A   1      41.474  29.173  30.417  1.00  0.00    -0.354 N 
ATOM     54  N   UNL A   1      41.722  30.734  32.879  1.00  0.00    -0.248 NA
ATOM     55  C   UNL A   1      41.166  32.607  34.161  1.00  0.00     0.031 C 
ATOM     56  C   UNL A   1      40.083  29.890  28.841  1.00  0.00     0.029 A 
ATOM     57  C   UNL A   1      40.581  30.185  30.099  1.00  0.00     0.049 A 
ATOM     58  H   UNL A   1      41.993  29.119  31.252  1.00  0.00     0.167 HD
ATOM     59  C   UNL A   1      40.798  31.509  32.182  1.00  0.00     0.074 A 
ATOM     60  C   UNL A   1      40.470  32.634  33.034  1.00  0.00     0.031 C 
ATOM     61  C   UNL A   1      40.260  31.304  30.954  1.00  0.00     0.034 A 
BRANCH  48  62
ATOM     62  C   UNL A   1      42.384  26.199  28.143  1.00  0.00     0.023 A 
ATOM     63  C   UNL A   1      41.570  25.054  28.062  1.00  0.00     0.031 A 
ATOM     64  C   UNL A   1      43.235  26.481  27.062  1.00  0.00     0.131 A 
ATOM     65  C   UNL A   1      41.684  24.193  26.961  1.00  0.00     0.055 A 
ATOM     66  C   UNL A   1      43.284  25.663  25.931  1.00  0.00     0.041 A 
ATOM     67  F   UNL A   1      44.050  27.548  27.092  1.00  0.00    -0.206 F 
ATOM     68  C   UNL A   1      42.517  24.503  25.884  1.00  0.00     0.022 A 
BRANCH  65  69
ATOM     69  S   UNL A   1      40.837  22.590  27.024  1.00  0.00     0.124 S 
ATOM     70  O   UNL A   1      39.440  22.990  26.866  1.00  0.00    -0.237 OA
ATOM     71  O   UNL A   1      41.428  21.876  25.898  1.00  0.00    -0.237 OA
ATOM     72  O   UNL A   1      41.184  22.070  28.344  1.00  0.00    -0.744 OA
ENDBRANCH  65  69
ENDBRANCH  48  62
BRANCH  49  73
ATOM     73  C   UNL A   1      42.881  31.821  36.390  1.00  0.00     0.023 A 
ATOM     74  C   UNL A   1      41.865  31.863  37.360  1.00  0.00     0.031 A 
ATOM     75  C   UNL A   1      43.967  32.701  36.535  1.00  0.00     0.131 A 
ATOM     76  C   UNL A   1      41.930  32.802  38.400  1.00  0.00     0.055 A 
ATOM     77  C   UNL A   1      44.054  33.597  37.602  1.00  0.00     0.041 A 
ATOM     78  F   UNL A   1      44.958  32.710  35.629  1.00  0.00    -0.206 F 
ATOM     79  C   UNL A   1      43.023  33.662  38.534  1.00  0.00     0.022 A 
BRANCH  76  80
ATOM     80  S   UNL A   1      40.511  32.957  39.522  1.00  0.00     0.124 S 
ATOM     81  O   UNL A   1      39.427  32.428  38.704  1.00  0.00    -0.237 OA
ATOM     82  O   UNL A   1      40.925  32.130  40.651  1.00  0.00    -0.237 OA
ATOM     83  O   UNL A   1      40.446  34.391  39.794  1.00  0.00    -0.744 OA
ENDBRANCH  76  80
ENDBRANCH  49  73
BRANCH  61  84
ATOM     84  C   UNL A   1      39.213  32.284  30.485  1.00  0.00     0.023 A 
ATOM     85  C   UNL A   1      37.838  32.048  30.666  1.00  0.00     0.031 A 
ATOM     86  C   UNL A   1      39.601  33.470  29.837  1.00  0.00     0.131 A 
ATOM     87  C   UNL A   1      36.901  32.962  30.160  1.00  0.00     0.055 A 
ATOM     88  C   UNL A   1      38.666  34.401  29.385  1.00  0.00     0.041 A 
ATOM     89  F   UNL A   1      40.900  33.746  29.638  1.00  0.00    -0.206 F 
ATOM     90  C   UNL A   1      37.306  34.144  29.534  1.00  0.00     0.022 A 
BRANCH  87  91
ATOM     91  S   UNL A   1      35.137  32.549  30.261  1.00  0.00     0.124 S 
ATOM     92  O   UNL A   1      34.973  31.635  29.135  1.00  0.00    -0.237 OA
ATOM     93  O   UNL A   1      35.031  31.951  31.587  1.00  0.00    -0.237 OA
ATOM     94  O   UNL A   1      34.473  33.842  30.111  1.00  0.00    -0.744 OA
ENDBRANCH  87  91
ENDBRANCH  61  84
ENDBRANCH  35  36
ENDBRANCH  28  30
ENDBRANCH  27  28
ENDBRANCH  26  27
ENDBRANCH  25  26
ENDBRANCH  24  25
ENDBRANCH   1  24
TORSDOF 21
ENDMDL
MODEL 3
REMARK VINA RESULT:      -9.2      4.885      7.623
REMARK SMILES C[C@@H]1CCCCN1S(=O)(=O)c1ccc(CCC(=O)OCCOCCOC(=O)c2ccc(-c3c4nc(c(-c5cc(S(=O)(=O)[O-])ccc5F)c5ccc([nH]5)c(-c5cc(S(=O)(=O)[O-])ccc5F)c5nc(c(-c6cc(S(=O)(=O)[O-])ccc6F)c6ccc3[nH]6)C=C5)C=C4)cc2)cc1
REMARK SMILES IDX 21 1 20 2 19 3 17 4 18 5 16 6 15 7 14 8 11 9 12 10 92 11
REMARK SMILES IDX 13 12 91 13 8 14 9 15 10 16 7 17 1 18 2 19 3 20 4 21 6 22
REMARK SMILES IDX 5 23 22 24 23 25 24 26 25 27 26 28 27 29 28 30 29 31 90 32
REMARK SMILES IDX 30 33 89 34 31 35 32 36 33 37 83 38 34 39 88 40 82 41 84 42
REMARK SMILES IDX 35 43 87 44 81 45 80 46 36 48 68 49 48 50 67 51 49 52 52 53
REMARK SMILES IDX 66 54 85 55 50 56 51 57 65 59 86 60 53 61 37 62 38 63 46 64
REMARK SMILES IDX 39 65 45 66 47 67 44 68 40 69 41 70 42 71 43 72 69 73 70 74
REMARK SMILES IDX 78 75 71 76 77 77 79 78 76 79 72 80 73 81 74 82 75 83 54 84
REMARK SMILES IDX 55 85 63 86 56 87 62 88 64 89 61 90 57 91 58 92 59 93 60 94
REMARK H PARENT 84 47 52 58
REMARK Flexibility Score: inf
ROOT
ATOM      1  C   UNL A   1      42.388  22.455  25.882  1.00  0.00     0.202 C 
ENDROOT
BRANCH   1   2
ATOM      2  C   UNL A   1      41.675  23.216  27.009  1.00  0.00     0.261 C 
BRANCH   2   3
ATOM      3  O   UNL A   1      40.575  24.004  26.504  1.00  0.00    -0.463 OA
BRANCH   3   4
ATOM      4  C   UNL A   1      40.747  25.346  26.408  1.00  0.00     0.306 C 
ATOM      5  O   UNL A   1      41.191  25.936  25.433  1.00  0.00    -0.252 OA
BRANCH   4   6
ATOM      6  C   UNL A   1      40.298  26.052  27.668  1.00  0.00     0.127 C 
BRANCH   6   7
ATOM      7  C   UNL A   1      41.194  27.225  28.083  1.00  0.00     0.047 C 
BRANCH   7   8
ATOM      8  C   UNL A   1      40.494  28.218  28.984  1.00  0.00    -0.047 A 
ATOM      9  C   UNL A   1      39.410  30.255  30.601  1.00  0.00     0.082 A 
ATOM     10  C   UNL A   1      40.294  29.319  31.140  1.00  0.00     0.022 A 
ATOM     11  C   UNL A   1      39.047  30.155  29.258  1.00  0.00     0.022 A 
ATOM     12  C   UNL A   1      40.808  28.298  30.342  1.00  0.00     0.005 A 
ATOM     13  C   UNL A   1      39.579  29.137  28.458  1.00  0.00     0.005 A 
BRANCH   9  14
ATOM     14  S   UNL A   1      39.010  31.698  31.575  1.00  0.00     0.243 S 
ATOM     15  O   UNL A   1      39.984  32.714  31.244  1.00  0.00    -0.207 OA
ATOM     16  O   UNL A   1      38.883  31.224  32.936  1.00  0.00    -0.207 OA
BRANCH  14  17
ATOM     17  N   UNL A   1      37.454  32.213  31.078  1.00  0.00    -0.195 NA
ATOM     18  C   UNL A   1      38.243  34.017  29.456  1.00  0.00     0.026 C 
ATOM     19  C   UNL A   1      37.265  32.879  29.746  1.00  0.00     0.070 C 
ATOM     20  C   UNL A   1      35.835  33.447  29.600  1.00  0.00     0.020 C 
ATOM     21  C   UNL A   1      34.820  32.703  30.449  1.00  0.00     0.003 C 
ATOM     22  C   UNL A   1      36.696  32.898  32.174  1.00  0.00     0.103 C 
ATOM     23  C   UNL A   1      35.190  32.802  31.925  1.00  0.00     0.017 C 
ENDBRANCH  14  17
ENDBRANCH   9  14
ENDBRANCH   7   8
ENDBRANCH   6   7
ENDBRANCH   4   6
ENDBRANCH   3   4
ENDBRANCH   2   3
ENDBRANCH   1   2
BRANCH   1  24
ATOM     24  O   UNL A   1      43.480  21.648  26.334  1.00  0.00    -0.374 OA
BRANCH  24  25
ATOM     25  C   UNL A   1      44.014  20.736  25.377  1.00  0.00     0.202 C 
BRANCH  25  26
ATOM     26  C   UNL A   1      45.473  21.004  24.993  1.00  0.00     0.261 C 
BRANCH  26  27
ATOM     27  O   UNL A   1      46.022  22.098  25.750  1.00  0.00    -0.460 OA
BRANCH  27  28
ATOM     28  C   UNL A   1      46.249  23.230  25.038  1.00  0.00     0.338 C 
ATOM     29  O   UNL A   1      46.533  23.298  23.855  1.00  0.00    -0.246 OA
BRANCH  28  30
ATOM     30  C   UNL A   1      45.947  24.420  25.866  1.00  0.00     0.060 A 
ATOM     31  C   UNL A   1      46.925  24.833  26.778  1.00  0.00     0.016 A 
ATOM     32  C   UNL A   1      44.733  25.106  25.784  1.00  0.00     0.016 A 
ATOM     33  C   UNL A   1      46.681  25.909  27.633  1.00  0.00     0.010 A 
ATOM     34  C   UNL A   1      44.496  26.196  26.634  1.00  0.00     0.010 A 
ATOM     35  C   UNL A   1      45.455  26.587  27.587  1.00  0.00    -0.014 A 
BRANCH  35  36
ATOM     36  C   UNL A   1      45.128  27.594  28.637  1.00  0.00     0.031 A 
ATOM     37  C   UNL A   1      45.301  29.057  28.318  1.00  0.00     0.074 A 
ATOM     38  C   UNL A   1      44.640  27.230  29.839  1.00  0.00     0.049 A 
ATOM     39  N   UNL A   1      45.086  30.106  29.070  1.00  0.00    -0.248 NA
ATOM     40  C   UNL A   1      45.791  29.377  26.968  1.00  0.00     0.031 C 
ATOM     41  C   UNL A   1      44.404  25.855  30.275  1.00  0.00     0.029 A 
ATOM     42  N   UNL A   1      44.262  27.991  30.920  1.00  0.00    -0.354 N 
ATOM     43  C   UNL A   1      45.404  31.209  28.284  1.00  0.00     0.074 A 
ATOM     44  C   UNL A   1      45.892  30.696  27.022  1.00  0.00     0.031 C 
ATOM     45  C   UNL A   1      43.942  25.867  31.537  1.00  0.00     0.029 A 
ATOM     46  C   UNL A   1      43.862  27.248  32.007  1.00  0.00     0.049 A 
ATOM     47  H   UNL A   1      44.277  28.975  30.917  1.00  0.00     0.167 HD
ATOM     48  C   UNL A   1      45.277  32.528  28.573  1.00  0.00     0.034 A 
ATOM     49  C   UNL A   1      43.491  27.634  33.245  1.00  0.00     0.034 A 
ATOM     50  C   UNL A   1      44.787  33.037  29.830  1.00  0.00     0.049 A 
ATOM     51  C   UNL A   1      43.435  29.107  33.574  1.00  0.00     0.074 A 
ATOM     52  C   UNL A   1      44.599  34.353  30.213  1.00  0.00     0.029 A 
ATOM     53  N   UNL A   1      44.414  32.253  30.914  1.00  0.00    -0.354 N 
ATOM     54  N   UNL A   1      43.717  30.138  32.811  1.00  0.00    -0.248 NA
ATOM     55  C   UNL A   1      42.993  29.467  34.929  1.00  0.00     0.031 C 
ATOM     56  C   UNL A   1      44.172  34.368  31.545  1.00  0.00     0.029 A 
ATOM     57  C   UNL A   1      44.026  33.058  31.973  1.00  0.00     0.049 A 
ATOM     58  H   UNL A   1      44.424  31.268  30.927  1.00  0.00     0.167 HD
ATOM     59  C   UNL A   1      43.443  31.266  33.581  1.00  0.00     0.074 A 
ATOM     60  C   UNL A   1      42.973  30.791  34.865  1.00  0.00     0.031 C 
ATOM     61  C   UNL A   1      43.559  32.577  33.251  1.00  0.00     0.034 A 
BRANCH  48  62
ATOM     62  C   UNL A   1      45.705  33.507  27.507  1.00  0.00     0.023 A 
ATOM     63  C   UNL A   1      47.064  33.729  27.216  1.00  0.00     0.031 A 
ATOM     64  C   UNL A   1      44.748  34.255  26.802  1.00  0.00     0.131 A 
ATOM     65  C   UNL A   1      47.427  34.731  26.303  1.00  0.00     0.055 A 
ATOM     66  C   UNL A   1      45.115  35.193  25.835  1.00  0.00     0.041 A 
ATOM     67  F   UNL A   1      43.438  34.100  27.054  1.00  0.00    -0.206 F 
ATOM     68  C   UNL A   1      46.462  35.446  25.593  1.00  0.00     0.022 A 
BRANCH  65  69
ATOM     69  S   UNL A   1      49.178  35.183  26.166  1.00  0.00     0.124 S 
ATOM     70  O   UNL A   1      49.100  36.640  26.090  1.00  0.00    -0.237 OA
ATOM     71  O   UNL A   1      49.743  34.637  27.395  1.00  0.00    -0.237 OA
ATOM     72  O   UNL A   1      49.607  34.524  24.935  1.00  0.00    -0.744 OA
ENDBRANCH  65  69
ENDBRANCH  48  62
BRANCH  49  73
ATOM     73  C   UNL A   1      43.168  26.622  34.293  1.00  0.00     0.023 A 
ATOM     74  C   UNL A   1      44.178  25.867  34.912  1.00  0.00     0.031 A 
ATOM     75  C   UNL A   1      41.832  26.339  34.629  1.00  0.00     0.131 A 
ATOM     76  C   UNL A   1      43.835  24.830  35.792  1.00  0.00     0.055 A 
ATOM     77  C   UNL A   1      41.499  25.342  35.547  1.00  0.00     0.041 A 
ATOM     78  F   UNL A   1      40.829  27.024  34.057  1.00  0.00    -0.206 F 
ATOM     79  C   UNL A   1      42.503  24.570  36.123  1.00  0.00     0.022 A 
BRANCH  76  80
ATOM     80  S   UNL A   1      45.153  23.754  36.424  1.00  0.00     0.124 S 
ATOM     81  O   UNL A   1      44.993  23.903  37.865  1.00  0.00    -0.237 OA
ATOM     82  O   UNL A   1      44.780  22.458  35.867  1.00  0.00    -0.237 OA
ATOM     83  O   UNL A   1      46.370  24.341  35.866  1.00  0.00    -0.744 OA
ENDBRANCH  76  80
ENDBRANCH  49  73
BRANCH  61  84
ATOM     84  C   UNL A   1      43.110  33.589  34.276  1.00  0.00     0.023 A 
ATOM     85  C   UNL A   1      41.752  33.894  34.477  1.00  0.00     0.031 A 
ATOM     86  C   UNL A   1      44.062  34.267  35.058  1.00  0.00     0.131 A 
ATOM     87  C   UNL A   1      41.388  34.885  35.401  1.00  0.00     0.055 A 
ATOM     88  C   UNL A   1      43.691  35.213  36.014  1.00  0.00     0.041 A 
ATOM     89  F   UNL A   1      45.373  34.016  34.909  1.00  0.00    -0.206 F 
ATOM     90  C   UNL A   1      42.347  35.536  36.181  1.00  0.00     0.022 A 
BRANCH  87  91
ATOM     91  S   UNL A   1      39.644  35.372  35.516  1.00  0.00     0.124 S 
ATOM     92  O   UNL A   1      39.145  34.476  36.555  1.00  0.00    -0.237 OA
ATOM     93  O   UNL A   1      39.736  36.781  35.882  1.00  0.00    -0.237 OA
ATOM     94  O   UNL A   1      39.125  35.114  34.174  1.00  0.00    -0.744 OA
ENDBRANCH  87  91
ENDBRANCH  61  84
ENDBRANCH  35  36
ENDBRANCH  28  30
ENDBRANCH  27  28
ENDBRANCH  26  27
ENDBRANCH  25  26
ENDBRANCH  24  25
ENDBRANCH   1  24
TORSDOF 21
ENDMDL
