MODEL 1
REMARK VINA RESULT:     -10.2      0.000      0.000
REMARK SMILES CCCC[C@@H](C(=O)OCCOCCOC(=O)c1ccc(-c2c3nc(c(-c4cc(S(=O)(=O)[O-])ccc4F)c4ccc([nH]4)c(-c4cc(S(=O)(=O)[O-])ccc4F)c4nc(c(-c5cc(S(=O)(=O)[O-])ccc5F)c5ccc2[nH]5)C=C4)C=C3)cc1)[C@H](O)c1ccc(Br)cc1F
REMARK SMILES IDX 11 1 10 2 9 3 8 4 6 5 7 6 5 7 4 8 3 9 2 10 1 11 80 12 82 13
REMARK SMILES IDX 83 14 88 15 84 16 87 17 89 18 85 19 86 20 81 21 12 23 13 24
REMARK SMILES IDX 14 25 15 26 16 27 17 28 18 29 79 30 19 31 78 32 20 33 21 34
REMARK SMILES IDX 22 35 72 36 23 37 77 38 71 39 73 40 24 41 76 42 70 43 69 44
REMARK SMILES IDX 25 46 57 47 37 48 56 49 38 50 41 51 55 52 74 53 39 54 40 55
REMARK SMILES IDX 54 57 75 58 42 59 26 60 27 61 35 62 28 63 34 64 36 65 33 66
REMARK SMILES IDX 29 67 30 68 31 69 32 70 58 71 59 72 67 73 60 74 66 75 68 76
REMARK SMILES IDX 65 77 61 78 62 79 63 80 64 81 43 82 44 83 52 84 45 85 51 86
REMARK SMILES IDX 53 87 50 88 46 89 47 90 48 91 49 92
REMARK H PARENT 81 22 73 45 41 56
REMARK Flexibility Score: inf
ROOT
ATOM      1  O   UNL A   1      32.166  30.768  25.852  1.00  0.00    -0.374 OA
ENDROOT
BRANCH   1   2
ATOM      2  C   UNL A   1      32.622  29.491  26.305  1.00  0.00     0.202 C 
BRANCH   2   3
ATOM      3  C   UNL A   1      31.749  28.293  25.931  1.00  0.00     0.261 C 
BRANCH   3   4
ATOM      4  O   UNL A   1      32.569  27.155  25.617  1.00  0.00    -0.463 OA
BRANCH   4   5
ATOM      5  C   UNL A   1      32.124  25.958  26.051  1.00  0.00     0.312 C 
ATOM      6  O   UNL A   1      31.328  25.812  26.976  1.00  0.00    -0.252 OA
BRANCH   5   7
ATOM      7  C   UNL A   1      32.684  24.771  25.285  1.00  0.00     0.132 C 
BRANCH   7   8
ATOM      8  C   UNL A   1      33.840  25.065  24.286  1.00  0.00     0.018 C 
BRANCH   8   9
ATOM      9  C   UNL A   1      35.054  24.129  24.245  1.00  0.00     0.001 C 
BRANCH   9  10
ATOM     10  C   UNL A   1      35.818  23.981  25.556  1.00  0.00    -0.003 C 
ATOM     11  C   UNL A   1      35.590  22.639  26.236  1.00  0.00     0.004 C 
ENDBRANCH   9  10
ENDBRANCH   8   9
ENDBRANCH   7   8
BRANCH   7  12
ATOM     12  C   UNL A   1      31.537  24.034  24.498  1.00  0.00     0.161 C 
BRANCH  12  13
ATOM     13  C   UNL A   1      31.931  22.593  24.233  1.00  0.00     0.017 A 
ATOM     14  C   UNL A   1      32.006  22.100  22.920  1.00  0.00     0.010 A 
ATOM     15  C   UNL A   1      32.156  21.704  25.288  1.00  0.00     0.130 A 
ATOM     16  C   UNL A   1      32.267  20.751  22.679  1.00  0.00     0.016 A 
ATOM     17  C   UNL A   1      32.396  20.353  25.061  1.00  0.00     0.055 A 
ATOM     18  F   UNL A   1      32.116  22.142  26.555  1.00  0.00    -0.207 F 
ATOM     19  C   UNL A   1      32.443  19.881  23.754  1.00  0.00     0.020 A 
ATOM     20  Br  UNL A   1      32.738  18.043  23.429  1.00  0.00    -0.051 Br
ENDBRANCH  12  13
BRANCH  12  21
ATOM     21  O   UNL A   1      30.239  23.973  25.098  1.00  0.00    -0.387 OA
ATOM     22  H   UNL A   1      30.191  24.609  25.829  1.00  0.00     0.211 HD
ENDBRANCH  12  21
ENDBRANCH   7  12
ENDBRANCH   5   7
ENDBRANCH   4   5
ENDBRANCH   3   4
ENDBRANCH   2   3
ENDBRANCH   1   2
BRANCH   1  23
ATOM     23  C   UNL A   1      31.602  31.653  26.818  1.00  0.00     0.202 C 
BRANCH  23  24
ATOM     24  C   UNL A   1      32.120  33.098  26.840  1.00  0.00     0.261 C 
BRANCH  24  25
ATOM     25  O   UNL A   1      32.369  33.583  28.173  1.00  0.00    -0.460 OA
BRANCH  25  26
ATOM     26  C   UNL A   1      33.486  34.343  28.291  1.00  0.00     0.338 C 
ATOM     27  O   UNL A   1      33.533  35.565  28.349  1.00  0.00    -0.246 OA
BRANCH  26  28
ATOM     28  C   UNL A   1      34.668  33.498  28.547  1.00  0.00     0.060 A 
ATOM     29  C   UNL A   1      34.448  32.267  29.179  1.00  0.00     0.016 A 
ATOM     30  C   UNL A   1      35.967  33.925  28.263  1.00  0.00     0.016 A 
ATOM     31  C   UNL A   1      35.526  31.481  29.578  1.00  0.00     0.010 A 
ATOM     32  C   UNL A   1      37.051  33.138  28.676  1.00  0.00     0.010 A 
ATOM     33  C   UNL A   1      36.836  31.931  29.369  1.00  0.00    -0.014 A 
BRANCH  33  34
ATOM     34  C   UNL A   1      37.960  31.218  30.031  1.00  0.00     0.031 A 
ATOM     35  C   UNL A   1      38.273  31.533  31.470  1.00  0.00     0.074 A 
ATOM     36  C   UNL A   1      38.651  30.262  29.383  1.00  0.00     0.049 A 
ATOM     37  N   UNL A   1      39.213  31.053  32.241  1.00  0.00    -0.248 NA
ATOM     38  C   UNL A   1      37.405  32.525  32.123  1.00  0.00     0.031 C 
ATOM     39  C   UNL A   1      38.401  29.824  28.010  1.00  0.00     0.029 A 
ATOM     40  N   UNL A   1      39.703  29.484  29.798  1.00  0.00    -0.354 N 
ATOM     41  C   UNL A   1      39.051  31.681  33.473  1.00  0.00     0.074 A 
ATOM     42  C   UNL A   1      37.948  32.607  33.329  1.00  0.00     0.031 C 
ATOM     43  C   UNL A   1      39.281  28.859  27.694  1.00  0.00     0.029 A 
ATOM     44  C   UNL A   1      40.180  28.637  28.825  1.00  0.00     0.049 A 
ATOM     45  H   UNL A   1      40.080  29.528  30.706  1.00  0.00     0.167 HD
ATOM     46  C   UNL A   1      39.751  31.494  34.619  1.00  0.00     0.034 A 
ATOM     47  C   UNL A   1      41.237  27.798  28.839  1.00  0.00     0.034 A 
ATOM     48  C   UNL A   1      40.856  30.575  34.747  1.00  0.00     0.049 A 
ATOM     49  C   UNL A   1      42.066  27.682  30.098  1.00  0.00     0.074 A 
ATOM     50  C   UNL A   1      41.633  30.311  35.862  1.00  0.00     0.029 A 
ATOM     51  N   UNL A   1      41.349  29.778  33.723  1.00  0.00    -0.354 N 
ATOM     52  N   UNL A   1      41.905  28.286  31.253  1.00  0.00    -0.248 NA
ATOM     53  C   UNL A   1      43.213  26.766  30.055  1.00  0.00     0.031 C 
ATOM     54  C   UNL A   1      42.637  29.408  35.494  1.00  0.00     0.029 A 
ATOM     55  C   UNL A   1      42.439  29.046  34.171  1.00  0.00     0.049 A 
ATOM     56  H   UNL A   1      40.979  29.738  32.811  1.00  0.00     0.167 HD
ATOM     57  C   UNL A   1      42.910  27.793  32.083  1.00  0.00     0.074 A 
ATOM     58  C   UNL A   1      43.662  26.835  31.300  1.00  0.00     0.031 C 
ATOM     59  C   UNL A   1      43.185  28.098  33.377  1.00  0.00     0.034 A 
BRANCH  46  60
ATOM     60  C   UNL A   1      39.370  32.343  35.809  1.00  0.00     0.023 A 
ATOM     61  C   UNL A   1      38.554  31.848  36.841  1.00  0.00     0.031 A 
ATOM     62  C   UNL A   1      39.812  33.675  35.899  1.00  0.00     0.131 A 
ATOM     63  C   UNL A   1      38.154  32.698  37.884  1.00  0.00     0.055 A 
ATOM     64  C   UNL A   1      39.474  34.492  36.979  1.00  0.00     0.041 A 
ATOM     65  F   UNL A   1      40.574  34.209  34.931  1.00  0.00    -0.206 F 
ATOM     66  C   UNL A   1      38.629  34.008  37.974  1.00  0.00     0.022 A 
BRANCH  63  67
ATOM     67  S   UNL A   1      36.898  32.106  39.052  1.00  0.00     0.124 S 
ATOM     68  O   UNL A   1      36.994  30.659  38.881  1.00  0.00    -0.237 OA
ATOM     69  O   UNL A   1      37.377  32.634  40.325  1.00  0.00    -0.237 OA
ATOM     70  O   UNL A   1      35.660  32.704  38.555  1.00  0.00    -0.744 OA
ENDBRANCH  63  67
ENDBRANCH  46  60
BRANCH  47  71
ATOM     71  C   UNL A   1      41.614  27.030  27.616  1.00  0.00     0.023 A 
ATOM     72  C   UNL A   1      41.429  25.639  27.543  1.00  0.00     0.031 A 
ATOM     73  C   UNL A   1      42.236  27.669  26.528  1.00  0.00     0.131 A 
ATOM     74  C   UNL A   1      41.910  24.928  26.431  1.00  0.00     0.055 A 
ATOM     75  C   UNL A   1      42.660  26.964  25.401  1.00  0.00     0.041 A 
ATOM     76  F   UNL A   1      42.441  28.996  26.547  1.00  0.00    -0.206 F 
ATOM     77  C   UNL A   1      42.511  25.583  25.355  1.00  0.00     0.022 A 
BRANCH  74  78
ATOM     78  S   UNL A   1      41.827  23.116  26.459  1.00  0.00     0.124 S 
ATOM     79  O   UNL A   1      40.391  22.883  26.351  1.00  0.00    -0.237 OA
ATOM     80  O   UNL A   1      42.625  22.760  25.290  1.00  0.00    -0.237 OA
ATOM     81  O   UNL A   1      42.422  22.768  27.747  1.00  0.00    -0.744 OA
ENDBRANCH  74  78
ENDBRANCH  47  71
BRANCH  59  82
ATOM     82  C   UNL A   1      44.315  27.347  34.039  1.00  0.00     0.023 A 
ATOM     83  C   UNL A   1      44.129  26.075  34.608  1.00  0.00     0.031 A 
ATOM     84  C   UNL A   1      45.598  27.920  34.106  1.00  0.00     0.131 A 
ATOM     85  C   UNL A   1      45.194  25.442  35.268  1.00  0.00     0.055 A 
ATOM     86  C   UNL A   1      46.668  27.259  34.711  1.00  0.00     0.041 A 
ATOM     87  F   UNL A   1      45.833  29.133  33.580  1.00  0.00    -0.206 F 
ATOM     88  C   UNL A   1      46.466  26.020  35.308  1.00  0.00     0.022 A 
BRANCH  85  89
ATOM     89  S   UNL A   1      44.874  23.891  36.153  1.00  0.00     0.124 S 
ATOM     90  O   UNL A   1      44.923  24.321  37.547  1.00  0.00    -0.237 OA
ATOM     91  O   UNL A   1      43.559  23.510  35.650  1.00  0.00    -0.237 OA
ATOM     92  O   UNL A   1      45.972  23.023  35.733  1.00  0.00    -0.744 OA
ENDBRANCH  85  89
ENDBRANCH  59  82
ENDBRANCH  33  34
ENDBRANCH  26  28
ENDBRANCH  25  26
ENDBRANCH  24  25
ENDBRANCH  23  24
ENDBRANCH   1  23
TORSDOF 23
ENDMDL
MODEL 2
REMARK VINA RESULT:     -10.2      5.197     10.592
REMARK SMILES CCCC[C@@H](C(=O)OCCOCCOC(=O)c1ccc(-c2c3nc(c(-c4cc(S(=O)(=O)[O-])ccc4F)c4ccc([nH]4)c(-c4cc(S(=O)(=O)[O-])ccc4F)c4nc(c(-c5cc(S(=O)(=O)[O-])ccc5F)c5ccc2[nH]5)C=C4)C=C3)cc1)[C@H](O)c1ccc(Br)cc1F
REMARK SMILES IDX 11 1 10 2 9 3 8 4 6 5 7 6 5 7 4 8 3 9 2 10 1 11 80 12 82 13
REMARK SMILES IDX 83 14 88 15 84 16 87 17 89 18 85 19 86 20 81 21 12 23 13 24
REMARK SMILES IDX 14 25 15 26 16 27 17 28 18 29 79 30 19 31 78 32 20 33 21 34
REMARK SMILES IDX 22 35 72 36 23 37 77 38 71 39 73 40 24 41 76 42 70 43 69 44
REMARK SMILES IDX 25 46 57 47 37 48 56 49 38 50 41 51 55 52 74 53 39 54 40 55
REMARK SMILES IDX 54 57 75 58 42 59 26 60 27 61 35 62 28 63 34 64 36 65 33 66
REMARK SMILES IDX 29 67 30 68 31 69 32 70 58 71 59 72 67 73 60 74 66 75 68 76
REMARK SMILES IDX 65 77 61 78 62 79 63 80 64 81 43 82 44 83 52 84 45 85 51 86
REMARK SMILES IDX 53 87 50 88 46 89 47 90 48 91 49 92
REMARK H PARENT 81 22 73 45 41 56
REMARK Flexibility Score: inf
ROOT
ATOM      1  O   UNL A   1      35.611  21.102  25.218  1.00  0.00    -0.374 OA
ENDROOT
BRANCH   1   2
ATOM      2  C   UNL A   1      35.159  21.843  24.082  1.00  0.00     0.202 C 
BRANCH   2   3
ATOM      3  C   UNL A   1      35.246  23.366  24.194  1.00  0.00     0.261 C 
BRANCH   3   4
ATOM      4  O   UNL A   1      35.122  23.970  22.895  1.00  0.00    -0.463 OA
BRANCH   4   5
ATOM      5  C   UNL A   1      33.878  24.334  22.520  1.00  0.00     0.312 C 
ATOM      6  O   UNL A   1      33.275  23.847  21.567  1.00  0.00    -0.252 OA
BRANCH   5   7
ATOM      7  C   UNL A   1      33.256  25.411  23.392  1.00  0.00     0.132 C 
BRANCH   7   8
ATOM      8  C   UNL A   1      32.096  24.968  24.332  1.00  0.00     0.018 C 
BRANCH   8   9
ATOM      9  C   UNL A   1      32.124  25.384  25.807  1.00  0.00     0.001 C 
BRANCH   9  10
ATOM     10  C   UNL A   1      30.945  26.230  26.276  1.00  0.00    -0.003 C 
ATOM     11  C   UNL A   1      31.331  27.282  27.305  1.00  0.00     0.004 C 
ENDBRANCH   9  10
ENDBRANCH   8   9
ENDBRANCH   7   8
BRANCH   7  12
ATOM     12  C   UNL A   1      32.733  26.602  22.505  1.00  0.00     0.161 C 
BRANCH  12  13
ATOM     13  C   UNL A   1      32.487  27.824  23.370  1.00  0.00     0.017 A 
ATOM     14  C   UNL A   1      33.518  28.367  24.155  1.00  0.00     0.010 A 
ATOM     15  C   UNL A   1      31.213  28.392  23.467  1.00  0.00     0.130 A 
ATOM     16  C   UNL A   1      33.268  29.425  25.029  1.00  0.00     0.016 A 
ATOM     17  C   UNL A   1      30.947  29.433  24.350  1.00  0.00     0.055 A 
ATOM     18  F   UNL A   1      30.208  27.917  22.717  1.00  0.00    -0.207 F 
ATOM     19  C   UNL A   1      31.978  29.941  25.133  1.00  0.00     0.020 A 
ATOM     20  Br  UNL A   1      31.626  31.335  26.360  1.00  0.00    -0.051 Br
ENDBRANCH  12  13
BRANCH  12  21
ATOM     21  O   UNL A   1      33.560  27.054  21.429  1.00  0.00    -0.387 OA
ATOM     22  H   UNL A   1      34.338  26.479  21.355  1.00  0.00     0.211 HD
ENDBRANCH  12  21
ENDBRANCH   7  12
ENDBRANCH   5   7
ENDBRANCH   4   5
ENDBRANCH   3   4
ENDBRANCH   2   3
ENDBRANCH   1   2
BRANCH   1  23
ATOM     23  C   UNL A   1      36.238  19.843  24.982  1.00  0.00     0.202 C 
BRANCH  23  24
ATOM     24  C   UNL A   1      37.770  19.827  24.866  1.00  0.00     0.261 C 
BRANCH  24  25
ATOM     25  O   UNL A   1      38.381  21.035  25.357  1.00  0.00    -0.460 OA
BRANCH  25  26
ATOM     26  C   UNL A   1      39.479  20.832  26.126  1.00  0.00     0.338 C 
ATOM     27  O   UNL A   1      40.171  19.822  26.157  1.00  0.00    -0.246 OA
BRANCH  26  28
ATOM     28  C   UNL A   1      39.880  22.079  26.803  1.00  0.00     0.060 A 
ATOM     29  C   UNL A   1      39.200  23.250  26.440  1.00  0.00     0.016 A 
ATOM     30  C   UNL A   1      40.947  22.132  27.703  1.00  0.00     0.016 A 
ATOM     31  C   UNL A   1      39.617  24.484  26.932  1.00  0.00     0.010 A 
ATOM     32  C   UNL A   1      41.372  23.376  28.188  1.00  0.00     0.010 A 
ATOM     33  C   UNL A   1      40.733  24.561  27.775  1.00  0.00    -0.014 A 
BRANCH  33  34
ATOM     34  C   UNL A   1      41.322  25.893  28.075  1.00  0.00     0.031 A 
ATOM     35  C   UNL A   1      42.719  26.192  27.598  1.00  0.00     0.074 A 
ATOM     36  C   UNL A   1      40.606  26.841  28.707  1.00  0.00     0.049 A 
ATOM     37  N   UNL A   1      43.440  27.272  27.758  1.00  0.00    -0.248 NA
ATOM     38  C   UNL A   1      43.390  25.128  26.836  1.00  0.00     0.031 C 
ATOM     39  C   UNL A   1      39.225  26.691  29.162  1.00  0.00     0.029 A 
ATOM     40  N   UNL A   1      40.944  28.120  29.072  1.00  0.00    -0.354 N 
ATOM     41  C   UNL A   1      44.649  27.020  27.117  1.00  0.00     0.074 A 
ATOM     42  C   UNL A   1      44.576  25.669  26.602  1.00  0.00     0.031 C 
ATOM     43  C   UNL A   1      38.835  27.835  29.751  1.00  0.00     0.029 A 
ATOM     44  C   UNL A   1      39.948  28.782  29.751  1.00  0.00     0.049 A 
ATOM     45  H   UNL A   1      41.817  28.526  28.866  1.00  0.00     0.167 HD
ATOM     46  C   UNL A   1      45.716  27.842  26.963  1.00  0.00     0.034 A 
ATOM     47  C   UNL A   1      39.945  30.002  30.328  1.00  0.00     0.034 A 
ATOM     48  C   UNL A   1      45.780  29.184  27.491  1.00  0.00     0.049 A 
ATOM     49  C   UNL A   1      41.184  30.863  30.231  1.00  0.00     0.074 A 
ATOM     50  C   UNL A   1      46.813  30.101  27.392  1.00  0.00     0.029 A 
ATOM     51  N   UNL A   1      44.775  29.798  28.225  1.00  0.00    -0.354 N 
ATOM     52  N   UNL A   1      42.322  30.609  29.626  1.00  0.00    -0.248 NA
ATOM     53  C   UNL A   1      41.133  32.175  30.888  1.00  0.00     0.031 C 
ATOM     54  C   UNL A   1      46.461  31.240  28.125  1.00  0.00     0.029 A 
ATOM     55  C   UNL A   1      45.176  31.068  28.614  1.00  0.00     0.049 A 
ATOM     56  H   UNL A   1      43.904  29.391  28.439  1.00  0.00     0.167 HD
ATOM     57  C   UNL A   1      43.107  31.748  29.801  1.00  0.00     0.074 A 
ATOM     58  C   UNL A   1      42.308  32.691  30.556  1.00  0.00     0.031 C 
ATOM     59  C   UNL A   1      44.371  31.996  29.373  1.00  0.00     0.034 A 
BRANCH  46  60
ATOM     60  C   UNL A   1      46.919  27.288  26.237  1.00  0.00     0.023 A 
ATOM     61  C   UNL A   1      47.914  26.556  26.905  1.00  0.00     0.031 A 
ATOM     62  C   UNL A   1      47.081  27.517  24.858  1.00  0.00     0.131 A 
ATOM     63  C   UNL A   1      49.057  26.133  26.209  1.00  0.00     0.055 A 
ATOM     64  C   UNL A   1      48.183  27.028  24.156  1.00  0.00     0.041 A 
ATOM     65  F   UNL A   1      46.174  28.231  24.173  1.00  0.00    -0.206 F 
ATOM     66  C   UNL A   1      49.187  26.342  24.834  1.00  0.00     0.022 A 
BRANCH  63  67
ATOM     67  S   UNL A   1      50.435  25.423  27.152  1.00  0.00     0.124 S 
ATOM     68  O   UNL A   1      49.763  24.371  27.909  1.00  0.00    -0.237 OA
ATOM     69  O   UNL A   1      51.341  24.976  26.099  1.00  0.00    -0.237 OA
ATOM     70  O   UNL A   1      50.917  26.547  27.953  1.00  0.00    -0.744 OA
ENDBRANCH  63  67
ENDBRANCH  46  60
BRANCH  47  71
ATOM     71  C   UNL A   1      38.755  30.478  31.092  1.00  0.00     0.023 A 
ATOM     72  C   UNL A   1      37.686  31.123  30.448  1.00  0.00     0.031 A 
ATOM     73  C   UNL A   1      38.705  30.362  32.493  1.00  0.00     0.131 A 
ATOM     74  C   UNL A   1      36.641  31.672  31.209  1.00  0.00     0.055 A 
ATOM     75  C   UNL A   1      37.636  30.859  33.239  1.00  0.00     0.041 A 
ATOM     76  F   UNL A   1      39.703  29.757  33.160  1.00  0.00    -0.206 F 
ATOM     77  C   UNL A   1      36.602  31.533  32.598  1.00  0.00     0.022 A 
BRANCH  74  78
ATOM     78  S   UNL A   1      35.379  32.663  30.362  1.00  0.00     0.124 S 
ATOM     79  O   UNL A   1      34.275  32.614  31.313  1.00  0.00    -0.237 OA
ATOM     80  O   UNL A   1      36.051  33.951  30.223  1.00  0.00    -0.237 OA
ATOM     81  O   UNL A   1      35.160  31.939  29.112  1.00  0.00    -0.744 OA
ENDBRANCH  74  78
ENDBRANCH  47  71
BRANCH  59  82
ATOM     82  C   UNL A   1      44.944  33.361  29.667  1.00  0.00     0.023 A 
ATOM     83  C   UNL A   1      44.724  34.459  28.816  1.00  0.00     0.031 A 
ATOM     84  C   UNL A   1      45.730  33.564  30.816  1.00  0.00     0.131 A 
ATOM     85  C   UNL A   1      45.329  35.694  29.097  1.00  0.00     0.055 A 
ATOM     86  C   UNL A   1      46.280  34.810  31.121  1.00  0.00     0.041 A 
ATOM     87  F   UNL A   1      45.975  32.551  31.662  1.00  0.00    -0.206 F 
ATOM     88  C   UNL A   1      46.092  35.880  30.253  1.00  0.00     0.022 A 
BRANCH  85  89
ATOM     89  S   UNL A   1      45.180  37.034  27.884  1.00  0.00     0.124 S 
ATOM     90  O   UNL A   1      45.044  38.207  28.742  1.00  0.00    -0.237 OA
ATOM     91  O   UNL A   1      46.432  36.927  27.144  1.00  0.00    -0.237 OA
ATOM     92  O   UNL A   1      43.981  36.680  27.125  1.00  0.00    -0.744 OA
ENDBRANCH  85  89
ENDBRANCH  59  82
ENDBRANCH  33  34
ENDBRANCH  26  28
ENDBRANCH  25  26
ENDBRANCH  24  25
ENDBRANCH  23  24
ENDBRANCH   1  23
TORSDOF 23
ENDMDL
MODEL 3
REMARK VINA RESULT:      -9.9      1.897      2.194
REMARK SMILES CCCC[C@@H](C(=O)OCCOCCOC(=O)c1ccc(-c2c3nc(c(-c4cc(S(=O)(=O)[O-])ccc4F)c4ccc([nH]4)c(-c4cc(S(=O)(=O)[O-])ccc4F)c4nc(c(-c5cc(S(=O)(=O)[O-])ccc5F)c5ccc2[nH]5)C=C4)C=C3)cc1)[C@H](O)c1ccc(Br)cc1F
REMARK SMILES IDX 11 1 10 2 9 3 8 4 6 5 7 6 5 7 4 8 3 9 2 10 1 11 80 12 82 13
REMARK SMILES IDX 83 14 88 15 84 16 87 17 89 18 85 19 86 20 81 21 12 23 13 24
REMARK SMILES IDX 14 25 15 26 16 27 17 28 18 29 79 30 19 31 78 32 20 33 21 34
REMARK SMILES IDX 22 35 72 36 23 37 77 38 71 39 73 40 24 41 76 42 70 43 69 44
REMARK SMILES IDX 25 46 57 47 37 48 56 49 38 50 41 51 55 52 74 53 39 54 40 55
REMARK SMILES IDX 54 57 75 58 42 59 26 60 27 61 35 62 28 63 34 64 36 65 33 66
REMARK SMILES IDX 29 67 30 68 31 69 32 70 58 71 59 72 67 73 60 74 66 75 68 76
REMARK SMILES IDX 65 77 61 78 62 79 63 80 64 81 43 82 44 83 52 84 45 85 51 86
REMARK SMILES IDX 53 87 50 88 46 89 47 90 48 91 49 92
REMARK H PARENT 81 22 73 45 41 56
REMARK Flexibility Score: inf
ROOT
ATOM      1  O   UNL A   1      32.076  30.681  25.814  1.00  0.00    -0.374 OA
ENDROOT
BRANCH   1   2
ATOM      2  C   UNL A   1      32.487  29.386  26.257  1.00  0.00     0.202 C 
BRANCH   2   3
ATOM      3  C   UNL A   1      31.526  28.236  25.957  1.00  0.00     0.261 C 
BRANCH   3   4
ATOM      4  O   UNL A   1      32.231  27.140  25.349  1.00  0.00    -0.463 OA
BRANCH   4   5
ATOM      5  C   UNL A   1      31.881  25.903  25.756  1.00  0.00     0.312 C 
ATOM      6  O   UNL A   1      31.061  25.675  26.642  1.00  0.00    -0.252 OA
BRANCH   5   7
ATOM      7  C   UNL A   1      32.585  24.780  25.012  1.00  0.00     0.132 C 
BRANCH   7   8
ATOM      8  C   UNL A   1      33.775  25.187  24.095  1.00  0.00     0.018 C 
BRANCH   8   9
ATOM      9  C   UNL A   1      34.925  24.198  23.873  1.00  0.00     0.001 C 
BRANCH   9  10
ATOM     10  C   UNL A   1      35.490  23.549  25.132  1.00  0.00    -0.003 C 
ATOM     11  C   UNL A   1      36.987  23.763  25.298  1.00  0.00     0.004 C 
ENDBRANCH   9  10
ENDBRANCH   8   9
ENDBRANCH   7   8
BRANCH   7  12
ATOM     12  C   UNL A   1      31.555  23.968  24.141  1.00  0.00     0.161 C 
BRANCH  12  13
ATOM     13  C   UNL A   1      31.960  22.507  24.088  1.00  0.00     0.017 A 
ATOM     14  C   UNL A   1      32.046  21.831  22.858  1.00  0.00     0.010 A 
ATOM     15  C   UNL A   1      32.181  21.779  25.260  1.00  0.00     0.130 A 
ATOM     16  C   UNL A   1      32.316  20.463  22.815  1.00  0.00     0.016 A 
ATOM     17  C   UNL A   1      32.430  20.411  25.229  1.00  0.00     0.055 A 
ATOM     18  F   UNL A   1      32.130  22.394  26.451  1.00  0.00    -0.207 F 
ATOM     19  C   UNL A   1      32.490  19.757  24.004  1.00  0.00     0.020 A 
ATOM     20  Br  UNL A   1      32.796  17.894  23.947  1.00  0.00    -0.051 Br
ENDBRANCH  12  13
BRANCH  12  21
ATOM     21  O   UNL A   1      30.182  23.973  24.542  1.00  0.00    -0.387 OA
ATOM     22  H   UNL A   1      30.124  23.832  25.500  1.00  0.00     0.211 HD
ENDBRANCH  12  21
ENDBRANCH   7  12
ENDBRANCH   5   7
ENDBRANCH   4   5
ENDBRANCH   3   4
ENDBRANCH   2   3
ENDBRANCH   1   2
BRANCH   1  23
ATOM     23  C   UNL A   1      31.513  31.566  26.780  1.00  0.00     0.202 C 
BRANCH  23  24
ATOM     24  C   UNL A   1      31.965  33.033  26.744  1.00  0.00     0.261 C 
BRANCH  24  25
ATOM     25  O   UNL A   1      32.211  33.576  28.055  1.00  0.00    -0.460 OA
BRANCH  25  26
ATOM     26  C   UNL A   1      33.337  34.326  28.147  1.00  0.00     0.338 C 
ATOM     27  O   UNL A   1      33.399  35.548  28.165  1.00  0.00    -0.246 OA
BRANCH  26  28
ATOM     28  C   UNL A   1      34.508  33.476  28.431  1.00  0.00     0.060 A 
ATOM     29  C   UNL A   1      34.282  32.297  29.154  1.00  0.00     0.016 A 
ATOM     30  C   UNL A   1      35.807  33.853  28.083  1.00  0.00     0.016 A 
ATOM     31  C   UNL A   1      35.355  31.517  29.578  1.00  0.00     0.010 A 
ATOM     32  C   UNL A   1      36.886  33.073  28.520  1.00  0.00     0.010 A 
ATOM     33  C   UNL A   1      36.667  31.923  29.303  1.00  0.00    -0.014 A 
BRANCH  33  34
ATOM     34  C   UNL A   1      37.795  31.234  29.983  1.00  0.00     0.031 A 
ATOM     35  C   UNL A   1      38.111  31.594  31.411  1.00  0.00     0.074 A 
ATOM     36  C   UNL A   1      38.487  30.260  29.363  1.00  0.00     0.049 A 
ATOM     37  N   UNL A   1      39.055  31.140  32.194  1.00  0.00    -0.248 NA
ATOM     38  C   UNL A   1      37.242  32.604  32.036  1.00  0.00     0.031 C 
ATOM     39  C   UNL A   1      38.235  29.780  28.005  1.00  0.00     0.029 A 
ATOM     40  N   UNL A   1      39.542  29.499  29.799  1.00  0.00    -0.354 N 
ATOM     41  C   UNL A   1      38.895  31.806  33.406  1.00  0.00     0.074 A 
ATOM     42  C   UNL A   1      37.789  32.724  33.237  1.00  0.00     0.031 C 
ATOM     43  C   UNL A   1      39.117  28.808  27.716  1.00  0.00     0.029 A 
ATOM     44  C   UNL A   1      40.020  28.623  28.851  1.00  0.00     0.049 A 
ATOM     45  H   UNL A   1      39.922  29.572  30.704  1.00  0.00     0.167 HD
ATOM     46  C   UNL A   1      39.598  31.657  34.556  1.00  0.00     0.034 A 
ATOM     47  C   UNL A   1      41.079  27.788  28.888  1.00  0.00     0.034 A 
ATOM     48  C   UNL A   1      40.706  30.745  34.708  1.00  0.00     0.049 A 
ATOM     49  C   UNL A   1      41.912  27.713  30.148  1.00  0.00     0.074 A 
ATOM     50  C   UNL A   1      41.487  30.517  35.829  1.00  0.00     0.029 A 
ATOM     51  N   UNL A   1      41.198  29.918  33.708  1.00  0.00    -0.354 N 
ATOM     52  N   UNL A   1      41.752  28.352  31.284  1.00  0.00    -0.248 NA
ATOM     53  C   UNL A   1      43.061  26.799  30.129  1.00  0.00     0.031 C 
ATOM     54  C   UNL A   1      42.492  29.606  35.486  1.00  0.00     0.029 A 
ATOM     55  C   UNL A   1      42.292  29.204  34.175  1.00  0.00     0.049 A 
ATOM     56  H   UNL A   1      40.826  29.849  32.799  1.00  0.00     0.167 HD
ATOM     57  C   UNL A   1      42.761  27.888  32.126  1.00  0.00     0.074 A 
ATOM     58  C   UNL A   1      43.514  26.908  31.370  1.00  0.00     0.031 C 
ATOM     59  C   UNL A   1      43.038  28.234  33.409  1.00  0.00     0.034 A 
BRANCH  46  60
ATOM     60  C   UNL A   1      39.217  32.541  35.720  1.00  0.00     0.023 A 
ATOM     61  C   UNL A   1      39.662  33.870  35.816  1.00  0.00     0.031 A 
ATOM     62  C   UNL A   1      38.416  32.036  36.760  1.00  0.00     0.131 A 
ATOM     63  C   UNL A   1      39.356  34.629  36.957  1.00  0.00     0.055 A 
ATOM     64  C   UNL A   1      38.051  32.820  37.855  1.00  0.00     0.041 A 
ATOM     65  F   UNL A   1      37.982  30.766  36.733  1.00  0.00    -0.206 F 
ATOM     66  C   UNL A   1      38.533  34.122  37.965  1.00  0.00     0.022 A 
BRANCH  63  67
ATOM     67  S   UNL A   1      40.159  36.242  37.167  1.00  0.00     0.124 S 
ATOM     68  O   UNL A   1      39.354  36.835  38.232  1.00  0.00    -0.237 OA
ATOM     69  O   UNL A   1      41.523  35.871  37.526  1.00  0.00    -0.237 OA
ATOM     70  O   UNL A   1      40.007  36.873  35.858  1.00  0.00    -0.744 OA
ENDBRANCH  63  67
ENDBRANCH  46  60
BRANCH  47  71
ATOM     71  C   UNL A   1      41.454  26.984  27.688  1.00  0.00     0.023 A 
ATOM     72  C   UNL A   1      41.276  25.591  27.659  1.00  0.00     0.031 A 
ATOM     73  C   UNL A   1      42.070  27.591  26.579  1.00  0.00     0.131 A 
ATOM     74  C   UNL A   1      41.755  24.847  26.568  1.00  0.00     0.055 A 
ATOM     75  C   UNL A   1      42.493  26.853  25.472  1.00  0.00     0.041 A 
ATOM     76  F   UNL A   1      42.270  28.919  26.555  1.00  0.00    -0.206 F 
ATOM     77  C   UNL A   1      42.350  25.470  25.470  1.00  0.00     0.022 A 
BRANCH  74  78
ATOM     78  S   UNL A   1      41.680  23.037  26.653  1.00  0.00     0.124 S 
ATOM     79  O   UNL A   1      42.815  22.653  25.822  1.00  0.00    -0.237 OA
ATOM     80  O   UNL A   1      41.821  22.795  28.085  1.00  0.00    -0.237 OA
ATOM     81  O   UNL A   1      40.365  22.724  26.097  1.00  0.00    -0.744 OA
ENDBRANCH  74  78
ENDBRANCH  47  71
BRANCH  59  82
ATOM     82  C   UNL A   1      44.172  27.507  34.090  1.00  0.00     0.023 A 
ATOM     83  C   UNL A   1      45.486  28.010  34.088  1.00  0.00     0.031 A 
ATOM     84  C   UNL A   1      43.934  26.285  34.746  1.00  0.00     0.131 A 
ATOM     85  C   UNL A   1      46.520  27.268  34.680  1.00  0.00     0.055 A 
ATOM     86  C   UNL A   1      44.956  25.582  35.385  1.00  0.00     0.041 A 
ATOM     87  F   UNL A   1      42.701  25.757  34.778  1.00  0.00    -0.206 F 
ATOM     88  C   UNL A   1      46.260  26.065  35.343  1.00  0.00     0.022 A 
BRANCH  85  89
ATOM     89  S   UNL A   1      48.228  27.851  34.496  1.00  0.00     0.124 S 
ATOM     90  O   UNL A   1      48.653  27.165  33.280  1.00  0.00    -0.237 OA
ATOM     91  O   UNL A   1      48.055  29.295  34.386  1.00  0.00    -0.237 OA
ATOM     92  O   UNL A   1      48.880  27.398  35.724  1.00  0.00    -0.744 OA
ENDBRANCH  85  89
ENDBRANCH  59  82
ENDBRANCH  33  34
ENDBRANCH  26  28
ENDBRANCH  25  26
ENDBRANCH  24  25
ENDBRANCH  23  24
ENDBRANCH   1  23
TORSDOF 23
ENDMDL
