MODEL 1
REMARK VINA RESULT:     -11.0      0.000      0.000
REMARK SMILES C[N@@H+]([C@@H]1CCOC2(CCCC2)C1)C(C)(C)C(=O)OCCOCCOC(=O)c1ccc(-c2c3nc(c(-c4cc(S(=O)(=O)[O-])ccc4F)c4ccc([nH]4)c(-c4cc(S(=O)(=O)[O-])ccc4F)c4nc(c(-c5cc(S(=O)(=O)[O-])ccc5F)c5ccc2[nH]5)C=C4)C=C3)cc1
REMARK SMILES IDX 22 1 21 2 20 3 19 4 18 5 16 6 17 7 13 8 14 9 15 10 2 11 1 12
REMARK SMILES IDX 3 14 4 15 12 16 5 17 7 18 6 19 8 20 11 21 9 22 10 23 23 24
REMARK SMILES IDX 24 25 25 26 26 27 27 28 28 29 89 30 29 31 88 32 30 33 31 34
REMARK SMILES IDX 32 35 82 36 33 37 87 38 81 39 83 40 34 41 86 42 80 43 79 44
REMARK SMILES IDX 35 46 67 47 47 48 66 49 48 50 51 51 65 52 84 53 49 54 50 55
REMARK SMILES IDX 64 57 85 58 52 59 36 60 37 61 45 62 38 63 44 64 46 65 43 66
REMARK SMILES IDX 39 67 40 68 41 69 42 70 68 71 69 72 77 73 70 74 76 75 78 76
REMARK SMILES IDX 75 77 71 78 72 79 73 80 74 81 53 82 54 83 62 84 55 85 61 86
REMARK SMILES IDX 63 87 60 88 56 89 57 90 58 91 59 92
REMARK H PARENT 2 13 83 45 51 56
REMARK Flexibility Score: inf
ROOT
ATOM      1  C   UNL A   1      37.681  20.093  24.929  1.00  0.00     0.202 C 
ENDROOT
BRANCH   1   2
ATOM      2  O   UNL A   1      37.099  21.264  25.503  1.00  0.00    -0.374 OA
BRANCH   2   3
ATOM      3  C   UNL A   1      37.010  22.436  24.699  1.00  0.00     0.202 C 
BRANCH   3   4
ATOM      4  C   UNL A   1      35.642  22.807  24.119  1.00  0.00     0.261 C 
BRANCH   4   5
ATOM      5  O   UNL A   1      34.639  21.811  24.360  1.00  0.00    -0.459 OA
BRANCH   5   6
ATOM      6  C   UNL A   1      33.720  22.135  25.319  1.00  0.00     0.367 C 
ATOM      7  O   UNL A   1      33.940  21.980  26.515  1.00  0.00    -0.245 OA
BRANCH   6   8
ATOM      8  C   UNL A   1      32.357  22.638  24.698  1.00  0.00     0.190 C 
ATOM      9  C   UNL A   1      31.254  22.154  25.660  1.00  0.00     0.092 C 
ATOM     10  C   UNL A   1      32.119  21.948  23.323  1.00  0.00     0.092 C 
BRANCH   8  11
ATOM     11  N   UNL A   1      32.339  24.154  24.497  1.00  0.00    -0.321 N 
ATOM     12  C   UNL A   1      32.757  24.547  23.152  1.00  0.00     0.333 C 
ATOM     13  H   UNL A   1      33.060  24.505  25.129  1.00  0.00     0.349 HD
BRANCH  11  14
ATOM     14  C   UNL A   1      31.118  24.855  24.992  1.00  0.00     0.189 C 
ATOM     15  C   UNL A   1      30.237  25.670  24.032  1.00  0.00     0.093 C 
ATOM     16  C   UNL A   1      31.463  25.731  26.219  1.00  0.00     0.100 C 
ATOM     17  C   UNL A   1      30.684  27.103  23.807  1.00  0.00     0.167 C 
ATOM     18  C   UNL A   1      31.912  27.166  25.891  1.00  0.00     0.074 C 
ATOM     19  O   UNL A   1      30.960  27.793  25.017  1.00  0.00    -0.375 OA
ATOM     20  C   UNL A   1      31.932  28.045  27.173  1.00  0.00     0.036 C 
ATOM     21  C   UNL A   1      33.352  27.267  25.343  1.00  0.00     0.036 C 
ATOM     22  C   UNL A   1      33.371  28.510  27.367  1.00  0.00     0.003 C 
ATOM     23  C   UNL A   1      33.939  28.526  25.965  1.00  0.00     0.003 C 
ENDBRANCH  11  14
ENDBRANCH   8  11
ENDBRANCH   6   8
ENDBRANCH   5   6
ENDBRANCH   4   5
ENDBRANCH   3   4
ENDBRANCH   2   3
ENDBRANCH   1   2
BRANCH   1  24
ATOM     24  C   UNL A   1      38.929  19.505  25.599  1.00  0.00     0.261 C 
BRANCH  24  25
ATOM     25  O   UNL A   1      39.996  20.466  25.719  1.00  0.00    -0.460 OA
BRANCH  25  26
ATOM     26  C   UNL A   1      40.582  20.516  26.940  1.00  0.00     0.338 C 
ATOM     27  O   UNL A   1      41.060  19.577  27.564  1.00  0.00    -0.246 OA
BRANCH  26  28
ATOM     28  C   UNL A   1      40.764  21.917  27.356  1.00  0.00     0.060 A 
ATOM     29  C   UNL A   1      40.042  22.904  26.673  1.00  0.00     0.016 A 
ATOM     30  C   UNL A   1      41.697  22.266  28.332  1.00  0.00     0.016 A 
ATOM     31  C   UNL A   1      40.276  24.252  26.936  1.00  0.00     0.010 A 
ATOM     32  C   UNL A   1      41.943  23.621  28.585  1.00  0.00     0.010 A 
ATOM     33  C   UNL A   1      41.258  24.618  27.866  1.00  0.00    -0.014 A 
BRANCH  33  34
ATOM     34  C   UNL A   1      41.695  26.032  27.965  1.00  0.00     0.031 A 
ATOM     35  C   UNL A   1      43.015  26.421  27.357  1.00  0.00     0.074 A 
ATOM     36  C   UNL A   1      40.931  26.953  28.580  1.00  0.00     0.049 A 
ATOM     37  N   UNL A   1      43.659  27.556  27.423  1.00  0.00    -0.248 NA
ATOM     38  C   UNL A   1      43.701  25.381  26.576  1.00  0.00     0.031 C 
ATOM     39  C   UNL A   1      39.606  26.709  29.143  1.00  0.00     0.029 A 
ATOM     40  N   UNL A   1      41.172  28.279  28.846  1.00  0.00    -0.354 N 
ATOM     41  C   UNL A   1      44.833  27.367  26.703  1.00  0.00     0.074 A 
ATOM     42  C   UNL A   1      44.823  25.996  26.234  1.00  0.00     0.031 C 
ATOM     43  C   UNL A   1      39.159  27.843  29.711  1.00  0.00     0.029 A 
ATOM     44  C   UNL A   1      40.186  28.877  29.593  1.00  0.00     0.049 A 
ATOM     45  H   UNL A   1      41.974  28.755  28.531  1.00  0.00     0.167 HD
ATOM     46  C   UNL A   1      45.828  28.255  26.455  1.00  0.00     0.034 A 
ATOM     47  C   UNL A   1      40.137  30.103  30.155  1.00  0.00     0.034 A 
ATOM     48  C   UNL A   1      45.824  29.613  26.940  1.00  0.00     0.049 A 
ATOM     49  C   UNL A   1      41.304  31.045  29.956  1.00  0.00     0.074 A 
ATOM     50  C   UNL A   1      46.771  30.602  26.743  1.00  0.00     0.029 A 
ATOM     51  N   UNL A   1      44.827  30.171  27.732  1.00  0.00    -0.354 N 
ATOM     52  N   UNL A   1      42.416  30.852  29.284  1.00  0.00    -0.248 NA
ATOM     53  C   UNL A   1      41.208  32.366  30.590  1.00  0.00     0.031 C 
ATOM     54  C   UNL A   1      46.386  31.730  27.475  1.00  0.00     0.029 A 
ATOM     55  C   UNL A   1      45.156  31.476  28.061  1.00  0.00     0.049 A 
ATOM     56  H   UNL A   1      44.007  29.706  28.017  1.00  0.00     0.167 HD
ATOM     57  C   UNL A   1      43.133  32.043  29.385  1.00  0.00     0.074 A 
ATOM     58  C   UNL A   1      42.328  32.946  30.180  1.00  0.00     0.031 C 
ATOM     59  C   UNL A   1      44.341  32.364  28.857  1.00  0.00     0.034 A 
BRANCH  46  60
ATOM     60  C   UNL A   1      47.024  27.760  25.680  1.00  0.00     0.023 A 
ATOM     61  C   UNL A   1      47.213  28.074  24.323  1.00  0.00     0.031 A 
ATOM     62  C   UNL A   1      47.978  26.936  26.303  1.00  0.00     0.131 A 
ATOM     63  C   UNL A   1      48.287  27.512  23.617  1.00  0.00     0.055 A 
ATOM     64  C   UNL A   1      49.089  26.443  25.616  1.00  0.00     0.041 A 
ATOM     65  F   UNL A   1      47.838  26.582  27.590  1.00  0.00    -0.206 F 
ATOM     66  C   UNL A   1      49.241  26.719  24.260  1.00  0.00     0.022 A 
BRANCH  63  67
ATOM     67  S   UNL A   1      48.342  27.714  21.815  1.00  0.00     0.124 S 
ATOM     68  O   UNL A   1      47.006  28.236  21.536  1.00  0.00    -0.237 OA
ATOM     69  O   UNL A   1      49.445  28.652  21.637  1.00  0.00    -0.237 OA
ATOM     70  O   UNL A   1      48.589  26.359  21.326  1.00  0.00    -0.744 OA
ENDBRANCH  63  67
ENDBRANCH  46  60
BRANCH  47  71
ATOM     71  C   UNL A   1      38.979  30.500  31.006  1.00  0.00     0.023 A 
ATOM     72  C   UNL A   1      37.945  31.302  30.500  1.00  0.00     0.031 A 
ATOM     73  C   UNL A   1      38.918  30.121  32.360  1.00  0.00     0.131 A 
ATOM     74  C   UNL A   1      36.917  31.736  31.353  1.00  0.00     0.055 A 
ATOM     75  C   UNL A   1      37.865  30.511  33.189  1.00  0.00     0.041 A 
ATOM     76  F   UNL A   1      39.882  29.357  32.897  1.00  0.00    -0.206 F 
ATOM     77  C   UNL A   1      36.862  31.334  32.689  1.00  0.00     0.022 A 
BRANCH  74  78
ATOM     78  S   UNL A   1      35.693  32.910  30.709  1.00  0.00     0.124 S 
ATOM     79  O   UNL A   1      35.946  32.845  29.274  1.00  0.00    -0.237 OA
ATOM     80  O   UNL A   1      34.439  32.322  31.168  1.00  0.00    -0.237 OA
ATOM     81  O   UNL A   1      36.060  34.171  31.351  1.00  0.00    -0.744 OA
ENDBRANCH  74  78
ENDBRANCH  47  71
BRANCH  59  82
ATOM     82  C   UNL A   1      44.840  33.774  29.069  1.00  0.00     0.023 A 
ATOM     83  C   UNL A   1      44.390  34.849  28.285  1.00  0.00     0.031 A 
ATOM     84  C   UNL A   1      45.765  34.041  30.095  1.00  0.00     0.131 A 
ATOM     85  C   UNL A   1      44.893  36.139  28.518  1.00  0.00     0.055 A 
ATOM     86  C   UNL A   1      46.219  35.333  30.357  1.00  0.00     0.041 A 
ATOM     87  F   UNL A   1      46.228  33.049  30.872  1.00  0.00    -0.206 F 
ATOM     88  C   UNL A   1      45.790  36.390  29.560  1.00  0.00     0.022 A 
BRANCH  85  89
ATOM     89  S   UNL A   1      44.404  37.483  27.402  1.00  0.00     0.124 S 
ATOM     90  O   UNL A   1      44.020  38.532  28.341  1.00  0.00    -0.237 OA
ATOM     91  O   UNL A   1      45.627  37.723  26.643  1.00  0.00    -0.237 OA
ATOM     92  O   UNL A   1      43.302  36.907  26.633  1.00  0.00    -0.744 OA
ENDBRANCH  85  89
ENDBRANCH  59  82
ENDBRANCH  33  34
ENDBRANCH  26  28
ENDBRANCH  25  26
ENDBRANCH  24  25
ENDBRANCH   1  24
TORSDOF 19
ENDMDL
MODEL 2
REMARK VINA RESULT:     -10.9      4.898      7.959
REMARK SMILES C[N@@H+]([C@@H]1CCOC2(CCCC2)C1)C(C)(C)C(=O)OCCOCCOC(=O)c1ccc(-c2c3nc(c(-c4cc(S(=O)(=O)[O-])ccc4F)c4ccc([nH]4)c(-c4cc(S(=O)(=O)[O-])ccc4F)c4nc(c(-c5cc(S(=O)(=O)[O-])ccc5F)c5ccc2[nH]5)C=C4)C=C3)cc1
REMARK SMILES IDX 22 1 21 2 20 3 19 4 18 5 16 6 17 7 13 8 14 9 15 10 2 11 1 12
REMARK SMILES IDX 3 14 4 15 12 16 5 17 7 18 6 19 8 20 11 21 9 22 10 23 23 24
REMARK SMILES IDX 24 25 25 26 26 27 27 28 28 29 89 30 29 31 88 32 30 33 31 34
REMARK SMILES IDX 32 35 82 36 33 37 87 38 81 39 83 40 34 41 86 42 80 43 79 44
REMARK SMILES IDX 35 46 67 47 47 48 66 49 48 50 51 51 65 52 84 53 49 54 50 55
REMARK SMILES IDX 64 57 85 58 52 59 36 60 37 61 45 62 38 63 44 64 46 65 43 66
REMARK SMILES IDX 39 67 40 68 41 69 42 70 68 71 69 72 77 73 70 74 76 75 78 76
REMARK SMILES IDX 75 77 71 78 72 79 73 80 74 81 53 82 54 83 62 84 55 85 61 86
REMARK SMILES IDX 63 87 60 88 56 89 57 90 58 91 59 92
REMARK H PARENT 2 13 83 45 51 56
REMARK Flexibility Score: inf
ROOT
ATOM      1  C   UNL A   1      32.545  29.468  24.822  1.00  0.00     0.202 C 
ENDROOT
BRANCH   1   2
ATOM      2  O   UNL A   1      31.744  28.568  24.054  1.00  0.00    -0.374 OA
BRANCH   2   3
ATOM      3  C   UNL A   1      30.634  27.943  24.691  1.00  0.00     0.202 C 
BRANCH   3   4
ATOM      4  C   UNL A   1      30.183  26.575  24.166  1.00  0.00     0.261 C 
BRANCH   4   5
ATOM      5  O   UNL A   1      30.910  26.150  23.006  1.00  0.00    -0.459 OA
BRANCH   5   6
ATOM      6  C   UNL A   1      31.297  24.839  23.013  1.00  0.00     0.367 C 
ATOM      7  O   UNL A   1      30.509  23.926  23.230  1.00  0.00    -0.245 OA
BRANCH   6   8
ATOM      8  C   UNL A   1      32.853  24.671  22.796  1.00  0.00     0.190 C 
ATOM      9  C   UNL A   1      33.332  25.988  22.156  1.00  0.00     0.092 C 
ATOM     10  C   UNL A   1      33.120  23.526  21.776  1.00  0.00     0.092 C 
BRANCH   8  11
ATOM     11  N   UNL A   1      33.586  24.349  24.100  1.00  0.00    -0.321 N 
ATOM     12  C   UNL A   1      33.682  25.504  24.990  1.00  0.00     0.333 C 
ATOM     13  H   UNL A   1      34.541  24.136  23.811  1.00  0.00     0.349 HD
BRANCH  11  14
ATOM     14  C   UNL A   1      33.172  23.083  24.775  1.00  0.00     0.189 C 
ATOM     15  C   UNL A   1      32.892  23.056  26.286  1.00  0.00     0.093 C 
ATOM     16  C   UNL A   1      34.159  21.944  24.428  1.00  0.00     0.100 C 
ATOM     17  C   UNL A   1      34.113  22.851  27.164  1.00  0.00     0.167 C 
ATOM     18  C   UNL A   1      35.369  21.819  25.372  1.00  0.00     0.074 C 
ATOM     19  O   UNL A   1      34.926  21.767  26.737  1.00  0.00    -0.375 OA
ATOM     20  C   UNL A   1      36.118  20.478  25.134  1.00  0.00     0.036 C 
ATOM     21  C   UNL A   1      36.451  22.898  25.156  1.00  0.00     0.036 C 
ATOM     22  C   UNL A   1      37.533  20.835  24.691  1.00  0.00     0.003 C 
ATOM     23  C   UNL A   1      37.783  22.181  25.331  1.00  0.00     0.003 C 
ENDBRANCH  11  14
ENDBRANCH   8  11
ENDBRANCH   6   8
ENDBRANCH   5   6
ENDBRANCH   4   5
ENDBRANCH   3   4
ENDBRANCH   2   3
ENDBRANCH   1   2
BRANCH   1  24
ATOM     24  C   UNL A   1      31.838  30.382  25.831  1.00  0.00     0.261 C 
BRANCH  24  25
ATOM     25  O   UNL A   1      32.524  30.441  27.097  1.00  0.00    -0.460 OA
BRANCH  25  26
ATOM     26  C   UNL A   1      33.211  31.589  27.318  1.00  0.00     0.338 C 
ATOM     27  O   UNL A   1      32.757  32.726  27.333  1.00  0.00    -0.246 OA
BRANCH  26  28
ATOM     28  C   UNL A   1      34.584  31.279  27.754  1.00  0.00     0.060 A 
ATOM     29  C   UNL A   1      34.891  29.947  28.060  1.00  0.00     0.016 A 
ATOM     30  C   UNL A   1      35.525  32.289  27.953  1.00  0.00     0.016 A 
ATOM     31  C   UNL A   1      36.133  29.621  28.603  1.00  0.00     0.010 A 
ATOM     32  C   UNL A   1      36.765  31.964  28.513  1.00  0.00     0.010 A 
ATOM     33  C   UNL A   1      37.062  30.635  28.870  1.00  0.00    -0.014 A 
BRANCH  33  34
ATOM     34  C   UNL A   1      38.270  30.339  29.678  1.00  0.00     0.031 A 
ATOM     35  C   UNL A   1      39.289  29.381  29.123  1.00  0.00     0.074 A 
ATOM     36  C   UNL A   1      38.460  30.913  30.879  1.00  0.00     0.049 A 
ATOM     37  N   UNL A   1      40.353  28.878  29.690  1.00  0.00    -0.248 NA
ATOM     38  C   UNL A   1      39.068  28.927  27.741  1.00  0.00     0.031 C 
ATOM     39  C   UNL A   1      37.578  31.907  31.486  1.00  0.00     0.029 A 
ATOM     40  N   UNL A   1      39.452  30.728  31.810  1.00  0.00    -0.354 N 
ATOM     41  C   UNL A   1      40.925  28.036  28.742  1.00  0.00     0.074 A 
ATOM     42  C   UNL A   1      40.070  28.078  27.573  1.00  0.00     0.031 C 
ATOM     43  C   UNL A   1      38.056  32.228  32.701  1.00  0.00     0.029 A 
ATOM     44  C   UNL A   1      39.249  31.427  32.976  1.00  0.00     0.049 A 
ATOM     45  H   UNL A   1      40.234  30.151  31.657  1.00  0.00     0.167 HD
ATOM     46  C   UNL A   1      42.058  27.298  28.838  1.00  0.00     0.034 A 
ATOM     47  C   UNL A   1      39.922  31.391  34.145  1.00  0.00     0.034 A 
ATOM     48  C   UNL A   1      42.890  27.263  30.015  1.00  0.00     0.049 A 
ATOM     49  C   UNL A   1      41.124  30.482  34.269  1.00  0.00     0.074 A 
ATOM     50  C   UNL A   1      44.064  26.560  30.221  1.00  0.00     0.029 A 
ATOM     51  N   UNL A   1      42.628  27.951  31.194  1.00  0.00    -0.354 N 
ATOM     52  N   UNL A   1      41.649  29.681  33.370  1.00  0.00    -0.248 NA
ATOM     53  C   UNL A   1      41.821  30.473  35.561  1.00  0.00     0.031 C 
ATOM     54  C   UNL A   1      44.470  26.763  31.544  1.00  0.00     0.029 A 
ATOM     55  C   UNL A   1      43.597  27.660  32.141  1.00  0.00     0.049 A 
ATOM     56  H   UNL A   1      41.865  28.557  31.335  1.00  0.00     0.167 HD
ATOM     57  C   UNL A   1      42.761  29.102  33.980  1.00  0.00     0.074 A 
ATOM     58  C   UNL A   1      42.830  29.647  35.320  1.00  0.00     0.031 C 
ATOM     59  C   UNL A   1      43.651  28.212  33.475  1.00  0.00     0.034 A 
BRANCH  46  60
ATOM     60  C   UNL A   1      42.421  26.426  27.662  1.00  0.00     0.023 A 
ATOM     61  C   UNL A   1      42.177  25.042  27.659  1.00  0.00     0.031 A 
ATOM     62  C   UNL A   1      43.051  26.985  26.535  1.00  0.00     0.131 A 
ATOM     63  C   UNL A   1      42.621  24.255  26.586  1.00  0.00     0.055 A 
ATOM     64  C   UNL A   1      43.418  26.209  25.435  1.00  0.00     0.041 A 
ATOM     65  F   UNL A   1      43.332  28.297  26.491  1.00  0.00    -0.206 F 
ATOM     66  C   UNL A   1      43.217  24.832  25.462  1.00  0.00     0.022 A 
BRANCH  63  67
ATOM     67  S   UNL A   1      42.537  22.449  26.740  1.00  0.00     0.124 S 
ATOM     68  O   UNL A   1      42.526  22.278  28.191  1.00  0.00    -0.237 OA
ATOM     69  O   UNL A   1      41.293  22.130  26.049  1.00  0.00    -0.237 OA
ATOM     70  O   UNL A   1      43.756  21.992  26.076  1.00  0.00    -0.744 OA
ENDBRANCH  63  67
ENDBRANCH  46  60
BRANCH  47  71
ATOM     71  C   UNL A   1      39.452  32.191  35.313  1.00  0.00     0.023 A 
ATOM     72  C   UNL A   1      38.754  31.591  36.372  1.00  0.00     0.031 A 
ATOM     73  C   UNL A   1      39.652  33.584  35.359  1.00  0.00     0.131 A 
ATOM     74  C   UNL A   1      38.243  32.386  37.410  1.00  0.00     0.055 A 
ATOM     75  C   UNL A   1      39.188  34.361  36.421  1.00  0.00     0.041 A 
ATOM     76  F   UNL A   1      40.310  34.209  34.371  1.00  0.00    -0.206 F 
ATOM     77  C   UNL A   1      38.467  33.763  37.450  1.00  0.00     0.022 A 
BRANCH  74  78
ATOM     78  S   UNL A   1      37.200  31.601  38.671  1.00  0.00     0.124 S 
ATOM     79  O   UNL A   1      37.010  30.269  38.110  1.00  0.00    -0.237 OA
ATOM     80  O   UNL A   1      38.045  31.686  39.857  1.00  0.00    -0.237 OA
ATOM     81  O   UNL A   1      36.006  32.444  38.697  1.00  0.00    -0.744 OA
ENDBRANCH  74  78
ENDBRANCH  47  71
BRANCH  59  82
ATOM     82  C   UNL A   1      44.815  27.817  34.351  1.00  0.00     0.023 A 
ATOM     83  C   UNL A   1      44.761  26.704  35.207  1.00  0.00     0.031 A 
ATOM     84  C   UNL A   1      46.009  28.560  34.303  1.00  0.00     0.131 A 
ATOM     85  C   UNL A   1      45.869  26.386  36.008  1.00  0.00     0.055 A 
ATOM     86  C   UNL A   1      47.126  28.207  35.060  1.00  0.00     0.041 A 
ATOM     87  F   UNL A   1      46.114  29.633  33.503  1.00  0.00    -0.206 F 
ATOM     88  C   UNL A   1      47.056  27.120  35.926  1.00  0.00     0.022 A 
BRANCH  85  89
ATOM     89  S   UNL A   1      45.723  25.032  37.206  1.00  0.00     0.124 S 
ATOM     90  O   UNL A   1      46.986  25.131  37.931  1.00  0.00    -0.237 OA
ATOM     91  O   UNL A   1      44.528  25.402  37.955  1.00  0.00    -0.237 OA
ATOM     92  O   UNL A   1      45.583  23.844  36.365  1.00  0.00    -0.744 OA
ENDBRANCH  85  89
ENDBRANCH  59  82
ENDBRANCH  33  34
ENDBRANCH  26  28
ENDBRANCH  25  26
ENDBRANCH  24  25
ENDBRANCH   1  24
TORSDOF 19
ENDMDL
MODEL 3
REMARK VINA RESULT:     -10.8      1.794      2.096
REMARK SMILES C[N@@H+]([C@@H]1CCOC2(CCCC2)C1)C(C)(C)C(=O)OCCOCCOC(=O)c1ccc(-c2c3nc(c(-c4cc(S(=O)(=O)[O-])ccc4F)c4ccc([nH]4)c(-c4cc(S(=O)(=O)[O-])ccc4F)c4nc(c(-c5cc(S(=O)(=O)[O-])ccc5F)c5ccc2[nH]5)C=C4)C=C3)cc1
REMARK SMILES IDX 22 1 21 2 20 3 19 4 18 5 16 6 17 7 13 8 14 9 15 10 2 11 1 12
REMARK SMILES IDX 3 14 4 15 12 16 5 17 7 18 6 19 8 20 11 21 9 22 10 23 23 24
REMARK SMILES IDX 24 25 25 26 26 27 27 28 28 29 89 30 29 31 88 32 30 33 31 34
REMARK SMILES IDX 32 35 82 36 33 37 87 38 81 39 83 40 34 41 86 42 80 43 79 44
REMARK SMILES IDX 35 46 67 47 47 48 66 49 48 50 51 51 65 52 84 53 49 54 50 55
REMARK SMILES IDX 64 57 85 58 52 59 36 60 37 61 45 62 38 63 44 64 46 65 43 66
REMARK SMILES IDX 39 67 40 68 41 69 42 70 68 71 69 72 77 73 70 74 76 75 78 76
REMARK SMILES IDX 75 77 71 78 72 79 73 80 74 81 53 82 54 83 62 84 55 85 61 86
REMARK SMILES IDX 63 87 60 88 56 89 57 90 58 91 59 92
REMARK H PARENT 2 13 83 45 51 56
REMARK Flexibility Score: inf
ROOT
ATOM      1  C   UNL A   1      35.824  20.794  25.164  1.00  0.00     0.202 C 
ENDROOT
BRANCH   1   2
ATOM      2  O   UNL A   1      35.635  21.834  26.123  1.00  0.00    -0.374 OA
BRANCH   2   3
ATOM      3  C   UNL A   1      34.570  21.703  27.059  1.00  0.00     0.202 C 
BRANCH   3   4
ATOM      4  C   UNL A   1      33.411  22.701  26.973  1.00  0.00     0.261 C 
BRANCH   4   5
ATOM      5  O   UNL A   1      32.419  22.329  26.006  1.00  0.00    -0.459 OA
BRANCH   5   6
ATOM      6  C   UNL A   1      31.656  23.360  25.534  1.00  0.00     0.367 C 
ATOM      7  O   UNL A   1      30.772  23.879  26.206  1.00  0.00    -0.245 OA
BRANCH   6   8
ATOM      8  C   UNL A   1      31.996  23.722  24.035  1.00  0.00     0.190 C 
ATOM      9  C   UNL A   1      30.648  23.732  23.289  1.00  0.00     0.092 C 
ATOM     10  C   UNL A   1      32.874  22.599  23.409  1.00  0.00     0.092 C 
BRANCH   8  11
ATOM     11  N   UNL A   1      32.743  25.052  23.918  1.00  0.00    -0.321 N 
ATOM     12  C   UNL A   1      34.052  24.907  23.283  1.00  0.00     0.333 C 
ATOM     13  H   UNL A   1      32.929  25.327  24.883  1.00  0.00     0.349 HD
BRANCH  11  14
ATOM     14  C   UNL A   1      31.937  26.201  23.413  1.00  0.00     0.189 C 
ATOM     15  C   UNL A   1      32.473  27.102  22.288  1.00  0.00     0.093 C 
ATOM     16  C   UNL A   1      31.475  27.092  24.590  1.00  0.00     0.100 C 
ATOM     17  C   UNL A   1      33.372  28.237  22.745  1.00  0.00     0.167 C 
ATOM     18  C   UNL A   1      32.457  28.211  24.985  1.00  0.00     0.074 C 
ATOM     19  O   UNL A   1      32.823  28.976  23.826  1.00  0.00    -0.375 OA
ATOM     20  C   UNL A   1      31.778  29.225  25.948  1.00  0.00     0.036 C 
ATOM     21  C   UNL A   1      33.693  27.719  25.767  1.00  0.00     0.036 C 
ATOM     22  C   UNL A   1      32.566  29.191  27.253  1.00  0.00     0.003 C 
ATOM     23  C   UNL A   1      33.957  28.782  26.824  1.00  0.00     0.003 C 
ENDBRANCH  11  14
ENDBRANCH   8  11
ENDBRANCH   6   8
ENDBRANCH   5   6
ENDBRANCH   4   5
ENDBRANCH   3   4
ENDBRANCH   2   3
ENDBRANCH   1   2
BRANCH   1  24
ATOM     24  C   UNL A   1      37.233  20.208  25.002  1.00  0.00     0.261 C 
BRANCH  24  25
ATOM     25  O   UNL A   1      38.256  21.223  25.008  1.00  0.00    -0.460 OA
BRANCH  25  26
ATOM     26  C   UNL A   1      39.238  21.036  25.923  1.00  0.00     0.338 C 
ATOM     27  O   UNL A   1      39.860  20.002  26.133  1.00  0.00    -0.246 OA
BRANCH  26  28
ATOM     28  C   UNL A   1      39.623  22.325  26.523  1.00  0.00     0.060 A 
ATOM     29  C   UNL A   1      38.930  23.472  26.114  1.00  0.00     0.016 A 
ATOM     30  C   UNL A   1      40.705  22.422  27.397  1.00  0.00     0.016 A 
ATOM     31  C   UNL A   1      39.340  24.731  26.548  1.00  0.00     0.010 A 
ATOM     32  C   UNL A   1      41.127  23.688  27.820  1.00  0.00     0.010 A 
ATOM     33  C   UNL A   1      40.467  24.848  27.372  1.00  0.00    -0.014 A 
BRANCH  33  34
ATOM     34  C   UNL A   1      41.064  26.182  27.627  1.00  0.00     0.031 A 
ATOM     35  C   UNL A   1      42.477  26.436  27.176  1.00  0.00     0.074 A 
ATOM     36  C   UNL A   1      40.363  27.150  28.244  1.00  0.00     0.049 A 
ATOM     37  N   UNL A   1      43.246  27.469  27.393  1.00  0.00    -0.248 NA
ATOM     38  C   UNL A   1      43.104  25.372  26.377  1.00  0.00     0.031 C 
ATOM     39  C   UNL A   1      38.967  27.042  28.663  1.00  0.00     0.029 A 
ATOM     40  N   UNL A   1      40.738  28.410  28.640  1.00  0.00    -0.354 N 
ATOM     41  C   UNL A   1      44.455  27.178  26.770  1.00  0.00     0.074 A 
ATOM     42  C   UNL A   1      44.321  25.857  26.191  1.00  0.00     0.031 C 
ATOM     43  C   UNL A   1      38.609  28.183  29.279  1.00  0.00     0.029 A 
ATOM     44  C   UNL A   1      39.763  29.079  29.341  1.00  0.00     0.049 A 
ATOM     45  H   UNL A   1      41.620  28.797  28.439  1.00  0.00     0.167 HD
ATOM     46  C   UNL A   1      45.571  27.943  26.688  1.00  0.00     0.034 A 
ATOM     47  C   UNL A   1      39.811  30.258  29.995  1.00  0.00     0.034 A 
ATOM     48  C   UNL A   1      45.687  29.252  27.281  1.00  0.00     0.049 A 
ATOM     49  C   UNL A   1      41.099  31.050  29.982  1.00  0.00     0.074 A 
ATOM     50  C   UNL A   1      46.765  30.119  27.254  1.00  0.00     0.029 A 
ATOM     51  N   UNL A   1      44.693  29.879  28.022  1.00  0.00    -0.354 N 
ATOM     52  N   UNL A   1      42.240  30.760  29.400  1.00  0.00    -0.248 NA
ATOM     53  C   UNL A   1      41.105  32.325  30.711  1.00  0.00     0.031 C 
ATOM     54  C   UNL A   1      46.451  31.234  28.039  1.00  0.00     0.029 A 
ATOM     55  C   UNL A   1      45.146  31.104  28.487  1.00  0.00     0.049 A 
ATOM     56  H   UNL A   1      43.797  29.507  28.193  1.00  0.00     0.167 HD
ATOM     57  C   UNL A   1      43.086  31.837  29.664  1.00  0.00     0.074 A 
ATOM     58  C   UNL A   1      42.323  32.780  30.455  1.00  0.00     0.031 C 
ATOM     59  C   UNL A   1      44.372  32.033  29.277  1.00  0.00     0.034 A 
BRANCH  46  60
ATOM     60  C   UNL A   1      46.769  27.351  25.987  1.00  0.00     0.023 A 
ATOM     61  C   UNL A   1      47.768  26.650  26.684  1.00  0.00     0.031 A 
ATOM     62  C   UNL A   1      46.929  27.517  24.599  1.00  0.00     0.131 A 
ATOM     63  C   UNL A   1      48.913  26.203  26.007  1.00  0.00     0.055 A 
ATOM     64  C   UNL A   1      48.032  27.001  23.917  1.00  0.00     0.041 A 
ATOM     65  F   UNL A   1      46.020  28.199  23.884  1.00  0.00    -0.206 F 
ATOM     66  C   UNL A   1      49.040  26.351  24.623  1.00  0.00     0.022 A 
BRANCH  63  67
ATOM     67  S   UNL A   1      50.299  25.553  26.979  1.00  0.00     0.124 S 
ATOM     68  O   UNL A   1      50.624  26.696  27.830  1.00  0.00    -0.237 OA
ATOM     69  O   UNL A   1      49.701  24.405  27.652  1.00  0.00    -0.237 OA
ATOM     70  O   UNL A   1      51.305  25.232  25.969  1.00  0.00    -0.744 OA
ENDBRANCH  63  67
ENDBRANCH  46  60
BRANCH  47  71
ATOM     71  C   UNL A   1      38.631  30.742  30.767  1.00  0.00     0.023 A 
ATOM     72  C   UNL A   1      37.552  31.374  30.130  1.00  0.00     0.031 A 
ATOM     73  C   UNL A   1      38.590  30.625  32.170  1.00  0.00     0.131 A 
ATOM     74  C   UNL A   1      36.500  31.903  30.895  1.00  0.00     0.055 A 
ATOM     75  C   UNL A   1      37.517  31.104  32.920  1.00  0.00     0.041 A 
ATOM     76  F   UNL A   1      39.597  30.033  32.832  1.00  0.00    -0.206 F 
ATOM     77  C   UNL A   1      36.468  31.760  32.283  1.00  0.00     0.022 A 
BRANCH  74  78
ATOM     78  S   UNL A   1      35.211  32.862  30.052  1.00  0.00     0.124 S 
ATOM     79  O   UNL A   1      35.076  32.136  28.795  1.00  0.00    -0.237 OA
ATOM     80  O   UNL A   1      34.094  32.750  30.983  1.00  0.00    -0.237 OA
ATOM     81  O   UNL A   1      35.797  34.196  29.942  1.00  0.00    -0.744 OA
ENDBRANCH  74  78
ENDBRANCH  47  71
BRANCH  59  82
ATOM     82  C   UNL A   1      45.018  33.346  29.648  1.00  0.00     0.023 A 
ATOM     83  C   UNL A   1      44.908  34.487  28.835  1.00  0.00     0.031 A 
ATOM     84  C   UNL A   1      45.732  33.456  30.855  1.00  0.00     0.131 A 
ATOM     85  C   UNL A   1      45.537  35.681  29.224  1.00  0.00     0.055 A 
ATOM     86  C   UNL A   1      46.308  34.660  31.262  1.00  0.00     0.041 A 
ATOM     87  F   UNL A   1      45.867  32.396  31.668  1.00  0.00    -0.206 F 
ATOM     88  C   UNL A   1      46.219  35.779  30.439  1.00  0.00     0.022 A 
BRANCH  85  89
ATOM     89  S   UNL A   1      45.500  37.097  28.090  1.00  0.00     0.124 S 
ATOM     90  O   UNL A   1      44.667  38.047  28.819  1.00  0.00    -0.237 OA
ATOM     91  O   UNL A   1      46.912  37.445  27.975  1.00  0.00    -0.237 OA
ATOM     92  O   UNL A   1      44.897  36.549  26.876  1.00  0.00    -0.744 OA
ENDBRANCH  85  89
ENDBRANCH  59  82
ENDBRANCH  33  34
ENDBRANCH  26  28
ENDBRANCH  25  26
ENDBRANCH  24  25
ENDBRANCH   1  24
TORSDOF 19
ENDMDL
