MODEL 1
REMARK VINA RESULT:     -12.5      0.000      0.000
REMARK SMILES O=C(OCCOCCOC(=O)c1cc(Cl)ccc1N1C(=O)CC2(CCCC2)C1=O)c1ccc(-c2c3nc(c(-c4cc(S(=O)(=O)[O-])ccc4F)c4ccc([nH]4)c(-c4cc(S(=O)(=O)[O-])ccc4F)c4nc(c(-c5cc(S(=O)(=O)[O-])ccc5F)c5ccc2[nH]5)C=C4)C=C3)cc1
REMARK SMILES IDX 5 1 4 2 3 3 2 4 1 5 30 6 31 7 92 8 32 9 91 10 33 11 34 12
REMARK SMILES IDX 35 13 85 14 36 15 90 16 84 17 86 18 37 19 89 20 83 21 82 22
REMARK SMILES IDX 38 24 70 25 50 26 69 27 51 28 54 29 68 30 87 31 52 32 53 33
REMARK SMILES IDX 67 35 88 36 55 37 39 38 40 39 48 40 41 41 47 42 49 43 46 44
REMARK SMILES IDX 42 45 43 46 44 47 45 48 71 49 72 50 80 51 73 52 79 53 81 54
REMARK SMILES IDX 78 55 74 56 75 57 76 58 77 59 56 60 57 61 65 62 58 63 64 64
REMARK SMILES IDX 66 65 63 66 59 67 60 68 61 69 62 70 6 71 7 72 8 73 9 74
REMARK SMILES IDX 10 75 11 76 12 77 13 78 18 79 14 80 17 81 15 82 16 83 19 84
REMARK SMILES IDX 20 85 28 86 21 87 22 88 23 89 29 90 24 91 27 92 25 93 26 94
REMARK H PARENT 86 23 54 34
REMARK Flexibility Score: inf
ROOT
ATOM      1  C   UNL A   1      38.165  19.967  24.699  1.00  0.00     0.202 C 
ENDROOT
BRANCH   1   2
ATOM      2  C   UNL A   1      38.980  19.205  25.743  1.00  0.00     0.261 C 
BRANCH   2   3
ATOM      3  O   UNL A   1      40.360  19.601  25.764  1.00  0.00    -0.460 OA
BRANCH   3   4
ATOM      4  C   UNL A   1      40.955  20.035  26.906  1.00  0.00     0.338 C 
ATOM      5  O   UNL A   1      41.337  19.233  27.751  1.00  0.00    -0.246 OA
BRANCH   4   6
ATOM      6  C   UNL A   1      41.069  21.500  27.168  1.00  0.00     0.060 A 
ATOM      7  C   UNL A   1      41.976  22.017  28.084  1.00  0.00     0.016 A 
ATOM      8  C   UNL A   1      40.353  22.407  26.388  1.00  0.00     0.016 A 
ATOM      9  C   UNL A   1      42.107  23.365  28.339  1.00  0.00     0.010 A 
ATOM     10  C   UNL A   1      40.608  23.781  26.508  1.00  0.00     0.010 A 
ATOM     11  C   UNL A   1      41.506  24.264  27.478  1.00  0.00    -0.014 A 
BRANCH  11  12
ATOM     12  C   UNL A   1      41.867  25.692  27.602  1.00  0.00     0.031 A 
ATOM     13  C   UNL A   1      43.128  26.165  26.958  1.00  0.00     0.074 A 
ATOM     14  C   UNL A   1      41.036  26.545  28.240  1.00  0.00     0.049 A 
ATOM     15  N   UNL A   1      43.757  27.295  27.108  1.00  0.00    -0.248 NA
ATOM     16  C   UNL A   1      43.776  25.222  26.034  1.00  0.00     0.031 C 
ATOM     17  C   UNL A   1      39.723  26.197  28.801  1.00  0.00     0.029 A 
ATOM     18  N   UNL A   1      41.150  27.885  28.506  1.00  0.00    -0.354 N 
ATOM     19  C   UNL A   1      44.913  27.178  26.349  1.00  0.00     0.074 A 
ATOM     20  C   UNL A   1      44.899  25.861  25.750  1.00  0.00     0.031 C 
ATOM     21  C   UNL A   1      39.139  27.299  29.293  1.00  0.00     0.029 A 
ATOM     22  C   UNL A   1      40.083  28.403  29.208  1.00  0.00     0.049 A 
ATOM     23  H   UNL A   1      41.922  28.426  28.223  1.00  0.00     0.167 HD
ATOM     24  C   UNL A   1      45.896  28.096  26.191  1.00  0.00     0.034 A 
ATOM     25  C   UNL A   1      39.917  29.612  29.777  1.00  0.00     0.034 A 
ATOM     26  C   UNL A   1      45.851  29.397  26.809  1.00  0.00     0.049 A 
ATOM     27  C   UNL A   1      41.064  30.583  29.662  1.00  0.00     0.074 A 
ATOM     28  C   UNL A   1      46.797  30.402  26.791  1.00  0.00     0.029 A 
ATOM     29  N   UNL A   1      44.779  29.871  27.564  1.00  0.00    -0.354 N 
ATOM     30  N   UNL A   1      42.209  30.433  29.033  1.00  0.00    -0.248 NA
ATOM     31  C   UNL A   1      40.914  31.868  30.349  1.00  0.00     0.031 C 
ATOM     32  C   UNL A   1      46.326  31.456  27.583  1.00  0.00     0.029 A 
ATOM     33  C   UNL A   1      45.050  31.146  28.030  1.00  0.00     0.049 A 
ATOM     34  H   UNL A   1      43.949  29.373  27.738  1.00  0.00     0.167 HD
ATOM     35  C   UNL A   1      42.910  31.616  29.233  1.00  0.00     0.074 A 
ATOM     36  C   UNL A   1      42.044  32.475  30.019  1.00  0.00     0.031 C 
ATOM     37  C   UNL A   1      44.154  31.965  28.815  1.00  0.00     0.034 A 
BRANCH  24  38
ATOM     38  C   UNL A   1      47.112  27.658  25.413  1.00  0.00     0.023 A 
ATOM     39  C   UNL A   1      47.325  28.056  24.081  1.00  0.00     0.031 A 
ATOM     40  C   UNL A   1      48.007  26.729  25.971  1.00  0.00     0.131 A 
ATOM     41  C   UNL A   1      48.337  27.446  23.322  1.00  0.00     0.055 A 
ATOM     42  C   UNL A   1      49.071  26.199  25.240  1.00  0.00     0.041 A 
ATOM     43  F   UNL A   1      47.837  26.285  27.227  1.00  0.00    -0.206 F 
ATOM     44  C   UNL A   1      49.228  26.540  23.899  1.00  0.00     0.022 A 
BRANCH  41  45
ATOM     45  S   UNL A   1      48.347  27.709  21.527  1.00  0.00     0.124 S 
ATOM     46  O   UNL A   1      49.409  28.703  21.380  1.00  0.00    -0.237 OA
ATOM     47  O   UNL A   1      48.645  26.379  21.011  1.00  0.00    -0.237 OA
ATOM     48  O   UNL A   1      47.000  28.202  21.244  1.00  0.00    -0.744 OA
ENDBRANCH  41  45
ENDBRANCH  24  38
BRANCH  25  49
ATOM     49  C   UNL A   1      38.691  29.939  30.571  1.00  0.00     0.023 A 
ATOM     50  C   UNL A   1      37.675  30.752  30.043  1.00  0.00     0.031 A 
ATOM     51  C   UNL A   1      38.537  29.484  31.896  1.00  0.00     0.131 A 
ATOM     52  C   UNL A   1      36.578  31.118  30.843  1.00  0.00     0.055 A 
ATOM     53  C   UNL A   1      37.415  29.799  32.665  1.00  0.00     0.041 A 
ATOM     54  F   UNL A   1      39.477  28.714  32.466  1.00  0.00    -0.206 F 
ATOM     55  C   UNL A   1      36.433  30.633  32.145  1.00  0.00     0.022 A 
BRANCH  52  56
ATOM     56  S   UNL A   1      35.390  32.326  30.194  1.00  0.00     0.124 S 
ATOM     57  O   UNL A   1      34.959  31.685  28.957  1.00  0.00    -0.237 OA
ATOM     58  O   UNL A   1      34.402  32.385  31.266  1.00  0.00    -0.237 OA
ATOM     59  O   UNL A   1      36.192  33.536  30.022  1.00  0.00    -0.744 OA
ENDBRANCH  52  56
ENDBRANCH  25  49
BRANCH  37  60
ATOM     60  C   UNL A   1      44.611  33.356  29.167  1.00  0.00     0.023 A 
ATOM     61  C   UNL A   1      44.420  34.438  28.293  1.00  0.00     0.031 A 
ATOM     62  C   UNL A   1      45.251  33.593  30.395  1.00  0.00     0.131 A 
ATOM     63  C   UNL A   1      44.917  35.702  28.637  1.00  0.00     0.055 A 
ATOM     64  C   UNL A   1      45.682  34.867  30.761  1.00  0.00     0.041 A 
ATOM     65  F   UNL A   1      45.460  32.589  31.262  1.00  0.00    -0.206 F 
ATOM     66  C   UNL A   1      45.528  35.928  29.874  1.00  0.00     0.022 A 
BRANCH  63  67
ATOM     67  S   UNL A   1      44.840  37.029  27.403  1.00  0.00     0.124 S 
ATOM     68  O   UNL A   1      43.487  36.876  26.879  1.00  0.00    -0.237 OA
ATOM     69  O   UNL A   1      45.081  38.221  28.210  1.00  0.00    -0.237 OA
ATOM     70  O   UNL A   1      45.910  36.688  26.468  1.00  0.00    -0.744 OA
ENDBRANCH  63  67
ENDBRANCH  37  60
ENDBRANCH  11  12
ENDBRANCH   4   6
ENDBRANCH   3   4
ENDBRANCH   2   3
ENDBRANCH   1   2
BRANCH   1  71
ATOM     71  O   UNL A   1      36.851  20.324  25.084  1.00  0.00    -0.374 OA
BRANCH  71  72
ATOM     72  C   UNL A   1      36.666  21.634  25.570  1.00  0.00     0.202 C 
BRANCH  72  73
ATOM     73  C   UNL A   1      36.845  22.577  24.390  1.00  0.00     0.261 C 
BRANCH  73  74
ATOM     74  O   UNL A   1      35.813  23.584  24.431  1.00  0.00    -0.460 OA
BRANCH  74  75
ATOM     75  C   UNL A   1      34.757  23.476  23.572  1.00  0.00     0.340 C 
ATOM     76  O   UNL A   1      34.785  23.315  22.370  1.00  0.00    -0.246 OA
BRANCH  75  77
ATOM     77  C   UNL A   1      33.520  23.505  24.393  1.00  0.00     0.085 A 
ATOM     78  C   UNL A   1      33.186  24.751  24.968  1.00  0.00     0.038 A 
ATOM     79  C   UNL A   1      32.692  22.383  24.621  1.00  0.00     0.066 A 
ATOM     80  C   UNL A   1      32.061  24.886  25.768  1.00  0.00     0.042 A 
ATOM     81  C   UNL A   1      31.535  22.563  25.404  1.00  0.00     0.029 A 
ATOM     82  Cl  UNL A   1      31.718  26.398  26.512  1.00  0.00    -0.084 Cl
ATOM     83  C   UNL A   1      31.225  23.800  25.977  1.00  0.00     0.023 A 
BRANCH  79  84
ATOM     84  N   UNL A   1      32.983  21.040  24.225  1.00  0.00    -0.249 N 
ATOM     85  C   UNL A   1      32.390  20.484  23.116  1.00  0.00     0.234 C 
ATOM     86  C   UNL A   1      33.216  20.064  25.170  1.00  0.00     0.240 C 
ATOM     87  O   UNL A   1      31.780  21.079  22.236  1.00  0.00    -0.274 OA
ATOM     88  C   UNL A   1      32.410  18.975  23.227  1.00  0.00     0.118 C 
ATOM     89  C   UNL A   1      33.174  18.692  24.517  1.00  0.00     0.059 C 
ATOM     90  O   UNL A   1      33.379  20.247  26.372  1.00  0.00    -0.273 OA
ATOM     91  C   UNL A   1      32.528  17.643  25.434  1.00  0.00     0.017 C 
ATOM     92  C   UNL A   1      34.555  18.081  24.261  1.00  0.00     0.017 C 
ATOM     93  C   UNL A   1      33.091  16.289  25.010  1.00  0.00     0.001 C 
ATOM     94  C   UNL A   1      34.316  16.579  24.150  1.00  0.00     0.001 C 
ENDBRANCH  79  84
ENDBRANCH  75  77
ENDBRANCH  74  75
ENDBRANCH  73  74
ENDBRANCH  72  73
ENDBRANCH  71  72
ENDBRANCH   1  71
TORSDOF 18
ENDMDL
MODEL 2
REMARK VINA RESULT:     -12.1      4.814      7.282
REMARK SMILES O=C(OCCOCCOC(=O)c1cc(Cl)ccc1N1C(=O)CC2(CCCC2)C1=O)c1ccc(-c2c3nc(c(-c4cc(S(=O)(=O)[O-])ccc4F)c4ccc([nH]4)c(-c4cc(S(=O)(=O)[O-])ccc4F)c4nc(c(-c5cc(S(=O)(=O)[O-])ccc5F)c5ccc2[nH]5)C=C4)C=C3)cc1
REMARK SMILES IDX 5 1 4 2 3 3 2 4 1 5 30 6 31 7 92 8 32 9 91 10 33 11 34 12
REMARK SMILES IDX 35 13 85 14 36 15 90 16 84 17 86 18 37 19 89 20 83 21 82 22
REMARK SMILES IDX 38 24 70 25 50 26 69 27 51 28 54 29 68 30 87 31 52 32 53 33
REMARK SMILES IDX 67 35 88 36 55 37 39 38 40 39 48 40 41 41 47 42 49 43 46 44
REMARK SMILES IDX 42 45 43 46 44 47 45 48 71 49 72 50 80 51 73 52 79 53 81 54
REMARK SMILES IDX 78 55 74 56 75 57 76 58 77 59 56 60 57 61 65 62 58 63 64 64
REMARK SMILES IDX 66 65 63 66 59 67 60 68 61 69 62 70 6 71 7 72 8 73 9 74
REMARK SMILES IDX 10 75 11 76 12 77 13 78 18 79 14 80 17 81 15 82 16 83 19 84
REMARK SMILES IDX 20 85 28 86 21 87 22 88 23 89 29 90 24 91 27 92 25 93 26 94
REMARK H PARENT 86 23 54 34
REMARK Flexibility Score: inf
ROOT
ATOM      1  C   UNL A   1      40.435  20.484  26.415  1.00  0.00     0.202 C 
ENDROOT
BRANCH   1   2
ATOM      2  C   UNL A   1      41.877  20.960  26.252  1.00  0.00     0.261 C 
BRANCH   2   3
ATOM      3  O   UNL A   1      41.993  22.072  25.351  1.00  0.00    -0.460 OA
BRANCH   3   4
ATOM      4  C   UNL A   1      42.835  23.107  25.608  1.00  0.00     0.338 C 
ATOM      5  O   UNL A   1      43.998  23.072  25.224  1.00  0.00    -0.246 OA
BRANCH   4   6
ATOM      6  C   UNL A   1      42.361  24.255  26.436  1.00  0.00     0.060 A 
ATOM      7  C   UNL A   1      41.548  24.076  27.548  1.00  0.00     0.016 A 
ATOM      8  C   UNL A   1      42.846  25.539  26.192  1.00  0.00     0.016 A 
ATOM      9  C   UNL A   1      41.104  25.118  28.334  1.00  0.00     0.010 A 
ATOM     10  C   UNL A   1      42.549  26.577  27.088  1.00  0.00     0.010 A 
ATOM     11  C   UNL A   1      41.687  26.361  28.179  1.00  0.00    -0.014 A 
BRANCH  11  12
ATOM     12  C   UNL A   1      41.397  27.395  29.195  1.00  0.00     0.031 A 
ATOM     13  C   UNL A   1      42.290  27.491  30.386  1.00  0.00     0.074 A 
ATOM     14  C   UNL A   1      40.378  28.261  29.004  1.00  0.00     0.049 A 
ATOM     15  N   UNL A   1      42.119  28.153  31.495  1.00  0.00    -0.248 NA
ATOM     16  C   UNL A   1      43.538  26.714  30.325  1.00  0.00     0.031 C 
ATOM     17  C   UNL A   1      39.521  28.320  27.811  1.00  0.00     0.029 A 
ATOM     18  N   UNL A   1      39.897  29.275  29.791  1.00  0.00    -0.354 N 
ATOM     19  C   UNL A   1      43.204  27.823  32.295  1.00  0.00     0.074 A 
ATOM     20  C   UNL A   1      44.020  26.893  31.544  1.00  0.00     0.031 C 
ATOM     21  C   UNL A   1      38.663  29.344  27.926  1.00  0.00     0.029 A 
ATOM     22  C   UNL A   1      38.812  29.930  29.249  1.00  0.00     0.049 A 
ATOM     23  H   UNL A   1      40.290  29.514  30.661  1.00  0.00     0.167 HD
ATOM     24  C   UNL A   1      43.471  28.257  33.549  1.00  0.00     0.034 A 
ATOM     25  C   UNL A   1      37.990  30.851  29.788  1.00  0.00     0.034 A 
ATOM     26  C   UNL A   1      42.621  29.191  34.245  1.00  0.00     0.049 A 
ATOM     27  C   UNL A   1      38.256  31.249  31.217  1.00  0.00     0.074 A 
ATOM     28  C   UNL A   1      42.729  29.670  35.535  1.00  0.00     0.029 A 
ATOM     29  N   UNL A   1      41.495  29.793  33.688  1.00  0.00    -0.354 N 
ATOM     30  N   UNL A   1      39.224  30.854  32.014  1.00  0.00    -0.248 NA
ATOM     31  C   UNL A   1      37.314  32.191  31.827  1.00  0.00     0.031 C 
ATOM     32  C   UNL A   1      41.637  30.511  35.778  1.00  0.00     0.029 A 
ATOM     33  C   UNL A   1      40.889  30.624  34.614  1.00  0.00     0.049 A 
ATOM     34  H   UNL A   1      41.176  29.650  32.768  1.00  0.00     0.167 HD
ATOM     35  C   UNL A   1      39.017  31.516  33.218  1.00  0.00     0.074 A 
ATOM     36  C   UNL A   1      37.848  32.354  33.029  1.00  0.00     0.031 C 
ATOM     37  C   UNL A   1      39.720  31.440  34.379  1.00  0.00     0.034 A 
BRANCH  24  38
ATOM     38  C   UNL A   1      44.656  27.634  34.243  1.00  0.00     0.023 A 
ATOM     39  C   UNL A   1      44.531  26.477  35.034  1.00  0.00     0.031 A 
ATOM     40  C   UNL A   1      45.905  28.277  34.214  1.00  0.00     0.131 A 
ATOM     41  C   UNL A   1      45.601  26.065  35.845  1.00  0.00     0.055 A 
ATOM     42  C   UNL A   1      46.995  27.805  34.948  1.00  0.00     0.041 A 
ATOM     43  F   UNL A   1      46.078  29.404  33.504  1.00  0.00    -0.206 F 
ATOM     44  C   UNL A   1      46.841  26.705  35.788  1.00  0.00     0.022 A 
BRANCH  41  45
ATOM     45  S   UNL A   1      45.288  24.807  37.113  1.00  0.00     0.124 S 
ATOM     46  O   UNL A   1      46.329  25.109  38.093  1.00  0.00    -0.237 OA
ATOM     47  O   UNL A   1      43.921  25.103  37.526  1.00  0.00    -0.237 OA
ATOM     48  O   UNL A   1      45.465  23.545  36.396  1.00  0.00    -0.744 OA
ENDBRANCH  41  45
ENDBRANCH  24  38
BRANCH  25  49
ATOM     49  C   UNL A   1      36.809  31.378  29.035  1.00  0.00     0.023 A 
ATOM     50  C   UNL A   1      35.775  30.528  28.611  1.00  0.00     0.031 A 
ATOM     51  C   UNL A   1      36.720  32.738  28.678  1.00  0.00     0.131 A 
ATOM     52  C   UNL A   1      34.724  31.034  27.826  1.00  0.00     0.055 A 
ATOM     53  C   UNL A   1      35.642  33.248  27.951  1.00  0.00     0.041 A 
ATOM     54  F   UNL A   1      37.681  33.603  29.040  1.00  0.00    -0.206 F 
ATOM     55  C   UNL A   1      34.642  32.391  27.507  1.00  0.00     0.022 A 
BRANCH  52  56
ATOM     56  S   UNL A   1      33.514  29.872  27.134  1.00  0.00     0.124 S 
ATOM     57  O   UNL A   1      33.670  28.720  28.015  1.00  0.00    -0.237 OA
ATOM     58  O   UNL A   1      32.267  30.618  27.265  1.00  0.00    -0.237 OA
ATOM     59  O   UNL A   1      33.977  29.674  25.762  1.00  0.00    -0.744 OA
ENDBRANCH  52  56
ENDBRANCH  25  49
BRANCH  37  60
ATOM     60  C   UNL A   1      39.255  32.331  35.500  1.00  0.00     0.023 A 
ATOM     61  C   UNL A   1      39.712  33.653  35.630  1.00  0.00     0.031 A 
ATOM     62  C   UNL A   1      38.345  31.841  36.452  1.00  0.00     0.131 A 
ATOM     63  C   UNL A   1      39.299  34.424  36.725  1.00  0.00     0.055 A 
ATOM     64  C   UNL A   1      37.885  32.637  37.501  1.00  0.00     0.041 A 
ATOM     65  F   UNL A   1      37.882  30.584  36.373  1.00  0.00    -0.206 F 
ATOM     66  C   UNL A   1      38.373  33.932  37.649  1.00  0.00     0.022 A 
BRANCH  63  67
ATOM     67  S   UNL A   1      40.065  36.048  36.979  1.00  0.00     0.124 S 
ATOM     68  O   UNL A   1      39.360  36.533  38.160  1.00  0.00    -0.237 OA
ATOM     69  O   UNL A   1      41.470  35.704  37.172  1.00  0.00    -0.237 OA
ATOM     70  O   UNL A   1      39.767  36.763  35.740  1.00  0.00    -0.744 OA
ENDBRANCH  63  67
ENDBRANCH  37  60
ENDBRANCH  11  12
ENDBRANCH   4   6
ENDBRANCH   3   4
ENDBRANCH   2   3
ENDBRANCH   1   2
BRANCH   1  71
ATOM     71  O   UNL A   1      39.446  21.497  26.398  1.00  0.00    -0.374 OA
BRANCH  71  72
ATOM     72  C   UNL A   1      38.411  21.357  25.452  1.00  0.00     0.202 C 
BRANCH  72  73
ATOM     73  C   UNL A   1      37.585  22.633  25.502  1.00  0.00     0.261 C 
BRANCH  73  74
ATOM     74  O   UNL A   1      36.317  22.400  24.855  1.00  0.00    -0.460 OA
BRANCH  74  75
ATOM     75  C   UNL A   1      35.199  22.279  25.629  1.00  0.00     0.340 C 
ATOM     76  O   UNL A   1      34.910  22.902  26.629  1.00  0.00    -0.246 OA
BRANCH  75  77
ATOM     77  C   UNL A   1      34.318  21.278  24.972  1.00  0.00     0.085 A 
ATOM     78  C   UNL A   1      34.761  19.938  25.017  1.00  0.00     0.038 A 
ATOM     79  C   UNL A   1      33.103  21.595  24.324  1.00  0.00     0.066 A 
ATOM     80  C   UNL A   1      34.024  18.926  24.420  1.00  0.00     0.042 A 
ATOM     81  C   UNL A   1      32.358  20.539  23.763  1.00  0.00     0.029 A 
ATOM     82  Cl  UNL A   1      34.622  17.314  24.431  1.00  0.00    -0.084 Cl
ATOM     83  C   UNL A   1      32.816  19.219  23.805  1.00  0.00     0.023 A 
BRANCH  79  84
ATOM     84  N   UNL A   1      32.610  22.915  24.078  1.00  0.00    -0.249 N 
ATOM     85  C   UNL A   1      33.282  23.779  23.245  1.00  0.00     0.234 C 
ATOM     86  C   UNL A   1      31.973  23.623  25.074  1.00  0.00     0.240 C 
ATOM     87  O   UNL A   1      34.178  23.493  22.462  1.00  0.00    -0.274 OA
ATOM     88  C   UNL A   1      32.902  25.206  23.577  1.00  0.00     0.118 C 
ATOM     89  C   UNL A   1      31.844  25.082  24.667  1.00  0.00     0.059 C 
ATOM     90  O   UNL A   1      31.609  23.177  26.157  1.00  0.00    -0.273 OA
ATOM     91  C   UNL A   1      32.034  26.027  25.863  1.00  0.00     0.017 C 
ATOM     92  C   UNL A   1      30.445  25.470  24.177  1.00  0.00     0.017 C 
ATOM     93  C   UNL A   1      31.284  27.313  25.525  1.00  0.00     0.001 C 
ATOM     94  C   UNL A   1      30.361  26.982  24.358  1.00  0.00     0.001 C 
ENDBRANCH  79  84
ENDBRANCH  75  77
ENDBRANCH  74  75
ENDBRANCH  73  74
ENDBRANCH  72  73
ENDBRANCH  71  72
ENDBRANCH   1  71
TORSDOF 18
ENDMDL
MODEL 3
REMARK VINA RESULT:     -11.9      1.512      3.217
REMARK SMILES O=C(OCCOCCOC(=O)c1cc(Cl)ccc1N1C(=O)CC2(CCCC2)C1=O)c1ccc(-c2c3nc(c(-c4cc(S(=O)(=O)[O-])ccc4F)c4ccc([nH]4)c(-c4cc(S(=O)(=O)[O-])ccc4F)c4nc(c(-c5cc(S(=O)(=O)[O-])ccc5F)c5ccc2[nH]5)C=C4)C=C3)cc1
REMARK SMILES IDX 5 1 4 2 3 3 2 4 1 5 30 6 31 7 92 8 32 9 91 10 33 11 34 12
REMARK SMILES IDX 35 13 85 14 36 15 90 16 84 17 86 18 37 19 89 20 83 21 82 22
REMARK SMILES IDX 38 24 70 25 50 26 69 27 51 28 54 29 68 30 87 31 52 32 53 33
REMARK SMILES IDX 67 35 88 36 55 37 39 38 40 39 48 40 41 41 47 42 49 43 46 44
REMARK SMILES IDX 42 45 43 46 44 47 45 48 71 49 72 50 80 51 73 52 79 53 81 54
REMARK SMILES IDX 78 55 74 56 75 57 76 58 77 59 56 60 57 61 65 62 58 63 64 64
REMARK SMILES IDX 66 65 63 66 59 67 60 68 61 69 62 70 6 71 7 72 8 73 9 74
REMARK SMILES IDX 10 75 11 76 12 77 13 78 18 79 14 80 17 81 15 82 16 83 19 84
REMARK SMILES IDX 20 85 28 86 21 87 22 88 23 89 29 90 24 91 27 92 25 93 26 94
REMARK H PARENT 86 23 54 34
REMARK Flexibility Score: inf
ROOT
ATOM      1  C   UNL A   1      37.666  19.947  24.731  1.00  0.00     0.202 C 
ENDROOT
BRANCH   1   2
ATOM      2  C   UNL A   1      38.716  19.300  25.632  1.00  0.00     0.261 C 
BRANCH   2   3
ATOM      3  O   UNL A   1      39.934  20.058  25.695  1.00  0.00    -0.460 OA
BRANCH   3   4
ATOM      4  C   UNL A   1      40.485  20.416  26.885  1.00  0.00     0.338 C 
ATOM      5  O   UNL A   1      40.758  19.564  27.724  1.00  0.00    -0.246 OA
BRANCH   4   6
ATOM      6  C   UNL A   1      40.682  21.861  27.202  1.00  0.00     0.060 A 
ATOM      7  C   UNL A   1      41.706  22.300  28.031  1.00  0.00     0.016 A 
ATOM      8  C   UNL A   1      39.917  22.829  26.554  1.00  0.00     0.016 A 
ATOM      9  C   UNL A   1      41.915  23.628  28.333  1.00  0.00     0.010 A 
ATOM     10  C   UNL A   1      40.235  24.186  26.710  1.00  0.00     0.010 A 
ATOM     11  C   UNL A   1      41.255  24.589  27.592  1.00  0.00    -0.014 A 
BRANCH  11  12
ATOM     12  C   UNL A   1      41.680  25.997  27.742  1.00  0.00     0.031 A 
ATOM     13  C   UNL A   1      42.970  26.419  27.122  1.00  0.00     0.074 A 
ATOM     14  C   UNL A   1      40.881  26.879  28.381  1.00  0.00     0.049 A 
ATOM     15  N   UNL A   1      43.649  27.516  27.296  1.00  0.00    -0.248 NA
ATOM     16  C   UNL A   1      43.587  25.460  26.193  1.00  0.00     0.031 C 
ATOM     17  C   UNL A   1      39.545  26.585  28.919  1.00  0.00     0.029 A 
ATOM     18  N   UNL A   1      41.054  28.208  28.669  1.00  0.00    -0.354 N 
ATOM     19  C   UNL A   1      44.810  27.356  26.552  1.00  0.00     0.074 A 
ATOM     20  C   UNL A   1      44.742  26.050  25.933  1.00  0.00     0.031 C 
ATOM     21  C   UNL A   1      39.007  27.707  29.420  1.00  0.00     0.029 A 
ATOM     22  C   UNL A   1      40.002  28.766  29.364  1.00  0.00     0.049 A 
ATOM     23  H   UNL A   1      41.854  28.716  28.404  1.00  0.00     0.167 HD
ATOM     24  C   UNL A   1      45.837  28.229  26.420  1.00  0.00     0.034 A 
ATOM     25  C   UNL A   1      39.885  29.973  29.949  1.00  0.00     0.034 A 
ATOM     26  C   UNL A   1      45.843  29.522  27.057  1.00  0.00     0.049 A 
ATOM     27  C   UNL A   1      41.078  30.890  29.863  1.00  0.00     0.074 A 
ATOM     28  C   UNL A   1      46.836  30.481  27.066  1.00  0.00     0.029 A 
ATOM     29  N   UNL A   1      44.785  30.035  27.804  1.00  0.00    -0.354 N 
ATOM     30  N   UNL A   1      42.223  30.696  29.247  1.00  0.00    -0.248 NA
ATOM     31  C   UNL A   1      40.978  32.172  30.567  1.00  0.00     0.031 C 
ATOM     32  C   UNL A   1      46.404  31.545  27.867  1.00  0.00     0.029 A 
ATOM     33  C   UNL A   1      45.109  31.289  28.293  1.00  0.00     0.049 A 
ATOM     34  H   UNL A   1      43.930  29.574  27.960  1.00  0.00     0.167 HD
ATOM     35  C   UNL A   1      42.976  31.842  29.474  1.00  0.00     0.074 A 
ATOM     36  C   UNL A   1      42.141  32.730  30.261  1.00  0.00     0.031 C 
ATOM     37  C   UNL A   1      44.241  32.138  29.078  1.00  0.00     0.034 A 
BRANCH  24  38
ATOM     38  C   UNL A   1      47.042  27.745  25.652  1.00  0.00     0.023 A 
ATOM     39  C   UNL A   1      47.276  28.128  24.319  1.00  0.00     0.031 A 
ATOM     40  C   UNL A   1      47.901  26.790  26.221  1.00  0.00     0.131 A 
ATOM     41  C   UNL A   1      48.270  27.480  23.569  1.00  0.00     0.055 A 
ATOM     42  C   UNL A   1      48.951  26.219  25.499  1.00  0.00     0.041 A 
ATOM     43  F   UNL A   1      47.708  26.360  27.479  1.00  0.00    -0.206 F 
ATOM     44  C   UNL A   1      49.127  26.547  24.158  1.00  0.00     0.022 A 
BRANCH  41  45
ATOM     45  S   UNL A   1      48.300  27.732  21.773  1.00  0.00     0.124 S 
ATOM     46  O   UNL A   1      48.580  26.381  21.290  1.00  0.00    -0.237 OA
ATOM     47  O   UNL A   1      46.960  28.239  21.501  1.00  0.00    -0.237 OA
ATOM     48  O   UNL A   1      49.384  28.693  21.579  1.00  0.00    -0.744 OA
ENDBRANCH  41  45
ENDBRANCH  24  38
BRANCH  25  49
ATOM     49  C   UNL A   1      38.665  30.346  30.730  1.00  0.00     0.023 A 
ATOM     50  C   UNL A   1      37.629  31.098  30.152  1.00  0.00     0.031 A 
ATOM     51  C   UNL A   1      38.536  30.000  32.090  1.00  0.00     0.131 A 
ATOM     52  C   UNL A   1      36.537  31.513  30.936  1.00  0.00     0.055 A 
ATOM     53  C   UNL A   1      37.419  30.360  32.848  1.00  0.00     0.041 A 
ATOM     54  F   UNL A   1      39.495  29.293  32.708  1.00  0.00    -0.206 F 
ATOM     55  C   UNL A   1      36.417  31.134  32.275  1.00  0.00     0.022 A 
BRANCH  52  56
ATOM     56  S   UNL A   1      35.321  32.646  30.207  1.00  0.00     0.124 S 
ATOM     57  O   UNL A   1      36.145  33.810  29.902  1.00  0.00    -0.237 OA
ATOM     58  O   UNL A   1      34.841  31.879  29.062  1.00  0.00    -0.237 OA
ATOM     59  O   UNL A   1      34.346  32.835  31.280  1.00  0.00    -0.744 OA
ENDBRANCH  52  56
ENDBRANCH  25  49
BRANCH  37  60
ATOM     60  C   UNL A   1      44.758  33.501  29.456  1.00  0.00     0.023 A 
ATOM     61  C   UNL A   1      44.559  34.620  28.632  1.00  0.00     0.031 A 
ATOM     62  C   UNL A   1      45.462  33.673  30.660  1.00  0.00     0.131 A 
ATOM     63  C   UNL A   1      45.111  35.855  28.996  1.00  0.00     0.055 A 
ATOM     64  C   UNL A   1      45.950  34.919  31.049  1.00  0.00     0.041 A 
ATOM     65  F   UNL A   1      45.681  32.632  31.479  1.00  0.00    -0.206 F 
ATOM     66  C   UNL A   1      45.787  36.017  30.209  1.00  0.00     0.022 A 
BRANCH  63  67
ATOM     67  S   UNL A   1      45.017  37.228  27.815  1.00  0.00     0.124 S 
ATOM     68  O   UNL A   1      44.448  38.293  28.635  1.00  0.00    -0.237 OA
ATOM     69  O   UNL A   1      46.413  37.401  27.425  1.00  0.00    -0.237 OA
ATOM     70  O   UNL A   1      44.140  36.716  26.765  1.00  0.00    -0.744 OA
ENDBRANCH  63  67
ENDBRANCH  37  60
ENDBRANCH  11  12
ENDBRANCH   4   6
ENDBRANCH   3   4
ENDBRANCH   2   3
ENDBRANCH   1   2
BRANCH   1  71
ATOM     71  O   UNL A   1      36.685  20.726  25.390  1.00  0.00    -0.374 OA
BRANCH  71  72
ATOM     72  C   UNL A   1      36.617  22.089  25.039  1.00  0.00     0.202 C 
BRANCH  72  73
ATOM     73  C   UNL A   1      35.697  22.764  26.046  1.00  0.00     0.261 C 
BRANCH  73  74
ATOM     74  O   UNL A   1      34.797  21.781  26.595  1.00  0.00    -0.460 OA
BRANCH  74  75
ATOM     75  C   UNL A   1      33.453  22.015  26.534  1.00  0.00     0.340 C 
ATOM     76  O   UNL A   1      32.746  22.530  27.374  1.00  0.00    -0.246 OA
BRANCH  75  77
ATOM     77  C   UNL A   1      32.995  21.596  25.184  1.00  0.00     0.085 A 
ATOM     78  C   UNL A   1      33.025  20.208  24.923  1.00  0.00     0.038 A 
ATOM     79  C   UNL A   1      32.551  22.490  24.185  1.00  0.00     0.066 A 
ATOM     80  C   UNL A   1      32.636  19.710  23.688  1.00  0.00     0.042 A 
ATOM     81  C   UNL A   1      32.124  21.948  22.956  1.00  0.00     0.029 A 
ATOM     82  Cl  UNL A   1      32.748  18.023  23.375  1.00  0.00    -0.084 Cl
ATOM     83  C   UNL A   1      32.171  20.573  22.708  1.00  0.00     0.023 A 
BRANCH  79  84
ATOM     84  N   UNL A   1      32.604  23.917  24.259  1.00  0.00    -0.249 N 
ATOM     85  C   UNL A   1      31.466  24.658  24.475  1.00  0.00     0.234 C 
ATOM     86  C   UNL A   1      33.485  24.628  23.474  1.00  0.00     0.240 C 
ATOM     87  O   UNL A   1      30.381  24.239  24.856  1.00  0.00    -0.274 OA
ATOM     88  C   UNL A   1      31.673  26.070  23.972  1.00  0.00     0.118 C 
ATOM     89  C   UNL A   1      33.122  26.104  23.500  1.00  0.00     0.059 C 
ATOM     90  O   UNL A   1      34.396  24.157  22.802  1.00  0.00    -0.273 OA
ATOM     91  C   UNL A   1      33.341  26.769  22.132  1.00  0.00     0.017 C 
ATOM     92  C   UNL A   1      34.019  26.951  24.410  1.00  0.00     0.017 C 
ATOM     93  C   UNL A   1      33.578  28.253  22.403  1.00  0.00     0.001 C 
ATOM     94  C   UNL A   1      33.884  28.378  23.891  1.00  0.00     0.001 C 
ENDBRANCH  79  84
ENDBRANCH  75  77
ENDBRANCH  74  75
ENDBRANCH  73  74
ENDBRANCH  72  73
ENDBRANCH  71  72
ENDBRANCH   1  71
TORSDOF 18
ENDMDL
