MODEL 1
REMARK VINA RESULT:      -9.7      0.000      0.000
REMARK SMILES O=C(OCCOCCOC(=O)[C@H]1CCCCN1c1cc(-c2ccccc2)nc(-c2cccc(Cl)c2)n1)c1ccc(-c2c3nc(c(-c4cc(S(=O)(=O)[O-])ccc4F)c4ccc([nH]4)c(-c4cc(S(=O)(=O)[O-])ccc4F)c4nc(c(-c5cc(S(=O)(=O)[O-])ccc5F)c5ccc2[nH]5)C=C4)C=C3)cc1
REMARK SMILES IDX 5 1 4 2 3 3 2 4 1 5 37 6 38 7 99 8 39 9 98 10 40 11 41 12
REMARK SMILES IDX 42 13 92 14 43 15 97 16 91 17 93 18 44 19 96 20 90 21 89 22
REMARK SMILES IDX 45 24 77 25 57 26 76 27 58 28 61 29 75 30 94 31 59 32 60 33
REMARK SMILES IDX 74 35 95 36 62 37 46 38 47 39 55 40 48 41 54 42 56 43 53 44
REMARK SMILES IDX 49 45 50 46 51 47 52 48 78 49 79 50 87 51 80 52 86 53 88 54
REMARK SMILES IDX 85 55 81 56 82 57 83 58 84 59 63 60 64 61 72 62 65 63 71 64
REMARK SMILES IDX 73 65 70 66 66 67 67 68 68 69 69 70 6 71 7 72 8 73 9 74
REMARK SMILES IDX 10 75 11 76 12 77 13 78 17 79 14 80 16 81 15 82 18 83 19 84
REMARK SMILES IDX 36 85 20 86 28 87 27 88 21 89 22 90 26 91 23 92 25 93 24 94
REMARK SMILES IDX 29 95 30 96 35 97 31 98 33 99 32 100 34 101
REMARK H PARENT 93 23 61 34
REMARK Flexibility Score: inf
ROOT
ATOM      1  C   UNL A   1      36.323  33.857  34.706  1.00  0.00     0.202 C 
ENDROOT
BRANCH   1   2
ATOM      2  C   UNL A   1      37.568  32.980  34.502  1.00  0.00     0.261 C 
BRANCH   2   3
ATOM      3  O   UNL A   1      37.263  31.802  33.737  1.00  0.00    -0.460 OA
BRANCH   3   4
ATOM      4  C   UNL A   1      38.128  30.842  33.320  1.00  0.00     0.338 C 
ATOM      5  O   UNL A   1      37.980  29.695  33.738  1.00  0.00    -0.246 OA
BRANCH   4   6
ATOM      6  C   UNL A   1      39.276  31.119  32.403  1.00  0.00     0.060 A 
ATOM      7  C   UNL A   1      40.581  30.700  32.640  1.00  0.00     0.016 A 
ATOM      8  C   UNL A   1      39.023  31.792  31.198  1.00  0.00     0.016 A 
ATOM      9  C   UNL A   1      41.604  30.920  31.763  1.00  0.00     0.010 A 
ATOM     10  C   UNL A   1      40.061  32.043  30.290  1.00  0.00     0.010 A 
ATOM     11  C   UNL A   1      41.355  31.608  30.591  1.00  0.00    -0.014 A 
BRANCH  11  12
ATOM     12  C   UNL A   1      42.577  32.022  29.900  1.00  0.00     0.031 A 
ATOM     13  C   UNL A   1      42.933  33.473  29.984  1.00  0.00     0.074 A 
ATOM     14  C   UNL A   1      43.465  31.071  29.555  1.00  0.00     0.049 A 
ATOM     15  N   UNL A   1      43.986  34.093  29.540  1.00  0.00    -0.248 NA
ATOM     16  C   UNL A   1      41.981  34.338  30.706  1.00  0.00     0.031 C 
ATOM     17  C   UNL A   1      43.256  29.625  29.721  1.00  0.00     0.029 A 
ATOM     18  N   UNL A   1      44.741  31.169  29.084  1.00  0.00    -0.354 N 
ATOM     19  C   UNL A   1      43.803  35.426  29.882  1.00  0.00     0.074 A 
ATOM     20  C   UNL A   1      42.546  35.527  30.586  1.00  0.00     0.031 C 
ATOM     21  C   UNL A   1      44.381  28.979  29.380  1.00  0.00     0.029 A 
ATOM     22  C   UNL A   1      45.347  29.951  28.886  1.00  0.00     0.049 A 
ATOM     23  H   UNL A   1      45.185  32.029  28.903  1.00  0.00     0.167 HD
ATOM     24  C   UNL A   1      44.619  36.468  29.600  1.00  0.00     0.034 A 
ATOM     25  C   UNL A   1      46.534  29.673  28.317  1.00  0.00     0.034 A 
ATOM     26  C   UNL A   1      45.856  36.289  28.887  1.00  0.00     0.049 A 
ATOM     27  C   UNL A   1      47.353  30.856  27.866  1.00  0.00     0.074 A 
ATOM     28  C   UNL A   1      46.734  37.243  28.412  1.00  0.00     0.029 A 
ATOM     29  N   UNL A   1      46.387  35.046  28.542  1.00  0.00    -0.354 N 
ATOM     30  N   UNL A   1      47.111  32.139  28.040  1.00  0.00    -0.248 NA
ATOM     31  C   UNL A   1      48.587  30.564  27.137  1.00  0.00     0.031 C 
ATOM     32  C   UNL A   1      47.751  36.580  27.715  1.00  0.00     0.029 A 
ATOM     33  C   UNL A   1      47.565  35.210  27.836  1.00  0.00     0.049 A 
ATOM     34  H   UNL A   1      45.982  34.178  28.770  1.00  0.00     0.167 HD
ATOM     35  C   UNL A   1      48.183  32.809  27.464  1.00  0.00     0.074 A 
ATOM     36  C   UNL A   1      49.078  31.781  26.958  1.00  0.00     0.031 C 
ATOM     37  C   UNL A   1      48.417  34.144  27.355  1.00  0.00     0.034 A 
BRANCH  24  38
ATOM     38  C   UNL A   1      44.097  37.846  29.922  1.00  0.00     0.023 A 
ATOM     39  C   UNL A   1      44.216  38.422  31.200  1.00  0.00     0.031 A 
ATOM     40  C   UNL A   1      43.341  38.538  28.958  1.00  0.00     0.131 A 
ATOM     41  C   UNL A   1      43.514  39.601  31.503  1.00  0.00     0.055 A 
ATOM     42  C   UNL A   1      42.721  39.756  29.240  1.00  0.00     0.041 A 
ATOM     43  F   UNL A   1      43.154  38.018  27.735  1.00  0.00    -0.206 F 
ATOM     44  C   UNL A   1      42.789  40.286  30.525  1.00  0.00     0.022 A 
BRANCH  41  45
ATOM     45  S   UNL A   1      43.405  40.129  33.237  1.00  0.00     0.124 S 
ATOM     46  O   UNL A   1      42.679  41.392  33.115  1.00  0.00    -0.237 OA
ATOM     47  O   UNL A   1      42.675  39.031  33.859  1.00  0.00    -0.237 OA
ATOM     48  O   UNL A   1      44.803  40.260  33.646  1.00  0.00    -0.744 OA
ENDBRANCH  41  45
ENDBRANCH  24  38
BRANCH  25  49
ATOM     49  C   UNL A   1      46.957  28.265  28.056  1.00  0.00     0.023 A 
ATOM     50  C   UNL A   1      46.533  27.569  26.914  1.00  0.00     0.031 A 
ATOM     51  C   UNL A   1      47.748  27.566  28.990  1.00  0.00     0.131 A 
ATOM     52  C   UNL A   1      46.857  26.210  26.761  1.00  0.00     0.055 A 
ATOM     53  C   UNL A   1      48.122  26.234  28.801  1.00  0.00     0.041 A 
ATOM     54  F   UNL A   1      48.178  28.170  30.109  1.00  0.00    -0.206 F 
ATOM     55  C   UNL A   1      47.661  25.543  27.687  1.00  0.00     0.022 A 
BRANCH  52  56
ATOM     56  S   UNL A   1      46.120  25.289  25.381  1.00  0.00     0.124 S 
ATOM     57  O   UNL A   1      47.005  25.648  24.280  1.00  0.00    -0.237 OA
ATOM     58  O   UNL A   1      46.209  23.913  25.856  1.00  0.00    -0.237 OA
ATOM     59  O   UNL A   1      44.765  25.832  25.296  1.00  0.00    -0.744 OA
ENDBRANCH  52  56
ENDBRANCH  25  49
BRANCH  37  60
ATOM     60  C   UNL A   1      49.722  34.541  26.720  1.00  0.00     0.023 A 
ATOM     61  C   UNL A   1      50.924  34.552  27.444  1.00  0.00     0.031 A 
ATOM     62  C   UNL A   1      49.751  34.929  25.368  1.00  0.00     0.131 A 
ATOM     63  C   UNL A   1      52.095  35.017  26.834  1.00  0.00     0.055 A 
ATOM     64  C   UNL A   1      50.936  35.313  24.744  1.00  0.00     0.041 A 
ATOM     65  F   UNL A   1      48.627  34.936  24.634  1.00  0.00    -0.206 F 
ATOM     66  C   UNL A   1      52.114  35.375  25.483  1.00  0.00     0.022 A 
BRANCH  63  67
ATOM     67  S   UNL A   1      53.564  35.266  27.865  1.00  0.00     0.124 S 
ATOM     68  O   UNL A   1      53.027  36.053  28.971  1.00  0.00    -0.237 OA
ATOM     69  O   UNL A   1      53.955  33.898  28.188  1.00  0.00    -0.237 OA
ATOM     70  O   UNL A   1      54.483  35.983  26.982  1.00  0.00    -0.744 OA
ENDBRANCH  63  67
ENDBRANCH  37  60
ENDBRANCH  11  12
ENDBRANCH   4   6
ENDBRANCH   3   4
ENDBRANCH   2   3
ENDBRANCH   1   2
BRANCH   1  71
ATOM     71  O   UNL A   1      36.090  34.931  33.794  1.00  0.00    -0.374 OA
BRANCH  71  72
ATOM     72  C   UNL A   1      34.825  34.954  33.132  1.00  0.00     0.202 C 
BRANCH  72  73
ATOM     73  C   UNL A   1      34.194  33.567  33.134  1.00  0.00     0.261 C 
BRANCH  73  74
ATOM     74  O   UNL A   1      34.787  32.802  32.073  1.00  0.00    -0.462 OA
BRANCH  74  75
ATOM     75  C   UNL A   1      35.196  33.476  30.963  1.00  0.00     0.328 C 
ATOM     76  O   UNL A   1      36.285  34.034  30.845  1.00  0.00    -0.250 OA
BRANCH  75  77
ATOM     77  C   UNL A   1      34.122  33.439  29.854  1.00  0.00     0.193 C 
ATOM     78  C   UNL A   1      33.079  34.555  29.848  1.00  0.00     0.037 C 
ATOM     79  N   UNL A   1      34.734  33.400  28.517  1.00  0.00    -0.343 N 
ATOM     80  C   UNL A   1      33.673  35.896  29.413  1.00  0.00     0.005 C 
ATOM     81  C   UNL A   1      35.344  34.591  27.959  1.00  0.00     0.119 C 
ATOM     82  C   UNL A   1      34.369  35.775  28.059  1.00  0.00     0.022 C 
BRANCH  79  83
ATOM     83  C   UNL A   1      35.090  32.122  28.182  1.00  0.00     0.134 A 
ATOM     84  C   UNL A   1      36.238  31.517  28.623  1.00  0.00     0.076 A 
ATOM     85  N   UNL A   1      34.125  31.434  27.572  1.00  0.00    -0.211 NA
ATOM     86  C   UNL A   1      36.325  30.150  28.425  1.00  0.00     0.076 A 
ATOM     87  C   UNL A   1      34.276  30.114  27.430  1.00  0.00     0.162 A 
ATOM     88  N   UNL A   1      35.349  29.421  27.832  1.00  0.00    -0.228 NA
BRANCH  86  89
ATOM     89  C   UNL A   1      37.534  29.425  28.812  1.00  0.00     0.000 A 
ATOM     90  C   UNL A   1      38.669  29.487  27.988  1.00  0.00     0.010 A 
ATOM     91  C   UNL A   1      37.621  28.716  30.021  1.00  0.00     0.010 A 
ATOM     92  C   UNL A   1      39.865  28.878  28.369  1.00  0.00     0.001 A 
ATOM     93  C   UNL A   1      38.816  28.099  30.399  1.00  0.00     0.001 A 
ATOM     94  C   UNL A   1      39.938  28.186  29.576  1.00  0.00     0.000 A 
ENDBRANCH  86  89
BRANCH  87  95
ATOM     95  C   UNL A   1      33.133  29.443  26.807  1.00  0.00     0.021 A 
ATOM     96  C   UNL A   1      32.447  28.435  27.520  1.00  0.00     0.012 A 
ATOM     97  C   UNL A   1      32.748  29.693  25.483  1.00  0.00     0.032 A 
ATOM     98  C   UNL A   1      31.412  27.703  26.941  1.00  0.00     0.002 A 
ATOM     99  C   UNL A   1      31.718  28.949  24.901  1.00  0.00     0.041 A 
ATOM    100  C   UNL A   1      31.048  27.961  25.625  1.00  0.00     0.020 A 
ATOM    101  Cl  UNL A   1      31.278  29.233  23.261  1.00  0.00    -0.084 Cl
ENDBRANCH  87  95
ENDBRANCH  79  83
ENDBRANCH  75  77
ENDBRANCH  74  75
ENDBRANCH  73  74
ENDBRANCH  72  73
ENDBRANCH  71  72
ENDBRANCH   1  71
TORSDOF 20
ENDMDL
MODEL 2
REMARK VINA RESULT:      -9.6      8.960     14.682
REMARK SMILES O=C(OCCOCCOC(=O)[C@H]1CCCCN1c1cc(-c2ccccc2)nc(-c2cccc(Cl)c2)n1)c1ccc(-c2c3nc(c(-c4cc(S(=O)(=O)[O-])ccc4F)c4ccc([nH]4)c(-c4cc(S(=O)(=O)[O-])ccc4F)c4nc(c(-c5cc(S(=O)(=O)[O-])ccc5F)c5ccc2[nH]5)C=C4)C=C3)cc1
REMARK SMILES IDX 5 1 4 2 3 3 2 4 1 5 37 6 38 7 99 8 39 9 98 10 40 11 41 12
REMARK SMILES IDX 42 13 92 14 43 15 97 16 91 17 93 18 44 19 96 20 90 21 89 22
REMARK SMILES IDX 45 24 77 25 57 26 76 27 58 28 61 29 75 30 94 31 59 32 60 33
REMARK SMILES IDX 74 35 95 36 62 37 46 38 47 39 55 40 48 41 54 42 56 43 53 44
REMARK SMILES IDX 49 45 50 46 51 47 52 48 78 49 79 50 87 51 80 52 86 53 88 54
REMARK SMILES IDX 85 55 81 56 82 57 83 58 84 59 63 60 64 61 72 62 65 63 71 64
REMARK SMILES IDX 73 65 70 66 66 67 67 68 68 69 69 70 6 71 7 72 8 73 9 74
REMARK SMILES IDX 10 75 11 76 12 77 13 78 17 79 14 80 16 81 15 82 18 83 19 84
REMARK SMILES IDX 36 85 20 86 28 87 27 88 21 89 22 90 26 91 23 92 25 93 24 94
REMARK SMILES IDX 29 95 30 96 35 97 31 98 33 99 32 100 34 101
REMARK H PARENT 93 23 61 34
REMARK Flexibility Score: inf
ROOT
ATOM      1  C   UNL A   1      48.106  26.567  39.191  1.00  0.00     0.202 C 
ENDROOT
BRANCH   1   2
ATOM      2  C   UNL A   1      47.972  26.994  37.721  1.00  0.00     0.261 C 
BRANCH   2   3
ATOM      3  O   UNL A   1      47.789  25.859  36.858  1.00  0.00    -0.460 OA
BRANCH   3   4
ATOM      4  C   UNL A   1      47.508  25.870  35.529  1.00  0.00     0.338 C 
ATOM      5  O   UNL A   1      48.320  25.372  34.752  1.00  0.00    -0.246 OA
BRANCH   4   6
ATOM      6  C   UNL A   1      46.272  26.491  34.962  1.00  0.00     0.060 A 
ATOM      7  C   UNL A   1      45.036  25.856  34.907  1.00  0.00     0.016 A 
ATOM      8  C   UNL A   1      46.337  27.817  34.508  1.00  0.00     0.016 A 
ATOM      9  C   UNL A   1      43.908  26.461  34.431  1.00  0.00     0.010 A 
ATOM     10  C   UNL A   1      45.195  28.453  34.000  1.00  0.00     0.010 A 
ATOM     11  C   UNL A   1      43.984  27.757  33.959  1.00  0.00    -0.014 A 
BRANCH  11  12
ATOM     12  C   UNL A   1      42.789  28.167  33.220  1.00  0.00     0.031 A 
ATOM     13  C   UNL A   1      41.914  29.187  33.879  1.00  0.00     0.074 A 
ATOM     14  C   UNL A   1      42.732  27.898  31.903  1.00  0.00     0.049 A 
ATOM     15  N   UNL A   1      40.851  29.782  33.424  1.00  0.00    -0.248 NA
ATOM     16  C   UNL A   1      42.323  29.625  35.227  1.00  0.00     0.031 C 
ATOM     17  C   UNL A   1      43.736  27.122  31.160  1.00  0.00     0.029 A 
ATOM     18  N   UNL A   1      41.857  28.313  30.943  1.00  0.00    -0.354 N 
ATOM     19  C   UNL A   1      40.433  30.626  34.445  1.00  0.00     0.074 A 
ATOM     20  C   UNL A   1      41.365  30.481  35.538  1.00  0.00     0.031 C 
ATOM     21  C   UNL A   1      43.426  27.144  29.854  1.00  0.00     0.029 A 
ATOM     22  C   UNL A   1      42.162  27.848  29.686  1.00  0.00     0.049 A 
ATOM     23  H   UNL A   1      41.081  28.888  31.133  1.00  0.00     0.167 HD
ATOM     24  C   UNL A   1      39.344  31.428  34.455  1.00  0.00     0.034 A 
ATOM     25  C   UNL A   1      41.455  27.950  28.546  1.00  0.00     0.034 A 
ATOM     26  C   UNL A   1      38.455  31.514  33.326  1.00  0.00     0.049 A 
ATOM     27  C   UNL A   1      40.160  28.718  28.628  1.00  0.00     0.074 A 
ATOM     28  C   UNL A   1      37.248  32.175  33.215  1.00  0.00     0.029 A 
ATOM     29  N   UNL A   1      38.693  30.901  32.096  1.00  0.00    -0.354 N 
ATOM     30  N   UNL A   1      39.666  29.393  29.645  1.00  0.00    -0.248 NA
ATOM     31  C   UNL A   1      39.324  28.731  27.427  1.00  0.00     0.031 C 
ATOM     32  C   UNL A   1      36.722  31.896  31.948  1.00  0.00     0.029 A 
ATOM     33  C   UNL A   1      37.642  31.143  31.231  1.00  0.00     0.049 A 
ATOM     34  H   UNL A   1      39.494  30.372  31.876  1.00  0.00     0.167 HD
ATOM     35  C   UNL A   1      38.470  29.937  29.195  1.00  0.00     0.074 A 
ATOM     36  C   UNL A   1      38.334  29.524  27.808  1.00  0.00     0.031 C 
ATOM     37  C   UNL A   1      37.561  30.704  29.855  1.00  0.00     0.034 A 
BRANCH  24  38
ATOM     38  C   UNL A   1      39.010  32.104  35.762  1.00  0.00     0.023 A 
ATOM     39  C   UNL A   1      38.384  31.429  36.826  1.00  0.00     0.031 A 
ATOM     40  C   UNL A   1      39.201  33.492  35.888  1.00  0.00     0.131 A 
ATOM     41  C   UNL A   1      37.892  32.156  37.922  1.00  0.00     0.055 A 
ATOM     42  C   UNL A   1      38.790  34.194  37.021  1.00  0.00     0.041 A 
ATOM     43  F   UNL A   1      39.751  34.199  34.888  1.00  0.00    -0.206 F 
ATOM     44  C   UNL A   1      38.114  33.530  38.039  1.00  0.00     0.022 A 
BRANCH  41  45
ATOM     45  S   UNL A   1      36.794  31.319  39.101  1.00  0.00     0.124 S 
ATOM     46  O   UNL A   1      37.643  31.241  40.289  1.00  0.00    -0.237 OA
ATOM     47  O   UNL A   1      35.661  32.232  39.187  1.00  0.00    -0.237 OA
ATOM     48  O   UNL A   1      36.514  30.035  38.461  1.00  0.00    -0.744 OA
ENDBRANCH  41  45
ENDBRANCH  24  38
BRANCH  25  49
ATOM     49  C   UNL A   1      41.886  27.246  27.301  1.00  0.00     0.023 A 
ATOM     50  C   UNL A   1      41.855  25.847  27.198  1.00  0.00     0.031 A 
ATOM     51  C   UNL A   1      42.404  27.969  26.208  1.00  0.00     0.131 A 
ATOM     52  C   UNL A   1      42.376  25.216  26.055  1.00  0.00     0.055 A 
ATOM     53  C   UNL A   1      42.861  27.340  25.048  1.00  0.00     0.041 A 
ATOM     54  F   UNL A   1      42.473  29.309  26.246  1.00  0.00    -0.206 F 
ATOM     55  C   UNL A   1      42.864  25.953  24.974  1.00  0.00     0.022 A 
BRANCH  52  56
ATOM     56  S   UNL A   1      42.510  23.406  26.045  1.00  0.00     0.124 S 
ATOM     57  O   UNL A   1      41.135  23.006  26.317  1.00  0.00    -0.237 OA
ATOM     58  O   UNL A   1      43.000  23.148  24.695  1.00  0.00    -0.237 OA
ATOM     59  O   UNL A   1      43.466  23.130  27.117  1.00  0.00    -0.744 OA
ENDBRANCH  52  56
ENDBRANCH  25  49
BRANCH  37  60
ATOM     60  C   UNL A   1      36.386  31.185  29.047  1.00  0.00     0.023 A 
ATOM     61  C   UNL A   1      35.390  30.306  28.595  1.00  0.00     0.031 A 
ATOM     62  C   UNL A   1      36.278  32.548  28.716  1.00  0.00     0.131 A 
ATOM     63  C   UNL A   1      34.367  30.787  27.770  1.00  0.00     0.055 A 
ATOM     64  C   UNL A   1      35.212  33.034  27.963  1.00  0.00     0.041 A 
ATOM     65  F   UNL A   1      37.207  33.428  29.125  1.00  0.00    -0.206 F 
ATOM     66  C   UNL A   1      34.257  32.148  27.470  1.00  0.00     0.022 A 
BRANCH  63  67
ATOM     67  S   UNL A   1      33.252  29.589  26.992  1.00  0.00     0.124 S 
ATOM     68  O   UNL A   1      33.196  28.532  27.997  1.00  0.00    -0.237 OA
ATOM     69  O   UNL A   1      32.029  30.367  26.818  1.00  0.00    -0.237 OA
ATOM     70  O   UNL A   1      33.943  29.234  25.754  1.00  0.00    -0.744 OA
ENDBRANCH  63  67
ENDBRANCH  37  60
ENDBRANCH  11  12
ENDBRANCH   4   6
ENDBRANCH   3   4
ENDBRANCH   2   3
ENDBRANCH   1   2
BRANCH   1  71
ATOM     71  O   UNL A   1      46.917  26.254  39.919  1.00  0.00    -0.374 OA
BRANCH  71  72
ATOM     72  C   UNL A   1      46.321  24.981  39.665  1.00  0.00     0.202 C 
BRANCH  72  73
ATOM     73  C   UNL A   1      47.374  23.881  39.696  1.00  0.00     0.261 C 
BRANCH  73  74
ATOM     74  O   UNL A   1      47.131  22.995  38.592  1.00  0.00    -0.462 OA
BRANCH  74  75
ATOM     75  C   UNL A   1      46.302  21.936  38.804  1.00  0.00     0.328 C 
ATOM     76  O   UNL A   1      45.514  21.842  39.743  1.00  0.00    -0.250 OA
BRANCH  75  77
ATOM     77  C   UNL A   1      46.460  20.866  37.702  1.00  0.00     0.193 C 
ATOM     78  C   UNL A   1      45.899  21.193  36.320  1.00  0.00     0.037 C 
ATOM     79  N   UNL A   1      47.869  20.483  37.527  1.00  0.00    -0.343 N 
ATOM     80  C   UNL A   1      46.730  22.252  35.596  1.00  0.00     0.005 C 
ATOM     81  C   UNL A   1      48.792  21.381  36.859  1.00  0.00     0.119 C 
ATOM     82  C   UNL A   1      48.198  21.840  35.518  1.00  0.00     0.022 C 
BRANCH  79  83
ATOM     83  C   UNL A   1      48.238  19.547  38.455  1.00  0.00     0.134 A 
ATOM     84  C   UNL A   1      49.492  19.481  39.003  1.00  0.00     0.076 A 
ATOM     85  N   UNL A   1      47.220  18.842  38.946  1.00  0.00    -0.211 NA
ATOM     86  C   UNL A   1      49.633  18.665  40.111  1.00  0.00     0.076 A 
ATOM     87  C   UNL A   1      47.432  18.086  40.028  1.00  0.00     0.162 A 
ATOM     88  N   UNL A   1      48.611  17.957  40.649  1.00  0.00    -0.228 NA
BRANCH  86  89
ATOM     89  C   UNL A   1      50.945  18.487  40.734  1.00  0.00     0.000 A 
ATOM     90  C   UNL A   1      51.688  17.329  40.458  1.00  0.00     0.010 A 
ATOM     91  C   UNL A   1      51.519  19.474  41.553  1.00  0.00     0.010 A 
ATOM     92  C   UNL A   1      52.977  17.167  40.965  1.00  0.00     0.001 A 
ATOM     93  C   UNL A   1      52.807  19.307  42.069  1.00  0.00     0.001 A 
ATOM     94  C   UNL A   1      53.537  18.158  41.769  1.00  0.00     0.000 A 
ENDBRANCH  86  89
BRANCH  87  95
ATOM     95  C   UNL A   1      46.236  17.404  40.527  1.00  0.00     0.021 A 
ATOM     96  C   UNL A   1      46.136  17.095  41.901  1.00  0.00     0.012 A 
ATOM     97  C   UNL A   1      45.220  16.952  39.674  1.00  0.00     0.032 A 
ATOM     98  C   UNL A   1      45.063  16.368  42.413  1.00  0.00     0.002 A 
ATOM     99  C   UNL A   1      44.152  16.213  40.187  1.00  0.00     0.041 A 
ATOM    100  C   UNL A   1      44.067  15.924  41.550  1.00  0.00     0.020 A 
ATOM    101  Cl  UNL A   1      42.929  15.626  39.127  1.00  0.00    -0.084 Cl
ENDBRANCH  87  95
ENDBRANCH  79  83
ENDBRANCH  75  77
ENDBRANCH  74  75
ENDBRANCH  73  74
ENDBRANCH  72  73
ENDBRANCH  71  72
ENDBRANCH   1  71
TORSDOF 20
ENDMDL
MODEL 3
REMARK VINA RESULT:      -9.4      4.666     12.742
REMARK SMILES O=C(OCCOCCOC(=O)[C@H]1CCCCN1c1cc(-c2ccccc2)nc(-c2cccc(Cl)c2)n1)c1ccc(-c2c3nc(c(-c4cc(S(=O)(=O)[O-])ccc4F)c4ccc([nH]4)c(-c4cc(S(=O)(=O)[O-])ccc4F)c4nc(c(-c5cc(S(=O)(=O)[O-])ccc5F)c5ccc2[nH]5)C=C4)C=C3)cc1
REMARK SMILES IDX 5 1 4 2 3 3 2 4 1 5 37 6 38 7 99 8 39 9 98 10 40 11 41 12
REMARK SMILES IDX 42 13 92 14 43 15 97 16 91 17 93 18 44 19 96 20 90 21 89 22
REMARK SMILES IDX 45 24 77 25 57 26 76 27 58 28 61 29 75 30 94 31 59 32 60 33
REMARK SMILES IDX 74 35 95 36 62 37 46 38 47 39 55 40 48 41 54 42 56 43 53 44
REMARK SMILES IDX 49 45 50 46 51 47 52 48 78 49 79 50 87 51 80 52 86 53 88 54
REMARK SMILES IDX 85 55 81 56 82 57 83 58 84 59 63 60 64 61 72 62 65 63 71 64
REMARK SMILES IDX 73 65 70 66 66 67 67 68 68 69 69 70 6 71 7 72 8 73 9 74
REMARK SMILES IDX 10 75 11 76 12 77 13 78 17 79 14 80 16 81 15 82 18 83 19 84
REMARK SMILES IDX 36 85 20 86 28 87 27 88 21 89 22 90 26 91 23 92 25 93 24 94
REMARK SMILES IDX 29 95 30 96 35 97 31 98 33 99 32 100 34 101
REMARK H PARENT 93 23 61 34
REMARK Flexibility Score: inf
ROOT
ATOM      1  C   UNL A   1      46.466  38.397  29.813  1.00  0.00     0.202 C 
ENDROOT
BRANCH   1   2
ATOM      2  C   UNL A   1      47.068  37.786  31.088  1.00  0.00     0.261 C 
BRANCH   2   3
ATOM      3  O   UNL A   1      47.784  36.572  30.804  1.00  0.00    -0.460 OA
BRANCH   3   4
ATOM      4  C   UNL A   1      47.808  35.884  29.633  1.00  0.00     0.338 C 
ATOM      5  O   UNL A   1      48.635  36.203  28.781  1.00  0.00    -0.246 OA
BRANCH   4   6
ATOM      6  C   UNL A   1      46.853  34.779  29.316  1.00  0.00     0.060 A 
ATOM      7  C   UNL A   1      46.633  33.679  30.138  1.00  0.00     0.016 A 
ATOM      8  C   UNL A   1      46.081  34.876  28.148  1.00  0.00     0.016 A 
ATOM      9  C   UNL A   1      45.717  32.707  29.853  1.00  0.00     0.010 A 
ATOM     10  C   UNL A   1      45.146  33.881  27.827  1.00  0.00     0.010 A 
ATOM     11  C   UNL A   1      44.981  32.793  28.688  1.00  0.00    -0.014 A 
BRANCH  11  12
ATOM     12  C   UNL A   1      44.266  31.555  28.371  1.00  0.00     0.031 A 
ATOM     13  C   UNL A   1      45.038  30.507  27.636  1.00  0.00     0.074 A 
ATOM     14  C   UNL A   1      43.129  31.289  29.041  1.00  0.00     0.049 A 
ATOM     15  N   UNL A   1      44.685  29.301  27.301  1.00  0.00    -0.248 NA
ATOM     16  C   UNL A   1      46.421  30.858  27.259  1.00  0.00     0.031 C 
ATOM     17  C   UNL A   1      42.483  32.201  29.997  1.00  0.00     0.029 A 
ATOM     18  N   UNL A   1      42.367  30.159  29.095  1.00  0.00    -0.354 N 
ATOM     19  C   UNL A   1      45.778  28.765  26.632  1.00  0.00     0.074 A 
ATOM     20  C   UNL A   1      46.815  29.769  26.621  1.00  0.00     0.031 C 
ATOM     21  C   UNL A   1      41.438  31.576  30.559  1.00  0.00     0.029 A 
ATOM     22  C   UNL A   1      41.286  30.267  29.938  1.00  0.00     0.049 A 
ATOM     23  H   UNL A   1      42.572  29.346  28.580  1.00  0.00     0.167 HD
ATOM     24  C   UNL A   1      45.876  27.543  26.062  1.00  0.00     0.034 A 
ATOM     25  C   UNL A   1      40.269  29.409  30.131  1.00  0.00     0.034 A 
ATOM     26  C   UNL A   1      44.793  26.596  26.110  1.00  0.00     0.049 A 
ATOM     27  C   UNL A   1      40.326  28.118  29.354  1.00  0.00     0.074 A 
ATOM     28  C   UNL A   1      44.678  25.371  25.482  1.00  0.00     0.029 A 
ATOM     29  N   UNL A   1      43.621  26.785  26.840  1.00  0.00    -0.354 N 
ATOM     30  N   UNL A   1      41.290  27.664  28.580  1.00  0.00    -0.248 NA
ATOM     31  C   UNL A   1      39.167  27.232  29.462  1.00  0.00     0.031 C 
ATOM     32  C   UNL A   1      43.407  24.860  25.771  1.00  0.00     0.029 A 
ATOM     33  C   UNL A   1      42.764  25.715  26.656  1.00  0.00     0.049 A 
ATOM     34  H   UNL A   1      43.430  27.568  27.406  1.00  0.00     0.167 HD
ATOM     35  C   UNL A   1      40.864  26.421  28.130  1.00  0.00     0.074 A 
ATOM     36  C   UNL A   1      39.564  26.195  28.739  1.00  0.00     0.031 C 
ATOM     37  C   UNL A   1      41.476  25.543  27.292  1.00  0.00     0.034 A 
BRANCH  24  38
ATOM     38  C   UNL A   1      47.108  27.277  25.233  1.00  0.00     0.023 A 
ATOM     39  C   UNL A   1      47.257  27.762  23.921  1.00  0.00     0.031 A 
ATOM     40  C   UNL A   1      48.092  26.399  25.723  1.00  0.00     0.131 A 
ATOM     41  C   UNL A   1      48.312  27.295  23.119  1.00  0.00     0.055 A 
ATOM     42  C   UNL A   1      49.187  26.011  24.951  1.00  0.00     0.041 A 
ATOM     43  F   UNL A   1      47.981  25.867  26.951  1.00  0.00    -0.206 F 
ATOM     44  C   UNL A   1      49.292  26.444  23.633  1.00  0.00     0.022 A 
BRANCH  41  45
ATOM     45  S   UNL A   1      48.284  27.664  21.341  1.00  0.00     0.124 S 
ATOM     46  O   UNL A   1      48.270  26.321  20.762  1.00  0.00    -0.237 OA
ATOM     47  O   UNL A   1      47.055  28.434  21.195  1.00  0.00    -0.237 OA
ATOM     48  O   UNL A   1      49.520  28.414  21.125  1.00  0.00    -0.744 OA
ENDBRANCH  41  45
ENDBRANCH  24  38
BRANCH  25  49
ATOM     49  C   UNL A   1      39.100  29.773  30.986  1.00  0.00     0.023 A 
ATOM     50  C   UNL A   1      38.134  30.697  30.559  1.00  0.00     0.031 A 
ATOM     51  C   UNL A   1      38.966  29.244  32.286  1.00  0.00     0.131 A 
ATOM     52  C   UNL A   1      37.113  31.100  31.437  1.00  0.00     0.055 A 
ATOM     53  C   UNL A   1      37.913  29.599  33.130  1.00  0.00     0.041 A 
ATOM     54  F   UNL A   1      39.863  28.363  32.760  1.00  0.00    -0.206 F 
ATOM     55  C   UNL A   1      36.987  30.546  32.712  1.00  0.00     0.022 A 
BRANCH  52  56
ATOM     56  S   UNL A   1      36.009  32.447  30.927  1.00  0.00     0.124 S 
ATOM     57  O   UNL A   1      36.704  33.615  31.455  1.00  0.00    -0.237 OA
ATOM     58  O   UNL A   1      36.007  32.302  29.476  1.00  0.00    -0.237 OA
ATOM     59  O   UNL A   1      34.746  32.120  31.587  1.00  0.00    -0.744 OA
ENDBRANCH  52  56
ENDBRANCH  25  49
BRANCH  37  60
ATOM     60  C   UNL A   1      40.760  24.242  27.053  1.00  0.00     0.023 A 
ATOM     61  C   UNL A   1      41.347  23.006  27.368  1.00  0.00     0.031 A 
ATOM     62  C   UNL A   1      39.474  24.246  26.486  1.00  0.00     0.131 A 
ATOM     63  C   UNL A   1      40.679  21.820  27.042  1.00  0.00     0.055 A 
ATOM     64  C   UNL A   1      38.780  23.064  26.239  1.00  0.00     0.041 A 
ATOM     65  F   UNL A   1      38.871  25.403  26.166  1.00  0.00    -0.206 F 
ATOM     66  C   UNL A   1      39.390  21.840  26.502  1.00  0.00     0.022 A 
BRANCH  63  67
ATOM     67  S   UNL A   1      41.569  20.252  27.219  1.00  0.00     0.124 S 
ATOM     68  O   UNL A   1      41.416  19.666  25.891  1.00  0.00    -0.237 OA
ATOM     69  O   UNL A   1      42.915  20.695  27.568  1.00  0.00    -0.237 OA
ATOM     70  O   UNL A   1      40.845  19.566  28.288  1.00  0.00    -0.744 OA
ENDBRANCH  63  67
ENDBRANCH  37  60
ENDBRANCH  11  12
ENDBRANCH   4   6
ENDBRANCH   3   4
ENDBRANCH   2   3
ENDBRANCH   1   2
BRANCH   1  71
ATOM     71  O   UNL A   1      46.737  39.769  29.523  1.00  0.00    -0.374 OA
BRANCH  71  72
ATOM     72  C   UNL A   1      47.649  40.036  28.456  1.00  0.00     0.202 C 
BRANCH  72  73
ATOM     73  C   UNL A   1      47.330  41.374  27.802  1.00  0.00     0.261 C 
BRANCH  73  74
ATOM     74  O   UNL A   1      47.513  41.237  26.385  1.00  0.00    -0.462 OA
BRANCH  74  75
ATOM     75  C   UNL A   1      46.415  41.368  25.591  1.00  0.00     0.328 C 
ATOM     76  O   UNL A   1      46.208  40.716  24.570  1.00  0.00    -0.250 OA
BRANCH  75  77
ATOM     77  C   UNL A   1      45.444  42.434  26.144  1.00  0.00     0.193 C 
ATOM     78  C   UNL A   1      45.366  43.766  25.402  1.00  0.00     0.037 C 
ATOM     79  N   UNL A   1      44.075  41.907  26.250  1.00  0.00    -0.343 N 
ATOM     80  C   UNL A   1      44.661  43.634  24.051  1.00  0.00     0.005 C 
ATOM     81  C   UNL A   1      43.271  41.719  25.057  1.00  0.00     0.119 C 
ATOM     82  C   UNL A   1      43.280  43.003  24.212  1.00  0.00     0.022 C 
BRANCH  79  83
ATOM     83  C   UNL A   1      43.915  41.195  27.407  1.00  0.00     0.134 A 
ATOM     84  C   UNL A   1      43.860  41.774  28.648  1.00  0.00     0.076 A 
ATOM     85  N   UNL A   1      43.598  39.915  27.217  1.00  0.00    -0.211 NA
ATOM     86  C   UNL A   1      43.429  40.964  29.683  1.00  0.00     0.076 A 
ATOM     87  C   UNL A   1      43.177  39.201  28.264  1.00  0.00     0.162 A 
ATOM     88  N   UNL A   1      43.074  39.668  29.515  1.00  0.00    -0.228 NA
BRANCH  86  89
ATOM     89  C   UNL A   1      43.388  41.476  31.053  1.00  0.00     0.000 A 
ATOM     90  C   UNL A   1      44.327  41.016  31.989  1.00  0.00     0.010 A 
ATOM     91  C   UNL A   1      42.476  42.469  31.448  1.00  0.00     0.010 A 
ATOM     92  C   UNL A   1      44.371  41.547  33.279  1.00  0.00     0.001 A 
ATOM     93  C   UNL A   1      42.515  42.993  32.743  1.00  0.00     0.001 A 
ATOM     94  C   UNL A   1      43.466  42.537  33.654  1.00  0.00     0.000 A 
ENDBRANCH  86  89
BRANCH  87  95
ATOM     95  C   UNL A   1      42.791  37.826  27.937  1.00  0.00     0.021 A 
ATOM     96  C   UNL A   1      43.248  37.245  26.733  1.00  0.00     0.012 A 
ATOM     97  C   UNL A   1      41.898  37.090  28.727  1.00  0.00     0.032 A 
ATOM     98  C   UNL A   1      42.838  35.976  26.331  1.00  0.00     0.002 A 
ATOM     99  C   UNL A   1      41.479  35.823  28.315  1.00  0.00     0.041 A 
ATOM    100  C   UNL A   1      41.947  35.263  27.125  1.00  0.00     0.020 A 
ATOM    101  Cl  UNL A   1      40.349  34.942  29.270  1.00  0.00    -0.084 Cl
ENDBRANCH  87  95
ENDBRANCH  79  83
ENDBRANCH  75  77
ENDBRANCH  74  75
ENDBRANCH  73  74
ENDBRANCH  72  73
ENDBRANCH  71  72
ENDBRANCH   1  71
TORSDOF 20
ENDMDL
