MODEL 1
REMARK VINA RESULT:     -12.1      0.000      0.000
REMARK SMILES C[C@@H]1C(C(=O)OCCOCCOC(=O)c2ccc(-c3c4nc(c(-c5cc(S(=O)(=O)[O-])ccc5F)c5ccc([nH]5)c(-c5cc(S(=O)(=O)[O-])ccc5F)c5nc(c(-c6cc(S(=O)(=O)[O-])ccc6F)c6ccc3[nH]6)C=C5)C=C4)cc2)=NC2=C1C(=O)C[C@H](c1ccccc1)C2
REMARK SMILES IDX 10 1 9 2 8 3 7 4 6 5 4 6 5 7 3 8 1 9 2 10 80 11 78 12 79 13
REMARK SMILES IDX 81 14 91 15 82 16 83 17 84 18 85 19 86 20 90 21 87 22 89 23
REMARK SMILES IDX 88 24 11 25 12 26 13 27 14 28 15 29 16 30 77 31 17 32 76 33
REMARK SMILES IDX 18 34 19 35 20 36 70 37 21 38 75 39 69 40 71 41 22 42 74 43
REMARK SMILES IDX 68 44 67 45 23 47 55 48 35 49 54 50 36 51 39 52 53 53 72 54
REMARK SMILES IDX 37 55 38 56 52 58 73 59 40 60 24 61 25 62 33 63 26 64 32 65
REMARK SMILES IDX 34 66 31 67 27 68 28 69 29 70 30 71 56 72 57 73 65 74 58 75
REMARK SMILES IDX 64 76 66 77 63 78 59 79 60 80 61 81 62 82 41 83 42 84 50 85
REMARK SMILES IDX 43 86 49 87 51 88 48 89 44 90 45 91 46 92 47 93
REMARK H PARENT 71 46 39 57
REMARK Flexibility Score: inf
ROOT
ATOM      1  C   UNL A   1      32.085  30.152  26.367  1.00  0.00     0.202 C 
ENDROOT
BRANCH   1   2
ATOM      2  O   UNL A   1      32.743  29.435  27.408  1.00  0.00    -0.374 OA
BRANCH   2   3
ATOM      3  C   UNL A   1      33.582  28.383  26.938  1.00  0.00     0.202 C 
BRANCH   3   4
ATOM      4  C   UNL A   1      33.992  28.594  25.474  1.00  0.00     0.261 C 
BRANCH   4   5
ATOM      5  O   UNL A   1      33.776  27.391  24.694  1.00  0.00    -0.459 OA
BRANCH   5   6
ATOM      6  C   UNL A   1      32.712  27.378  23.854  1.00  0.00     0.353 C 
ATOM      7  O   UNL A   1      32.443  28.202  23.001  1.00  0.00    -0.245 OA
BRANCH   6   8
ATOM      8  C   UNL A   1      31.964  26.047  23.989  1.00  0.00     0.133 C 
ATOM      9  C   UNL A   1      29.530  26.200  24.331  1.00  0.00     0.020 C 
ATOM     10  C   UNL A   1      30.861  25.882  25.012  1.00  0.00     0.078 C 
ATOM     11  C   UNL A   1      31.068  24.413  25.102  1.00  0.00     0.026 C 
ATOM     12  N   UNL A   1      32.253  24.973  23.290  1.00  0.00    -0.249 NA
ATOM     13  C   UNL A   1      31.672  23.951  24.010  1.00  0.00     0.049 C 
ATOM     14  C   UNL A   1      31.112  23.570  26.301  1.00  0.00     0.161 C 
ATOM     15  C   UNL A   1      32.046  22.504  23.894  1.00  0.00     0.065 C 
ATOM     16  O   UNL A   1      30.321  23.788  27.214  1.00  0.00    -0.294 OA
ATOM     17  C   UNL A   1      32.218  22.492  26.395  1.00  0.00     0.089 C 
ATOM     18  C   UNL A   1      32.983  22.145  25.064  1.00  0.00     0.033 C 
BRANCH  18  19
ATOM     19  C   UNL A   1      34.403  22.720  24.876  1.00  0.00    -0.044 A 
ATOM     20  C   UNL A   1      35.062  23.417  25.912  1.00  0.00     0.004 A 
ATOM     21  C   UNL A   1      35.105  22.597  23.671  1.00  0.00     0.004 A 
ATOM     22  C   UNL A   1      36.411  23.767  25.842  1.00  0.00     0.000 A 
ATOM     23  C   UNL A   1      36.459  22.978  23.584  1.00  0.00     0.000 A 
ATOM     24  C   UNL A   1      37.124  23.508  24.687  1.00  0.00     0.000 A 
ENDBRANCH  18  19
ENDBRANCH   6   8
ENDBRANCH   5   6
ENDBRANCH   4   5
ENDBRANCH   3   4
ENDBRANCH   2   3
ENDBRANCH   1   2
BRANCH   1  25
ATOM     25  C   UNL A   1      31.813  31.591  26.746  1.00  0.00     0.261 C 
BRANCH  25  26
ATOM     26  O   UNL A   1      32.877  32.022  27.561  1.00  0.00    -0.460 OA
BRANCH  26  27
ATOM     27  C   UNL A   1      32.917  33.312  27.953  1.00  0.00     0.338 C 
ATOM     28  O   UNL A   1      32.162  34.207  27.690  1.00  0.00    -0.246 OA
BRANCH  27  29
ATOM     29  C   UNL A   1      34.198  33.384  28.673  1.00  0.00     0.060 A 
ATOM     30  C   UNL A   1      35.232  34.072  28.049  1.00  0.00     0.016 A 
ATOM     31  C   UNL A   1      34.415  32.499  29.746  1.00  0.00     0.016 A 
ATOM     32  C   UNL A   1      36.519  33.670  28.329  1.00  0.00     0.010 A 
ATOM     33  C   UNL A   1      35.683  32.046  29.959  1.00  0.00     0.010 A 
ATOM     34  C   UNL A   1      36.710  32.583  29.190  1.00  0.00    -0.014 A 
BRANCH  34  35
ATOM     35  C   UNL A   1      38.046  32.118  29.473  1.00  0.00     0.031 A 
ATOM     36  C   UNL A   1      38.159  30.687  29.117  1.00  0.00     0.074 A 
ATOM     37  C   UNL A   1      39.055  32.939  29.814  1.00  0.00     0.049 A 
ATOM     38  N   UNL A   1      37.954  29.679  29.902  1.00  0.00    -0.248 NA
ATOM     39  C   UNL A   1      38.120  30.333  27.681  1.00  0.00     0.031 C 
ATOM     40  C   UNL A   1      39.073  34.400  29.891  1.00  0.00     0.029 A 
ATOM     41  N   UNL A   1      40.339  32.611  30.101  1.00  0.00    -0.354 N 
ATOM     42  C   UNL A   1      38.100  28.576  29.076  1.00  0.00     0.074 A 
ATOM     43  C   UNL A   1      37.787  29.045  27.761  1.00  0.00     0.031 C 
ATOM     44  C   UNL A   1      40.356  34.829  29.993  1.00  0.00     0.029 A 
ATOM     45  C   UNL A   1      41.236  33.677  30.113  1.00  0.00     0.049 A 
ATOM     46  H   UNL A   1      40.617  31.686  30.289  1.00  0.00     0.167 HD
ATOM     47  C   UNL A   1      38.883  27.528  29.454  1.00  0.00     0.034 A 
ATOM     48  C   UNL A   1      42.598  33.574  30.146  1.00  0.00     0.034 A 
ATOM     49  C   UNL A   1      39.150  27.593  30.881  1.00  0.00     0.049 A 
ATOM     50  C   UNL A   1      42.897  32.205  30.658  1.00  0.00     0.074 A 
ATOM     51  C   UNL A   1      38.356  27.641  32.011  1.00  0.00     0.029 A 
ATOM     52  N   UNL A   1      40.386  28.065  31.276  1.00  0.00    -0.354 N 
ATOM     53  N   UNL A   1      42.591  31.816  31.867  1.00  0.00    -0.248 NA
ATOM     54  C   UNL A   1      43.017  31.129  29.681  1.00  0.00     0.031 C 
ATOM     55  C   UNL A   1      39.000  28.572  32.880  1.00  0.00     0.029 A 
ATOM     56  C   UNL A   1      40.206  28.967  32.297  1.00  0.00     0.049 A 
ATOM     57  H   UNL A   1      41.252  27.798  30.891  1.00  0.00     0.167 HD
ATOM     58  C   UNL A   1      42.060  30.541  31.719  1.00  0.00     0.074 A 
ATOM     59  C   UNL A   1      42.419  30.142  30.357  1.00  0.00     0.031 C 
ATOM     60  C   UNL A   1      41.117  30.063  32.588  1.00  0.00     0.034 A 
BRANCH  47  61
ATOM     61  C   UNL A   1      39.769  26.742  28.500  1.00  0.00     0.023 A 
ATOM     62  C   UNL A   1      40.860  27.438  27.955  1.00  0.00     0.031 A 
ATOM     63  C   UNL A   1      39.490  25.489  27.896  1.00  0.00     0.131 A 
ATOM     64  C   UNL A   1      41.515  26.971  26.804  1.00  0.00     0.055 A 
ATOM     65  C   UNL A   1      40.180  25.004  26.783  1.00  0.00     0.041 A 
ATOM     66  F   UNL A   1      38.501  24.678  28.278  1.00  0.00    -0.206 F 
ATOM     67  C   UNL A   1      41.176  25.762  26.206  1.00  0.00     0.022 A 
BRANCH  64  68
ATOM     68  S   UNL A   1      42.710  28.065  26.007  1.00  0.00     0.124 S 
ATOM     69  O   UNL A   1      42.366  27.893  24.600  1.00  0.00    -0.237 OA
ATOM     70  O   UNL A   1      42.374  29.354  26.602  1.00  0.00    -0.237 OA
ATOM     71  O   UNL A   1      43.998  27.507  26.411  1.00  0.00    -0.744 OA
ENDBRANCH  64  68
ENDBRANCH  47  61
BRANCH  48  72
ATOM     72  C   UNL A   1      43.594  34.398  29.387  1.00  0.00     0.023 A 
ATOM     73  C   UNL A   1      44.157  34.006  28.148  1.00  0.00     0.031 A 
ATOM     74  C   UNL A   1      43.815  35.738  29.777  1.00  0.00     0.131 A 
ATOM     75  C   UNL A   1      44.899  34.935  27.370  1.00  0.00     0.055 A 
ATOM     76  C   UNL A   1      44.540  36.650  29.004  1.00  0.00     0.041 A 
ATOM     77  F   UNL A   1      43.256  36.238  30.890  1.00  0.00    -0.206 F 
ATOM     78  C   UNL A   1      45.079  36.254  27.793  1.00  0.00     0.022 A 
BRANCH  75  79
ATOM     79  S   UNL A   1      45.598  34.469  25.746  1.00  0.00     0.124 S 
ATOM     80  O   UNL A   1      46.582  35.520  25.515  1.00  0.00    -0.237 OA
ATOM     81  O   UNL A   1      46.122  33.132  26.000  1.00  0.00    -0.237 OA
ATOM     82  O   UNL A   1      44.441  34.509  24.849  1.00  0.00    -0.744 OA
ENDBRANCH  75  79
ENDBRANCH  48  72
BRANCH  60  83
ATOM     83  C   UNL A   1      40.887  30.822  33.886  1.00  0.00     0.023 A 
ATOM     84  C   UNL A   1      39.837  31.742  34.134  1.00  0.00     0.031 A 
ATOM     85  C   UNL A   1      41.730  30.495  34.962  1.00  0.00     0.131 A 
ATOM     86  C   UNL A   1      39.677  32.298  35.423  1.00  0.00     0.055 A 
ATOM     87  C   UNL A   1      41.553  31.028  36.238  1.00  0.00     0.041 A 
ATOM     88  F   UNL A   1      42.730  29.614  34.798  1.00  0.00    -0.206 F 
ATOM     89  C   UNL A   1      40.529  31.936  36.472  1.00  0.00     0.022 A 
BRANCH  86  90
ATOM     90  S   UNL A   1      38.372  33.527  35.765  1.00  0.00     0.124 S 
ATOM     91  O   UNL A   1      37.180  32.709  35.967  1.00  0.00    -0.237 OA
ATOM     92  O   UNL A   1      38.885  34.211  36.948  1.00  0.00    -0.237 OA
ATOM     93  O   UNL A   1      38.349  34.347  34.552  1.00  0.00    -0.744 OA
ENDBRANCH  86  90
ENDBRANCH  60  83
ENDBRANCH  34  35
ENDBRANCH  27  29
ENDBRANCH  26  27
ENDBRANCH  25  26
ENDBRANCH   1  25
TORSDOF 18
ENDMDL
MODEL 2
REMARK VINA RESULT:     -11.4      4.368      5.659
REMARK SMILES C[C@@H]1C(C(=O)OCCOCCOC(=O)c2ccc(-c3c4nc(c(-c5cc(S(=O)(=O)[O-])ccc5F)c5ccc([nH]5)c(-c5cc(S(=O)(=O)[O-])ccc5F)c5nc(c(-c6cc(S(=O)(=O)[O-])ccc6F)c6ccc3[nH]6)C=C5)C=C4)cc2)=NC2=C1C(=O)C[C@H](c1ccccc1)C2
REMARK SMILES IDX 10 1 9 2 8 3 7 4 6 5 4 6 5 7 3 8 1 9 2 10 80 11 78 12 79 13
REMARK SMILES IDX 81 14 91 15 82 16 83 17 84 18 85 19 86 20 90 21 87 22 89 23
REMARK SMILES IDX 88 24 11 25 12 26 13 27 14 28 15 29 16 30 77 31 17 32 76 33
REMARK SMILES IDX 18 34 19 35 20 36 70 37 21 38 75 39 69 40 71 41 22 42 74 43
REMARK SMILES IDX 68 44 67 45 23 47 55 48 35 49 54 50 36 51 39 52 53 53 72 54
REMARK SMILES IDX 37 55 38 56 52 58 73 59 40 60 24 61 25 62 33 63 26 64 32 65
REMARK SMILES IDX 34 66 31 67 27 68 28 69 29 70 30 71 56 72 57 73 65 74 58 75
REMARK SMILES IDX 64 76 66 77 63 78 59 79 60 80 61 81 62 82 41 83 42 84 50 85
REMARK SMILES IDX 43 86 49 87 51 88 48 89 44 90 45 91 46 92 47 93
REMARK H PARENT 71 46 39 57
REMARK Flexibility Score: inf
ROOT
ATOM      1  C   UNL A   1      34.671  31.719  27.597  1.00  0.00     0.202 C 
ENDROOT
BRANCH   1   2
ATOM      2  O   UNL A   1      34.372  30.401  27.143  1.00  0.00    -0.374 OA
BRANCH   2   3
ATOM      3  C   UNL A   1      32.984  30.084  27.179  1.00  0.00     0.202 C 
BRANCH   3   4
ATOM      4  C   UNL A   1      32.493  29.528  25.835  1.00  0.00     0.261 C 
BRANCH   4   5
ATOM      5  O   UNL A   1      32.532  28.078  25.826  1.00  0.00    -0.459 OA
BRANCH   5   6
ATOM      6  C   UNL A   1      32.854  27.473  24.656  1.00  0.00     0.353 C 
ATOM      7  O   UNL A   1      33.715  27.815  23.868  1.00  0.00    -0.245 OA
BRANCH   6   8
ATOM      8  C   UNL A   1      32.097  26.146  24.537  1.00  0.00     0.133 C 
ATOM      9  C   UNL A   1      29.658  26.254  24.860  1.00  0.00     0.020 C 
ATOM     10  C   UNL A   1      30.975  25.807  25.494  1.00  0.00     0.078 C 
ATOM     11  C   UNL A   1      31.174  24.344  25.321  1.00  0.00     0.026 C 
ATOM     12  N   UNL A   1      32.393  25.213  23.660  1.00  0.00    -0.249 NA
ATOM     13  C   UNL A   1      31.795  24.083  24.174  1.00  0.00     0.049 C 
ATOM     14  C   UNL A   1      31.192  23.299  26.349  1.00  0.00     0.161 C 
ATOM     15  C   UNL A   1      32.164  22.677  23.805  1.00  0.00     0.065 C 
ATOM     16  O   UNL A   1      30.386  23.355  27.273  1.00  0.00    -0.294 OA
ATOM     17  C   UNL A   1      32.291  22.213  26.265  1.00  0.00     0.089 C 
ATOM     18  C   UNL A   1      33.078  22.105  24.906  1.00  0.00     0.033 C 
BRANCH  18  19
ATOM     19  C   UNL A   1      34.503  22.693  24.848  1.00  0.00    -0.044 A 
ATOM     20  C   UNL A   1      35.005  23.519  25.878  1.00  0.00     0.004 A 
ATOM     21  C   UNL A   1      35.366  22.456  23.772  1.00  0.00     0.004 A 
ATOM     22  C   UNL A   1      36.347  23.895  25.953  1.00  0.00     0.000 A 
ATOM     23  C   UNL A   1      36.715  22.861  23.827  1.00  0.00     0.000 A 
ATOM     24  C   UNL A   1      37.216  23.528  24.943  1.00  0.00     0.000 A 
ENDBRANCH  18  19
ENDBRANCH   6   8
ENDBRANCH   5   6
ENDBRANCH   4   5
ENDBRANCH   3   4
ENDBRANCH   2   3
ENDBRANCH   1   2
BRANCH   1  25
ATOM     25  C   UNL A   1      36.031  31.803  28.253  1.00  0.00     0.261 C 
BRANCH  25  26
ATOM     26  O   UNL A   1      36.649  30.546  28.111  1.00  0.00    -0.460 OA
BRANCH  26  27
ATOM     27  C   UNL A   1      36.894  29.812  29.216  1.00  0.00     0.338 C 
ATOM     28  O   UNL A   1      36.430  29.923  30.317  1.00  0.00    -0.246 OA
BRANCH  27  29
ATOM     29  C   UNL A   1      37.978  28.923  28.770  1.00  0.00     0.060 A 
ATOM     30  C   UNL A   1      38.472  28.019  29.703  1.00  0.00     0.016 A 
ATOM     31  C   UNL A   1      38.673  29.250  27.591  1.00  0.00     0.016 A 
ATOM     32  C   UNL A   1      39.791  27.640  29.582  1.00  0.00     0.010 A 
ATOM     33  C   UNL A   1      39.999  28.941  27.518  1.00  0.00     0.010 A 
ATOM     34  C   UNL A   1      40.559  28.206  28.556  1.00  0.00    -0.014 A 
BRANCH  34  35
ATOM     35  C   UNL A   1      41.952  27.853  28.427  1.00  0.00     0.031 A 
ATOM     36  C   UNL A   1      42.072  26.548  27.741  1.00  0.00     0.074 A 
ATOM     37  C   UNL A   1      42.956  28.701  28.716  1.00  0.00     0.049 A 
ATOM     38  N   UNL A   1      42.128  25.385  28.304  1.00  0.00    -0.248 NA
ATOM     39  C   UNL A   1      41.715  26.493  26.307  1.00  0.00     0.031 C 
ATOM     40  C   UNL A   1      42.894  30.107  29.115  1.00  0.00     0.029 A 
ATOM     41  N   UNL A   1      44.291  28.474  28.633  1.00  0.00    -0.354 N 
ATOM     42  C   UNL A   1      42.146  24.498  27.240  1.00  0.00     0.074 A 
ATOM     43  C   UNL A   1      41.497  25.186  26.165  1.00  0.00     0.031 C 
ATOM     44  C   UNL A   1      44.133  30.654  29.027  1.00  0.00     0.029 A 
ATOM     45  C   UNL A   1      45.091  29.613  28.689  1.00  0.00     0.049 A 
ATOM     46  H   UNL A   1      44.667  27.569  28.542  1.00  0.00     0.167 HD
ATOM     47  C   UNL A   1      43.066  23.495  27.190  1.00  0.00     0.034 A 
ATOM     48  C   UNL A   1      46.425  29.666  28.399  1.00  0.00     0.034 A 
ATOM     49  C   UNL A   1      43.661  23.298  28.501  1.00  0.00     0.049 A 
ATOM     50  C   UNL A   1      46.929  28.266  28.510  1.00  0.00     0.074 A 
ATOM     51  C   UNL A   1      43.159  23.021  29.759  1.00  0.00     0.029 A 
ATOM     52  N   UNL A   1      44.921  23.821  28.712  1.00  0.00    -0.354 N 
ATOM     53  N   UNL A   1      46.948  27.606  29.638  1.00  0.00    -0.248 NA
ATOM     54  C   UNL A   1      46.883  27.434  27.314  1.00  0.00     0.031 C 
ATOM     55  C   UNL A   1      43.928  23.824  30.653  1.00  0.00     0.029 A 
ATOM     56  C   UNL A   1      44.930  24.468  29.924  1.00  0.00     0.049 A 
ATOM     57  H   UNL A   1      45.686  23.742  28.097  1.00  0.00     0.167 HD
ATOM     58  C   UNL A   1      46.483  26.334  29.325  1.00  0.00     0.074 A 
ATOM     59  C   UNL A   1      46.531  26.266  27.864  1.00  0.00     0.031 C 
ATOM     60  C   UNL A   1      45.809  25.582  30.249  1.00  0.00     0.034 A 
BRANCH  47  61
ATOM     61  C   UNL A   1      43.748  23.029  25.913  1.00  0.00     0.023 A 
ATOM     62  C   UNL A   1      43.608  21.667  25.601  1.00  0.00     0.031 A 
ATOM     63  C   UNL A   1      44.712  23.729  25.144  1.00  0.00     0.131 A 
ATOM     64  C   UNL A   1      44.474  21.040  24.691  1.00  0.00     0.055 A 
ATOM     65  C   UNL A   1      45.536  23.110  24.201  1.00  0.00     0.041 A 
ATOM     66  F   UNL A   1      44.983  25.028  25.286  1.00  0.00    -0.206 F 
ATOM     67  C   UNL A   1      45.446  21.750  23.994  1.00  0.00     0.022 A 
BRANCH  64  68
ATOM     68  S   UNL A   1      44.412  19.239  24.565  1.00  0.00     0.124 S 
ATOM     69  O   UNL A   1      44.720  19.037  23.154  1.00  0.00    -0.237 OA
ATOM     70  O   UNL A   1      45.443  18.840  25.516  1.00  0.00    -0.237 OA
ATOM     71  O   UNL A   1      43.041  18.923  24.959  1.00  0.00    -0.744 OA
ENDBRANCH  64  68
ENDBRANCH  47  61
BRANCH  48  72
ATOM     72  C   UNL A   1      47.153  30.738  27.646  1.00  0.00     0.023 A 
ATOM     73  C   UNL A   1      46.512  31.844  27.035  1.00  0.00     0.031 A 
ATOM     74  C   UNL A   1      48.561  30.809  27.742  1.00  0.00     0.131 A 
ATOM     75  C   UNL A   1      47.275  32.942  26.555  1.00  0.00     0.055 A 
ATOM     76  C   UNL A   1      49.306  31.894  27.273  1.00  0.00     0.041 A 
ATOM     77  F   UNL A   1      49.261  29.856  28.377  1.00  0.00    -0.206 F 
ATOM     78  C   UNL A   1      48.665  32.970  26.684  1.00  0.00     0.022 A 
BRANCH  75  79
ATOM     79  S   UNL A   1      46.470  34.401  25.803  1.00  0.00     0.124 S 
ATOM     80  O   UNL A   1      47.527  34.940  24.955  1.00  0.00    -0.237 OA
ATOM     81  O   UNL A   1      45.324  33.812  25.119  1.00  0.00    -0.237 OA
ATOM     82  O   UNL A   1      46.128  35.237  26.956  1.00  0.00    -0.744 OA
ENDBRANCH  75  79
ENDBRANCH  48  72
BRANCH  60  83
ATOM     83  C   UNL A   1      45.846  26.028  31.703  1.00  0.00     0.023 A 
ATOM     84  C   UNL A   1      44.772  26.614  32.417  1.00  0.00     0.031 A 
ATOM     85  C   UNL A   1      47.017  25.729  32.422  1.00  0.00     0.131 A 
ATOM     86  C   UNL A   1      44.908  26.885  33.797  1.00  0.00     0.055 A 
ATOM     87  C   UNL A   1      47.137  25.975  33.788  1.00  0.00     0.041 A 
ATOM     88  F   UNL A   1      48.062  25.152  31.807  1.00  0.00    -0.206 F 
ATOM     89  C   UNL A   1      46.085  26.559  34.480  1.00  0.00     0.022 A 
BRANCH  86  90
ATOM     90  S   UNL A   1      43.567  27.690  34.738  1.00  0.00     0.124 S 
ATOM     91  O   UNL A   1      44.179  28.927  35.211  1.00  0.00    -0.237 OA
ATOM     92  O   UNL A   1      42.520  27.839  33.731  1.00  0.00    -0.237 OA
ATOM     93  O   UNL A   1      43.260  26.721  35.793  1.00  0.00    -0.744 OA
ENDBRANCH  86  90
ENDBRANCH  60  83
ENDBRANCH  34  35
ENDBRANCH  27  29
ENDBRANCH  26  27
ENDBRANCH  25  26
ENDBRANCH   1  25
TORSDOF 18
ENDMDL
MODEL 3
REMARK VINA RESULT:     -11.4      4.271      9.303
REMARK SMILES C[C@@H]1C(C(=O)OCCOCCOC(=O)c2ccc(-c3c4nc(c(-c5cc(S(=O)(=O)[O-])ccc5F)c5ccc([nH]5)c(-c5cc(S(=O)(=O)[O-])ccc5F)c5nc(c(-c6cc(S(=O)(=O)[O-])ccc6F)c6ccc3[nH]6)C=C5)C=C4)cc2)=NC2=C1C(=O)C[C@H](c1ccccc1)C2
REMARK SMILES IDX 10 1 9 2 8 3 7 4 6 5 4 6 5 7 3 8 1 9 2 10 80 11 78 12 79 13
REMARK SMILES IDX 81 14 91 15 82 16 83 17 84 18 85 19 86 20 90 21 87 22 89 23
REMARK SMILES IDX 88 24 11 25 12 26 13 27 14 28 15 29 16 30 77 31 17 32 76 33
REMARK SMILES IDX 18 34 19 35 20 36 70 37 21 38 75 39 69 40 71 41 22 42 74 43
REMARK SMILES IDX 68 44 67 45 23 47 55 48 35 49 54 50 36 51 39 52 53 53 72 54
REMARK SMILES IDX 37 55 38 56 52 58 73 59 40 60 24 61 25 62 33 63 26 64 32 65
REMARK SMILES IDX 34 66 31 67 27 68 28 69 29 70 30 71 56 72 57 73 65 74 58 75
REMARK SMILES IDX 64 76 66 77 63 78 59 79 60 80 61 81 62 82 41 83 42 84 50 85
REMARK SMILES IDX 43 86 49 87 51 88 48 89 44 90 45 91 46 92 47 93
REMARK H PARENT 71 46 39 57
REMARK Flexibility Score: inf
ROOT
ATOM      1  C   UNL A   1      36.802  21.921  25.411  1.00  0.00     0.202 C 
ENDROOT
BRANCH   1   2
ATOM      2  O   UNL A   1      35.873  22.078  24.342  1.00  0.00    -0.374 OA
BRANCH   2   3
ATOM      3  C   UNL A   1      34.536  21.727  24.689  1.00  0.00     0.202 C 
BRANCH   3   4
ATOM      4  C   UNL A   1      34.009  22.576  25.854  1.00  0.00     0.261 C 
BRANCH   4   5
ATOM      5  O   UNL A   1      32.559  22.602  25.866  1.00  0.00    -0.459 OA
BRANCH   5   6
ATOM      6  C   UNL A   1      31.962  23.774  26.192  1.00  0.00     0.353 C 
ATOM      7  O   UNL A   1      31.883  24.273  27.298  1.00  0.00    -0.245 OA
BRANCH   6   8
ATOM      8  C   UNL A   1      31.547  24.514  24.915  1.00  0.00     0.133 C 
ATOM      9  C   UNL A   1      31.052  23.105  22.957  1.00  0.00     0.020 C 
ATOM     10  C   UNL A   1      32.066  24.074  23.564  1.00  0.00     0.078 C 
ATOM     11  C   UNL A   1      31.910  25.433  22.982  1.00  0.00     0.026 C 
ATOM     12  N   UNL A   1      30.780  25.580  24.906  1.00  0.00    -0.249 NA
ATOM     13  C   UNL A   1      31.022  26.144  23.672  1.00  0.00     0.049 C 
ATOM     14  C   UNL A   1      32.843  26.171  22.125  1.00  0.00     0.161 C 
ATOM     15  C   UNL A   1      30.740  27.572  23.314  1.00  0.00     0.065 C 
ATOM     16  O   UNL A   1      33.452  25.568  21.246  1.00  0.00    -0.294 OA
ATOM     17  C   UNL A   1      33.083  27.668  22.429  1.00  0.00     0.089 C 
ATOM     18  C   UNL A   1      32.057  28.368  23.396  1.00  0.00     0.033 C 
BRANCH  18  19
ATOM     19  C   UNL A   1      32.496  28.625  24.853  1.00  0.00    -0.044 A 
ATOM     20  C   UNL A   1      33.667  28.043  25.386  1.00  0.00     0.004 A 
ATOM     21  C   UNL A   1      31.755  29.429  25.726  1.00  0.00     0.004 A 
ATOM     22  C   UNL A   1      34.195  28.415  26.623  1.00  0.00     0.000 A 
ATOM     23  C   UNL A   1      32.268  29.785  26.990  1.00  0.00     0.000 A 
ATOM     24  C   UNL A   1      33.513  29.323  27.411  1.00  0.00     0.000 A 
ENDBRANCH  18  19
ENDBRANCH   6   8
ENDBRANCH   5   6
ENDBRANCH   4   5
ENDBRANCH   3   4
ENDBRANCH   2   3
ENDBRANCH   1   2
BRANCH   1  25
ATOM     25  C   UNL A   1      37.716  20.734  25.206  1.00  0.00     0.261 C 
BRANCH  25  26
ATOM     26  O   UNL A   1      39.040  21.185  25.370  1.00  0.00    -0.460 OA
BRANCH  26  27
ATOM     27  C   UNL A   1      39.991  20.298  25.729  1.00  0.00     0.338 C 
ATOM     28  O   UNL A   1      40.002  19.105  25.598  1.00  0.00    -0.246 OA
BRANCH  27  29
ATOM     29  C   UNL A   1      40.957  21.144  26.448  1.00  0.00     0.060 A 
ATOM     30  C   UNL A   1      40.908  21.111  27.836  1.00  0.00     0.016 A 
ATOM     31  C   UNL A   1      41.615  22.164  25.736  1.00  0.00     0.016 A 
ATOM     32  C   UNL A   1      41.297  22.247  28.510  1.00  0.00     0.010 A 
ATOM     33  C   UNL A   1      41.921  23.316  26.398  1.00  0.00     0.010 A 
ATOM     34  C   UNL A   1      41.683  23.369  27.767  1.00  0.00    -0.014 A 
BRANCH  34  35
ATOM     35  C   UNL A   1      42.061  24.584  28.447  1.00  0.00     0.031 A 
ATOM     36  C   UNL A   1      41.005  25.603  28.265  1.00  0.00     0.074 A 
ATOM     37  C   UNL A   1      43.119  24.667  29.273  1.00  0.00     0.049 A 
ATOM     38  N   UNL A   1      40.944  26.490  27.324  1.00  0.00    -0.248 NA
ATOM     39  C   UNL A   1      39.713  25.381  28.949  1.00  0.00     0.031 C 
ATOM     40  C   UNL A   1      44.025  23.611  29.724  1.00  0.00     0.029 A 
ATOM     41  N   UNL A   1      43.562  25.751  29.957  1.00  0.00    -0.354 N 
ATOM     42  C   UNL A   1      39.736  27.132  27.546  1.00  0.00     0.074 A 
ATOM     43  C   UNL A   1      38.921  26.175  28.229  1.00  0.00     0.031 C 
ATOM     44  C   UNL A   1      44.766  24.070  30.765  1.00  0.00     0.029 A 
ATOM     45  C   UNL A   1      44.478  25.481  30.971  1.00  0.00     0.049 A 
ATOM     46  H   UNL A   1      43.259  26.665  29.750  1.00  0.00     0.167 HD
ATOM     47  C   UNL A   1      39.670  28.492  27.567  1.00  0.00     0.034 A 
ATOM     48  C   UNL A   1      44.886  26.359  31.934  1.00  0.00     0.034 A 
ATOM     49  C   UNL A   1      40.863  29.060  26.962  1.00  0.00     0.049 A 
ATOM     50  C   UNL A   1      44.576  27.722  31.409  1.00  0.00     0.074 A 
ATOM     51  C   UNL A   1      41.479  28.928  25.731  1.00  0.00     0.029 A 
ATOM     52  N   UNL A   1      41.832  29.554  27.811  1.00  0.00    -0.354 N 
ATOM     53  N   UNL A   1      45.158  28.225  30.352  1.00  0.00    -0.248 NA
ATOM     54  C   UNL A   1      43.263  28.279  31.708  1.00  0.00     0.031 C 
ATOM     55  C   UNL A   1      42.876  28.888  26.016  1.00  0.00     0.029 A 
ATOM     56  C   UNL A   1      43.059  29.105  27.384  1.00  0.00     0.049 A 
ATOM     57  H   UNL A   1      41.672  30.132  28.592  1.00  0.00     0.167 HD
ATOM     58  C   UNL A   1      44.138  28.821  29.621  1.00  0.00     0.074 A 
ATOM     59  C   UNL A   1      43.005  28.887  30.544  1.00  0.00     0.031 C 
ATOM     60  C   UNL A   1      44.207  28.910  28.257  1.00  0.00     0.034 A 
BRANCH  47  61
ATOM     61  C   UNL A   1      38.789  29.286  28.519  1.00  0.00     0.023 A 
ATOM     62  C   UNL A   1      39.108  29.186  29.883  1.00  0.00     0.031 A 
ATOM     63  C   UNL A   1      37.542  29.900  28.235  1.00  0.00     0.131 A 
ATOM     64  C   UNL A   1      38.178  29.543  30.873  1.00  0.00     0.055 A 
ATOM     65  C   UNL A   1      36.643  30.303  29.224  1.00  0.00     0.041 A 
ATOM     66  F   UNL A   1      37.068  30.094  27.002  1.00  0.00    -0.206 F 
ATOM     67  C   UNL A   1      36.941  30.093  30.554  1.00  0.00     0.022 A 
BRANCH  64  68
ATOM     68  S   UNL A   1      38.558  29.115  32.586  1.00  0.00     0.124 S 
ATOM     69  O   UNL A   1      39.991  28.859  32.509  1.00  0.00    -0.237 OA
ATOM     70  O   UNL A   1      38.154  30.327  33.291  1.00  0.00    -0.237 OA
ATOM     71  O   UNL A   1      37.722  27.942  32.832  1.00  0.00    -0.744 OA
ENDBRANCH  64  68
ENDBRANCH  47  61
BRANCH  48  72
ATOM     72  C   UNL A   1      45.117  26.078  33.387  1.00  0.00     0.023 A 
ATOM     73  C   UNL A   1      44.119  26.215  34.384  1.00  0.00     0.031 A 
ATOM     74  C   UNL A   1      46.300  25.411  33.778  1.00  0.00     0.131 A 
ATOM     75  C   UNL A   1      44.333  25.700  35.690  1.00  0.00     0.055 A 
ATOM     76  C   UNL A   1      46.502  24.901  35.063  1.00  0.00     0.041 A 
ATOM     77  F   UNL A   1      47.275  25.152  32.892  1.00  0.00    -0.206 F 
ATOM     78  C   UNL A   1      45.515  25.037  36.024  1.00  0.00     0.022 A 
BRANCH  75  79
ATOM     79  S   UNL A   1      43.043  25.823  36.981  1.00  0.00     0.124 S 
ATOM     80  O   UNL A   1      42.739  27.249  36.985  1.00  0.00    -0.237 OA
ATOM     81  O   UNL A   1      42.003  24.937  36.473  1.00  0.00    -0.237 OA
ATOM     82  O   UNL A   1      43.718  25.340  38.188  1.00  0.00    -0.744 OA
ENDBRANCH  75  79
ENDBRANCH  48  72
BRANCH  60  83
ATOM     83  C   UNL A   1      45.542  28.629  27.585  1.00  0.00     0.023 A 
ATOM     84  C   UNL A   1      45.881  27.450  26.876  1.00  0.00     0.031 A 
ATOM     85  C   UNL A   1      46.476  29.680  27.581  1.00  0.00     0.131 A 
ATOM     86  C   UNL A   1      47.123  27.362  26.208  1.00  0.00     0.055 A 
ATOM     87  C   UNL A   1      47.690  29.597  26.900  1.00  0.00     0.041 A 
ATOM     88  F   UNL A   1      46.206  30.831  28.217  1.00  0.00    -0.206 F 
ATOM     89  C   UNL A   1      48.020  28.436  26.216  1.00  0.00     0.022 A 
BRANCH  86  90
ATOM     90  S   UNL A   1      47.618  25.840  25.330  1.00  0.00     0.124 S 
ATOM     91  O   UNL A   1      47.775  26.280  23.948  1.00  0.00    -0.237 OA
ATOM     92  O   UNL A   1      48.846  25.461  26.024  1.00  0.00    -0.237 OA
ATOM     93  O   UNL A   1      46.489  24.934  25.557  1.00  0.00    -0.744 OA
ENDBRANCH  86  90
ENDBRANCH  60  83
ENDBRANCH  34  35
ENDBRANCH  27  29
ENDBRANCH  26  27
ENDBRANCH  25  26
ENDBRANCH   1  25
TORSDOF 18
ENDMDL
