MODEL 1
REMARK VINA RESULT:     -11.1      0.000      0.000
REMARK SMILES COc1ccc(-c2ccc(C(=O)NCc3ccc(C(=O)OCCOCCOC(=O)c4ccc(-c5c6nc(c(-c7cc(S(=O)(=O)[O-])ccc7F)c7ccc([nH]7)c(-c7cc(S(=O)(=O)[O-])ccc7F)c7nc(c(-c8cc(S(=O)(=O)[O-])ccc8F)c8ccc5[nH]8)C=C7)C=C6)cc4)cc3)o2)c([N+](=O)[O-])c1
REMARK SMILES IDX 23 1 22 2 21 3 19 4 20 5 18 6 15 7 16 8 94 9 17 10 93 11
REMARK SMILES IDX 14 12 13 13 11 14 12 15 10 17 7 18 8 19 95 20 9 21 6 22 3 23
REMARK SMILES IDX 4 24 100 25 5 26 96 27 2 28 1 29 97 30 98 31 99 32 24 33
REMARK SMILES IDX 25 34 26 35 27 36 28 37 29 38 30 39 31 40 92 41 32 42 91 43
REMARK SMILES IDX 33 44 34 45 35 46 85 47 36 48 90 49 84 50 86 51 37 52 89 53
REMARK SMILES IDX 83 54 82 55 38 57 70 58 50 59 69 60 51 61 54 62 68 63 87 64
REMARK SMILES IDX 52 65 53 66 67 68 88 69 55 70 39 71 40 72 48 73 41 74 47 75
REMARK SMILES IDX 49 76 46 77 42 78 43 79 44 80 45 81 71 82 72 83 80 84 73 85
REMARK SMILES IDX 79 86 81 87 78 88 74 89 75 90 76 91 77 92 56 93 57 94 65 95
REMARK SMILES IDX 58 96 64 97 66 98 63 99 59 100 60 101 61 102 62 103
REMARK H PARENT 13 16 86 56 54 67
REMARK Flexibility Score: inf
ROOT
ATOM      1  C   UNL A   1      31.681  30.950  26.252  1.00  0.00     0.202 C 
ENDROOT
BRANCH   1   2
ATOM      2  C   UNL A   1      31.632  29.705  25.362  1.00  0.00     0.261 C 
BRANCH   2   3
ATOM      3  O   UNL A   1      32.110  28.545  26.062  1.00  0.00    -0.460 OA
BRANCH   3   4
ATOM      4  C   UNL A   1      33.205  27.966  25.520  1.00  0.00     0.338 C 
ATOM      5  O   UNL A   1      34.130  28.531  24.951  1.00  0.00    -0.246 OA
BRANCH   4   6
ATOM      6  C   UNL A   1      33.246  26.526  25.855  1.00  0.00     0.060 A 
ATOM      7  C   UNL A   1      33.173  23.817  26.614  1.00  0.00    -0.029 A 
ATOM      8  C   UNL A   1      32.041  24.630  26.751  1.00  0.00     0.006 A 
ATOM      9  C   UNL A   1      34.336  24.375  26.054  1.00  0.00     0.006 A 
ATOM     10  C   UNL A   1      32.076  25.970  26.381  1.00  0.00     0.016 A 
ATOM     11  C   UNL A   1      34.372  25.721  25.666  1.00  0.00     0.016 A 
BRANCH   7  12
ATOM     12  C   UNL A   1      33.172  22.400  27.134  1.00  0.00     0.152 C 
BRANCH  12  13
ATOM     13  N   UNL A   1      34.074  21.576  26.359  1.00  0.00    -0.345 N 
ATOM     14  C   UNL A   1      34.131  21.219  25.035  1.00  0.00     0.287 C 
ATOM     15  O   UNL A   1      35.107  20.529  24.722  1.00  0.00    -0.266 OA
ATOM     16  H   UNL A   1      34.803  21.190  26.895  1.00  0.00     0.164 HD
BRANCH  14  17
ATOM     17  C   UNL A   1      33.125  21.618  24.063  1.00  0.00     0.192 A 
ATOM     18  C   UNL A   1      31.820  23.141  23.112  1.00  0.00     0.142 A 
ATOM     19  C   UNL A   1      31.575  21.964  22.449  1.00  0.00     0.052 A 
ATOM     20  O   UNL A   1      32.777  22.956  24.057  1.00  0.00    -0.451 OA
ATOM     21  C   UNL A   1      32.386  20.988  23.076  1.00  0.00     0.057 A 
BRANCH  18  22
ATOM     22  C   UNL A   1      31.262  24.475  23.008  1.00  0.00     0.095 A 
ATOM     23  C   UNL A   1      30.219  27.107  23.080  1.00  0.00     0.125 A 
ATOM     24  C   UNL A   1      29.567  26.064  23.739  1.00  0.00     0.047 A 
ATOM     25  C   UNL A   1      31.388  26.843  22.372  1.00  0.00     0.132 A 
ATOM     26  C   UNL A   1      30.072  24.759  23.693  1.00  0.00     0.023 A 
ATOM     27  C   UNL A   1      31.900  25.532  22.336  1.00  0.00     0.284 A 
BRANCH  23  28
ATOM     28  O   UNL A   1      29.654  28.341  23.238  1.00  0.00    -0.497 OA
ATOM     29  C   UNL A   1      29.766  29.227  22.129  1.00  0.00     0.278 C 
ENDBRANCH  23  28
BRANCH  27  30
ATOM     30  N   UNL A   1      33.132  25.321  21.577  1.00  0.00     0.063 N 
ATOM     31  O   UNL A   1      34.193  25.184  22.198  1.00  0.00    -0.258 OA
ATOM     32  O   UNL A   1      33.025  25.250  20.344  1.00  0.00    -0.258 OA
ENDBRANCH  27  30
ENDBRANCH  18  22
ENDBRANCH  14  17
ENDBRANCH  12  13
ENDBRANCH   7  12
ENDBRANCH   4   6
ENDBRANCH   3   4
ENDBRANCH   2   3
ENDBRANCH   1   2
BRANCH   1  33
ATOM     33  O   UNL A   1      32.804  31.055  27.130  1.00  0.00    -0.374 OA
BRANCH  33  34
ATOM     34  C   UNL A   1      33.374  32.353  27.304  1.00  0.00     0.202 C 
BRANCH  34  35
ATOM     35  C   UNL A   1      32.465  33.435  27.900  1.00  0.00     0.261 C 
BRANCH  35  36
ATOM     36  O   UNL A   1      33.191  34.630  28.241  1.00  0.00    -0.460 OA
BRANCH  36  37
ATOM     37  C   UNL A   1      33.425  34.795  29.565  1.00  0.00     0.338 C 
ATOM     38  O   UNL A   1      32.695  35.353  30.374  1.00  0.00    -0.246 OA
BRANCH  37  39
ATOM     39  C   UNL A   1      34.619  34.027  29.963  1.00  0.00     0.060 A 
ATOM     40  C   UNL A   1      34.453  33.010  30.912  1.00  0.00     0.016 A 
ATOM     41  C   UNL A   1      35.888  34.330  29.464  1.00  0.00     0.016 A 
ATOM     42  C   UNL A   1      35.562  32.321  31.401  1.00  0.00     0.010 A 
ATOM     43  C   UNL A   1      37.000  33.644  29.963  1.00  0.00     0.010 A 
ATOM     44  C   UNL A   1      36.846  32.660  30.956  1.00  0.00    -0.014 A 
BRANCH  44  45
ATOM     45  C   UNL A   1      38.037  32.091  31.635  1.00  0.00     0.031 A 
ATOM     46  C   UNL A   1      38.799  30.985  30.956  1.00  0.00     0.074 A 
ATOM     47  C   UNL A   1      38.442  32.560  32.829  1.00  0.00     0.049 A 
ATOM     48  N   UNL A   1      39.813  30.283  31.392  1.00  0.00    -0.248 NA
ATOM     49  C   UNL A   1      38.347  30.618  29.605  1.00  0.00     0.031 C 
ATOM     50  C   UNL A   1      37.817  33.662  33.557  1.00  0.00     0.029 A 
ATOM     51  N   UNL A   1      39.471  32.159  33.644  1.00  0.00    -0.354 N 
ATOM     52  C   UNL A   1      40.117  29.384  30.374  1.00  0.00     0.074 A 
ATOM     53  C   UNL A   1      39.152  29.607  29.317  1.00  0.00     0.031 C 
ATOM     54  C   UNL A   1      38.469  33.842  34.719  1.00  0.00     0.029 A 
ATOM     55  C   UNL A   1      39.526  32.840  34.838  1.00  0.00     0.049 A 
ATOM     56  H   UNL A   1      40.109  31.451  33.397  1.00  0.00     0.167 HD
ATOM     57  C   UNL A   1      41.112  28.465  30.325  1.00  0.00     0.034 A 
ATOM     58  C   UNL A   1      40.319  32.654  35.913  1.00  0.00     0.034 A 
ATOM     59  C   UNL A   1      42.058  28.251  31.394  1.00  0.00     0.049 A 
ATOM     60  C   UNL A   1      41.361  31.561  35.874  1.00  0.00     0.074 A 
ATOM     61  C   UNL A   1      43.112  27.355  31.446  1.00  0.00     0.029 A 
ATOM     62  N   UNL A   1      42.057  28.930  32.606  1.00  0.00    -0.354 N 
ATOM     63  N   UNL A   1      41.639  30.716  34.908  1.00  0.00    -0.248 NA
ATOM     64  C   UNL A   1      42.200  31.402  37.070  1.00  0.00     0.031 C 
ATOM     65  C   UNL A   1      43.697  27.439  32.714  1.00  0.00     0.029 A 
ATOM     66  C   UNL A   1      43.067  28.448  33.424  1.00  0.00     0.049 A 
ATOM     67  H   UNL A   1      41.430  29.648  32.849  1.00  0.00     0.167 HD
ATOM     68  C   UNL A   1      42.709  29.951  35.367  1.00  0.00     0.074 A 
ATOM     69  C   UNL A   1      43.031  30.442  36.691  1.00  0.00     0.031 C 
ATOM     70  C   UNL A   1      43.374  28.941  34.748  1.00  0.00     0.034 A 
BRANCH  57  71
ATOM     71  C   UNL A   1      41.188  27.589  29.097  1.00  0.00     0.023 A 
ATOM     72  C   UNL A   1      42.149  27.799  28.092  1.00  0.00     0.031 A 
ATOM     73  C   UNL A   1      40.264  26.544  28.914  1.00  0.00     0.131 A 
ATOM     74  C   UNL A   1      42.117  27.027  26.920  1.00  0.00     0.055 A 
ATOM     75  C   UNL A   1      40.290  25.725  27.784  1.00  0.00     0.041 A 
ATOM     76  F   UNL A   1      39.307  26.310  29.826  1.00  0.00    -0.206 F 
ATOM     77  C   UNL A   1      41.211  25.974  26.771  1.00  0.00     0.022 A 
BRANCH  74  78
ATOM     78  S   UNL A   1      43.177  27.515  25.531  1.00  0.00     0.124 S 
ATOM     79  O   UNL A   1      43.622  26.217  25.030  1.00  0.00    -0.237 OA
ATOM     80  O   UNL A   1      42.255  28.251  24.674  1.00  0.00    -0.237 OA
ATOM     81  O   UNL A   1      44.220  28.321  26.164  1.00  0.00    -0.744 OA
ENDBRANCH  74  78
ENDBRANCH  57  71
BRANCH  58  82
ATOM     82  C   UNL A   1      40.138  33.487  37.137  1.00  0.00     0.023 A 
ATOM     83  C   UNL A   1      39.351  33.041  38.210  1.00  0.00     0.031 A 
ATOM     84  C   UNL A   1      40.707  34.771  37.228  1.00  0.00     0.131 A 
ATOM     85  C   UNL A   1      39.115  33.888  39.305  1.00  0.00     0.055 A 
ATOM     86  C   UNL A   1      40.516  35.587  38.344  1.00  0.00     0.041 A 
ATOM     87  F   UNL A   1      41.466  35.249  36.229  1.00  0.00    -0.206 F 
ATOM     88  C   UNL A   1      39.704  35.151  39.385  1.00  0.00     0.022 A 
BRANCH  85  89
ATOM     89  S   UNL A   1      37.949  33.346  40.585  1.00  0.00     0.124 S 
ATOM     90  O   UNL A   1      36.938  32.658  39.792  1.00  0.00    -0.237 OA
ATOM     91  O   UNL A   1      38.792  32.502  41.424  1.00  0.00    -0.237 OA
ATOM     92  O   UNL A   1      37.515  34.599  41.200  1.00  0.00    -0.744 OA
ENDBRANCH  85  89
ENDBRANCH  58  82
BRANCH  70  93
ATOM     93  C   UNL A   1      44.552  28.340  35.477  1.00  0.00     0.023 A 
ATOM     94  C   UNL A   1      44.394  27.343  36.456  1.00  0.00     0.031 A 
ATOM     95  C   UNL A   1      45.857  28.777  35.185  1.00  0.00     0.131 A 
ATOM     96  C   UNL A   1      45.516  26.858  37.146  1.00  0.00     0.055 A 
ATOM     97  C   UNL A   1      46.974  28.246  35.831  1.00  0.00     0.041 A 
ATOM     98  F   UNL A   1      46.069  29.729  34.262  1.00  0.00    -0.206 F 
ATOM     99  C   UNL A   1      46.806  27.289  36.828  1.00  0.00     0.022 A 
BRANCH  96 100
ATOM    100  S   UNL A   1      45.259  25.720  38.536  1.00  0.00     0.124 S 
ATOM    101  O   UNL A   1      44.378  26.495  39.405  1.00  0.00    -0.237 OA
ATOM    102  O   UNL A   1      44.655  24.563  37.885  1.00  0.00    -0.237 OA
ATOM    103  O   UNL A   1      46.608  25.503  39.056  1.00  0.00    -0.744 OA
ENDBRANCH  96 100
ENDBRANCH  70  93
ENDBRANCH  44  45
ENDBRANCH  37  39
ENDBRANCH  36  37
ENDBRANCH  35  36
ENDBRANCH  34  35
ENDBRANCH  33  34
ENDBRANCH   1  33
TORSDOF 23
ENDMDL
MODEL 2
REMARK VINA RESULT:     -10.9      2.278      7.516
REMARK SMILES COc1ccc(-c2ccc(C(=O)NCc3ccc(C(=O)OCCOCCOC(=O)c4ccc(-c5c6nc(c(-c7cc(S(=O)(=O)[O-])ccc7F)c7ccc([nH]7)c(-c7cc(S(=O)(=O)[O-])ccc7F)c7nc(c(-c8cc(S(=O)(=O)[O-])ccc8F)c8ccc5[nH]8)C=C7)C=C6)cc4)cc3)o2)c([N+](=O)[O-])c1
REMARK SMILES IDX 23 1 22 2 21 3 19 4 20 5 18 6 15 7 16 8 94 9 17 10 93 11
REMARK SMILES IDX 14 12 13 13 11 14 12 15 10 17 7 18 8 19 95 20 9 21 6 22 3 23
REMARK SMILES IDX 4 24 100 25 5 26 96 27 2 28 1 29 97 30 98 31 99 32 24 33
REMARK SMILES IDX 25 34 26 35 27 36 28 37 29 38 30 39 31 40 92 41 32 42 91 43
REMARK SMILES IDX 33 44 34 45 35 46 85 47 36 48 90 49 84 50 86 51 37 52 89 53
REMARK SMILES IDX 83 54 82 55 38 57 70 58 50 59 69 60 51 61 54 62 68 63 87 64
REMARK SMILES IDX 52 65 53 66 67 68 88 69 55 70 39 71 40 72 48 73 41 74 47 75
REMARK SMILES IDX 49 76 46 77 42 78 43 79 44 80 45 81 71 82 72 83 80 84 73 85
REMARK SMILES IDX 79 86 81 87 78 88 74 89 75 90 76 91 77 92 56 93 57 94 65 95
REMARK SMILES IDX 58 96 64 97 66 98 63 99 59 100 60 101 61 102 62 103
REMARK H PARENT 13 16 86 56 54 67
REMARK Flexibility Score: inf
ROOT
ATOM      1  C   UNL A   1      31.775  31.088  26.643  1.00  0.00     0.202 C 
ENDROOT
BRANCH   1   2
ATOM      2  C   UNL A   1      31.767  29.907  25.670  1.00  0.00     0.261 C 
BRANCH   2   3
ATOM      3  O   UNL A   1      32.475  28.780  26.212  1.00  0.00    -0.460 OA
BRANCH   3   4
ATOM      4  C   UNL A   1      33.214  28.088  25.316  1.00  0.00     0.338 C 
ATOM      5  O   UNL A   1      33.870  28.549  24.392  1.00  0.00    -0.246 OA
BRANCH   4   6
ATOM      6  C   UNL A   1      33.281  26.660  25.696  1.00  0.00     0.060 A 
ATOM      7  C   UNL A   1      33.262  23.976  26.544  1.00  0.00    -0.029 A 
ATOM      8  C   UNL A   1      32.128  24.783  26.695  1.00  0.00     0.006 A 
ATOM      9  C   UNL A   1      34.399  24.526  25.925  1.00  0.00     0.006 A 
ATOM     10  C   UNL A   1      32.136  26.111  26.280  1.00  0.00     0.016 A 
ATOM     11  C   UNL A   1      34.408  25.859  25.493  1.00  0.00     0.016 A 
BRANCH   7  12
ATOM     12  C   UNL A   1      33.294  22.577  27.109  1.00  0.00     0.152 C 
BRANCH  12  13
ATOM     13  N   UNL A   1      34.171  21.735  26.326  1.00  0.00    -0.345 N 
ATOM     14  C   UNL A   1      34.187  21.348  25.009  1.00  0.00     0.287 C 
ATOM     15  O   UNL A   1      35.152  20.650  24.683  1.00  0.00    -0.266 OA
ATOM     16  H   UNL A   1      34.916  21.360  26.848  1.00  0.00     0.164 HD
BRANCH  14  17
ATOM     17  C   UNL A   1      33.152  21.726  24.060  1.00  0.00     0.192 A 
ATOM     18  C   UNL A   1      31.832  23.232  23.102  1.00  0.00     0.142 A 
ATOM     19  C   UNL A   1      31.550  22.036  22.491  1.00  0.00     0.052 A 
ATOM     20  O   UNL A   1      32.820  23.068  24.019  1.00  0.00    -0.451 OA
ATOM     21  C   UNL A   1      32.370  21.072  23.122  1.00  0.00     0.057 A 
BRANCH  18  22
ATOM     22  C   UNL A   1      31.288  24.570  22.971  1.00  0.00     0.095 A 
ATOM     23  C   UNL A   1      30.278  27.216  22.988  1.00  0.00     0.125 A 
ATOM     24  C   UNL A   1      29.630  26.201  23.696  1.00  0.00     0.047 A 
ATOM     25  C   UNL A   1      31.425  26.915  22.258  1.00  0.00     0.132 A 
ATOM     26  C   UNL A   1      30.119  24.890  23.677  1.00  0.00     0.023 A 
ATOM     27  C   UNL A   1      31.920  25.597  22.250  1.00  0.00     0.284 A 
BRANCH  23  28
ATOM     28  O   UNL A   1      29.731  28.461  23.121  1.00  0.00    -0.497 OA
ATOM     29  C   UNL A   1      30.212  29.455  22.223  1.00  0.00     0.278 C 
ENDBRANCH  23  28
BRANCH  27  30
ATOM     30  N   UNL A   1      33.129  25.347  21.467  1.00  0.00     0.063 N 
ATOM     31  O   UNL A   1      33.011  25.081  20.265  1.00  0.00    -0.258 OA
ATOM     32  O   UNL A   1      34.213  25.461  22.059  1.00  0.00    -0.258 OA
ENDBRANCH  27  30
ENDBRANCH  18  22
ENDBRANCH  14  17
ENDBRANCH  12  13
ENDBRANCH   7  12
ENDBRANCH   4   6
ENDBRANCH   3   4
ENDBRANCH   2   3
ENDBRANCH   1   2
BRANCH   1  33
ATOM     33  O   UNL A   1      32.908  31.186  27.509  1.00  0.00    -0.374 OA
BRANCH  33  34
ATOM     34  C   UNL A   1      33.651  32.405  27.473  1.00  0.00     0.202 C 
BRANCH  34  35
ATOM     35  C   UNL A   1      32.925  33.673  27.939  1.00  0.00     0.261 C 
BRANCH  35  36
ATOM     36  O   UNL A   1      33.821  34.623  28.544  1.00  0.00    -0.460 OA
BRANCH  36  37
ATOM     37  C   UNL A   1      34.083  34.402  29.855  1.00  0.00     0.338 C 
ATOM     38  O   UNL A   1      33.395  34.744  30.807  1.00  0.00    -0.246 OA
BRANCH  37  39
ATOM     39  C   UNL A   1      35.244  33.502  29.989  1.00  0.00     0.060 A 
ATOM     40  C   UNL A   1      35.081  32.341  30.756  1.00  0.00     0.016 A 
ATOM     41  C   UNL A   1      36.484  33.812  29.428  1.00  0.00     0.016 A 
ATOM     42  C   UNL A   1      36.171  31.507  31.002  1.00  0.00     0.010 A 
ATOM     43  C   UNL A   1      37.578  32.979  29.684  1.00  0.00     0.010 A 
ATOM     44  C   UNL A   1      37.434  31.841  30.498  1.00  0.00    -0.014 A 
BRANCH  44  45
ATOM     45  C   UNL A   1      38.632  31.085  30.943  1.00  0.00     0.031 A 
ATOM     46  C   UNL A   1      39.289  31.469  32.241  1.00  0.00     0.074 A 
ATOM     47  C   UNL A   1      39.119  30.067  30.211  1.00  0.00     0.049 A 
ATOM     48  N   UNL A   1      40.386  31.010  32.787  1.00  0.00    -0.248 NA
ATOM     49  C   UNL A   1      38.619  32.518  33.025  1.00  0.00     0.031 C 
ATOM     50  C   UNL A   1      38.536  29.572  28.966  1.00  0.00     0.029 A 
ATOM     51  N   UNL A   1      40.221  29.274  30.407  1.00  0.00    -0.354 N 
ATOM     52  C   UNL A   1      40.545  31.719  33.973  1.00  0.00     0.074 A 
ATOM     53  C   UNL A   1      39.451  32.665  34.044  1.00  0.00     0.031 C 
ATOM     54  C   UNL A   1      39.295  28.564  28.501  1.00  0.00     0.029 A 
ATOM     55  C   UNL A   1      40.440  28.375  29.389  1.00  0.00     0.049 A 
ATOM     56  H   UNL A   1      40.800  29.342  31.200  1.00  0.00     0.167 HD
ATOM     57  C   UNL A   1      41.510  31.587  34.916  1.00  0.00     0.034 A 
ATOM     58  C   UNL A   1      41.463  27.520  29.183  1.00  0.00     0.034 A 
ATOM     59  C   UNL A   1      42.599  30.644  34.822  1.00  0.00     0.049 A 
ATOM     60  C   UNL A   1      42.578  27.455  30.201  1.00  0.00     0.074 A 
ATOM     61  C   UNL A   1      43.625  30.419  35.723  1.00  0.00     0.029 A 
ATOM     62  N   UNL A   1      42.812  29.779  33.756  1.00  0.00    -0.354 N 
ATOM     63  N   UNL A   1      42.720  28.132  31.318  1.00  0.00    -0.248 NA
ATOM     64  C   UNL A   1      43.668  26.508  29.932  1.00  0.00     0.031 C 
ATOM     65  C   UNL A   1      44.497  29.476  35.168  1.00  0.00     0.029 A 
ATOM     66  C   UNL A   1      43.972  29.047  33.960  1.00  0.00     0.049 A 
ATOM     67  H   UNL A   1      42.227  29.699  32.969  1.00  0.00     0.167 HD
ATOM     68  C   UNL A   1      43.895  27.662  31.901  1.00  0.00     0.074 A 
ATOM     69  C   UNL A   1      44.416  26.641  31.017  1.00  0.00     0.031 C 
ATOM     70  C   UNL A   1      44.486  28.034  33.067  1.00  0.00     0.034 A 
BRANCH  57  71
ATOM     71  C   UNL A   1      41.456  32.524  36.100  1.00  0.00     0.023 A 
ATOM     72  C   UNL A   1      40.620  32.280  37.204  1.00  0.00     0.031 A 
ATOM     73  C   UNL A   1      42.232  33.697  36.111  1.00  0.00     0.131 A 
ATOM     74  C   UNL A   1      40.524  33.229  38.233  1.00  0.00     0.055 A 
ATOM     75  C   UNL A   1      42.195  34.596  37.178  1.00  0.00     0.041 A 
ATOM     76  F   UNL A   1      43.031  33.998  35.075  1.00  0.00    -0.206 F 
ATOM     77  C   UNL A   1      41.326  34.372  38.241  1.00  0.00     0.022 A 
BRANCH  74  78
ATOM     78  S   UNL A   1      39.229  33.021  39.486  1.00  0.00     0.124 S 
ATOM     79  O   UNL A   1      39.990  32.481  40.610  1.00  0.00    -0.237 OA
ATOM     80  O   UNL A   1      38.725  34.380  39.648  1.00  0.00    -0.237 OA
ATOM     81  O   UNL A   1      38.299  32.079  38.864  1.00  0.00    -0.744 OA
ENDBRANCH  74  78
ENDBRANCH  57  71
BRANCH  58  82
ATOM     82  C   UNL A   1      41.515  26.686  27.948  1.00  0.00     0.023 A 
ATOM     83  C   UNL A   1      41.115  25.341  27.963  1.00  0.00     0.031 A 
ATOM     84  C   UNL A   1      42.021  27.209  26.744  1.00  0.00     0.131 A 
ATOM     85  C   UNL A   1      41.270  24.552  26.812  1.00  0.00     0.055 A 
ATOM     86  C   UNL A   1      42.121  26.436  25.586  1.00  0.00     0.041 A 
ATOM     87  F   UNL A   1      42.421  28.489  26.675  1.00  0.00    -0.206 F 
ATOM     88  C   UNL A   1      41.756  25.094  25.621  1.00  0.00     0.022 A 
BRANCH  85  89
ATOM     89  S   UNL A   1      40.910  22.777  26.922  1.00  0.00     0.124 S 
ATOM     90  O   UNL A   1      41.414  22.455  28.251  1.00  0.00    -0.237 OA
ATOM     91  O   UNL A   1      39.461  22.751  26.760  1.00  0.00    -0.237 OA
ATOM     92  O   UNL A   1      41.671  22.208  25.810  1.00  0.00    -0.744 OA
ENDBRANCH  85  89
ENDBRANCH  58  82
BRANCH  70  93
ATOM     93  C   UNL A   1      45.733  27.288  33.478  1.00  0.00     0.023 A 
ATOM     94  C   UNL A   1      47.020  27.734  33.126  1.00  0.00     0.031 A 
ATOM     95  C   UNL A   1      45.629  26.106  34.235  1.00  0.00     0.131 A 
ATOM     96  C   UNL A   1      48.144  26.974  33.482  1.00  0.00     0.055 A 
ATOM     97  C   UNL A   1      46.754  25.389  34.639  1.00  0.00     0.041 A 
ATOM     98  F   UNL A   1      44.427  25.631  34.597  1.00  0.00    -0.206 F 
ATOM     99  C   UNL A   1      48.022  25.814  34.251  1.00  0.00     0.022 A 
BRANCH  96 100
ATOM    100  S   UNL A   1      49.769  27.469  32.845  1.00  0.00     0.124 S 
ATOM    101  O   UNL A   1      50.449  26.184  32.711  1.00  0.00    -0.237 OA
ATOM    102  O   UNL A   1      49.424  28.140  31.596  1.00  0.00    -0.237 OA
ATOM    103  O   UNL A   1      50.296  28.344  33.891  1.00  0.00    -0.744 OA
ENDBRANCH  96 100
ENDBRANCH  70  93
ENDBRANCH  44  45
ENDBRANCH  37  39
ENDBRANCH  36  37
ENDBRANCH  35  36
ENDBRANCH  34  35
ENDBRANCH  33  34
ENDBRANCH   1  33
TORSDOF 23
ENDMDL
MODEL 3
REMARK VINA RESULT:     -10.7      5.614      9.619
REMARK SMILES COc1ccc(-c2ccc(C(=O)NCc3ccc(C(=O)OCCOCCOC(=O)c4ccc(-c5c6nc(c(-c7cc(S(=O)(=O)[O-])ccc7F)c7ccc([nH]7)c(-c7cc(S(=O)(=O)[O-])ccc7F)c7nc(c(-c8cc(S(=O)(=O)[O-])ccc8F)c8ccc5[nH]8)C=C7)C=C6)cc4)cc3)o2)c([N+](=O)[O-])c1
REMARK SMILES IDX 23 1 22 2 21 3 19 4 20 5 18 6 15 7 16 8 94 9 17 10 93 11
REMARK SMILES IDX 14 12 13 13 11 14 12 15 10 17 7 18 8 19 95 20 9 21 6 22 3 23
REMARK SMILES IDX 4 24 100 25 5 26 96 27 2 28 1 29 97 30 98 31 99 32 24 33
REMARK SMILES IDX 25 34 26 35 27 36 28 37 29 38 30 39 31 40 92 41 32 42 91 43
REMARK SMILES IDX 33 44 34 45 35 46 85 47 36 48 90 49 84 50 86 51 37 52 89 53
REMARK SMILES IDX 83 54 82 55 38 57 70 58 50 59 69 60 51 61 54 62 68 63 87 64
REMARK SMILES IDX 52 65 53 66 67 68 88 69 55 70 39 71 40 72 48 73 41 74 47 75
REMARK SMILES IDX 49 76 46 77 42 78 43 79 44 80 45 81 71 82 72 83 80 84 73 85
REMARK SMILES IDX 79 86 81 87 78 88 74 89 75 90 76 91 77 92 56 93 57 94 65 95
REMARK SMILES IDX 58 96 64 97 66 98 63 99 59 100 60 101 61 102 62 103
REMARK H PARENT 13 16 86 56 54 67
REMARK Flexibility Score: inf
ROOT
ATOM      1  C   UNL A   1      38.733  23.278  26.133  1.00  0.00     0.202 C 
ENDROOT
BRANCH   1   2
ATOM      2  C   UNL A   1      37.424  22.658  25.638  1.00  0.00     0.261 C 
BRANCH   2   3
ATOM      3  O   UNL A   1      36.320  23.561  25.813  1.00  0.00    -0.460 OA
BRANCH   3   4
ATOM      4  C   UNL A   1      35.372  23.492  24.852  1.00  0.00     0.338 C 
ATOM      5  O   UNL A   1      34.969  22.484  24.288  1.00  0.00    -0.246 OA
BRANCH   4   6
ATOM      6  C   UNL A   1      34.727  24.810  24.668  1.00  0.00     0.060 A 
ATOM      7  C   UNL A   1      33.582  27.327  24.140  1.00  0.00    -0.029 A 
ATOM      8  C   UNL A   1      33.977  26.486  23.093  1.00  0.00     0.006 A 
ATOM      9  C   UNL A   1      33.736  26.870  25.462  1.00  0.00     0.006 A 
ATOM     10  C   UNL A   1      34.547  25.243  23.351  1.00  0.00     0.016 A 
ATOM     11  C   UNL A   1      34.296  25.614  25.727  1.00  0.00     0.016 A 
BRANCH   7  12
ATOM     12  C   UNL A   1      33.083  28.724  23.861  1.00  0.00     0.152 C 
BRANCH  12  13
ATOM     13  N   UNL A   1      32.015  28.695  22.887  1.00  0.00    -0.345 N 
ATOM     14  C   UNL A   1      30.854  27.971  22.774  1.00  0.00     0.287 C 
ATOM     15  O   UNL A   1      30.144  28.271  21.808  1.00  0.00    -0.266 OA
ATOM     16  H   UNL A   1      32.148  29.330  22.147  1.00  0.00     0.164 HD
BRANCH  14  17
ATOM     17  C   UNL A   1      30.476  26.928  23.714  1.00  0.00     0.192 A 
ATOM     18  C   UNL A   1      30.593  24.846  24.476  1.00  0.00     0.142 A 
ATOM     19  C   UNL A   1      29.737  25.512  25.319  1.00  0.00     0.052 A 
ATOM     20  O   UNL A   1      31.075  25.695  23.532  1.00  0.00    -0.451 OA
ATOM     21  C   UNL A   1      29.642  26.830  24.815  1.00  0.00     0.057 A 
BRANCH  18  22
ATOM     22  C   UNL A   1      31.043  23.470  24.399  1.00  0.00     0.095 A 
ATOM     23  C   UNL A   1      32.168  20.882  24.163  1.00  0.00     0.125 A 
ATOM     24  C   UNL A   1      31.956  21.673  23.032  1.00  0.00     0.047 A 
ATOM     25  C   UNL A   1      31.810  21.371  25.416  1.00  0.00     0.132 A 
ATOM     26  C   UNL A   1      31.386  22.947  23.145  1.00  0.00     0.023 A 
ATOM     27  C   UNL A   1      31.247  22.657  25.527  1.00  0.00     0.284 A 
BRANCH  23  28
ATOM     28  O   UNL A   1      32.772  19.679  23.928  1.00  0.00    -0.497 OA
ATOM     29  C   UNL A   1      33.914  19.386  24.725  1.00  0.00     0.278 C 
ENDBRANCH  23  28
BRANCH  27  30
ATOM     30  N   UNL A   1      30.895  23.113  26.871  1.00  0.00     0.063 N 
ATOM     31  O   UNL A   1      31.710  23.805  27.493  1.00  0.00    -0.258 OA
ATOM     32  O   UNL A   1      29.768  22.806  27.289  1.00  0.00    -0.258 OA
ENDBRANCH  27  30
ENDBRANCH  18  22
ENDBRANCH  14  17
ENDBRANCH  12  13
ENDBRANCH   7  12
ENDBRANCH   4   6
ENDBRANCH   3   4
ENDBRANCH   2   3
ENDBRANCH   1   2
BRANCH   1  33
ATOM     33  O   UNL A   1      39.885  22.432  26.100  1.00  0.00    -0.374 OA
BRANCH  33  34
ATOM     34  C   UNL A   1      39.790  21.179  26.779  1.00  0.00     0.202 C 
BRANCH  34  35
ATOM     35  C   UNL A   1      40.392  19.960  26.069  1.00  0.00     0.261 C 
BRANCH  35  36
ATOM     36  O   UNL A   1      41.704  19.634  26.563  1.00  0.00    -0.460 OA
BRANCH  36  37
ATOM     37  C   UNL A   1      42.714  19.870  25.691  1.00  0.00     0.338 C 
ATOM     38  O   UNL A   1      43.034  19.177  24.735  1.00  0.00    -0.246 OA
BRANCH  37  39
ATOM     39  C   UNL A   1      43.282  21.210  25.933  1.00  0.00     0.060 A 
ATOM     40  C   UNL A   1      43.459  21.610  27.264  1.00  0.00     0.016 A 
ATOM     41  C   UNL A   1      43.580  22.083  24.885  1.00  0.00     0.016 A 
ATOM     42  C   UNL A   1      43.895  22.903  27.554  1.00  0.00     0.010 A 
ATOM     43  C   UNL A   1      44.009  23.381  25.178  1.00  0.00     0.010 A 
ATOM     44  C   UNL A   1      44.137  23.808  26.513  1.00  0.00    -0.014 A 
BRANCH  44  45
ATOM     45  C   UNL A   1      44.378  25.240  26.819  1.00  0.00     0.031 A 
ATOM     46  C   UNL A   1      45.762  25.799  26.625  1.00  0.00     0.074 A 
ATOM     47  C   UNL A   1      43.381  26.032  27.251  1.00  0.00     0.049 A 
ATOM     48  N   UNL A   1      46.226  26.990  26.904  1.00  0.00    -0.248 NA
ATOM     49  C   UNL A   1      46.757  24.885  26.043  1.00  0.00     0.031 C 
ATOM     50  C   UNL A   1      41.991  25.617  27.426  1.00  0.00     0.029 A 
ATOM     51  N   UNL A   1      43.389  27.352  27.630  1.00  0.00    -0.354 N 
ATOM     52  C   UNL A   1      47.569  26.968  26.541  1.00  0.00     0.074 A 
ATOM     53  C   UNL A   1      47.850  25.632  26.059  1.00  0.00     0.031 C 
ATOM     54  C   UNL A   1      41.280  26.659  27.891  1.00  0.00     0.029 A 
ATOM     55  C   UNL A   1      42.172  27.800  28.090  1.00  0.00     0.049 A 
ATOM     56  H   UNL A   1      44.189  27.923  27.578  1.00  0.00     0.167 HD
ATOM     57  C   UNL A   1      48.479  27.972  26.599  1.00  0.00     0.034 A 
ATOM     58  C   UNL A   1      41.828  28.983  28.636  1.00  0.00     0.034 A 
ATOM     59  C   UNL A   1      48.181  29.295  27.093  1.00  0.00     0.049 A 
ATOM     60  C   UNL A   1      42.880  30.058  28.779  1.00  0.00     0.074 A 
ATOM     61  C   UNL A   1      49.022  30.390  27.187  1.00  0.00     0.029 A 
ATOM     62  N   UNL A   1      46.948  29.700  27.590  1.00  0.00    -0.354 N 
ATOM     63  N   UNL A   1      44.148  30.027  28.435  1.00  0.00    -0.248 NA
ATOM     64  C   UNL A   1      42.453  31.330  29.378  1.00  0.00     0.031 C 
ATOM     65  C   UNL A   1      48.322  31.429  27.809  1.00  0.00     0.029 A 
ATOM     66  C   UNL A   1      47.018  31.015  28.025  1.00  0.00     0.049 A 
ATOM     67  H   UNL A   1      46.143  29.136  27.630  1.00  0.00     0.167 HD
ATOM     68  C   UNL A   1      44.657  31.287  28.741  1.00  0.00     0.074 A 
ATOM     69  C   UNL A   1      43.559  32.055  29.290  1.00  0.00     0.031 C 
ATOM     70  C   UNL A   1      45.916  31.769  28.577  1.00  0.00     0.034 A 
BRANCH  57  71
ATOM     71  C   UNL A   1      49.891  27.654  26.168  1.00  0.00     0.023 A 
ATOM     72  C   UNL A   1      50.332  27.870  24.850  1.00  0.00     0.031 A 
ATOM     73  C   UNL A   1      50.803  27.098  27.083  1.00  0.00     0.131 A 
ATOM     74  C   UNL A   1      51.620  27.464  24.468  1.00  0.00     0.055 A 
ATOM     75  C   UNL A   1      52.110  26.774  26.717  1.00  0.00     0.041 A 
ATOM     76  F   UNL A   1      50.433  26.845  28.348  1.00  0.00    -0.206 F 
ATOM     77  C   UNL A   1      52.521  26.942  25.398  1.00  0.00     0.022 A 
BRANCH  74  78
ATOM     78  S   UNL A   1      52.049  27.489  22.705  1.00  0.00     0.124 S 
ATOM     79  O   UNL A   1      50.762  27.187  22.084  1.00  0.00    -0.237 OA
ATOM     80  O   UNL A   1      52.545  28.848  22.520  1.00  0.00    -0.237 OA
ATOM     81  O   UNL A   1      53.055  26.435  22.582  1.00  0.00    -0.744 OA
ENDBRANCH  74  78
ENDBRANCH  57  71
BRANCH  58  82
ATOM     82  C   UNL A   1      40.440  29.211  29.133  1.00  0.00     0.023 A 
ATOM     83  C   UNL A   1      40.145  29.180  30.505  1.00  0.00     0.031 A 
ATOM     84  C   UNL A   1      39.375  29.407  28.234  1.00  0.00     0.131 A 
ATOM     85  C   UNL A   1      38.813  29.295  30.937  1.00  0.00     0.055 A 
ATOM     86  C   UNL A   1      38.060  29.578  28.672  1.00  0.00     0.041 A 
ATOM     87  F   UNL A   1      39.600  29.442  26.911  1.00  0.00    -0.206 F 
ATOM     88  C   UNL A   1      37.773  29.508  30.031  1.00  0.00     0.022 A 
BRANCH  85  89
ATOM     89  S   UNL A   1      38.451  29.071  32.700  1.00  0.00     0.124 S 
ATOM     90  O   UNL A   1      38.618  30.426  33.211  1.00  0.00    -0.237 OA
ATOM     91  O   UNL A   1      37.086  28.560  32.666  1.00  0.00    -0.237 OA
ATOM     92  O   UNL A   1      39.464  28.110  33.134  1.00  0.00    -0.744 OA
ENDBRANCH  85  89
ENDBRANCH  58  82
BRANCH  70  93
ATOM     93  C   UNL A   1      46.155  33.215  28.943  1.00  0.00     0.023 A 
ATOM     94  C   UNL A   1      46.581  33.599  30.228  1.00  0.00     0.031 A 
ATOM     95  C   UNL A   1      45.950  34.226  27.987  1.00  0.00     0.131 A 
ATOM     96  C   UNL A   1      46.732  34.960  30.535  1.00  0.00     0.055 A 
ATOM     97  C   UNL A   1      46.163  35.573  28.280  1.00  0.00     0.041 A 
ATOM     98  F   UNL A   1      45.541  33.919  26.745  1.00  0.00    -0.206 F 
ATOM     99  C   UNL A   1      46.544  35.949  29.566  1.00  0.00     0.022 A 
BRANCH  96 100
ATOM    100  S   UNL A   1      47.088  35.432  32.251  1.00  0.00     0.124 S 
ATOM    101  O   UNL A   1      48.440  34.911  32.435  1.00  0.00    -0.237 OA
ATOM    102  O   UNL A   1      46.967  36.885  32.207  1.00  0.00    -0.237 OA
ATOM    103  O   UNL A   1      46.050  34.747  33.018  1.00  0.00    -0.744 OA
ENDBRANCH  96 100
ENDBRANCH  70  93
ENDBRANCH  44  45
ENDBRANCH  37  39
ENDBRANCH  36  37
ENDBRANCH  35  36
ENDBRANCH  34  35
ENDBRANCH  33  34
ENDBRANCH   1  33
TORSDOF 23
ENDMDL
