MODEL 1
REMARK VINA RESULT:     -12.9      0.000      0.000
REMARK SMILES COC(=O)[C@H]1CN(C(=O)NC(=O)CCCC(=O)OCCOCCOC(=O)c2ccc(-c3c4nc(c(-c5cc(S(=O)(=O)[O-])ccc5F)c5ccc([nH]5)c(-c5cc(S(=O)(=O)[O-])ccc5F)c5nc(c(-c6cc(S(=O)(=O)[O-])ccc6F)c6ccc3[nH]6)C=C5)C=C4)cc2)C[C@H]1C
REMARK SMILES IDX 19 1 18 2 16 3 17 4 15 5 14 6 13 7 11 8 8 9 9 10 10 11 12 13
REMARK SMILES IDX 7 14 5 15 6 16 91 17 90 18 92 19 3 20 4 21 2 22 1 23 20 24
REMARK SMILES IDX 21 25 22 26 23 27 24 28 25 29 26 30 27 31 28 32 89 33 29 34
REMARK SMILES IDX 88 35 30 36 31 37 32 38 82 39 33 40 87 41 81 42 83 43 34 44
REMARK SMILES IDX 86 45 80 46 79 47 35 49 67 50 47 51 66 52 48 53 51 54 65 55
REMARK SMILES IDX 84 56 49 57 50 58 64 60 85 61 52 62 36 63 37 64 45 65 38 66
REMARK SMILES IDX 44 67 46 68 43 69 39 70 40 71 41 72 42 73 68 74 69 75 77 76
REMARK SMILES IDX 70 77 76 78 78 79 75 80 71 81 72 82 73 83 74 84 53 85 54 86
REMARK SMILES IDX 62 87 55 88 61 89 63 90 60 91 56 92 57 93 58 94 59 95
REMARK H PARENT 10 12 83 48 51 59
REMARK Flexibility Score: inf
ROOT
ATOM      1  C   UNL A   1      33.300  26.629  26.297  1.00  0.00     0.261 C 
ENDROOT
BRANCH   1   2
ATOM      2  O   UNL A   1      31.673  26.261  26.949  1.00  0.00    -0.463 OA
BRANCH   2   3
ATOM      3  C   UNL A   1      30.015  25.501  26.419  1.00  0.00     0.305 C 
ATOM      4  O   UNL A   1      29.528  24.419  26.808  1.00  0.00    -0.252 OA
BRANCH   3   5
ATOM      5  C   UNL A   1      29.026  25.990  25.193  1.00  0.00     0.123 C 
BRANCH   5   6
ATOM      6  C   UNL A   1      29.539  26.263  23.774  1.00  0.00     0.022 C 
BRANCH   6   7
ATOM      7  C   UNL A   1      31.035  26.267  23.491  1.00  0.00     0.101 C 
BRANCH   7   8
ATOM      8  C   UNL A   1      31.513  26.883  22.206  1.00  0.00     0.228 C 
ATOM      9  C   UNL A   1      33.000  25.146  21.096  1.00  0.00     0.324 C 
ATOM     10  O   UNL A   1      33.024  24.895  19.889  1.00  0.00    -0.248 OA
ATOM     11  N   UNL A   1      32.589  26.394  21.491  1.00  0.00    -0.278 N 
ATOM     12  H   UNL A   1      33.201  27.106  21.194  1.00  0.00     0.174 HD
ATOM     13  O   UNL A   1      30.947  27.898  21.784  1.00  0.00    -0.275 OA
BRANCH   9  14
ATOM     14  N   UNL A   1      33.225  24.160  22.012  1.00  0.00    -0.323 N 
ATOM     15  C   UNL A   1      33.230  21.458  23.771  1.00  0.00     0.123 C 
ATOM     16  C   UNL A   1      32.325  22.503  22.274  1.00  0.00     0.137 C 
ATOM     17  C   UNL A   1      34.843  22.723  24.361  1.00  0.00     0.021 C 
ATOM     18  C   UNL A   1      34.698  24.389  23.202  1.00  0.00     0.125 C 
ATOM     19  C   UNL A   1      35.361  23.503  25.691  1.00  0.00     0.010 C 
BRANCH  15  20
ATOM     20  C   UNL A   1      32.509  19.785  24.504  1.00  0.00     0.310 C 
ATOM     21  O   UNL A   1      32.415  19.563  25.711  1.00  0.00    -0.252 OA
BRANCH  20  22
ATOM     22  O   UNL A   1      32.177  18.666  23.730  1.00  0.00    -0.469 OA
ATOM     23  C   UNL A   1      32.719  18.028  22.487  1.00  0.00     0.282 C 
ENDBRANCH  20  22
ENDBRANCH  15  20
ENDBRANCH   9  14
ENDBRANCH   7   8
ENDBRANCH   6   7
ENDBRANCH   5   6
ENDBRANCH   3   5
ENDBRANCH   2   3
ENDBRANCH   1   2
BRANCH   1  24
ATOM     24  C   UNL A   1      33.455  28.287  25.639  1.00  0.00     0.202 C 
BRANCH  24  25
ATOM     25  O   UNL A   1      32.853  29.603  26.258  1.00  0.00    -0.374 OA
BRANCH  25  26
ATOM     26  C   UNL A   1      31.482  30.470  26.239  1.00  0.00     0.202 C 
BRANCH  26  27
ATOM     27  C   UNL A   1      31.078  32.326  26.362  1.00  0.00     0.261 C 
BRANCH  27  28
ATOM     28  O   UNL A   1      32.173  33.494  27.036  1.00  0.00    -0.460 OA
BRANCH  28  29
ATOM     29  C   UNL A   1      33.065  33.770  28.100  1.00  0.00     0.338 C 
ATOM     30  O   UNL A   1      32.882  34.628  28.955  1.00  0.00    -0.246 OA
BRANCH  29  31
ATOM     31  C   UNL A   1      34.354  32.920  28.342  1.00  0.00     0.060 A 
ATOM     32  C   UNL A   1      34.460  31.761  29.153  1.00  0.00     0.016 A 
ATOM     33  C   UNL A   1      35.579  33.527  28.052  1.00  0.00     0.016 A 
ATOM     34  C   UNL A   1      35.667  31.253  29.679  1.00  0.00     0.010 A 
ATOM     35  C   UNL A   1      36.804  33.023  28.568  1.00  0.00     0.010 A 
ATOM     36  C   UNL A   1      36.858  31.901  29.411  1.00  0.00    -0.014 A 
BRANCH  36  37
ATOM     37  C   UNL A   1      38.131  31.488  30.066  1.00  0.00     0.031 A 
ATOM     38  C   UNL A   1      39.000  30.444  29.418  1.00  0.00     0.074 A 
ATOM     39  C   UNL A   1      38.497  32.010  31.251  1.00  0.00     0.049 A 
ATOM     40  N   UNL A   1      39.989  29.750  29.924  1.00  0.00    -0.248 NA
ATOM     41  C   UNL A   1      38.708  30.141  28.011  1.00  0.00     0.031 C 
ATOM     42  C   UNL A   1      37.823  33.116  31.929  1.00  0.00     0.029 A 
ATOM     43  N   UNL A   1      39.506  31.652  32.114  1.00  0.00    -0.354 N 
ATOM     44  C   UNL A   1      40.417  28.897  28.910  1.00  0.00     0.074 A 
ATOM     45  C   UNL A   1      39.569  29.164  27.763  1.00  0.00     0.031 C 
ATOM     46  C   UNL A   1      38.403  33.311  33.125  1.00  0.00     0.029 A 
ATOM     47  C   UNL A   1      39.449  32.309  33.322  1.00  0.00     0.049 A 
ATOM     48  H   UNL A   1      40.200  30.991  31.889  1.00  0.00     0.167 HD
ATOM     49  C   UNL A   1      41.413  27.972  28.941  1.00  0.00     0.034 A 
ATOM     50  C   UNL A   1      40.119  32.092  34.473  1.00  0.00     0.034 A 
ATOM     51  C   UNL A   1      42.231  27.712  30.106  1.00  0.00     0.049 A 
ATOM     52  C   UNL A   1      41.130  30.971  34.535  1.00  0.00     0.074 A 
ATOM     53  C   UNL A   1      43.254  26.790  30.257  1.00  0.00     0.029 A 
ATOM     54  N   UNL A   1      42.113  28.368  31.326  1.00  0.00    -0.354 N 
ATOM     55  N   UNL A   1      41.490  30.127  33.595  1.00  0.00    -0.248 NA
ATOM     56  C   UNL A   1      41.826  30.778  35.814  1.00  0.00     0.031 C 
ATOM     57  C   UNL A   1      43.693  26.831  31.586  1.00  0.00     0.029 A 
ATOM     58  C   UNL A   1      43.018  27.847  32.241  1.00  0.00     0.049 A 
ATOM     59  H   UNL A   1      41.479  29.097  31.514  1.00  0.00     0.167 HD
ATOM     60  C   UNL A   1      42.488  29.332  34.158  1.00  0.00     0.074 A 
ATOM     61  C   UNL A   1      42.672  29.803  35.516  1.00  0.00     0.031 C 
ATOM     62  C   UNL A   1      43.193  28.314  33.599  1.00  0.00     0.034 A 
BRANCH  49  63
ATOM     63  C   UNL A   1      41.613  27.124  27.702  1.00  0.00     0.023 A 
ATOM     64  C   UNL A   1      41.200  25.782  27.643  1.00  0.00     0.031 A 
ATOM     65  C   UNL A   1      42.271  27.653  26.576  1.00  0.00     0.131 A 
ATOM     66  C   UNL A   1      41.527  24.993  26.528  1.00  0.00     0.055 A 
ATOM     67  C   UNL A   1      42.511  26.890  25.431  1.00  0.00     0.041 A 
ATOM     68  F   UNL A   1      42.709  28.923  26.572  1.00  0.00    -0.206 F 
ATOM     69  C   UNL A   1      42.156  25.545  25.410  1.00  0.00     0.022 A 
BRANCH  66  70
ATOM     70  S   UNL A   1      41.277  23.199  26.632  1.00  0.00     0.124 S 
ATOM     71  O   UNL A   1      41.724  22.919  27.996  1.00  0.00    -0.237 OA
ATOM     72  O   UNL A   1      39.847  23.065  26.387  1.00  0.00    -0.237 OA
ATOM     73  O   UNL A   1      42.144  22.670  25.581  1.00  0.00    -0.744 OA
ENDBRANCH  66  70
ENDBRANCH  49  63
BRANCH  50  74
ATOM     74  C   UNL A   1      39.828  32.917  35.681  1.00  0.00     0.023 A 
ATOM     75  C   UNL A   1      38.947  32.457  36.672  1.00  0.00     0.031 A 
ATOM     76  C   UNL A   1      40.395  34.194  35.848  1.00  0.00     0.131 A 
ATOM     77  C   UNL A   1      38.630  33.279  37.765  1.00  0.00     0.055 A 
ATOM     78  C   UNL A   1      40.122  34.984  36.965  1.00  0.00     0.041 A 
ATOM     79  F   UNL A   1      41.240  34.688  34.927  1.00  0.00    -0.206 F 
ATOM     80  C   UNL A   1      39.226  34.531  37.929  1.00  0.00     0.022 A 
BRANCH  77  81
ATOM     81  S   UNL A   1      37.366  32.714  38.936  1.00  0.00     0.124 S 
ATOM     82  O   UNL A   1      36.137  32.972  38.194  1.00  0.00    -0.237 OA
ATOM     83  O   UNL A   1      37.725  31.311  39.116  1.00  0.00    -0.237 OA
ATOM     84  O   UNL A   1      37.581  33.563  40.105  1.00  0.00    -0.744 OA
ENDBRANCH  77  81
ENDBRANCH  50  74
BRANCH  62  85
ATOM     85  C   UNL A   1      44.284  27.687  34.440  1.00  0.00     0.023 A 
ATOM     86  C   UNL A   1      44.124  26.437  35.063  1.00  0.00     0.031 A 
ATOM     87  C   UNL A   1      45.499  28.370  34.639  1.00  0.00     0.131 A 
ATOM     88  C   UNL A   1      45.131  25.941  35.907  1.00  0.00     0.055 A 
ATOM     89  C   UNL A   1      46.525  27.839  35.421  1.00  0.00     0.041 A 
ATOM     90  F   UNL A   1      45.708  29.571  34.076  1.00  0.00    -0.206 F 
ATOM     91  C   UNL A   1      46.339  26.624  36.074  1.00  0.00     0.022 A 
BRANCH  88  92
ATOM     92  S   UNL A   1      44.795  24.448  36.883  1.00  0.00     0.124 S 
ATOM     93  O   UNL A   1      46.070  23.743  36.807  1.00  0.00    -0.237 OA
ATOM     94  O   UNL A   1      44.449  25.001  38.188  1.00  0.00    -0.237 OA
ATOM     95  O   UNL A   1      43.690  23.811  36.168  1.00  0.00    -0.744 OA
ENDBRANCH  88  92
ENDBRANCH  62  85
ENDBRANCH  36  37
ENDBRANCH  29  31
ENDBRANCH  28  29
ENDBRANCH  27  28
ENDBRANCH  26  27
ENDBRANCH  25  26
ENDBRANCH  24  25
ENDBRANCH   1  24
TORSDOF 23
ENDMDL
MODEL 2
REMARK VINA RESULT:     -12.6      1.610      8.118
REMARK SMILES COC(=O)[C@H]1CN(C(=O)NC(=O)CCCC(=O)OCCOCCOC(=O)c2ccc(-c3c4nc(c(-c5cc(S(=O)(=O)[O-])ccc5F)c5ccc([nH]5)c(-c5cc(S(=O)(=O)[O-])ccc5F)c5nc(c(-c6cc(S(=O)(=O)[O-])ccc6F)c6ccc3[nH]6)C=C5)C=C4)cc2)C[C@H]1C
REMARK SMILES IDX 19 1 18 2 16 3 17 4 15 5 14 6 13 7 11 8 8 9 9 10 10 11 12 13
REMARK SMILES IDX 7 14 5 15 6 16 91 17 90 18 92 19 3 20 4 21 2 22 1 23 20 24
REMARK SMILES IDX 21 25 22 26 23 27 24 28 25 29 26 30 27 31 28 32 89 33 29 34
REMARK SMILES IDX 88 35 30 36 31 37 32 38 82 39 33 40 87 41 81 42 83 43 34 44
REMARK SMILES IDX 86 45 80 46 79 47 35 49 67 50 47 51 66 52 48 53 51 54 65 55
REMARK SMILES IDX 84 56 49 57 50 58 64 60 85 61 52 62 36 63 37 64 45 65 38 66
REMARK SMILES IDX 44 67 46 68 43 69 39 70 40 71 41 72 42 73 68 74 69 75 77 76
REMARK SMILES IDX 70 77 76 78 78 79 75 80 71 81 72 82 73 83 74 84 53 85 54 86
REMARK SMILES IDX 62 87 55 88 61 89 63 90 60 91 56 92 57 93 58 94 59 95
REMARK H PARENT 10 12 83 48 51 59
REMARK Flexibility Score: inf
ROOT
ATOM      1  C   UNL A   1      33.541  27.487  25.772  1.00  0.00     0.261 C 
ENDROOT
BRANCH   1   2
ATOM      2  O   UNL A   1      34.030  25.866  25.189  1.00  0.00    -0.463 OA
BRANCH   2   3
ATOM      3  C   UNL A   1      34.932  24.303  25.780  1.00  0.00     0.305 C 
ATOM      4  O   UNL A   1      34.477  23.412  26.528  1.00  0.00    -0.252 OA
BRANCH   3   5
ATOM      5  C   UNL A   1      36.533  23.939  25.619  1.00  0.00     0.123 C 
BRANCH   5   6
ATOM      6  C   UNL A   1      37.034  22.521  25.321  1.00  0.00     0.022 C 
BRANCH   6   7
ATOM      7  C   UNL A   1      36.256  21.621  24.370  1.00  0.00     0.101 C 
BRANCH   7   8
ATOM      8  C   UNL A   1      35.876  20.246  24.845  1.00  0.00     0.228 C 
ATOM      9  C   UNL A   1      33.356  20.071  24.563  1.00  0.00     0.324 C 
ATOM     10  O   UNL A   1      32.751  19.075  24.159  1.00  0.00    -0.248 OA
ATOM     11  N   UNL A   1      34.579  19.890  25.158  1.00  0.00    -0.278 N 
ATOM     12  H   UNL A   1      34.518  19.390  26.004  1.00  0.00     0.174 HD
ATOM     13  O   UNL A   1      36.765  19.401  25.001  1.00  0.00    -0.275 OA
BRANCH   9  14
ATOM     14  N   UNL A   1      32.891  21.323  24.282  1.00  0.00    -0.323 N 
ATOM     15  C   UNL A   1      32.169  24.176  22.965  1.00  0.00     0.123 C 
ATOM     16  C   UNL A   1      33.276  22.471  22.813  1.00  0.00     0.137 C 
ATOM     17  C   UNL A   1      31.024  23.874  24.739  1.00  0.00     0.021 C 
ATOM     18  C   UNL A   1      31.603  22.067  25.475  1.00  0.00     0.125 C 
ATOM     19  C   UNL A   1      30.815  24.574  26.192  1.00  0.00     0.010 C 
BRANCH  15  20
ATOM     20  C   UNL A   1      32.398  25.717  21.771  1.00  0.00     0.310 C 
ATOM     21  O   UNL A   1      33.473  26.013  21.250  1.00  0.00    -0.252 OA
BRANCH  20  22
ATOM     22  O   UNL A   1      31.408  26.678  21.528  1.00  0.00    -0.469 OA
ATOM     23  C   UNL A   1      30.499  27.515  22.376  1.00  0.00     0.282 C 
ENDBRANCH  20  22
ENDBRANCH  15  20
ENDBRANCH   9  14
ENDBRANCH   7   8
ENDBRANCH   6   7
ENDBRANCH   5   6
ENDBRANCH   3   5
ENDBRANCH   2   3
ENDBRANCH   1   2
BRANCH   1  24
ATOM     24  C   UNL A   1      31.882  27.956  25.291  1.00  0.00     0.202 C 
BRANCH  24  25
ATOM     25  O   UNL A   1      31.284  29.412  25.277  1.00  0.00    -0.374 OA
BRANCH  25  26
ATOM     26  C   UNL A   1      31.479  30.842  26.019  1.00  0.00     0.202 C 
BRANCH  26  27
ATOM     27  C   UNL A   1      32.844  31.603  27.106  1.00  0.00     0.261 C 
BRANCH  27  28
ATOM     28  O   UNL A   1      32.825  33.258  27.635  1.00  0.00    -0.460 OA
BRANCH  28  29
ATOM     29  C   UNL A   1      33.422  34.207  28.499  1.00  0.00     0.338 C 
ATOM     30  O   UNL A   1      33.014  35.350  28.664  1.00  0.00    -0.246 OA
BRANCH  29  31
ATOM     31  C   UNL A   1      34.635  33.844  29.416  1.00  0.00     0.060 A 
ATOM     32  C   UNL A   1      36.008  34.048  29.121  1.00  0.00     0.016 A 
ATOM     33  C   UNL A   1      34.403  32.919  30.438  1.00  0.00     0.016 A 
ATOM     34  C   UNL A   1      37.076  33.372  29.746  1.00  0.00     0.010 A 
ATOM     35  C   UNL A   1      35.469  32.235  31.083  1.00  0.00     0.010 A 
ATOM     36  C   UNL A   1      36.813  32.430  30.723  1.00  0.00    -0.014 A 
BRANCH  36  37
ATOM     37  C   UNL A   1      37.898  31.588  31.301  1.00  0.00     0.031 A 
ATOM     38  C   UNL A   1      38.465  31.925  32.654  1.00  0.00     0.074 A 
ATOM     39  C   UNL A   1      38.404  30.548  30.612  1.00  0.00     0.049 A 
ATOM     40  N   UNL A   1      39.569  31.507  33.223  1.00  0.00    -0.248 NA
ATOM     41  C   UNL A   1      37.682  32.862  33.469  1.00  0.00     0.031 C 
ATOM     42  C   UNL A   1      37.869  30.031  29.354  1.00  0.00     0.029 A 
ATOM     43  N   UNL A   1      39.508  29.766  30.855  1.00  0.00    -0.354 N 
ATOM     44  C   UNL A   1      39.637  32.161  34.451  1.00  0.00     0.074 A 
ATOM     45  C   UNL A   1      38.460  33.006  34.533  1.00  0.00     0.031 C 
ATOM     46  C   UNL A   1      38.675  29.052  28.909  1.00  0.00     0.029 A 
ATOM     47  C   UNL A   1      39.812  28.915  29.818  1.00  0.00     0.049 A 
ATOM     48  H   UNL A   1      40.029  29.811  31.689  1.00  0.00     0.167 HD
ATOM     49  C   UNL A   1      40.597  32.072  35.410  1.00  0.00     0.034 A 
ATOM     50  C   UNL A   1      40.904  28.155  29.595  1.00  0.00     0.034 A 
ATOM     51  C   UNL A   1      41.772  31.236  35.293  1.00  0.00     0.049 A 
ATOM     52  C   UNL A   1      42.027  28.169  30.605  1.00  0.00     0.074 A 
ATOM     53  C   UNL A   1      42.816  31.081  36.190  1.00  0.00     0.029 A 
ATOM     54  N   UNL A   1      42.067  30.421  34.205  1.00  0.00    -0.354 N 
ATOM     55  N   UNL A   1      42.117  28.832  31.736  1.00  0.00    -0.248 NA
ATOM     56  C   UNL A   1      43.194  27.326  30.309  1.00  0.00     0.031 C 
ATOM     57  C   UNL A   1      43.776  30.242  35.610  1.00  0.00     0.029 A 
ATOM     58  C   UNL A   1      43.289  29.791  34.395  1.00  0.00     0.049 A 
ATOM     59  H   UNL A   1      41.491  30.307  33.416  1.00  0.00     0.167 HD
ATOM     60  C   UNL A   1      43.331  28.451  32.305  1.00  0.00     0.074 A 
ATOM     61  C   UNL A   1      43.933  27.498  31.395  1.00  0.00     0.031 C 
ATOM     62  C   UNL A   1      43.891  28.846  33.479  1.00  0.00     0.034 A 
BRANCH  49  63
ATOM     63  C   UNL A   1      40.450  32.962  36.626  1.00  0.00     0.023 A 
ATOM     64  C   UNL A   1      39.698  32.573  37.748  1.00  0.00     0.031 A 
ATOM     65  C   UNL A   1      41.037  34.241  36.647  1.00  0.00     0.131 A 
ATOM     66  C   UNL A   1      39.476  33.482  38.795  1.00  0.00     0.055 A 
ATOM     67  C   UNL A   1      40.892  35.107  37.733  1.00  0.00     0.041 A 
ATOM     68  F   UNL A   1      41.754  34.683  35.600  1.00  0.00    -0.206 F 
ATOM     69  C   UNL A   1      40.090  34.737  38.808  1.00  0.00     0.022 A 
BRANCH  66  70
ATOM     70  S   UNL A   1      38.235  33.070  40.053  1.00  0.00     0.124 S 
ATOM     71  O   UNL A   1      37.076  32.740  39.225  1.00  0.00    -0.237 OA
ATOM     72  O   UNL A   1      38.857  31.955  40.756  1.00  0.00    -0.237 OA
ATOM     73  O   UNL A   1      38.106  34.303  40.826  1.00  0.00    -0.744 OA
ENDBRANCH  66  70
ENDBRANCH  49  63
BRANCH  50  74
ATOM     74  C   UNL A   1      41.022  27.352  28.342  1.00  0.00     0.023 A 
ATOM     75  C   UNL A   1      40.901  25.954  28.371  1.00  0.00     0.031 A 
ATOM     76  C   UNL A   1      41.294  27.963  27.105  1.00  0.00     0.131 A 
ATOM     77  C   UNL A   1      41.087  25.210  27.194  1.00  0.00     0.055 A 
ATOM     78  C   UNL A   1      41.421  27.225  25.928  1.00  0.00     0.041 A 
ATOM     79  F   UNL A   1      41.427  29.297  27.020  1.00  0.00    -0.206 F 
ATOM     80  C   UNL A   1      41.327  25.837  25.970  1.00  0.00     0.022 A 
BRANCH  77  81
ATOM     81  S   UNL A   1      41.082  23.400  27.304  1.00  0.00     0.124 S 
ATOM     82  O   UNL A   1      41.773  23.178  28.570  1.00  0.00    -0.237 OA
ATOM     83  O   UNL A   1      39.655  23.099  27.290  1.00  0.00    -0.237 OA
ATOM     84  O   UNL A   1      41.816  22.986  26.111  1.00  0.00    -0.744 OA
ENDBRANCH  77  81
ENDBRANCH  50  74
BRANCH  62  85
ATOM     85  C   UNL A   1      45.194  28.187  33.878  1.00  0.00     0.023 A 
ATOM     86  C   UNL A   1      45.233  27.002  34.634  1.00  0.00     0.031 A 
ATOM     87  C   UNL A   1      46.420  28.773  33.512  1.00  0.00     0.131 A 
ATOM     88  C   UNL A   1      46.466  26.482  35.057  1.00  0.00     0.055 A 
ATOM     89  C   UNL A   1      47.645  28.211  33.873  1.00  0.00     0.041 A 
ATOM     90  F   UNL A   1      46.447  29.909  32.795  1.00  0.00    -0.206 F 
ATOM     91  C   UNL A   1      47.674  27.067  34.664  1.00  0.00     0.022 A 
BRANCH  88  92
ATOM     92  S   UNL A   1      46.474  25.096  36.230  1.00  0.00     0.124 S 
ATOM     93  O   UNL A   1      46.688  25.778  37.501  1.00  0.00    -0.237 OA
ATOM     94  O   UNL A   1      45.150  24.515  36.032  1.00  0.00    -0.237 OA
ATOM     95  O   UNL A   1      47.588  24.267  35.775  1.00  0.00    -0.744 OA
ENDBRANCH  88  92
ENDBRANCH  62  85
ENDBRANCH  36  37
ENDBRANCH  29  31
ENDBRANCH  28  29
ENDBRANCH  27  28
ENDBRANCH  26  27
ENDBRANCH  25  26
ENDBRANCH  24  25
ENDBRANCH   1  24
TORSDOF 23
ENDMDL
MODEL 3
REMARK VINA RESULT:     -11.7      8.583      9.798
REMARK SMILES COC(=O)[C@H]1CN(C(=O)NC(=O)CCCC(=O)OCCOCCOC(=O)c2ccc(-c3c4nc(c(-c5cc(S(=O)(=O)[O-])ccc5F)c5ccc([nH]5)c(-c5cc(S(=O)(=O)[O-])ccc5F)c5nc(c(-c6cc(S(=O)(=O)[O-])ccc6F)c6ccc3[nH]6)C=C5)C=C4)cc2)C[C@H]1C
REMARK SMILES IDX 19 1 18 2 16 3 17 4 15 5 14 6 13 7 11 8 8 9 9 10 10 11 12 13
REMARK SMILES IDX 7 14 5 15 6 16 91 17 90 18 92 19 3 20 4 21 2 22 1 23 20 24
REMARK SMILES IDX 21 25 22 26 23 27 24 28 25 29 26 30 27 31 28 32 89 33 29 34
REMARK SMILES IDX 88 35 30 36 31 37 32 38 82 39 33 40 87 41 81 42 83 43 34 44
REMARK SMILES IDX 86 45 80 46 79 47 35 49 67 50 47 51 66 52 48 53 51 54 65 55
REMARK SMILES IDX 84 56 49 57 50 58 64 60 85 61 52 62 36 63 37 64 45 65 38 66
REMARK SMILES IDX 44 67 46 68 43 69 39 70 40 71 41 72 42 73 68 74 69 75 77 76
REMARK SMILES IDX 70 77 76 78 78 79 75 80 71 81 72 82 73 83 74 84 53 85 54 86
REMARK SMILES IDX 62 87 55 88 61 89 63 90 60 91 56 92 57 93 58 94 59 95
REMARK H PARENT 10 12 83 48 51 59
REMARK Flexibility Score: inf
ROOT
ATOM      1  C   UNL A   1      34.293  29.961  27.412  1.00  0.00     0.261 C 
ENDROOT
BRANCH   1   2
ATOM      2  O   UNL A   1      33.057  28.665  27.473  1.00  0.00    -0.463 OA
BRANCH   2   3
ATOM      3  C   UNL A   1      32.569  27.058  26.587  1.00  0.00     0.305 C 
ATOM      4  O   UNL A   1      33.341  26.224  26.069  1.00  0.00    -0.252 OA
BRANCH   3   5
ATOM      5  C   UNL A   1      31.060  26.576  26.130  1.00  0.00     0.123 C 
BRANCH   5   6
ATOM      6  C   UNL A   1      30.785  25.207  25.497  1.00  0.00     0.022 C 
BRANCH   6   7
ATOM      7  C   UNL A   1      30.352  25.113  24.040  1.00  0.00     0.101 C 
BRANCH   7   8
ATOM      8  C   UNL A   1      30.836  26.168  23.085  1.00  0.00     0.228 C 
ATOM      9  C   UNL A   1      32.963  25.253  22.036  1.00  0.00     0.324 C 
ATOM     10  O   UNL A   1      33.279  25.368  20.850  1.00  0.00    -0.248 OA
ATOM     11  N   UNL A   1      32.120  26.191  22.576  1.00  0.00    -0.278 N 
ATOM     12  H   UNL A   1      32.523  27.089  22.608  1.00  0.00     0.174 HD
ATOM     13  O   UNL A   1      30.067  27.082  22.765  1.00  0.00    -0.275 OA
BRANCH   9  14
ATOM     14  N   UNL A   1      33.315  24.139  22.741  1.00  0.00    -0.323 N 
ATOM     15  C   UNL A   1      33.613  21.177  23.977  1.00  0.00     0.123 C 
ATOM     16  C   UNL A   1      32.532  22.404  22.761  1.00  0.00     0.137 C 
ATOM     17  C   UNL A   1      35.198  22.426  24.670  1.00  0.00     0.021 C 
ATOM     18  C   UNL A   1      34.866  24.256  23.845  1.00  0.00     0.125 C 
ATOM     19  C   UNL A   1      35.779  22.993  26.079  1.00  0.00     0.010 C 
BRANCH  15  20
ATOM     20  C   UNL A   1      33.048  19.356  24.445  1.00  0.00     0.310 C 
ATOM     21  O   UNL A   1      31.955  19.097  24.947  1.00  0.00    -0.252 OA
BRANCH  20  22
ATOM     22  O   UNL A   1      33.882  18.232  24.380  1.00  0.00    -0.469 OA
ATOM     23  C   UNL A   1      34.045  17.076  23.441  1.00  0.00     0.282 C 
ENDBRANCH  20  22
ENDBRANCH  15  20
ENDBRANCH   9  14
ENDBRANCH   7   8
ENDBRANCH   6   7
ENDBRANCH   5   6
ENDBRANCH   3   5
ENDBRANCH   2   3
ENDBRANCH   1   2
BRANCH   1  24
ATOM     24  C   UNL A   1      33.612  31.612  27.526  1.00  0.00     0.202 C 
BRANCH  24  25
ATOM     25  O   UNL A   1      34.409  32.938  27.817  1.00  0.00    -0.374 OA
BRANCH  25  26
ATOM     26  C   UNL A   1      35.114  33.718  29.054  1.00  0.00     0.202 C 
BRANCH  26  27
ATOM     27  C   UNL A   1      35.230  33.412  30.929  1.00  0.00     0.261 C 
BRANCH  27  28
ATOM     28  O   UNL A   1      36.668  33.716  31.854  1.00  0.00    -0.460 OA
BRANCH  28  29
ATOM     29  C   UNL A   1      38.046  33.423  31.987  1.00  0.00     0.338 C 
ATOM     30  O   UNL A   1      38.501  32.518  32.677  1.00  0.00    -0.246 OA
BRANCH  29  31
ATOM     31  C   UNL A   1      39.138  34.185  31.169  1.00  0.00     0.060 A 
ATOM     32  C   UNL A   1      39.100  34.481  29.781  1.00  0.00     0.016 A 
ATOM     33  C   UNL A   1      40.414  34.267  31.734  1.00  0.00     0.016 A 
ATOM     34  C   UNL A   1      40.227  34.794  28.992  1.00  0.00     0.010 A 
ATOM     35  C   UNL A   1      41.558  34.589  30.954  1.00  0.00     0.010 A 
ATOM     36  C   UNL A   1      41.482  34.824  29.571  1.00  0.00    -0.014 A 
BRANCH  36  37
ATOM     37  C   UNL A   1      42.712  35.002  28.749  1.00  0.00     0.031 A 
ATOM     38  C   UNL A   1      43.636  33.836  28.523  1.00  0.00     0.074 A 
ATOM     39  C   UNL A   1      43.027  36.205  28.234  1.00  0.00     0.049 A 
ATOM     40  N   UNL A   1      44.869  33.822  28.081  1.00  0.00    -0.248 NA
ATOM     41  C   UNL A   1      43.095  32.510  28.847  1.00  0.00     0.031 C 
ATOM     42  C   UNL A   1      42.166  37.386  28.263  1.00  0.00     0.029 A 
ATOM     43  N   UNL A   1      44.176  36.642  27.619  1.00  0.00    -0.354 N 
ATOM     44  C   UNL A   1      45.270  32.489  28.107  1.00  0.00     0.074 A 
ATOM     45  C   UNL A   1      44.143  31.731  28.618  1.00  0.00     0.031 C 
ATOM     46  C   UNL A   1      42.837  38.426  27.740  1.00  0.00     0.029 A 
ATOM     47  C   UNL A   1      44.192  38.000  27.394  1.00  0.00     0.049 A 
ATOM     48  H   UNL A   1      44.915  36.043  27.366  1.00  0.00     0.167 HD
ATOM     49  C   UNL A   1      46.468  31.954  27.752  1.00  0.00     0.034 A 
ATOM     50  C   UNL A   1      45.195  38.815  27.009  1.00  0.00     0.034 A 
ATOM     51  C   UNL A   1      47.584  32.738  27.265  1.00  0.00     0.049 A 
ATOM     52  C   UNL A   1      46.561  38.227  26.746  1.00  0.00     0.074 A 
ATOM     53  C   UNL A   1      48.847  32.307  26.893  1.00  0.00     0.029 A 
ATOM     54  N   UNL A   1      47.575  34.117  27.092  1.00  0.00    -0.354 N 
ATOM     55  N   UNL A   1      46.955  36.976  26.829  1.00  0.00    -0.248 NA
ATOM     56  C   UNL A   1      47.616  39.162  26.333  1.00  0.00     0.031 C 
ATOM     57  C   UNL A   1      49.622  33.430  26.578  1.00  0.00     0.029 A 
ATOM     58  C   UNL A   1      48.818  34.555  26.655  1.00  0.00     0.049 A 
ATOM     59  H   UNL A   1      46.799  34.700  27.257  1.00  0.00     0.167 HD
ATOM     60  C   UNL A   1      48.292  36.971  26.436  1.00  0.00     0.074 A 
ATOM     61  C   UNL A   1      48.632  38.342  26.112  1.00  0.00     0.031 C 
ATOM     62  C   UNL A   1      49.156  35.926  26.341  1.00  0.00     0.034 A 
BRANCH  49  63
ATOM     63  C   UNL A   1      46.655  30.465  27.955  1.00  0.00     0.023 A 
ATOM     64  C   UNL A   1      46.358  29.532  26.947  1.00  0.00     0.031 A 
ATOM     65  C   UNL A   1      47.094  29.967  29.196  1.00  0.00     0.131 A 
ATOM     66  C   UNL A   1      46.415  28.156  27.224  1.00  0.00     0.055 A 
ATOM     67  C   UNL A   1      47.240  28.598  29.436  1.00  0.00     0.041 A 
ATOM     68  F   UNL A   1      47.378  30.802  30.209  1.00  0.00    -0.206 F 
ATOM     69  C   UNL A   1      46.879  27.683  28.453  1.00  0.00     0.022 A 
BRANCH  66  70
ATOM     70  S   UNL A   1      45.707  27.000  26.018  1.00  0.00     0.124 S 
ATOM     71  O   UNL A   1      46.789  26.028  25.872  1.00  0.00    -0.237 OA
ATOM     72  O   UNL A   1      44.509  26.526  26.700  1.00  0.00    -0.237 OA
ATOM     73  O   UNL A   1      45.468  27.834  24.841  1.00  0.00    -0.744 OA
ENDBRANCH  66  70
ENDBRANCH  49  63
BRANCH  50  74
ATOM     74  C   UNL A   1      44.968  40.286  26.892  1.00  0.00     0.023 A 
ATOM     75  C   UNL A   1      44.582  40.859  25.671  1.00  0.00     0.031 A 
ATOM     76  C   UNL A   1      45.171  41.145  27.987  1.00  0.00     0.131 A 
ATOM     77  C   UNL A   1      44.444  42.253  25.563  1.00  0.00     0.055 A 
ATOM     78  C   UNL A   1      44.978  42.524  27.890  1.00  0.00     0.041 A 
ATOM     79  F   UNL A   1      45.549  40.652  29.178  1.00  0.00    -0.206 F 
ATOM     80  C   UNL A   1      44.621  43.087  26.669  1.00  0.00     0.022 A 
BRANCH  77  81
ATOM     81  S   UNL A   1      44.101  42.966  23.932  1.00  0.00     0.124 S 
ATOM     82  O   UNL A   1      43.723  44.331  24.278  1.00  0.00    -0.237 OA
ATOM     83  O   UNL A   1      45.385  42.807  23.256  1.00  0.00    -0.237 OA
ATOM     84  O   UNL A   1      43.021  42.129  23.415  1.00  0.00    -0.744 OA
ENDBRANCH  77  81
ENDBRANCH  50  74
BRANCH  62  85
ATOM     85  C   UNL A   1      50.537  36.220  25.796  1.00  0.00     0.023 A 
ATOM     86  C   UNL A   1      51.668  36.301  26.628  1.00  0.00     0.031 A 
ATOM     87  C   UNL A   1      50.717  36.445  24.419  1.00  0.00     0.131 A 
ATOM     88  C   UNL A   1      52.911  36.666  26.086  1.00  0.00     0.055 A 
ATOM     89  C   UNL A   1      51.969  36.736  23.875  1.00  0.00     0.041 A 
ATOM     90  F   UNL A   1      49.674  36.386  23.575  1.00  0.00    -0.206 F 
ATOM     91  C   UNL A   1      53.073  36.864  24.712  1.00  0.00     0.022 A 
BRANCH  88  92
ATOM     92  S   UNL A   1      54.292  36.999  27.216  1.00  0.00     0.124 S 
ATOM     93  O   UNL A   1      54.544  38.416  26.977  1.00  0.00    -0.237 OA
ATOM     94  O   UNL A   1      53.718  36.664  28.515  1.00  0.00    -0.237 OA
ATOM     95  O   UNL A   1      55.342  36.095  26.751  1.00  0.00    -0.744 OA
ENDBRANCH  88  92
ENDBRANCH  62  85
ENDBRANCH  36  37
ENDBRANCH  29  31
ENDBRANCH  28  29
ENDBRANCH  27  28
ENDBRANCH  26  27
ENDBRANCH  25  26
ENDBRANCH  24  25
ENDBRANCH   1  24
TORSDOF 23
ENDMDL
