MODEL 1
REMARK VINA RESULT:     -11.1      0.000      0.000
REMARK SMILES C[C@H](c1ccncc1)N1C[C@H](C(=O)OCCOCCOC(=O)c2ccc(-c3c4nc(c(-c5cc(S(=O)(=O)[O-])ccc5F)c5ccc([nH]5)c(-c5cc(S(=O)(=O)[O-])ccc5F)c5nc(c(-c6cc(S(=O)(=O)[O-])ccc6F)c6ccc3[nH]6)C=C5)C=C4)cc2)CC1=O
REMARK SMILES IDX 18 1 17 2 16 3 15 4 14 5 12 6 13 7 11 8 9 9 10 10 87 11
REMARK SMILES IDX 86 12 88 13 2 14 1 15 3 16 4 17 8 18 5 19 7 20 6 21 19 22
REMARK SMILES IDX 20 23 21 24 22 25 23 26 24 27 85 28 25 29 84 30 26 31 27 32
REMARK SMILES IDX 28 33 78 34 29 35 83 36 77 37 79 38 30 39 82 40 76 41 75 42
REMARK SMILES IDX 31 44 63 45 43 46 62 47 44 48 47 49 61 50 80 51 45 52 46 53
REMARK SMILES IDX 60 55 81 56 48 57 32 58 33 59 41 60 34 61 40 62 42 63 39 64
REMARK SMILES IDX 35 65 36 66 37 67 38 68 64 69 65 70 73 71 66 72 72 73 74 74
REMARK SMILES IDX 71 75 67 76 68 77 69 78 70 79 49 80 50 81 58 82 51 83 57 84
REMARK SMILES IDX 59 85 56 86 52 87 53 88 54 89 55 90
REMARK H PARENT 79 43 47 54
REMARK Flexibility Score: inf
ROOT
ATOM      1  C   UNL A   1      35.834  20.569  25.165  1.00  0.00     0.202 C 
ENDROOT
BRANCH   1   2
ATOM      2  O   UNL A   1      34.882  19.649  24.633  1.00  0.00    -0.374 OA
BRANCH   2   3
ATOM      3  C   UNL A   1      33.527  19.812  25.051  1.00  0.00     0.202 C 
BRANCH   3   4
ATOM      4  C   UNL A   1      32.574  20.484  24.057  1.00  0.00     0.261 C 
BRANCH   4   5
ATOM      5  O   UNL A   1      32.173  21.804  24.478  1.00  0.00    -0.463 OA
BRANCH   5   6
ATOM      6  C   UNL A   1      33.090  22.790  24.292  1.00  0.00     0.311 C 
ATOM      7  O   UNL A   1      33.642  23.032  23.225  1.00  0.00    -0.252 OA
BRANCH   6   8
ATOM      8  C   UNL A   1      33.433  23.525  25.581  1.00  0.00     0.128 C 
ATOM      9  N   UNL A   1      31.689  25.038  26.006  1.00  0.00    -0.335 N 
ATOM     10  C   UNL A   1      33.026  24.990  25.453  1.00  0.00     0.136 C 
ATOM     11  C   UNL A   1      31.422  23.921  26.786  1.00  0.00     0.224 C 
ATOM     12  C   UNL A   1      32.670  23.070  26.824  1.00  0.00     0.117 C 
ATOM     13  O   UNL A   1      30.374  23.649  27.346  1.00  0.00    -0.275 OA
BRANCH   9  14
ATOM     14  C   UNL A   1      30.674  26.045  25.670  1.00  0.00     0.112 C 
ATOM     15  C   UNL A   1      30.110  25.931  24.249  1.00  0.00     0.036 C 
BRANCH  14  16
ATOM     16  C   UNL A   1      31.164  27.463  25.906  1.00  0.00    -0.023 A 
ATOM     17  C   UNL A   1      31.577  27.909  27.164  1.00  0.00     0.026 A 
ATOM     18  C   UNL A   1      31.231  28.363  24.834  1.00  0.00     0.026 A 
ATOM     19  C   UNL A   1      32.037  29.212  27.290  1.00  0.00     0.111 A 
ATOM     20  C   UNL A   1      31.707  29.644  25.061  1.00  0.00     0.111 A 
ATOM     21  N   UNL A   1      32.124  30.087  26.265  1.00  0.00    -0.265 NA
ENDBRANCH  14  16
ENDBRANCH   9  14
ENDBRANCH   6   8
ENDBRANCH   5   6
ENDBRANCH   4   5
ENDBRANCH   3   4
ENDBRANCH   2   3
ENDBRANCH   1   2
BRANCH   1  22
ATOM     22  C   UNL A   1      37.321  20.239  24.982  1.00  0.00     0.261 C 
BRANCH  22  23
ATOM     23  O   UNL A   1      38.170  21.378  25.217  1.00  0.00    -0.460 OA
BRANCH  23  24
ATOM     24  C   UNL A   1      39.241  21.125  26.008  1.00  0.00     0.338 C 
ATOM     25  O   UNL A   1      39.868  20.076  26.080  1.00  0.00    -0.246 OA
BRANCH  24  26
ATOM     26  C   UNL A   1      39.709  22.367  26.654  1.00  0.00     0.060 A 
ATOM     27  C   UNL A   1      39.115  23.566  26.238  1.00  0.00     0.016 A 
ATOM     28  C   UNL A   1      40.749  22.378  27.586  1.00  0.00     0.016 A 
ATOM     29  C   UNL A   1      39.600  24.785  26.704  1.00  0.00     0.010 A 
ATOM     30  C   UNL A   1      41.239  23.607  28.049  1.00  0.00     0.010 A 
ATOM     31  C   UNL A   1      40.693  24.815  27.578  1.00  0.00    -0.014 A 
BRANCH  31  32
ATOM     32  C   UNL A   1      41.357  26.114  27.858  1.00  0.00     0.031 A 
ATOM     33  C   UNL A   1      40.580  27.186  28.575  1.00  0.00     0.074 A 
ATOM     34  C   UNL A   1      42.647  26.314  27.532  1.00  0.00     0.049 A 
ATOM     35  N   UNL A   1      40.950  28.393  28.919  1.00  0.00    -0.248 NA
ATOM     36  C   UNL A   1      39.199  26.847  28.954  1.00  0.00     0.031 C 
ATOM     37  C   UNL A   1      43.514  25.333  26.884  1.00  0.00     0.029 A 
ATOM     38  N   UNL A   1      43.452  27.413  27.706  1.00  0.00    -0.354 N 
ATOM     39  C   UNL A   1      39.849  28.960  29.554  1.00  0.00     0.074 A 
ATOM     40  C   UNL A   1      38.788  27.977  29.509  1.00  0.00     0.031 C 
ATOM     41  C   UNL A   1      44.732  25.876  26.708  1.00  0.00     0.029 A 
ATOM     42  C   UNL A   1      44.720  27.253  27.197  1.00  0.00     0.049 A 
ATOM     43  H   UNL A   1      43.151  28.237  28.153  1.00  0.00     0.167 HD
ATOM     44  C   UNL A   1      39.737  30.183  30.129  1.00  0.00     0.034 A 
ATOM     45  C   UNL A   1      45.744  28.127  27.116  1.00  0.00     0.034 A 
ATOM     46  C   UNL A   1      40.803  31.156  30.156  1.00  0.00     0.049 A 
ATOM     47  C   UNL A   1      45.569  29.515  27.684  1.00  0.00     0.074 A 
ATOM     48  C   UNL A   1      40.803  32.420  30.720  1.00  0.00     0.029 A 
ATOM     49  N   UNL A   1      42.055  30.980  29.582  1.00  0.00    -0.354 N 
ATOM     50  N   UNL A   1      44.525  30.038  28.285  1.00  0.00    -0.248 NA
ATOM     51  C   UNL A   1      46.715  30.428  27.569  1.00  0.00     0.031 C 
ATOM     52  C   UNL A   1      42.025  33.034  30.425  1.00  0.00     0.029 A 
ATOM     53  C   UNL A   1      42.822  32.124  29.747  1.00  0.00     0.049 A 
ATOM     54  H   UNL A   1      42.356  30.161  29.125  1.00  0.00     0.167 HD
ATOM     55  C   UNL A   1      44.901  31.329  28.648  1.00  0.00     0.074 A 
ATOM     56  C   UNL A   1      46.270  31.500  28.208  1.00  0.00     0.031 C 
ATOM     57  C   UNL A   1      44.183  32.285  29.291  1.00  0.00     0.034 A 
BRANCH  44  58
ATOM     58  C   UNL A   1      38.399  30.549  30.724  1.00  0.00     0.023 A 
ATOM     59  C   UNL A   1      37.404  31.198  29.971  1.00  0.00     0.031 A 
ATOM     60  C   UNL A   1      38.126  30.274  32.076  1.00  0.00     0.131 A 
ATOM     61  C   UNL A   1      36.214  31.611  30.592  1.00  0.00     0.055 A 
ATOM     62  C   UNL A   1      36.909  30.618  32.667  1.00  0.00     0.041 A 
ATOM     63  F   UNL A   1      39.046  29.679  32.851  1.00  0.00    -0.206 F 
ATOM     64  C   UNL A   1      35.950  31.304  31.929  1.00  0.00     0.022 A 
BRANCH  61  65
ATOM     65  S   UNL A   1      35.077  32.678  29.665  1.00  0.00     0.124 S 
ATOM     66  O   UNL A   1      34.327  31.700  28.882  1.00  0.00    -0.237 OA
ATOM     67  O   UNL A   1      34.339  33.350  30.728  1.00  0.00    -0.237 OA
ATOM     68  O   UNL A   1      35.969  33.536  28.887  1.00  0.00    -0.744 OA
ENDBRANCH  61  65
ENDBRANCH  44  58
BRANCH  45  69
ATOM     69  C   UNL A   1      47.014  27.741  26.434  1.00  0.00     0.023 A 
ATOM     70  C   UNL A   1      47.190  27.932  25.054  1.00  0.00     0.031 A 
ATOM     71  C   UNL A   1      48.054  27.123  27.151  1.00  0.00     0.131 A 
ATOM     72  C   UNL A   1      48.358  27.469  24.428  1.00  0.00     0.055 A 
ATOM     73  C   UNL A   1      49.235  26.711  26.533  1.00  0.00     0.041 A 
ATOM     74  F   UNL A   1      47.938  26.915  28.473  1.00  0.00    -0.206 F 
ATOM     75  C   UNL A   1      49.387  26.872  25.159  1.00  0.00     0.022 A 
BRANCH  72  76
ATOM     76  S   UNL A   1      48.480  27.583  22.622  1.00  0.00     0.124 S 
ATOM     77  O   UNL A   1      49.711  28.345  22.453  1.00  0.00    -0.237 OA
ATOM     78  O   UNL A   1      48.536  26.177  22.233  1.00  0.00    -0.237 OA
ATOM     79  O   UNL A   1      47.254  28.283  22.242  1.00  0.00    -0.744 OA
ENDBRANCH  72  76
ENDBRANCH  45  69
BRANCH  57  80
ATOM     80  C   UNL A   1      44.888  33.586  29.596  1.00  0.00     0.023 A 
ATOM     81  C   UNL A   1      45.590  33.785  30.798  1.00  0.00     0.031 A 
ATOM     82  C   UNL A   1      44.844  34.646  28.672  1.00  0.00     0.131 A 
ATOM     83  C   UNL A   1      46.174  35.032  31.067  1.00  0.00     0.055 A 
ATOM     84  C   UNL A   1      45.479  35.864  28.919  1.00  0.00     0.041 A 
ATOM     85  F   UNL A   1      44.187  34.512  27.508  1.00  0.00    -0.206 F 
ATOM     86  C   UNL A   1      46.137  36.068  30.128  1.00  0.00     0.022 A 
BRANCH  83  87
ATOM     87  S   UNL A   1      46.905  35.319  32.702  1.00  0.00     0.124 S 
ATOM     88  O   UNL A   1      48.250  34.777  32.532  1.00  0.00    -0.237 OA
ATOM     89  O   UNL A   1      46.815  36.769  32.835  1.00  0.00    -0.237 OA
ATOM     90  O   UNL A   1      46.040  34.559  33.604  1.00  0.00    -0.744 OA
ENDBRANCH  83  87
ENDBRANCH  57  80
ENDBRANCH  31  32
ENDBRANCH  24  26
ENDBRANCH  23  24
ENDBRANCH  22  23
ENDBRANCH   1  22
TORSDOF 19
ENDMDL
MODEL 2
REMARK VINA RESULT:     -11.0      2.159      7.968
REMARK SMILES C[C@H](c1ccncc1)N1C[C@H](C(=O)OCCOCCOC(=O)c2ccc(-c3c4nc(c(-c5cc(S(=O)(=O)[O-])ccc5F)c5ccc([nH]5)c(-c5cc(S(=O)(=O)[O-])ccc5F)c5nc(c(-c6cc(S(=O)(=O)[O-])ccc6F)c6ccc3[nH]6)C=C5)C=C4)cc2)CC1=O
REMARK SMILES IDX 18 1 17 2 16 3 15 4 14 5 12 6 13 7 11 8 9 9 10 10 87 11
REMARK SMILES IDX 86 12 88 13 2 14 1 15 3 16 4 17 8 18 5 19 7 20 6 21 19 22
REMARK SMILES IDX 20 23 21 24 22 25 23 26 24 27 85 28 25 29 84 30 26 31 27 32
REMARK SMILES IDX 28 33 78 34 29 35 83 36 77 37 79 38 30 39 82 40 76 41 75 42
REMARK SMILES IDX 31 44 63 45 43 46 62 47 44 48 47 49 61 50 80 51 45 52 46 53
REMARK SMILES IDX 60 55 81 56 48 57 32 58 33 59 41 60 34 61 40 62 42 63 39 64
REMARK SMILES IDX 35 65 36 66 37 67 38 68 64 69 65 70 73 71 66 72 72 73 74 74
REMARK SMILES IDX 71 75 67 76 68 77 69 78 70 79 49 80 50 81 58 82 51 83 57 84
REMARK SMILES IDX 59 85 56 86 52 87 53 88 54 89 55 90
REMARK H PARENT 79 43 47 54
REMARK Flexibility Score: inf
ROOT
ATOM      1  C   UNL A   1      35.875  20.962  25.107  1.00  0.00     0.202 C 
ENDROOT
BRANCH   1   2
ATOM      2  O   UNL A   1      35.546  21.532  26.374  1.00  0.00    -0.374 OA
BRANCH   2   3
ATOM      3  C   UNL A   1      34.179  21.455  26.779  1.00  0.00     0.202 C 
BRANCH   3   4
ATOM      4  C   UNL A   1      33.270  20.528  25.964  1.00  0.00     0.261 C 
BRANCH   4   5
ATOM      5  O   UNL A   1      32.285  21.251  25.197  1.00  0.00    -0.463 OA
BRANCH   5   6
ATOM      6  C   UNL A   1      32.259  20.986  23.865  1.00  0.00     0.311 C 
ATOM      7  O   UNL A   1      32.478  19.885  23.372  1.00  0.00    -0.252 OA
BRANCH   6   8
ATOM      8  C   UNL A   1      32.007  22.230  23.023  1.00  0.00     0.128 C 
ATOM      9  N   UNL A   1      33.132  24.012  24.055  1.00  0.00    -0.335 N 
ATOM     10  C   UNL A   1      31.810  23.433  23.939  1.00  0.00     0.136 C 
ATOM     11  C   UNL A   1      33.970  23.569  23.041  1.00  0.00     0.224 C 
ATOM     12  C   UNL A   1      33.166  22.670  22.131  1.00  0.00     0.117 C 
ATOM     13  O   UNL A   1      35.149  23.839  22.893  1.00  0.00    -0.275 OA
BRANCH   9  14
ATOM     14  C   UNL A   1      33.595  24.835  25.180  1.00  0.00     0.112 C 
ATOM     15  C   UNL A   1      32.879  24.562  26.507  1.00  0.00     0.036 C 
BRANCH  14  16
ATOM     16  C   UNL A   1      33.536  26.323  24.872  1.00  0.00    -0.023 A 
ATOM     17  C   UNL A   1      33.714  27.295  25.860  1.00  0.00     0.026 A 
ATOM     18  C   UNL A   1      33.318  26.752  23.557  1.00  0.00     0.026 A 
ATOM     19  C   UNL A   1      33.672  28.632  25.491  1.00  0.00     0.111 A 
ATOM     20  C   UNL A   1      33.295  28.111  23.289  1.00  0.00     0.111 A 
ATOM     21  N   UNL A   1      33.479  29.064  24.226  1.00  0.00    -0.265 NA
ENDBRANCH  14  16
ENDBRANCH   9  14
ENDBRANCH   6   8
ENDBRANCH   5   6
ENDBRANCH   4   5
ENDBRANCH   3   4
ENDBRANCH   2   3
ENDBRANCH   1   2
BRANCH   1  22
ATOM     22  C   UNL A   1      37.212  20.220  24.988  1.00  0.00     0.261 C 
BRANCH  22  23
ATOM     23  O   UNL A   1      38.339  21.117  24.968  1.00  0.00    -0.460 OA
BRANCH  23  24
ATOM     24  C   UNL A   1      39.274  20.862  25.914  1.00  0.00     0.338 C 
ATOM     25  O   UNL A   1      39.849  19.798  26.111  1.00  0.00    -0.246 OA
BRANCH  24  26
ATOM     26  C   UNL A   1      39.685  22.112  26.583  1.00  0.00     0.060 A 
ATOM     27  C   UNL A   1      39.053  23.292  26.173  1.00  0.00     0.016 A 
ATOM     28  C   UNL A   1      40.711  22.150  27.531  1.00  0.00     0.016 A 
ATOM     29  C   UNL A   1      39.484  24.523  26.661  1.00  0.00     0.010 A 
ATOM     30  C   UNL A   1      41.147  23.390  28.016  1.00  0.00     0.010 A 
ATOM     31  C   UNL A   1      40.562  24.583  27.552  1.00  0.00    -0.014 A 
BRANCH  31  32
ATOM     32  C   UNL A   1      41.173  25.902  27.857  1.00  0.00     0.031 A 
ATOM     33  C   UNL A   1      42.585  26.170  27.407  1.00  0.00     0.074 A 
ATOM     34  C   UNL A   1      40.463  26.866  28.471  1.00  0.00     0.049 A 
ATOM     35  N   UNL A   1      43.320  27.240  27.565  1.00  0.00    -0.248 NA
ATOM     36  C   UNL A   1      43.254  25.079  26.680  1.00  0.00     0.031 C 
ATOM     37  C   UNL A   1      39.073  26.742  28.906  1.00  0.00     0.029 A 
ATOM     38  N   UNL A   1      40.816  28.143  28.834  1.00  0.00    -0.354 N 
ATOM     39  C   UNL A   1      44.540  26.954  26.960  1.00  0.00     0.074 A 
ATOM     40  C   UNL A   1      44.456  25.595  26.468  1.00  0.00     0.031 C 
ATOM     41  C   UNL A   1      38.692  27.895  29.483  1.00  0.00     0.029 A 
ATOM     42  C   UNL A   1      39.820  28.824  29.492  1.00  0.00     0.049 A 
ATOM     43  H   UNL A   1      41.699  28.533  28.640  1.00  0.00     0.167 HD
ATOM     44  C   UNL A   1      45.626  27.754  26.818  1.00  0.00     0.034 A 
ATOM     45  C   UNL A   1      39.826  30.050  30.056  1.00  0.00     0.034 A 
ATOM     46  C   UNL A   1      45.698  29.104  27.324  1.00  0.00     0.049 A 
ATOM     47  C   UNL A   1      41.077  30.891  29.964  1.00  0.00     0.074 A 
ATOM     48  C   UNL A   1      46.743  30.006  27.228  1.00  0.00     0.029 A 
ATOM     49  N   UNL A   1      44.689  29.742  28.033  1.00  0.00    -0.354 N 
ATOM     50  N   UNL A   1      42.222  30.612  29.385  1.00  0.00    -0.248 NA
ATOM     51  C   UNL A   1      41.032  32.218  30.595  1.00  0.00     0.031 C 
ATOM     52  C   UNL A   1      46.395  31.159  27.940  1.00  0.00     0.029 A 
ATOM     53  C   UNL A   1      45.100  31.012  28.412  1.00  0.00     0.049 A 
ATOM     54  H   UNL A   1      43.809  29.351  28.238  1.00  0.00     0.167 HD
ATOM     55  C   UNL A   1      43.021  31.740  29.556  1.00  0.00     0.074 A 
ATOM     56  C   UNL A   1      42.222  32.706  30.281  1.00  0.00     0.031 C 
ATOM     57  C   UNL A   1      44.297  31.960  29.147  1.00  0.00     0.034 A 
BRANCH  44  58
ATOM     58  C   UNL A   1      46.837  27.164  26.137  1.00  0.00     0.023 A 
ATOM     59  C   UNL A   1      47.819  26.454  26.850  1.00  0.00     0.031 A 
ATOM     60  C   UNL A   1      47.029  27.343  24.755  1.00  0.00     0.131 A 
ATOM     61  C   UNL A   1      48.979  26.011  26.194  1.00  0.00     0.055 A 
ATOM     62  C   UNL A   1      48.148  26.832  24.093  1.00  0.00     0.041 A 
ATOM     63  F   UNL A   1      46.138  28.033  24.025  1.00  0.00    -0.206 F 
ATOM     64  C   UNL A   1      49.138  26.174  24.816  1.00  0.00     0.022 A 
BRANCH  61  65
ATOM     65  S   UNL A   1      50.339  25.344  27.191  1.00  0.00     0.124 S 
ATOM     66  O   UNL A   1      51.327  25.021  26.164  1.00  0.00    -0.237 OA
ATOM     67  O   UNL A   1      50.667  26.463  28.066  1.00  0.00    -0.237 OA
ATOM     68  O   UNL A   1      49.742  24.187  27.856  1.00  0.00    -0.744 OA
ENDBRANCH  61  65
ENDBRANCH  44  58
BRANCH  45  69
ATOM     69  C   UNL A   1      38.631  30.546  30.798  1.00  0.00     0.023 A 
ATOM     70  C   UNL A   1      37.575  31.193  30.136  1.00  0.00     0.031 A 
ATOM     71  C   UNL A   1      38.556  30.426  32.198  1.00  0.00     0.131 A 
ATOM     72  C   UNL A   1      36.513  31.734  30.878  1.00  0.00     0.055 A 
ATOM     73  C   UNL A   1      37.472  30.920  32.925  1.00  0.00     0.041 A 
ATOM     74  F   UNL A   1      39.539  29.817  32.881  1.00  0.00    -0.206 F 
ATOM     75  C   UNL A   1      36.447  31.591  32.265  1.00  0.00     0.022 A 
BRANCH  72  76
ATOM     76  S   UNL A   1      35.252  32.705  30.007  1.00  0.00     0.124 S 
ATOM     77  O   UNL A   1      34.348  33.063  31.094  1.00  0.00    -0.237 OA
ATOM     78  O   UNL A   1      36.045  33.795  29.445  1.00  0.00    -0.237 OA
ATOM     79  O   UNL A   1      34.712  31.763  29.029  1.00  0.00    -0.744 OA
ENDBRANCH  72  76
ENDBRANCH  45  69
BRANCH  57  80
ATOM     80  C   UNL A   1      44.887  33.320  29.437  1.00  0.00     0.023 A 
ATOM     81  C   UNL A   1      44.758  34.393  28.536  1.00  0.00     0.031 A 
ATOM     82  C   UNL A   1      45.599  33.541  30.630  1.00  0.00     0.131 A 
ATOM     83  C   UNL A   1      45.378  35.619  28.817  1.00  0.00     0.055 A 
ATOM     84  C   UNL A   1      46.162  34.782  30.931  1.00  0.00     0.041 A 
ATOM     85  F   UNL A   1      45.754  32.553  31.526  1.00  0.00    -0.206 F 
ATOM     86  C   UNL A   1      46.066  35.826  30.016  1.00  0.00     0.022 A 
BRANCH  83  87
ATOM     87  S   UNL A   1      45.356  36.918  27.551  1.00  0.00     0.124 S 
ATOM     88  O   UNL A   1      45.717  38.102  28.324  1.00  0.00    -0.237 OA
ATOM     89  O   UNL A   1      46.360  36.446  26.602  1.00  0.00    -0.237 OA
ATOM     90  O   UNL A   1      43.980  36.895  27.058  1.00  0.00    -0.744 OA
ENDBRANCH  83  87
ENDBRANCH  57  80
ENDBRANCH  31  32
ENDBRANCH  24  26
ENDBRANCH  23  24
ENDBRANCH  22  23
ENDBRANCH   1  22
TORSDOF 19
ENDMDL
MODEL 3
REMARK VINA RESULT:     -10.8      4.617      7.920
REMARK SMILES C[C@H](c1ccncc1)N1C[C@H](C(=O)OCCOCCOC(=O)c2ccc(-c3c4nc(c(-c5cc(S(=O)(=O)[O-])ccc5F)c5ccc([nH]5)c(-c5cc(S(=O)(=O)[O-])ccc5F)c5nc(c(-c6cc(S(=O)(=O)[O-])ccc6F)c6ccc3[nH]6)C=C5)C=C4)cc2)CC1=O
REMARK SMILES IDX 18 1 17 2 16 3 15 4 14 5 12 6 13 7 11 8 9 9 10 10 87 11
REMARK SMILES IDX 86 12 88 13 2 14 1 15 3 16 4 17 8 18 5 19 7 20 6 21 19 22
REMARK SMILES IDX 20 23 21 24 22 25 23 26 24 27 85 28 25 29 84 30 26 31 27 32
REMARK SMILES IDX 28 33 78 34 29 35 83 36 77 37 79 38 30 39 82 40 76 41 75 42
REMARK SMILES IDX 31 44 63 45 43 46 62 47 44 48 47 49 61 50 80 51 45 52 46 53
REMARK SMILES IDX 60 55 81 56 48 57 32 58 33 59 41 60 34 61 40 62 42 63 39 64
REMARK SMILES IDX 35 65 36 66 37 67 38 68 64 69 65 70 73 71 66 72 72 73 74 74
REMARK SMILES IDX 71 75 67 76 68 77 69 78 70 79 49 80 50 81 58 82 51 83 57 84
REMARK SMILES IDX 59 85 56 86 52 87 53 88 54 89 55 90
REMARK H PARENT 79 43 47 54
REMARK Flexibility Score: inf
ROOT
ATOM      1  C   UNL A   1      31.300  31.268  26.196  1.00  0.00     0.202 C 
ENDROOT
BRANCH   1   2
ATOM      2  O   UNL A   1      31.997  30.166  26.777  1.00  0.00    -0.374 OA
BRANCH   2   3
ATOM      3  C   UNL A   1      32.176  29.013  25.954  1.00  0.00     0.202 C 
BRANCH   3   4
ATOM      4  C   UNL A   1      32.261  29.250  24.442  1.00  0.00     0.261 C 
BRANCH   4   5
ATOM      5  O   UNL A   1      31.289  28.482  23.704  1.00  0.00    -0.463 OA
BRANCH   5   6
ATOM      6  C   UNL A   1      31.775  27.420  23.010  1.00  0.00     0.311 C 
ATOM      7  O   UNL A   1      32.780  27.451  22.308  1.00  0.00    -0.252 OA
BRANCH   6   8
ATOM      8  C   UNL A   1      30.891  26.185  23.127  1.00  0.00     0.128 C 
ATOM      9  N   UNL A   1      31.725  24.895  24.902  1.00  0.00    -0.335 N 
ATOM     10  C   UNL A   1      31.754  24.971  23.456  1.00  0.00     0.136 C 
ATOM     11  C   UNL A   1      30.669  25.627  25.427  1.00  0.00     0.224 C 
ATOM     12  C   UNL A   1      29.881  26.202  24.273  1.00  0.00     0.117 C 
ATOM     13  O   UNL A   1      30.406  25.795  26.605  1.00  0.00    -0.275 OA
BRANCH   9  14
ATOM     14  C   UNL A   1      32.759  24.266  25.733  1.00  0.00     0.112 C 
ATOM     15  C   UNL A   1      34.111  24.989  25.725  1.00  0.00     0.036 C 
BRANCH  14  16
ATOM     16  C   UNL A   1      32.969  22.801  25.387  1.00  0.00    -0.023 A 
ATOM     17  C   UNL A   1      31.926  21.872  25.417  1.00  0.00     0.026 A 
ATOM     18  C   UNL A   1      34.239  22.352  25.003  1.00  0.00     0.026 A 
ATOM     19  C   UNL A   1      32.195  20.558  25.061  1.00  0.00     0.111 A 
ATOM     20  C   UNL A   1      34.408  21.020  24.664  1.00  0.00     0.111 A 
ATOM     21  N   UNL A   1      33.409  20.112  24.672  1.00  0.00    -0.265 NA
ENDBRANCH  14  16
ENDBRANCH   9  14
ENDBRANCH   6   8
ENDBRANCH   5   6
ENDBRANCH   4   5
ENDBRANCH   3   4
ENDBRANCH   2   3
ENDBRANCH   1   2
BRANCH   1  22
ATOM     22  C   UNL A   1      31.469  32.643  26.856  1.00  0.00     0.261 C 
BRANCH  22  23
ATOM     23  O   UNL A   1      32.804  33.163  26.708  1.00  0.00    -0.460 OA
BRANCH  23  24
ATOM     24  C   UNL A   1      33.347  33.648  27.851  1.00  0.00     0.338 C 
ATOM     25  O   UNL A   1      32.824  34.428  28.637  1.00  0.00    -0.246 OA
BRANCH  24  26
ATOM     26  C   UNL A   1      34.611  32.952  28.157  1.00  0.00     0.060 A 
ATOM     27  C   UNL A   1      34.521  31.616  28.566  1.00  0.00     0.016 A 
ATOM     28  C   UNL A   1      35.849  33.600  28.122  1.00  0.00     0.016 A 
ATOM     29  C   UNL A   1      35.657  30.939  29.001  1.00  0.00     0.010 A 
ATOM     30  C   UNL A   1      36.989  32.918  28.567  1.00  0.00     0.010 A 
ATOM     31  C   UNL A   1      36.891  31.599  29.046  1.00  0.00    -0.014 A 
BRANCH  31  32
ATOM     32  C   UNL A   1      38.029  30.954  29.750  1.00  0.00     0.031 A 
ATOM     33  C   UNL A   1      38.291  31.317  31.188  1.00  0.00     0.074 A 
ATOM     34  C   UNL A   1      38.778  30.018  29.139  1.00  0.00     0.049 A 
ATOM     35  N   UNL A   1      39.225  30.889  31.997  1.00  0.00    -0.248 NA
ATOM     36  C   UNL A   1      37.374  32.297  31.790  1.00  0.00     0.031 C 
ATOM     37  C   UNL A   1      38.585  29.547  27.769  1.00  0.00     0.029 A 
ATOM     38  N   UNL A   1      39.852  29.295  29.596  1.00  0.00    -0.354 N 
ATOM     39  C   UNL A   1      39.011  31.546  33.204  1.00  0.00     0.074 A 
ATOM     40  C   UNL A   1      37.883  32.431  33.005  1.00  0.00     0.031 C 
ATOM     41  C   UNL A   1      39.516  28.616  27.494  1.00  0.00     0.029 A 
ATOM     42  C   UNL A   1      40.391  28.452  28.653  1.00  0.00     0.049 A 
ATOM     43  H   UNL A   1      40.202  29.372  30.513  1.00  0.00     0.167 HD
ATOM     44  C   UNL A   1      39.686  31.416  34.374  1.00  0.00     0.034 A 
ATOM     45  C   UNL A   1      41.478  27.657  28.712  1.00  0.00     0.034 A 
ATOM     46  C   UNL A   1      40.816  30.536  34.552  1.00  0.00     0.049 A 
ATOM     47  C   UNL A   1      42.270  27.594  29.997  1.00  0.00     0.074 A 
ATOM     48  C   UNL A   1      41.566  30.318  35.695  1.00  0.00     0.029 A 
ATOM     49  N   UNL A   1      41.367  29.738  33.559  1.00  0.00    -0.354 N 
ATOM     50  N   UNL A   1      42.054  28.217  31.133  1.00  0.00    -0.248 NA
ATOM     51  C   UNL A   1      43.446  26.713  30.009  1.00  0.00     0.031 C 
ATOM     52  C   UNL A   1      42.613  29.447  35.373  1.00  0.00     0.029 A 
ATOM     53  C   UNL A   1      42.470  29.055  34.051  1.00  0.00     0.049 A 
ATOM     54  H   UNL A   1      41.026  29.667  32.638  1.00  0.00     0.167 HD
ATOM     55  C   UNL A   1      43.050  27.778  32.004  1.00  0.00     0.074 A 
ATOM     56  C   UNL A   1      43.857  26.830  31.263  1.00  0.00     0.031 C 
ATOM     57  C   UNL A   1      43.274  28.122  33.297  1.00  0.00     0.034 A 
BRANCH  44  58
ATOM     58  C   UNL A   1      39.249  32.287  35.526  1.00  0.00     0.023 A 
ATOM     59  C   UNL A   1      39.715  33.605  35.680  1.00  0.00     0.031 A 
ATOM     60  C   UNL A   1      38.376  31.780  36.506  1.00  0.00     0.131 A 
ATOM     61  C   UNL A   1      39.364  34.344  36.821  1.00  0.00     0.055 A 
ATOM     62  C   UNL A   1      37.968  32.548  37.599  1.00  0.00     0.041 A 
ATOM     63  F   UNL A   1      37.917  30.521  36.425  1.00  0.00    -0.206 F 
ATOM     64  C   UNL A   1      38.474  33.833  37.769  1.00  0.00     0.022 A 
BRANCH  61  65
ATOM     65  S   UNL A   1      40.196  35.927  37.120  1.00  0.00     0.124 S 
ATOM     66  O   UNL A   1      41.602  35.535  37.076  1.00  0.00    -0.237 OA
ATOM     67  O   UNL A   1      39.724  36.746  36.009  1.00  0.00    -0.237 OA
ATOM     68  O   UNL A   1      39.709  36.327  38.439  1.00  0.00    -0.744 OA
ENDBRANCH  61  65
ENDBRANCH  44  58
BRANCH  45  69
ATOM     69  C   UNL A   1      41.919  26.888  27.512  1.00  0.00     0.023 A 
ATOM     70  C   UNL A   1      41.717  25.502  27.417  1.00  0.00     0.031 A 
ATOM     71  C   UNL A   1      42.600  27.528  26.461  1.00  0.00     0.131 A 
ATOM     72  C   UNL A   1      42.232  24.795  26.319  1.00  0.00     0.055 A 
ATOM     73  C   UNL A   1      43.064  26.828  25.346  1.00  0.00     0.041 A 
ATOM     74  F   UNL A   1      42.821  28.852  26.501  1.00  0.00    -0.206 F 
ATOM     75  C   UNL A   1      42.891  25.449  25.277  1.00  0.00     0.022 A 
BRANCH  72  76
ATOM     76  S   UNL A   1      42.098  22.985  26.311  1.00  0.00     0.124 S 
ATOM     77  O   UNL A   1      40.660  22.792  26.453  1.00  0.00    -0.237 OA
ATOM     78  O   UNL A   1      42.667  22.646  25.010  1.00  0.00    -0.237 OA
ATOM     79  O   UNL A   1      42.900  22.580  27.464  1.00  0.00    -0.744 OA
ENDBRANCH  72  76
ENDBRANCH  45  69
BRANCH  57  80
ATOM     80  C   UNL A   1      44.415  27.430  34.005  1.00  0.00     0.023 A 
ATOM     81  C   UNL A   1      44.206  26.308  34.827  1.00  0.00     0.031 A 
ATOM     82  C   UNL A   1      45.730  27.909  33.863  1.00  0.00     0.131 A 
ATOM     83  C   UNL A   1      45.286  25.737  35.517  1.00  0.00     0.055 A 
ATOM     84  C   UNL A   1      46.809  27.300  34.504  1.00  0.00     0.041 A 
ATOM     85  F   UNL A   1      45.987  28.978  33.091  1.00  0.00    -0.206 F 
ATOM     86  C   UNL A   1      46.589  26.215  35.348  1.00  0.00     0.022 A 
BRANCH  83  87
ATOM     87  S   UNL A   1      44.956  24.415  36.716  1.00  0.00     0.124 S 
ATOM     88  O   UNL A   1      44.754  23.260  35.846  1.00  0.00    -0.237 OA
ATOM     89  O   UNL A   1      46.178  24.406  37.514  1.00  0.00    -0.237 OA
ATOM     90  O   UNL A   1      43.761  24.879  37.418  1.00  0.00    -0.744 OA
ENDBRANCH  83  87
ENDBRANCH  57  80
ENDBRANCH  31  32
ENDBRANCH  24  26
ENDBRANCH  23  24
ENDBRANCH  22  23
ENDBRANCH   1  22
TORSDOF 19
ENDMDL
