MODEL 1
REMARK VINA RESULT:     -11.1      0.000      0.000
REMARK SMILES Cc1ncn(CC[C@@H]2CCC[C@@]2([NH3+])C(=O)OCCOCCOC(=O)c2ccc(-c3c4nc(c(-c5cc(S(=O)(=O)[O-])ccc5F)c5ccc([nH]5)c(-c5cc(S(=O)(=O)[O-])ccc5F)c5nc(c(-c6cc(S(=O)(=O)[O-])ccc6F)c6ccc3[nH]6)C=C5)C=C4)cc2)c1C
REMARK SMILES IDX 19 1 18 2 17 3 16 4 14 5 15 6 12 7 8 8 9 9 10 10 11 11 7 12
REMARK SMILES IDX 6 13 5 14 1 15 2 16 3 17 88 18 4 19 89 20 13 21 20 25 21 26
REMARK SMILES IDX 22 27 23 28 24 29 25 30 26 31 87 32 27 33 86 34 28 35 29 36
REMARK SMILES IDX 30 37 80 38 31 39 85 40 79 41 81 42 32 43 84 44 78 45 77 46
REMARK SMILES IDX 33 48 65 49 45 50 64 51 46 52 49 53 63 54 82 55 47 56 48 57
REMARK SMILES IDX 62 59 83 60 50 61 34 62 35 63 43 64 36 65 42 66 44 67 41 68
REMARK SMILES IDX 37 69 38 70 39 71 40 72 66 73 67 74 75 75 68 76 74 77 76 78
REMARK SMILES IDX 73 79 69 80 70 81 71 82 72 83 51 84 52 85 60 86 53 87 59 88
REMARK SMILES IDX 61 89 58 90 54 91 55 92 56 93 57 94
REMARK H PARENT 13 22 13 23 13 24 81 47 49 58
REMARK Flexibility Score: inf
ROOT
ATOM      1  O   UNL A   1      44.179  40.602  25.485  1.00  0.00    -0.374 OA
ENDROOT
BRANCH   1   2
ATOM      2  C   UNL A   1      43.540  41.865  25.326  1.00  0.00     0.202 C 
BRANCH   2   3
ATOM      3  C   UNL A   1      42.506  42.106  24.218  1.00  0.00     0.261 C 
BRANCH   3   4
ATOM      4  O   UNL A   1      42.837  43.128  23.257  1.00  0.00    -0.459 OA
BRANCH   4   5
ATOM      5  C   UNL A   1      43.321  42.586  22.108  1.00  0.00     0.368 C 
ATOM      6  O   UNL A   1      42.691  41.745  21.484  1.00  0.00    -0.245 OA
BRANCH   5   7
ATOM      7  C   UNL A   1      44.682  43.135  21.640  1.00  0.00     0.195 C 
ATOM      8  C   UNL A   1      44.467  44.424  20.797  1.00  0.00     0.064 C 
ATOM      9  C   UNL A   1      45.842  45.090  20.752  1.00  0.00     0.011 C 
ATOM     10  C   UNL A   1      46.473  44.749  22.106  1.00  0.00     0.008 C 
ATOM     11  C   UNL A   1      45.530  43.739  22.778  1.00  0.00     0.081 C 
BRANCH   8  12
ATOM     12  C   UNL A   1      43.744  44.345  19.450  1.00  0.00     0.032 C 
BRANCH  12  13
ATOM     13  C   UNL A   1      44.270  45.296  18.342  1.00  0.00     0.124 C 
BRANCH  13  14
ATOM     14  N   UNL A   1      43.304  45.974  17.486  1.00  0.00    -0.335 N 
ATOM     15  C   UNL A   1      41.244  48.442  15.768  1.00  0.00     0.069 C 
ATOM     16  C   UNL A   1      41.948  47.282  16.362  1.00  0.00     0.058 A 
ATOM     17  N   UNL A   1      41.633  46.004  15.998  1.00  0.00    -0.242 NA
ATOM     18  C   UNL A   1      42.927  47.300  17.343  1.00  0.00     0.037 A 
ATOM     19  C   UNL A   1      42.423  45.245  16.715  1.00  0.00     0.199 A 
ATOM     20  C   UNL A   1      43.405  48.519  18.050  1.00  0.00     0.066 C 
ENDBRANCH  13  14
ENDBRANCH  12  13
ENDBRANCH   8  12
BRANCH   7  21
ATOM     21  N   UNL A   1      45.446  42.088  20.931  1.00  0.00    -0.343 N 
ATOM     22  H   UNL A   1      46.016  42.517  20.202  1.00  0.00     0.345 HD
ATOM     23  H   UNL A   1      44.799  41.422  20.509  1.00  0.00     0.345 HD
ATOM     24  H   UNL A   1      46.051  41.601  21.593  1.00  0.00     0.345 HD
ENDBRANCH   7  21
ENDBRANCH   5   7
ENDBRANCH   4   5
ENDBRANCH   3   4
ENDBRANCH   2   3
ENDBRANCH   1   2
BRANCH   1  25
ATOM     25  C   UNL A   1      43.872  39.741  26.571  1.00  0.00     0.202 C 
BRANCH  25  26
ATOM     26  C   UNL A   1      44.707  38.497  26.837  1.00  0.00     0.261 C 
BRANCH  26  27
ATOM     27  O   UNL A   1      43.915  37.379  27.194  1.00  0.00    -0.460 OA
BRANCH  27  28
ATOM     28  C   UNL A   1      44.665  36.309  27.554  1.00  0.00     0.338 C 
ATOM     29  O   UNL A   1      45.584  35.818  26.931  1.00  0.00    -0.246 OA
BRANCH  28  30
ATOM     30  C   UNL A   1      44.120  35.739  28.786  1.00  0.00     0.060 A 
ATOM     31  C   UNL A   1      44.062  34.347  28.839  1.00  0.00     0.016 A 
ATOM     32  C   UNL A   1      43.406  36.558  29.672  1.00  0.00     0.016 A 
ATOM     33  C   UNL A   1      43.083  33.775  29.617  1.00  0.00     0.010 A 
ATOM     34  C   UNL A   1      42.423  35.986  30.437  1.00  0.00     0.010 A 
ATOM     35  C   UNL A   1      42.211  34.614  30.321  1.00  0.00    -0.014 A 
BRANCH  35  36
ATOM     36  C   UNL A   1      41.151  34.003  31.091  1.00  0.00     0.031 A 
ATOM     37  C   UNL A   1      41.580  33.816  32.491  1.00  0.00     0.074 A 
ATOM     38  C   UNL A   1      39.926  33.756  30.589  1.00  0.00     0.049 A 
ATOM     39  N   UNL A   1      42.021  32.730  33.033  1.00  0.00    -0.248 NA
ATOM     40  C   UNL A   1      41.846  35.028  33.290  1.00  0.00     0.031 C 
ATOM     41  C   UNL A   1      39.388  34.155  29.284  1.00  0.00     0.029 A 
ATOM     42  N   UNL A   1      38.857  33.155  31.180  1.00  0.00    -0.354 N 
ATOM     43  C   UNL A   1      42.303  33.083  34.346  1.00  0.00     0.074 A 
ATOM     44  C   UNL A   1      42.486  34.505  34.337  1.00  0.00     0.031 C 
ATOM     45  C   UNL A   1      38.043  33.985  29.278  1.00  0.00     0.029 A 
ATOM     46  C   UNL A   1      37.643  33.336  30.516  1.00  0.00     0.049 A 
ATOM     47  H   UNL A   1      38.935  32.632  32.011  1.00  0.00     0.167 HD
ATOM     48  C   UNL A   1      41.953  32.246  35.361  1.00  0.00     0.034 A 
ATOM     49  C   UNL A   1      36.404  33.006  30.982  1.00  0.00     0.034 A 
ATOM     50  C   UNL A   1      41.696  30.918  34.842  1.00  0.00     0.049 A 
ATOM     51  C   UNL A   1      36.619  31.973  32.023  1.00  0.00     0.074 A 
ATOM     52  C   UNL A   1      42.440  29.929  34.235  1.00  0.00     0.029 A 
ATOM     53  N   UNL A   1      40.378  30.663  34.547  1.00  0.00    -0.354 N 
ATOM     54  N   UNL A   1      37.109  30.791  31.760  1.00  0.00    -0.248 NA
ATOM     55  C   UNL A   1      36.722  32.385  33.416  1.00  0.00     0.031 C 
ATOM     56  C   UNL A   1      41.549  29.278  33.328  1.00  0.00     0.029 A 
ATOM     57  C   UNL A   1      40.274  29.832  33.463  1.00  0.00     0.049 A 
ATOM     58  H   UNL A   1      39.613  31.027  35.047  1.00  0.00     0.167 HD
ATOM     59  C   UNL A   1      37.951  30.508  32.822  1.00  0.00     0.074 A 
ATOM     60  C   UNL A   1      37.552  31.442  33.872  1.00  0.00     0.031 C 
ATOM     61  C   UNL A   1      39.080  29.760  32.632  1.00  0.00     0.034 A 
BRANCH  48  62
ATOM     62  C   UNL A   1      41.332  32.718  36.671  1.00  0.00     0.023 A 
ATOM     63  C   UNL A   1      40.002  32.324  36.917  1.00  0.00     0.031 A 
ATOM     64  C   UNL A   1      41.827  33.736  37.523  1.00  0.00     0.131 A 
ATOM     65  C   UNL A   1      39.214  32.986  37.875  1.00  0.00     0.055 A 
ATOM     66  C   UNL A   1      41.053  34.357  38.506  1.00  0.00     0.041 A 
ATOM     67  F   UNL A   1      43.051  34.261  37.416  1.00  0.00    -0.206 F 
ATOM     68  C   UNL A   1      39.729  34.005  38.668  1.00  0.00     0.022 A 
BRANCH  65  69
ATOM     69  S   UNL A   1      37.449  32.596  37.962  1.00  0.00     0.124 S 
ATOM     70  O   UNL A   1      37.448  31.168  37.665  1.00  0.00    -0.237 OA
ATOM     71  O   UNL A   1      37.129  32.973  39.335  1.00  0.00    -0.237 OA
ATOM     72  O   UNL A   1      36.865  33.449  36.929  1.00  0.00    -0.744 OA
ENDBRANCH  65  69
ENDBRANCH  48  62
BRANCH  49  73
ATOM     73  C   UNL A   1      35.137  33.793  30.864  1.00  0.00     0.023 A 
ATOM     74  C   UNL A   1      34.725  34.765  31.810  1.00  0.00     0.031 A 
ATOM     75  C   UNL A   1      34.435  33.774  29.638  1.00  0.00     0.131 A 
ATOM     76  C   UNL A   1      33.666  35.660  31.504  1.00  0.00     0.055 A 
ATOM     77  C   UNL A   1      33.399  34.664  29.341  1.00  0.00     0.041 A 
ATOM     78  F   UNL A   1      34.795  32.945  28.646  1.00  0.00    -0.206 F 
ATOM     79  C   UNL A   1      33.017  35.618  30.269  1.00  0.00     0.022 A 
BRANCH  76  80
ATOM     80  S   UNL A   1      33.148  36.954  32.688  1.00  0.00     0.124 S 
ATOM     81  O   UNL A   1      34.139  36.822  33.750  1.00  0.00    -0.237 OA
ATOM     82  O   UNL A   1      33.218  38.165  31.878  1.00  0.00    -0.237 OA
ATOM     83  O   UNL A   1      31.793  36.550  33.066  1.00  0.00    -0.744 OA
ENDBRANCH  76  80
ENDBRANCH  49  73
BRANCH  61  84
ATOM     84  C   UNL A   1      39.131  28.868  31.407  1.00  0.00     0.023 A 
ATOM     85  C   UNL A   1      39.686  29.207  30.150  1.00  0.00     0.031 A 
ATOM     86  C   UNL A   1      38.624  27.565  31.564  1.00  0.00     0.131 A 
ATOM     87  C   UNL A   1      39.708  28.251  29.112  1.00  0.00     0.055 A 
ATOM     88  C   UNL A   1      38.673  26.618  30.545  1.00  0.00     0.041 A 
ATOM     89  F   UNL A   1      38.092  27.180  32.736  1.00  0.00    -0.206 F 
ATOM     90  C   UNL A   1      39.210  26.960  29.312  1.00  0.00     0.022 A 
BRANCH  87  91
ATOM     91  S   UNL A   1      40.356  28.674  27.460  1.00  0.00     0.124 S 
ATOM     92  O   UNL A   1      40.507  27.377  26.810  1.00  0.00    -0.237 OA
ATOM     93  O   UNL A   1      39.310  29.539  26.922  1.00  0.00    -0.237 OA
ATOM     94  O   UNL A   1      41.618  29.358  27.752  1.00  0.00    -0.744 OA
ENDBRANCH  87  91
ENDBRANCH  61  84
ENDBRANCH  35  36
ENDBRANCH  28  30
ENDBRANCH  27  28
ENDBRANCH  26  27
ENDBRANCH  25  26
ENDBRANCH   1  25
TORSDOF 21
ENDMDL
MODEL 2
REMARK VINA RESULT:     -11.1      9.070     14.123
REMARK SMILES Cc1ncn(CC[C@@H]2CCC[C@@]2([NH3+])C(=O)OCCOCCOC(=O)c2ccc(-c3c4nc(c(-c5cc(S(=O)(=O)[O-])ccc5F)c5ccc([nH]5)c(-c5cc(S(=O)(=O)[O-])ccc5F)c5nc(c(-c6cc(S(=O)(=O)[O-])ccc6F)c6ccc3[nH]6)C=C5)C=C4)cc2)c1C
REMARK SMILES IDX 19 1 18 2 17 3 16 4 14 5 15 6 12 7 8 8 9 9 10 10 11 11 7 12
REMARK SMILES IDX 6 13 5 14 1 15 2 16 3 17 88 18 4 19 89 20 13 21 20 25 21 26
REMARK SMILES IDX 22 27 23 28 24 29 25 30 26 31 87 32 27 33 86 34 28 35 29 36
REMARK SMILES IDX 30 37 80 38 31 39 85 40 79 41 81 42 32 43 84 44 78 45 77 46
REMARK SMILES IDX 33 48 65 49 45 50 64 51 46 52 49 53 63 54 82 55 47 56 48 57
REMARK SMILES IDX 62 59 83 60 50 61 34 62 35 63 43 64 36 65 42 66 44 67 41 68
REMARK SMILES IDX 37 69 38 70 39 71 40 72 66 73 67 74 75 75 68 76 74 77 76 78
REMARK SMILES IDX 73 79 69 80 70 81 71 82 72 83 51 84 52 85 60 86 53 87 59 88
REMARK SMILES IDX 61 89 58 90 54 91 55 92 56 93 57 94
REMARK H PARENT 13 22 13 23 13 24 81 47 49 58
REMARK Flexibility Score: inf
ROOT
ATOM      1  O   UNL A   1      34.125  30.291  26.676  1.00  0.00    -0.374 OA
ENDROOT
BRANCH   1   2
ATOM      2  C   UNL A   1      34.074  28.877  26.838  1.00  0.00     0.202 C 
BRANCH   2   3
ATOM      3  C   UNL A   1      33.284  27.987  25.867  1.00  0.00     0.261 C 
BRANCH   3   4
ATOM      4  O   UNL A   1      32.990  26.654  26.331  1.00  0.00    -0.459 OA
BRANCH   4   5
ATOM      5  C   UNL A   1      31.671  26.515  26.627  1.00  0.00     0.368 C 
ATOM      6  O   UNL A   1      31.058  27.380  27.235  1.00  0.00    -0.245 OA
BRANCH   5   7
ATOM      7  C   UNL A   1      31.010  25.223  26.110  1.00  0.00     0.195 C 
ATOM      8  C   UNL A   1      31.394  24.997  24.619  1.00  0.00     0.064 C 
ATOM      9  C   UNL A   1      31.051  23.531  24.351  1.00  0.00     0.011 C 
ATOM     10  C   UNL A   1      31.330  22.826  25.682  1.00  0.00     0.008 C 
ATOM     11  C   UNL A   1      31.618  23.936  26.705  1.00  0.00     0.081 C 
BRANCH   8  12
ATOM     12  C   UNL A   1      30.913  25.979  23.548  1.00  0.00     0.032 C 
BRANCH  12  13
ATOM     13  C   UNL A   1      29.835  26.999  24.001  1.00  0.00     0.124 C 
BRANCH  13  14
ATOM     14  N   UNL A   1      29.586  28.170  23.168  1.00  0.00    -0.335 N 
ATOM     15  C   UNL A   1      28.079  30.977  21.399  1.00  0.00     0.069 C 
ATOM     16  C   UNL A   1      28.881  29.885  21.996  1.00  0.00     0.058 A 
ATOM     17  N   UNL A   1      30.208  29.744  21.704  1.00  0.00    -0.242 NA
ATOM     18  C   UNL A   1      28.441  28.877  22.840  1.00  0.00     0.037 A 
ATOM     19  C   UNL A   1      30.591  28.690  22.379  1.00  0.00     0.199 A 
ATOM     20  C   UNL A   1      27.026  28.662  23.248  1.00  0.00     0.066 C 
ENDBRANCH  13  14
ENDBRANCH  12  13
ENDBRANCH   8  12
BRANCH   7  21
ATOM     21  N   UNL A   1      29.552  25.258  26.344  1.00  0.00    -0.343 N 
ATOM     22  H   UNL A   1      29.330  24.737  27.193  1.00  0.00     0.345 HD
ATOM     23  H   UNL A   1      29.070  24.835  25.550  1.00  0.00     0.345 HD
ATOM     24  H   UNL A   1      29.248  26.226  26.450  1.00  0.00     0.345 HD
ENDBRANCH   7  21
ENDBRANCH   5   7
ENDBRANCH   4   5
ENDBRANCH   3   4
ENDBRANCH   2   3
ENDBRANCH   1   2
BRANCH   1  25
ATOM     25  C   UNL A   1      33.570  31.173  27.641  1.00  0.00     0.202 C 
BRANCH  25  26
ATOM     26  C   UNL A   1      34.467  32.068  28.482  1.00  0.00     0.261 C 
BRANCH  26  27
ATOM     27  O   UNL A   1      34.849  31.459  29.703  1.00  0.00    -0.460 OA
BRANCH  27  28
ATOM     28  C   UNL A   1      35.998  31.976  30.201  1.00  0.00     0.338 C 
ATOM     29  O   UNL A   1      36.115  32.969  30.889  1.00  0.00    -0.246 OA
BRANCH  28  30
ATOM     30  C   UNL A   1      37.129  31.208  29.681  1.00  0.00     0.060 A 
ATOM     31  C   UNL A   1      36.918  29.837  29.536  1.00  0.00     0.016 A 
ATOM     32  C   UNL A   1      38.409  31.778  29.671  1.00  0.00     0.016 A 
ATOM     33  C   UNL A   1      38.007  29.005  29.640  1.00  0.00     0.010 A 
ATOM     34  C   UNL A   1      39.492  30.946  29.787  1.00  0.00     0.010 A 
ATOM     35  C   UNL A   1      39.265  29.575  29.871  1.00  0.00    -0.014 A 
BRANCH  35  36
ATOM     36  C   UNL A   1      40.395  28.688  30.035  1.00  0.00     0.031 A 
ATOM     37  C   UNL A   1      40.703  28.513  31.469  1.00  0.00     0.074 A 
ATOM     38  C   UNL A   1      40.984  28.049  29.006  1.00  0.00     0.049 A 
ATOM     39  N   UNL A   1      41.620  29.116  32.148  1.00  0.00    -0.248 NA
ATOM     40  C   UNL A   1      39.692  27.839  32.305  1.00  0.00     0.031 C 
ATOM     41  C   UNL A   1      40.551  28.002  27.606  1.00  0.00     0.029 A 
ATOM     42  N   UNL A   1      42.070  27.228  29.009  1.00  0.00    -0.354 N 
ATOM     43  C   UNL A   1      41.484  28.621  33.438  1.00  0.00     0.074 A 
ATOM     44  C   UNL A   1      40.140  28.131  33.527  1.00  0.00     0.031 C 
ATOM     45  C   UNL A   1      41.228  27.025  26.955  1.00  0.00     0.029 A 
ATOM     46  C   UNL A   1      42.237  26.475  27.846  1.00  0.00     0.049 A 
ATOM     47  H   UNL A   1      42.690  27.170  29.772  1.00  0.00     0.167 HD
ATOM     48  C   UNL A   1      42.592  28.290  34.156  1.00  0.00     0.034 A 
ATOM     49  C   UNL A   1      43.119  25.451  27.659  1.00  0.00     0.034 A 
ATOM     50  C   UNL A   1      43.764  28.905  33.568  1.00  0.00     0.049 A 
ATOM     51  C   UNL A   1      44.188  25.641  28.669  1.00  0.00     0.074 A 
ATOM     52  C   UNL A   1      44.224  30.192  33.385  1.00  0.00     0.029 A 
ATOM     53  N   UNL A   1      44.443  28.110  32.676  1.00  0.00    -0.354 N 
ATOM     54  N   UNL A   1      44.994  26.668  28.665  1.00  0.00    -0.248 NA
ATOM     55  C   UNL A   1      44.085  24.945  29.944  1.00  0.00     0.031 C 
ATOM     56  C   UNL A   1      44.955  30.170  32.158  1.00  0.00     0.029 A 
ATOM     57  C   UNL A   1      44.988  28.862  31.669  1.00  0.00     0.049 A 
ATOM     58  H   UNL A   1      44.527  27.132  32.751  1.00  0.00     0.167 HD
ATOM     59  C   UNL A   1      45.152  27.005  29.998  1.00  0.00     0.074 A 
ATOM     60  C   UNL A   1      44.704  25.826  30.736  1.00  0.00     0.031 C 
ATOM     61  C   UNL A   1      45.336  28.309  30.367  1.00  0.00     0.034 A 
BRANCH  48  62
ATOM     62  C   UNL A   1      42.701  27.034  35.011  1.00  0.00     0.023 A 
ATOM     63  C   UNL A   1      43.482  25.983  34.492  1.00  0.00     0.031 A 
ATOM     64  C   UNL A   1      41.884  26.689  36.116  1.00  0.00     0.131 A 
ATOM     65  C   UNL A   1      43.358  24.672  34.987  1.00  0.00     0.055 A 
ATOM     66  C   UNL A   1      41.800  25.394  36.634  1.00  0.00     0.041 A 
ATOM     67  F   UNL A   1      41.051  27.544  36.716  1.00  0.00    -0.206 F 
ATOM     68  C   UNL A   1      42.518  24.369  36.052  1.00  0.00     0.022 A 
BRANCH  65  69
ATOM     69  S   UNL A   1      44.202  23.333  34.110  1.00  0.00     0.124 S 
ATOM     70  O   UNL A   1      45.401  24.007  33.627  1.00  0.00    -0.237 OA
ATOM     71  O   UNL A   1      44.394  22.355  35.176  1.00  0.00    -0.237 OA
ATOM     72  O   UNL A   1      43.242  22.949  33.077  1.00  0.00    -0.744 OA
ENDBRANCH  65  69
ENDBRANCH  48  62
BRANCH  49  73
ATOM     73  C   UNL A   1      42.886  24.152  26.954  1.00  0.00     0.023 A 
ATOM     74  C   UNL A   1      43.791  23.592  26.019  1.00  0.00     0.031 A 
ATOM     75  C   UNL A   1      41.856  23.302  27.416  1.00  0.00     0.131 A 
ATOM     76  C   UNL A   1      43.646  22.245  25.597  1.00  0.00     0.055 A 
ATOM     77  C   UNL A   1      41.724  21.973  27.003  1.00  0.00     0.041 A 
ATOM     78  F   UNL A   1      40.992  23.709  28.359  1.00  0.00    -0.206 F 
ATOM     79  C   UNL A   1      42.625  21.435  26.099  1.00  0.00     0.022 A 
BRANCH  76  80
ATOM     80  S   UNL A   1      44.829  21.484  24.429  1.00  0.00     0.124 S 
ATOM     81  O   UNL A   1      44.372  20.100  24.376  1.00  0.00    -0.237 OA
ATOM     82  O   UNL A   1      44.635  22.280  23.223  1.00  0.00    -0.237 OA
ATOM     83  O   UNL A   1      46.125  21.673  25.082  1.00  0.00    -0.744 OA
ENDBRANCH  76  80
ENDBRANCH  49  73
BRANCH  61  84
ATOM     84  C   UNL A   1      45.843  29.270  29.310  1.00  0.00     0.023 A 
ATOM     85  C   UNL A   1      45.048  30.110  28.496  1.00  0.00     0.031 A 
ATOM     86  C   UNL A   1      47.241  29.366  29.175  1.00  0.00     0.131 A 
ATOM     87  C   UNL A   1      45.666  30.995  27.587  1.00  0.00     0.055 A 
ATOM     88  C   UNL A   1      47.845  30.259  28.295  1.00  0.00     0.041 A 
ATOM     89  F   UNL A   1      48.050  28.601  29.927  1.00  0.00    -0.206 F 
ATOM     90  C   UNL A   1      47.060  31.074  27.492  1.00  0.00     0.022 A 
BRANCH  87  91
ATOM     91  S   UNL A   1      44.672  32.046  26.475  1.00  0.00     0.124 S 
ATOM     92  O   UNL A   1      44.232  33.137  27.338  1.00  0.00    -0.237 OA
ATOM     93  O   UNL A   1      45.633  32.403  25.435  1.00  0.00    -0.237 OA
ATOM     94  O   UNL A   1      43.600  31.153  26.029  1.00  0.00    -0.744 OA
ENDBRANCH  87  91
ENDBRANCH  61  84
ENDBRANCH  35  36
ENDBRANCH  28  30
ENDBRANCH  27  28
ENDBRANCH  26  27
ENDBRANCH  25  26
ENDBRANCH   1  25
TORSDOF 21
ENDMDL
MODEL 3
REMARK VINA RESULT:     -11.0      6.669     14.857
REMARK SMILES Cc1ncn(CC[C@@H]2CCC[C@@]2([NH3+])C(=O)OCCOCCOC(=O)c2ccc(-c3c4nc(c(-c5cc(S(=O)(=O)[O-])ccc5F)c5ccc([nH]5)c(-c5cc(S(=O)(=O)[O-])ccc5F)c5nc(c(-c6cc(S(=O)(=O)[O-])ccc6F)c6ccc3[nH]6)C=C5)C=C4)cc2)c1C
REMARK SMILES IDX 19 1 18 2 17 3 16 4 14 5 15 6 12 7 8 8 9 9 10 10 11 11 7 12
REMARK SMILES IDX 6 13 5 14 1 15 2 16 3 17 88 18 4 19 89 20 13 21 20 25 21 26
REMARK SMILES IDX 22 27 23 28 24 29 25 30 26 31 87 32 27 33 86 34 28 35 29 36
REMARK SMILES IDX 30 37 80 38 31 39 85 40 79 41 81 42 32 43 84 44 78 45 77 46
REMARK SMILES IDX 33 48 65 49 45 50 64 51 46 52 49 53 63 54 82 55 47 56 48 57
REMARK SMILES IDX 62 59 83 60 50 61 34 62 35 63 43 64 36 65 42 66 44 67 41 68
REMARK SMILES IDX 37 69 38 70 39 71 40 72 66 73 67 74 75 75 68 76 74 77 76 78
REMARK SMILES IDX 73 79 69 80 70 81 71 82 72 83 51 84 52 85 60 86 53 87 59 88
REMARK SMILES IDX 61 89 58 90 54 91 55 92 56 93 57 94
REMARK H PARENT 13 22 13 23 13 24 81 47 49 58
REMARK Flexibility Score: inf
ROOT
ATOM      1  O   UNL A   1      37.521  22.836  24.979  1.00  0.00    -0.374 OA
ENDROOT
BRANCH   1   2
ATOM      2  C   UNL A   1      36.301  23.374  25.478  1.00  0.00     0.202 C 
BRANCH   2   3
ATOM      3  C   UNL A   1      35.314  24.106  24.558  1.00  0.00     0.261 C 
BRANCH   3   4
ATOM      4  O   UNL A   1      34.625  23.286  23.592  1.00  0.00    -0.459 OA
BRANCH   4   5
ATOM      5  C   UNL A   1      33.561  23.941  23.059  1.00  0.00     0.368 C 
ATOM      6  O   UNL A   1      33.677  24.647  22.067  1.00  0.00    -0.245 OA
BRANCH   5   7
ATOM      7  C   UNL A   1      32.213  23.697  23.762  1.00  0.00     0.195 C 
ATOM      8  C   UNL A   1      32.212  22.287  24.420  1.00  0.00     0.064 C 
ATOM      9  C   UNL A   1      31.046  22.323  25.409  1.00  0.00     0.011 C 
ATOM     10  C   UNL A   1      31.014  23.772  25.905  1.00  0.00     0.008 C 
ATOM     11  C   UNL A   1      32.016  24.548  25.034  1.00  0.00     0.081 C 
BRANCH   8  12
ATOM     12  C   UNL A   1      32.275  21.034  23.543  1.00  0.00     0.032 C 
BRANCH  12  13
ATOM     13  C   UNL A   1      33.474  20.084  23.806  1.00  0.00     0.124 C 
BRANCH  13  14
ATOM     14  N   UNL A   1      33.226  18.815  24.479  1.00  0.00    -0.335 N 
ATOM     15  C   UNL A   1      33.057  15.294  25.407  1.00  0.00     0.069 C 
ATOM     16  C   UNL A   1      32.989  16.760  25.211  1.00  0.00     0.058 A 
ATOM     17  N   UNL A   1      32.351  17.563  26.114  1.00  0.00    -0.242 NA
ATOM     18  C   UNL A   1      33.475  17.495  24.141  1.00  0.00     0.037 A 
ATOM     19  C   UNL A   1      32.469  18.773  25.632  1.00  0.00     0.199 A 
ATOM     20  C   UNL A   1      34.106  16.915  22.924  1.00  0.00     0.066 C 
ENDBRANCH  13  14
ENDBRANCH  12  13
ENDBRANCH   8  12
BRANCH   7  21
ATOM     21  N   UNL A   1      31.092  23.910  22.824  1.00  0.00    -0.343 N 
ATOM     22  H   UNL A   1      30.438  24.584  23.221  1.00  0.00     0.345 HD
ATOM     23  H   UNL A   1      30.612  23.024  22.662  1.00  0.00     0.345 HD
ATOM     24  H   UNL A   1      31.453  24.267  21.939  1.00  0.00     0.345 HD
ENDBRANCH   7  21
ENDBRANCH   5   7
ENDBRANCH   4   5
ENDBRANCH   3   4
ENDBRANCH   2   3
ENDBRANCH   1   2
BRANCH   1  25
ATOM     25  C   UNL A   1      38.105  21.668  25.537  1.00  0.00     0.202 C 
BRANCH  25  26
ATOM     26  C   UNL A   1      39.407  21.747  26.320  1.00  0.00     0.261 C 
BRANCH  26  27
ATOM     27  O   UNL A   1      39.530  22.958  27.044  1.00  0.00    -0.460 OA
BRANCH  27  28
ATOM     28  C   UNL A   1      40.758  23.105  27.600  1.00  0.00     0.338 C 
ATOM     29  O   UNL A   1      41.421  22.245  28.145  1.00  0.00    -0.246 OA
BRANCH  28  30
ATOM     30  C   UNL A   1      41.138  24.516  27.549  1.00  0.00     0.060 A 
ATOM     31  C   UNL A   1      42.057  24.934  28.512  1.00  0.00     0.016 A 
ATOM     32  C   UNL A   1      40.361  25.417  26.808  1.00  0.00     0.016 A 
ATOM     33  C   UNL A   1      42.012  26.247  28.914  1.00  0.00     0.010 A 
ATOM     34  C   UNL A   1      40.310  26.723  27.220  1.00  0.00     0.010 A 
ATOM     35  C   UNL A   1      41.062  27.095  28.332  1.00  0.00    -0.014 A 
BRANCH  35  36
ATOM     36  C   UNL A   1      40.986  28.459  28.803  1.00  0.00     0.031 A 
ATOM     37  C   UNL A   1      42.110  29.249  28.260  1.00  0.00     0.074 A 
ATOM     38  C   UNL A   1      39.961  28.927  29.540  1.00  0.00     0.049 A 
ATOM     39  N   UNL A   1      43.211  29.552  28.861  1.00  0.00    -0.248 NA
ATOM     40  C   UNL A   1      42.154  29.457  26.800  1.00  0.00     0.031 C 
ATOM     41  C   UNL A   1      38.712  28.242  29.886  1.00  0.00     0.029 A 
ATOM     42  N   UNL A   1      39.782  30.163  30.081  1.00  0.00    -0.354 N 
ATOM     43  C   UNL A   1      43.934  30.280  27.924  1.00  0.00     0.074 A 
ATOM     44  C   UNL A   1      43.401  29.908  26.647  1.00  0.00     0.031 C 
ATOM     45  C   UNL A   1      37.823  29.141  30.376  1.00  0.00     0.029 A 
ATOM     46  C   UNL A   1      38.482  30.430  30.514  1.00  0.00     0.049 A 
ATOM     47  H   UNL A   1      40.513  30.818  30.162  1.00  0.00     0.167 HD
ATOM     48  C   UNL A   1      44.599  31.403  28.307  1.00  0.00     0.034 A 
ATOM     49  C   UNL A   1      37.989  31.637  30.915  1.00  0.00     0.034 A 
ATOM     50  C   UNL A   1      44.761  31.416  29.747  1.00  0.00     0.049 A 
ATOM     51  C   UNL A   1      39.165  32.447  31.316  1.00  0.00     0.074 A 
ATOM     52  C   UNL A   1      45.437  30.655  30.677  1.00  0.00     0.029 A 
ATOM     53  N   UNL A   1      43.781  32.099  30.428  1.00  0.00    -0.354 N 
ATOM     54  N   UNL A   1      39.927  32.139  32.330  1.00  0.00    -0.248 NA
ATOM     55  C   UNL A   1      39.773  33.339  30.338  1.00  0.00     0.031 C 
ATOM     56  C   UNL A   1      44.628  30.677  31.854  1.00  0.00     0.029 A 
ATOM     57  C   UNL A   1      43.528  31.508  31.638  1.00  0.00     0.049 A 
ATOM     58  H   UNL A   1      43.324  32.903  30.092  1.00  0.00     0.167 HD
ATOM     59  C   UNL A   1      41.215  32.427  31.911  1.00  0.00     0.074 A 
ATOM     60  C   UNL A   1      41.043  33.301  30.753  1.00  0.00     0.031 C 
ATOM     61  C   UNL A   1      42.272  31.682  32.356  1.00  0.00     0.034 A 
BRANCH  48  62
ATOM     62  C   UNL A   1      44.618  32.694  27.497  1.00  0.00     0.023 A 
ATOM     63  C   UNL A   1      43.877  33.775  28.015  1.00  0.00     0.031 A 
ATOM     64  C   UNL A   1      45.044  32.843  26.154  1.00  0.00     0.131 A 
ATOM     65  C   UNL A   1      43.513  34.862  27.200  1.00  0.00     0.055 A 
ATOM     66  C   UNL A   1      44.719  33.948  25.364  1.00  0.00     0.041 A 
ATOM     67  F   UNL A   1      45.725  31.908  25.486  1.00  0.00    -0.206 F 
ATOM     68  C   UNL A   1      43.925  34.954  25.876  1.00  0.00     0.022 A 
BRANCH  65  69
ATOM     69  S   UNL A   1      42.355  36.087  27.860  1.00  0.00     0.124 S 
ATOM     70  O   UNL A   1      42.749  36.137  29.263  1.00  0.00    -0.237 OA
ATOM     71  O   UNL A   1      42.675  37.261  27.055  1.00  0.00    -0.237 OA
ATOM     72  O   UNL A   1      41.048  35.489  27.598  1.00  0.00    -0.744 OA
ENDBRANCH  65  69
ENDBRANCH  48  62
BRANCH  49  73
ATOM     73  C   UNL A   1      36.655  32.236  30.603  1.00  0.00     0.023 A 
ATOM     74  C   UNL A   1      35.858  32.919  31.555  1.00  0.00     0.031 A 
ATOM     75  C   UNL A   1      36.269  32.371  29.250  1.00  0.00     0.131 A 
ATOM     76  C   UNL A   1      34.744  33.693  31.136  1.00  0.00     0.055 A 
ATOM     77  C   UNL A   1      35.176  33.142  28.844  1.00  0.00     0.041 A 
ATOM     78  F   UNL A   1      37.000  31.828  28.264  1.00  0.00    -0.206 F 
ATOM     79  C   UNL A   1      34.415  33.815  29.785  1.00  0.00     0.022 A 
BRANCH  76  80
ATOM     80  S   UNL A   1      33.729  34.623  32.340  1.00  0.00     0.124 S 
ATOM     81  O   UNL A   1      34.689  35.571  32.892  1.00  0.00    -0.237 OA
ATOM     82  O   UNL A   1      32.676  35.178  31.499  1.00  0.00    -0.237 OA
ATOM     83  O   UNL A   1      33.282  33.592  33.278  1.00  0.00    -0.744 OA
ENDBRANCH  76  80
ENDBRANCH  49  73
BRANCH  61  84
ATOM     84  C   UNL A   1      42.084  30.897  33.640  1.00  0.00     0.023 A 
ATOM     85  C   UNL A   1      42.063  29.488  33.761  1.00  0.00     0.031 A 
ATOM     86  C   UNL A   1      41.978  31.653  34.822  1.00  0.00     0.131 A 
ATOM     87  C   UNL A   1      41.930  28.895  35.034  1.00  0.00     0.055 A 
ATOM     88  C   UNL A   1      41.874  31.063  36.078  1.00  0.00     0.041 A 
ATOM     89  F   UNL A   1      42.001  32.996  34.774  1.00  0.00    -0.206 F 
ATOM     90  C   UNL A   1      41.844  29.680  36.189  1.00  0.00     0.022 A 
BRANCH  87  91
ATOM     91  S   UNL A   1      41.833  27.083  35.221  1.00  0.00     0.124 S 
ATOM     92  O   UNL A   1      41.720  26.893  36.663  1.00  0.00    -0.237 OA
ATOM     93  O   UNL A   1      40.646  26.748  34.438  1.00  0.00    -0.237 OA
ATOM     94  O   UNL A   1      43.093  26.611  34.643  1.00  0.00    -0.744 OA
ENDBRANCH  87  91
ENDBRANCH  61  84
ENDBRANCH  35  36
ENDBRANCH  28  30
ENDBRANCH  27  28
ENDBRANCH  26  27
ENDBRANCH  25  26
ENDBRANCH   1  25
TORSDOF 21
ENDMDL
