MODEL 1
REMARK VINA RESULT:      -8.3      0.000      0.000
REMARK SMILES CC[C@@H]([NH3+])C(=O)NCCOCC(=O)OCCOCCOC(=O)c1ccc(-c2c3nc(c(-c4cc(S(=O)(=O)[O-])ccc4F)c4ccc([nH]4)c(-c4cc(S(=O)(=O)[O-])ccc4F)c4nc(c(-c5cc(S(=O)(=O)[O-])ccc5F)c5ccc2[nH]5)C=C4)C=C3)cc1
REMARK SMILES IDX 15 1 14 2 12 3 13 4 11 5 10 6 9 7 8 8 7 9 5 10 6 11 3 13
REMARK SMILES IDX 2 14 1 15 4 16 16 20 17 21 18 22 19 23 20 24 21 25 22 26
REMARK SMILES IDX 23 27 24 28 85 29 25 30 84 31 26 32 27 33 28 34 78 35 29 36
REMARK SMILES IDX 83 37 77 38 79 39 30 40 82 41 76 42 75 43 31 45 63 46 43 47
REMARK SMILES IDX 62 48 44 49 47 50 61 51 80 52 45 53 46 54 60 56 81 57 48 58
REMARK SMILES IDX 32 59 33 60 41 61 34 62 40 63 42 64 39 65 35 66 36 67 37 68
REMARK SMILES IDX 38 69 64 70 65 71 73 72 66 73 72 74 74 75 71 76 67 77 68 78
REMARK SMILES IDX 69 79 70 80 49 81 50 82 58 83 51 84 57 85 59 86 56 87 52 88
REMARK SMILES IDX 53 89 54 90 55 91
REMARK H PARENT 7 12 4 17 4 18 4 19 79 44 47 55
REMARK Flexibility Score: inf
ROOT
ATOM      1  C   UNL A   1      32.033  28.307  23.057  1.00  0.00     0.261 C 
ENDROOT
BRANCH   1   2
ATOM      2  O   UNL A   1      33.263  27.787  22.488  1.00  0.00    -0.462 OA
BRANCH   2   3
ATOM      3  C   UNL A   1      33.315  26.439  22.301  1.00  0.00     0.332 C 
ATOM      4  O   UNL A   1      33.653  25.885  21.260  1.00  0.00    -0.250 OA
BRANCH   3   5
ATOM      5  C   UNL A   1      32.860  25.635  23.535  1.00  0.00     0.282 C 
BRANCH   5   6
ATOM      6  O   UNL A   1      31.678  24.889  23.702  1.00  0.00    -0.368 OA
BRANCH   6   7
ATOM      7  C   UNL A   1      31.591  23.566  23.185  1.00  0.00     0.182 C 
BRANCH   7   8
ATOM      8  C   UNL A   1      32.020  22.385  24.083  1.00  0.00     0.144 C 
BRANCH   8   9
ATOM      9  N   UNL A   1      32.496  22.745  25.413  1.00  0.00    -0.349 N 
ATOM     10  C   UNL A   1      33.765  22.896  25.896  1.00  0.00     0.278 C 
ATOM     11  O   UNL A   1      33.887  23.536  26.948  1.00  0.00    -0.268 OA
ATOM     12  H   UNL A   1      31.784  22.906  26.074  1.00  0.00     0.163 HD
BRANCH  10  13
ATOM     13  C   UNL A   1      35.029  22.315  25.212  1.00  0.00     0.270 C 
BRANCH  13  14
ATOM     14  C   UNL A   1      35.632  23.263  24.177  1.00  0.00     0.072 C 
ATOM     15  C   UNL A   1      36.791  22.704  23.364  1.00  0.00     0.011 C 
ENDBRANCH  13  14
BRANCH  13  16
ATOM     16  N   UNL A   1      36.007  21.866  26.218  1.00  0.00    -0.347 N 
ATOM     17  H   UNL A   1      35.641  22.048  27.153  1.00  0.00     0.345 HD
ATOM     18  H   UNL A   1      36.883  22.373  26.091  1.00  0.00     0.345 HD
ATOM     19  H   UNL A   1      36.175  20.866  26.107  1.00  0.00     0.345 HD
ENDBRANCH  13  16
ENDBRANCH  10  13
ENDBRANCH   8   9
ENDBRANCH   7   8
ENDBRANCH   6   7
ENDBRANCH   5   6
ENDBRANCH   3   5
ENDBRANCH   2   3
ENDBRANCH   1   2
BRANCH   1  20
ATOM     20  C   UNL A   1      32.255  29.119  24.343  1.00  0.00     0.202 C 
BRANCH  20  21
ATOM     21  O   UNL A   1      31.907  28.461  25.563  1.00  0.00    -0.374 OA
BRANCH  21  22
ATOM     22  C   UNL A   1      33.006  28.162  26.410  1.00  0.00     0.202 C 
BRANCH  22  23
ATOM     23  C   UNL A   1      34.083  29.243  26.512  1.00  0.00     0.261 C 
BRANCH  23  24
ATOM     24  O   UNL A   1      33.880  30.045  27.676  1.00  0.00    -0.460 OA
BRANCH  24  25
ATOM     25  C   UNL A   1      34.721  31.102  27.758  1.00  0.00     0.338 C 
ATOM     26  O   UNL A   1      34.488  32.257  27.459  1.00  0.00    -0.246 OA
BRANCH  25  27
ATOM     27  C   UNL A   1      35.925  30.672  28.480  1.00  0.00     0.060 A 
ATOM     28  C   UNL A   1      37.125  31.277  28.101  1.00  0.00     0.016 A 
ATOM     29  C   UNL A   1      35.886  29.704  29.489  1.00  0.00     0.016 A 
ATOM     30  C   UNL A   1      38.313  30.864  28.684  1.00  0.00     0.010 A 
ATOM     31  C   UNL A   1      37.082  29.291  30.076  1.00  0.00     0.010 A 
ATOM     32  C   UNL A   1      38.301  29.841  29.640  1.00  0.00    -0.014 A 
BRANCH  32  33
ATOM     33  C   UNL A   1      39.593  29.249  30.047  1.00  0.00     0.031 A 
ATOM     34  C   UNL A   1      40.270  29.778  31.279  1.00  0.00     0.074 A 
ATOM     35  C   UNL A   1      40.092  28.200  29.372  1.00  0.00     0.049 A 
ATOM     36  N   UNL A   1      41.372  29.380  31.855  1.00  0.00    -0.248 NA
ATOM     37  C   UNL A   1      39.611  30.909  31.952  1.00  0.00     0.031 C 
ATOM     38  C   UNL A   1      39.477  27.588  28.194  1.00  0.00     0.029 A 
ATOM     39  N   UNL A   1      41.220  27.455  29.590  1.00  0.00    -0.354 N 
ATOM     40  C   UNL A   1      41.542  30.211  32.957  1.00  0.00     0.074 A 
ATOM     41  C   UNL A   1      40.454  31.162  32.941  1.00  0.00     0.031 C 
ATOM     42  C   UNL A   1      40.231  26.548  27.802  1.00  0.00     0.029 A 
ATOM     43  C   UNL A   1      41.399  26.447  28.672  1.00  0.00     0.049 A 
ATOM     44  H   UNL A   1      41.842  27.623  30.334  1.00  0.00     0.167 HD
ATOM     45  C   UNL A   1      42.514  30.169  33.901  1.00  0.00     0.034 A 
ATOM     46  C   UNL A   1      42.404  25.560  28.545  1.00  0.00     0.034 A 
ATOM     47  C   UNL A   1      43.595  29.213  33.883  1.00  0.00     0.049 A 
ATOM     48  C   UNL A   1      43.522  25.591  29.557  1.00  0.00     0.074 A 
ATOM     49  C   UNL A   1      44.628  29.061  34.788  1.00  0.00     0.029 A 
ATOM     50  N   UNL A   1      43.789  28.253  32.896  1.00  0.00    -0.354 N 
ATOM     51  N   UNL A   1      43.668  26.370  30.606  1.00  0.00    -0.248 NA
ATOM     52  C   UNL A   1      44.605  24.618  29.375  1.00  0.00     0.031 C 
ATOM     53  C   UNL A   1      45.492  28.071  34.306  1.00  0.00     0.029 A 
ATOM     54  C   UNL A   1      44.950  27.538  33.146  1.00  0.00     0.049 A 
ATOM     55  H   UNL A   1      43.190  28.102  32.129  1.00  0.00     0.167 HD
ATOM     56  C   UNL A   1      44.847  25.962  31.223  1.00  0.00     0.074 A 
ATOM     57  C   UNL A   1      45.358  24.855  30.438  1.00  0.00     0.031 C 
ATOM     58  C   UNL A   1      45.453  26.451  32.336  1.00  0.00     0.034 A 
BRANCH  45  59
ATOM     59  C   UNL A   1      42.480  31.226  34.980  1.00  0.00     0.023 A 
ATOM     60  C   UNL A   1      43.270  32.388  34.914  1.00  0.00     0.031 A 
ATOM     61  C   UNL A   1      41.674  31.046  36.119  1.00  0.00     0.131 A 
ATOM     62  C   UNL A   1      43.293  33.283  35.996  1.00  0.00     0.055 A 
ATOM     63  C   UNL A   1      41.638  31.982  37.154  1.00  0.00     0.041 A 
ATOM     64  F   UNL A   1      40.920  29.944  36.255  1.00  0.00    -0.206 F 
ATOM     65  C   UNL A   1      42.464  33.101  37.103  1.00  0.00     0.022 A 
BRANCH  62  66
ATOM     66  S   UNL A   1      44.542  34.601  36.006  1.00  0.00     0.124 S 
ATOM     67  O   UNL A   1      44.204  35.317  37.234  1.00  0.00    -0.237 OA
ATOM     68  O   UNL A   1      45.792  33.850  36.026  1.00  0.00    -0.237 OA
ATOM     69  O   UNL A   1      44.273  35.336  34.772  1.00  0.00    -0.744 OA
ENDBRANCH  62  66
ENDBRANCH  45  59
BRANCH  46  70
ATOM     70  C   UNL A   1      42.417  24.594  27.410  1.00  0.00     0.023 A 
ATOM     71  C   UNL A   1      41.641  23.426  27.437  1.00  0.00     0.031 A 
ATOM     72  C   UNL A   1      43.242  24.811  26.291  1.00  0.00     0.131 A 
ATOM     73  C   UNL A   1      41.735  22.499  26.387  1.00  0.00     0.055 A 
ATOM     74  C   UNL A   1      43.291  23.914  25.224  1.00  0.00     0.041 A 
ATOM     75  F   UNL A   1      44.007  25.912  26.214  1.00  0.00    -0.206 F 
ATOM     76  C   UNL A   1      42.543  22.742  25.274  1.00  0.00     0.022 A 
BRANCH  73  77
ATOM     77  S   UNL A   1      40.848  20.924  26.537  1.00  0.00     0.124 S 
ATOM     78  O   UNL A   1      41.713  20.023  25.786  1.00  0.00    -0.237 OA
ATOM     79  O   UNL A   1      40.818  20.731  27.984  1.00  0.00    -0.237 OA
ATOM     80  O   UNL A   1      39.551  21.205  25.922  1.00  0.00    -0.744 OA
ENDBRANCH  73  77
ENDBRANCH  46  70
BRANCH  58  81
ATOM     81  C   UNL A   1      46.721  25.760  32.781  1.00  0.00     0.023 A 
ATOM     82  C   UNL A   1      46.705  24.727  33.734  1.00  0.00     0.031 A 
ATOM     83  C   UNL A   1      47.964  26.158  32.258  1.00  0.00     0.131 A 
ATOM     84  C   UNL A   1      47.913  24.173  34.184  1.00  0.00     0.055 A 
ATOM     85  C   UNL A   1      49.157  25.552  32.657  1.00  0.00     0.041 A 
ATOM     86  F   UNL A   1      48.041  27.142  31.348  1.00  0.00    -0.206 F 
ATOM     87  C   UNL A   1      49.136  24.565  33.637  1.00  0.00     0.022 A 
BRANCH  84  88
ATOM     88  S   UNL A   1      47.870  23.013  35.578  1.00  0.00     0.124 S 
ATOM     89  O   UNL A   1      46.475  22.583  35.570  1.00  0.00    -0.237 OA
ATOM     90  O   UNL A   1      48.850  22.009  35.179  1.00  0.00    -0.237 OA
ATOM     91  O   UNL A   1      48.257  23.838  36.721  1.00  0.00    -0.744 OA
ENDBRANCH  84  88
ENDBRANCH  58  81
ENDBRANCH  32  33
ENDBRANCH  25  27
ENDBRANCH  24  25
ENDBRANCH  23  24
ENDBRANCH  22  23
ENDBRANCH  21  22
ENDBRANCH  20  21
ENDBRANCH   1  20
TORSDOF 24
ENDMDL
MODEL 2
REMARK VINA RESULT:      -8.2      2.167      2.852
REMARK SMILES CC[C@@H]([NH3+])C(=O)NCCOCC(=O)OCCOCCOC(=O)c1ccc(-c2c3nc(c(-c4cc(S(=O)(=O)[O-])ccc4F)c4ccc([nH]4)c(-c4cc(S(=O)(=O)[O-])ccc4F)c4nc(c(-c5cc(S(=O)(=O)[O-])ccc5F)c5ccc2[nH]5)C=C4)C=C3)cc1
REMARK SMILES IDX 15 1 14 2 12 3 13 4 11 5 10 6 9 7 8 8 7 9 5 10 6 11 3 13
REMARK SMILES IDX 2 14 1 15 4 16 16 20 17 21 18 22 19 23 20 24 21 25 22 26
REMARK SMILES IDX 23 27 24 28 85 29 25 30 84 31 26 32 27 33 28 34 78 35 29 36
REMARK SMILES IDX 83 37 77 38 79 39 30 40 82 41 76 42 75 43 31 45 63 46 43 47
REMARK SMILES IDX 62 48 44 49 47 50 61 51 80 52 45 53 46 54 60 56 81 57 48 58
REMARK SMILES IDX 32 59 33 60 41 61 34 62 40 63 42 64 39 65 35 66 36 67 37 68
REMARK SMILES IDX 38 69 64 70 65 71 73 72 66 73 72 74 74 75 71 76 67 77 68 78
REMARK SMILES IDX 69 79 70 80 49 81 50 82 58 83 51 84 57 85 59 86 56 87 52 88
REMARK SMILES IDX 53 89 54 90 55 91
REMARK H PARENT 7 12 4 17 4 18 4 19 79 44 47 55
REMARK Flexibility Score: inf
ROOT
ATOM      1  C   UNL A   1      32.214  28.797  22.964  1.00  0.00     0.261 C 
ENDROOT
BRANCH   1   2
ATOM      2  O   UNL A   1      33.239  27.868  23.401  1.00  0.00    -0.462 OA
BRANCH   2   3
ATOM      3  C   UNL A   1      33.326  26.699  22.708  1.00  0.00     0.332 C 
ATOM      4  O   UNL A   1      33.807  26.578  21.587  1.00  0.00    -0.250 OA
BRANCH   3   5
ATOM      5  C   UNL A   1      32.711  25.500  23.458  1.00  0.00     0.282 C 
BRANCH   5   6
ATOM      6  O   UNL A   1      33.370  24.385  24.009  1.00  0.00    -0.368 OA
BRANCH   6   7
ATOM      7  C   UNL A   1      33.832  23.339  23.160  1.00  0.00     0.182 C 
BRANCH   7   8
ATOM      8  C   UNL A   1      32.879  22.168  22.835  1.00  0.00     0.144 C 
BRANCH   8   9
ATOM      9  N   UNL A   1      31.927  21.819  23.882  1.00  0.00    -0.349 N 
ATOM     10  C   UNL A   1      32.125  21.299  25.130  1.00  0.00     0.278 C 
ATOM     11  O   UNL A   1      31.196  21.422  25.938  1.00  0.00    -0.268 OA
ATOM     12  H   UNL A   1      30.984  21.985  23.652  1.00  0.00     0.163 HD
BRANCH  10  13
ATOM     13  C   UNL A   1      33.423  20.576  25.573  1.00  0.00     0.270 C 
BRANCH  13  14
ATOM     14  C   UNL A   1      34.447  21.523  26.198  1.00  0.00     0.072 C 
ATOM     15  C   UNL A   1      34.122  22.017  27.600  1.00  0.00     0.011 C 
ENDBRANCH  13  14
BRANCH  13  16
ATOM     16  N   UNL A   1      33.109  19.422  26.434  1.00  0.00    -0.347 N 
ATOM     17  H   UNL A   1      33.459  18.569  26.000  1.00  0.00     0.345 HD
ATOM     18  H   UNL A   1      32.099  19.353  26.555  1.00  0.00     0.345 HD
ATOM     19  H   UNL A   1      33.552  19.547  27.344  1.00  0.00     0.345 HD
ENDBRANCH  13  16
ENDBRANCH  10  13
ENDBRANCH   8   9
ENDBRANCH   7   8
ENDBRANCH   6   7
ENDBRANCH   5   6
ENDBRANCH   3   5
ENDBRANCH   2   3
ENDBRANCH   1   2
BRANCH   1  20
ATOM     20  C   UNL A   1      31.663  29.672  24.101  1.00  0.00     0.202 C 
BRANCH  20  21
ATOM     21  O   UNL A   1      30.912  28.986  25.106  1.00  0.00    -0.374 OA
BRANCH  21  22
ATOM     22  C   UNL A   1      31.687  28.472  26.178  1.00  0.00     0.202 C 
BRANCH  22  23
ATOM     23  C   UNL A   1      32.251  29.509  27.151  1.00  0.00     0.261 C 
BRANCH  23  24
ATOM     24  O   UNL A   1      33.236  30.318  26.507  1.00  0.00    -0.460 OA
BRANCH  24  25
ATOM     25  C   UNL A   1      33.621  31.387  27.240  1.00  0.00     0.338 C 
ATOM     26  O   UNL A   1      32.927  32.310  27.624  1.00  0.00    -0.246 OA
BRANCH  25  27
ATOM     27  C   UNL A   1      34.998  31.157  27.695  1.00  0.00     0.060 A 
ATOM     28  C   UNL A   1      35.413  29.825  27.768  1.00  0.00     0.016 A 
ATOM     29  C   UNL A   1      35.854  32.205  28.047  1.00  0.00     0.016 A 
ATOM     30  C   UNL A   1      36.672  29.529  28.265  1.00  0.00     0.010 A 
ATOM     31  C   UNL A   1      37.122  31.905  28.545  1.00  0.00     0.010 A 
ATOM     32  C   UNL A   1      37.513  30.563  28.695  1.00  0.00    -0.014 A 
BRANCH  32  33
ATOM     33  C   UNL A   1      38.731  30.204  29.452  1.00  0.00     0.031 A 
ATOM     34  C   UNL A   1      38.865  30.687  30.869  1.00  0.00     0.074 A 
ATOM     35  C   UNL A   1      39.645  29.386  28.905  1.00  0.00     0.049 A 
ATOM     36  N   UNL A   1      39.810  30.452  31.739  1.00  0.00    -0.248 NA
ATOM     37  C   UNL A   1      37.784  31.550  31.370  1.00  0.00     0.031 C 
ATOM     38  C   UNL A   1      39.572  28.828  27.554  1.00  0.00     0.029 A 
ATOM     39  N   UNL A   1      40.803  28.870  29.421  1.00  0.00    -0.354 N 
ATOM     40  C   UNL A   1      39.441  31.139  32.890  1.00  0.00     0.074 A 
ATOM     41  C   UNL A   1      38.209  31.835  32.590  1.00  0.00     0.031 C 
ATOM     42  C   UNL A   1      40.636  28.034  27.355  1.00  0.00     0.029 A 
ATOM     43  C   UNL A   1      41.483  28.060  28.544  1.00  0.00     0.049 A 
ATOM     44  H   UNL A   1      41.118  29.060  30.335  1.00  0.00     0.167 HD
ATOM     45  C   UNL A   1      40.071  31.171  34.090  1.00  0.00     0.034 A 
ATOM     46  C   UNL A   1      42.664  27.428  28.686  1.00  0.00     0.034 A 
ATOM     47  C   UNL A   1      41.306  30.474  34.355  1.00  0.00     0.049 A 
ATOM     48  C   UNL A   1      43.392  27.552  30.002  1.00  0.00     0.074 A 
ATOM     49  C   UNL A   1      42.031  30.417  35.530  1.00  0.00     0.029 A 
ATOM     50  N   UNL A   1      42.009  29.721  33.420  1.00  0.00    -0.354 N 
ATOM     51  N   UNL A   1      43.028  28.191  31.091  1.00  0.00    -0.248 NA
ATOM     52  C   UNL A   1      44.682  26.862  30.110  1.00  0.00     0.031 C 
ATOM     53  C   UNL A   1      43.211  29.706  35.284  1.00  0.00     0.029 A 
ATOM     54  C   UNL A   1      43.181  29.237  33.980  1.00  0.00     0.049 A 
ATOM     55  H   UNL A   1      41.718  29.557  32.493  1.00  0.00     0.167 HD
ATOM     56  C   UNL A   1      44.035  27.957  32.023  1.00  0.00     0.074 A 
ATOM     57  C   UNL A   1      45.007  27.101  31.371  1.00  0.00     0.031 C 
ATOM     58  C   UNL A   1      44.148  28.402  33.302  1.00  0.00     0.034 A 
BRANCH  45  59
ATOM     59  C   UNL A   1      39.465  32.037  35.169  1.00  0.00     0.023 A 
ATOM     60  C   UNL A   1      39.835  33.383  35.344  1.00  0.00     0.031 A 
ATOM     61  C   UNL A   1      38.531  31.493  36.069  1.00  0.00     0.131 A 
ATOM     62  C   UNL A   1      39.334  34.112  36.433  1.00  0.00     0.055 A 
ATOM     63  C   UNL A   1      37.971  32.250  37.101  1.00  0.00     0.041 A 
ATOM     64  F   UNL A   1      38.159  30.207  35.974  1.00  0.00    -0.206 F 
ATOM     65  C   UNL A   1      38.385  33.564  37.298  1.00  0.00     0.022 A 
BRANCH  62  66
ATOM     66  S   UNL A   1      40.061  35.735  36.800  1.00  0.00     0.124 S 
ATOM     67  O   UNL A   1      39.579  36.535  35.677  1.00  0.00    -0.237 OA
ATOM     68  O   UNL A   1      39.486  36.050  38.103  1.00  0.00    -0.237 OA
ATOM     69  O   UNL A   1      41.499  35.475  36.798  1.00  0.00    -0.744 OA
ENDBRANCH  62  66
ENDBRANCH  45  59
BRANCH  46  70
ATOM     70  C   UNL A   1      43.245  26.654  27.553  1.00  0.00     0.023 A 
ATOM     71  C   UNL A   1      43.041  25.271  27.434  1.00  0.00     0.031 A 
ATOM     72  C   UNL A   1      44.050  27.285  26.587  1.00  0.00     0.131 A 
ATOM     73  C   UNL A   1      43.667  24.558  26.399  1.00  0.00     0.055 A 
ATOM     74  C   UNL A   1      44.624  26.582  25.528  1.00  0.00     0.041 A 
ATOM     75  F   UNL A   1      44.280  28.607  26.653  1.00  0.00    -0.206 F 
ATOM     76  C   UNL A   1      44.444  25.206  25.437  1.00  0.00     0.022 A 
BRANCH  73  77
ATOM     77  S   UNL A   1      43.517  22.750  26.377  1.00  0.00     0.124 S 
ATOM     78  O   UNL A   1      42.929  22.484  27.684  1.00  0.00    -0.237 OA
ATOM     79  O   UNL A   1      42.648  22.533  25.224  1.00  0.00    -0.237 OA
ATOM     80  O   UNL A   1      44.897  22.297  26.207  1.00  0.00    -0.744 OA
ENDBRANCH  73  77
ENDBRANCH  46  70
BRANCH  58  81
ATOM     81  C   UNL A   1      45.356  27.937  34.082  1.00  0.00     0.023 A 
ATOM     82  C   UNL A   1      45.348  26.734  34.808  1.00  0.00     0.031 A 
ATOM     83  C   UNL A   1      46.522  28.722  34.114  1.00  0.00     0.131 A 
ATOM     84  C   UNL A   1      46.460  26.382  35.589  1.00  0.00     0.055 A 
ATOM     85  C   UNL A   1      47.651  28.331  34.835  1.00  0.00     0.041 A 
ATOM     86  F   UNL A   1      46.585  29.883  33.443  1.00  0.00    -0.206 F 
ATOM     87  C   UNL A   1      47.618  27.163  35.591  1.00  0.00     0.022 A 
BRANCH  84  88
ATOM     88  S   UNL A   1      46.327  24.950  36.693  1.00  0.00     0.124 S 
ATOM     89  O   UNL A   1      47.626  24.959  37.358  1.00  0.00    -0.237 OA
ATOM     90  O   UNL A   1      45.181  25.302  37.526  1.00  0.00    -0.237 OA
ATOM     91  O   UNL A   1      46.107  23.832  35.777  1.00  0.00    -0.744 OA
ENDBRANCH  84  88
ENDBRANCH  58  81
ENDBRANCH  32  33
ENDBRANCH  25  27
ENDBRANCH  24  25
ENDBRANCH  23  24
ENDBRANCH  22  23
ENDBRANCH  21  22
ENDBRANCH  20  21
ENDBRANCH   1  20
TORSDOF 24
ENDMDL
MODEL 3
REMARK VINA RESULT:      -8.1      4.755      8.020
REMARK SMILES CC[C@@H]([NH3+])C(=O)NCCOCC(=O)OCCOCCOC(=O)c1ccc(-c2c3nc(c(-c4cc(S(=O)(=O)[O-])ccc4F)c4ccc([nH]4)c(-c4cc(S(=O)(=O)[O-])ccc4F)c4nc(c(-c5cc(S(=O)(=O)[O-])ccc5F)c5ccc2[nH]5)C=C4)C=C3)cc1
REMARK SMILES IDX 15 1 14 2 12 3 13 4 11 5 10 6 9 7 8 8 7 9 5 10 6 11 3 13
REMARK SMILES IDX 2 14 1 15 4 16 16 20 17 21 18 22 19 23 20 24 21 25 22 26
REMARK SMILES IDX 23 27 24 28 85 29 25 30 84 31 26 32 27 33 28 34 78 35 29 36
REMARK SMILES IDX 83 37 77 38 79 39 30 40 82 41 76 42 75 43 31 45 63 46 43 47
REMARK SMILES IDX 62 48 44 49 47 50 61 51 80 52 45 53 46 54 60 56 81 57 48 58
REMARK SMILES IDX 32 59 33 60 41 61 34 62 40 63 42 64 39 65 35 66 36 67 37 68
REMARK SMILES IDX 38 69 64 70 65 71 73 72 66 73 72 74 74 75 71 76 67 77 68 78
REMARK SMILES IDX 69 79 70 80 49 81 50 82 58 83 51 84 57 85 59 86 56 87 52 88
REMARK SMILES IDX 53 89 54 90 55 91
REMARK H PARENT 7 12 4 17 4 18 4 19 79 44 47 55
REMARK Flexibility Score: inf
ROOT
ATOM      1  C   UNL A   1      34.948  24.097  24.397  1.00  0.00     0.261 C 
ENDROOT
BRANCH   1   2
ATOM      2  O   UNL A   1      33.832  24.311  25.300  1.00  0.00    -0.462 OA
BRANCH   2   3
ATOM      3  C   UNL A   1      32.684  24.780  24.735  1.00  0.00     0.332 C 
ATOM      4  O   UNL A   1      32.386  25.964  24.624  1.00  0.00    -0.250 OA
BRANCH   3   5
ATOM      5  C   UNL A   1      31.735  23.659  24.265  1.00  0.00     0.282 C 
BRANCH   5   6
ATOM      6  O   UNL A   1      31.771  22.936  23.058  1.00  0.00    -0.368 OA
BRANCH   6   7
ATOM      7  C   UNL A   1      32.350  21.636  23.023  1.00  0.00     0.182 C 
BRANCH   7   8
ATOM      8  C   UNL A   1      32.630  20.909  24.356  1.00  0.00     0.144 C 
BRANCH   8   9
ATOM      9  N   UNL A   1      33.878  20.159  24.416  1.00  0.00    -0.349 N 
ATOM     10  C   UNL A   1      34.108  18.821  24.572  1.00  0.00     0.278 C 
ATOM     11  O   UNL A   1      35.226  18.407  24.243  1.00  0.00    -0.268 OA
ATOM     12  H   UNL A   1      34.691  20.707  24.328  1.00  0.00     0.163 HD
BRANCH  10  13
ATOM     13  C   UNL A   1      33.065  17.821  25.134  1.00  0.00     0.270 C 
BRANCH  13  14
ATOM     14  C   UNL A   1      33.519  16.366  25.025  1.00  0.00     0.072 C 
ATOM     15  C   UNL A   1      32.485  15.319  25.410  1.00  0.00     0.011 C 
ENDBRANCH  13  14
BRANCH  13  16
ATOM     16  N   UNL A   1      32.665  18.197  26.502  1.00  0.00    -0.347 N 
ATOM     17  H   UNL A   1      31.673  18.429  26.514  1.00  0.00     0.345 HD
ATOM     18  H   UNL A   1      33.208  19.005  26.804  1.00  0.00     0.345 HD
ATOM     19  H   UNL A   1      32.840  17.414  27.133  1.00  0.00     0.345 HD
ENDBRANCH  13  16
ENDBRANCH  10  13
ENDBRANCH   8   9
ENDBRANCH   7   8
ENDBRANCH   6   7
ENDBRANCH   5   6
ENDBRANCH   3   5
ENDBRANCH   2   3
ENDBRANCH   1   2
BRANCH   1  20
ATOM     20  C   UNL A   1      36.099  23.303  25.034  1.00  0.00     0.202 C 
BRANCH  20  21
ATOM     21  O   UNL A   1      36.482  22.107  24.353  1.00  0.00    -0.374 OA
BRANCH  21  22
ATOM     22  C   UNL A   1      37.089  21.123  25.178  1.00  0.00     0.202 C 
BRANCH  22  23
ATOM     23  C   UNL A   1      38.464  21.483  25.743  1.00  0.00     0.261 C 
BRANCH  23  24
ATOM     24  O   UNL A   1      39.068  20.344  26.357  1.00  0.00    -0.460 OA
BRANCH  24  25
ATOM     25  C   UNL A   1      40.409  20.450  26.493  1.00  0.00     0.338 C 
ATOM     26  O   UNL A   1      41.252  19.637  26.166  1.00  0.00    -0.246 OA
BRANCH  25  27
ATOM     27  C   UNL A   1      40.718  21.822  26.913  1.00  0.00     0.060 A 
ATOM     28  C   UNL A   1      40.277  22.844  26.069  1.00  0.00     0.016 A 
ATOM     29  C   UNL A   1      41.423  22.103  28.088  1.00  0.00     0.016 A 
ATOM     30  C   UNL A   1      40.602  24.160  26.362  1.00  0.00     0.010 A 
ATOM     31  C   UNL A   1      41.747  23.428  28.382  1.00  0.00     0.010 A 
ATOM     32  C   UNL A   1      41.374  24.452  27.494  1.00  0.00    -0.014 A 
BRANCH  32  33
ATOM     33  C   UNL A   1      41.918  25.819  27.634  1.00  0.00     0.031 A 
ATOM     34  C   UNL A   1      41.114  26.838  28.391  1.00  0.00     0.074 A 
ATOM     35  C   UNL A   1      43.146  26.104  27.170  1.00  0.00     0.049 A 
ATOM     36  N   UNL A   1      41.412  28.075  28.688  1.00  0.00    -0.248 NA
ATOM     37  C   UNL A   1      39.797  26.400  28.879  1.00  0.00     0.031 C 
ATOM     38  C   UNL A   1      44.018  25.162  26.467  1.00  0.00     0.029 A 
ATOM     39  N   UNL A   1      43.878  27.258  27.234  1.00  0.00    -0.354 N 
ATOM     40  C   UNL A   1      40.321  28.565  29.397  1.00  0.00     0.074 A 
ATOM     41  C   UNL A   1      39.338  27.506  29.443  1.00  0.00     0.031 C 
ATOM     42  C   UNL A   1      45.177  25.776  26.178  1.00  0.00     0.029 A 
ATOM     43  C   UNL A   1      45.112  27.161  26.637  1.00  0.00     0.049 A 
ATOM     44  H   UNL A   1      43.553  28.080  27.669  1.00  0.00     0.167 HD
ATOM     45  C   UNL A   1      40.165  29.786  29.965  1.00  0.00     0.034 A 
ATOM     46  C   UNL A   1      46.068  28.094  26.467  1.00  0.00     0.034 A 
ATOM     47  C   UNL A   1      41.162  30.826  29.891  1.00  0.00     0.049 A 
ATOM     48  C   UNL A   1      45.834  29.474  27.031  1.00  0.00     0.074 A 
ATOM     49  C   UNL A   1      41.128  32.096  30.437  1.00  0.00     0.029 A 
ATOM     50  N   UNL A   1      42.371  30.720  29.212  1.00  0.00    -0.354 N 
ATOM     51  N   UNL A   1      44.805  29.925  27.713  1.00  0.00    -0.248 NA
ATOM     52  C   UNL A   1      46.893  30.465  26.811  1.00  0.00     0.031 C 
ATOM     53  C   UNL A   1      42.272  32.785  30.018  1.00  0.00     0.029 A 
ATOM     54  C   UNL A   1      43.068  31.917  29.287  1.00  0.00     0.049 A 
ATOM     55  H   UNL A   1      42.688  29.914  28.744  1.00  0.00     0.167 HD
ATOM     56  C   UNL A   1      45.108  31.247  28.027  1.00  0.00     0.074 A 
ATOM     57  C   UNL A   1      46.423  31.509  27.476  1.00  0.00     0.031 C 
ATOM     58  C   UNL A   1      44.371  32.162  28.709  1.00  0.00     0.034 A 
BRANCH  45  59
ATOM     59  C   UNL A   1      38.849  30.070  30.650  1.00  0.00     0.023 A 
ATOM     60  C   UNL A   1      37.793  30.729  29.996  1.00  0.00     0.031 A 
ATOM     61  C   UNL A   1      38.665  29.713  31.999  1.00  0.00     0.131 A 
ATOM     62  C   UNL A   1      36.635  31.077  30.710  1.00  0.00     0.055 A 
ATOM     63  C   UNL A   1      37.476  29.987  32.679  1.00  0.00     0.041 A 
ATOM     64  F   UNL A   1      39.646  29.109  32.686  1.00  0.00    -0.206 F 
ATOM     65  C   UNL A   1      36.459  30.688  32.038  1.00  0.00     0.022 A 
BRANCH  62  66
ATOM     66  S   UNL A   1      35.430  32.185  29.924  1.00  0.00     0.124 S 
ATOM     67  O   UNL A   1      34.474  32.398  31.008  1.00  0.00    -0.237 OA
ATOM     68  O   UNL A   1      36.251  33.334  29.559  1.00  0.00    -0.237 OA
ATOM     69  O   UNL A   1      34.922  31.398  28.802  1.00  0.00    -0.744 OA
ENDBRANCH  62  66
ENDBRANCH  45  59
BRANCH  46  70
ATOM     70  C   UNL A   1      47.311  27.771  25.711  1.00  0.00     0.023 A 
ATOM     71  C   UNL A   1      47.397  27.980  24.326  1.00  0.00     0.031 A 
ATOM     72  C   UNL A   1      48.425  27.209  26.362  1.00  0.00     0.131 A 
ATOM     73  C   UNL A   1      48.554  27.592  23.631  1.00  0.00     0.055 A 
ATOM     74  C   UNL A   1      49.593  26.876  25.677  1.00  0.00     0.041 A 
ATOM     75  F   UNL A   1      48.395  26.986  27.686  1.00  0.00    -0.206 F 
ATOM     76  C   UNL A   1      49.657  27.056  24.299  1.00  0.00     0.022 A 
BRANCH  73  77
ATOM     77  S   UNL A   1      48.564  27.721  21.822  1.00  0.00     0.124 S 
ATOM     78  O   UNL A   1      49.448  28.860  21.610  1.00  0.00    -0.237 OA
ATOM     79  O   UNL A   1      49.089  26.416  21.429  1.00  0.00    -0.237 OA
ATOM     80  O   UNL A   1      47.158  27.948  21.490  1.00  0.00    -0.744 OA
ENDBRANCH  73  77
ENDBRANCH  46  70
BRANCH  58  81
ATOM     81  C   UNL A   1      44.997  33.521  28.920  1.00  0.00     0.023 A 
ATOM     82  C   UNL A   1      45.791  33.802  30.046  1.00  0.00     0.031 A 
ATOM     83  C   UNL A   1      44.777  34.554  27.992  1.00  0.00     0.131 A 
ATOM     84  C   UNL A   1      46.281  35.101  30.248  1.00  0.00     0.055 A 
ATOM     85  C   UNL A   1      45.327  35.825  28.162  1.00  0.00     0.041 A 
ATOM     86  F   UNL A   1      44.022  34.345  26.901  1.00  0.00    -0.206 F 
ATOM     87  C   UNL A   1      46.071  36.109  29.304  1.00  0.00     0.022 A 
BRANCH  84  88
ATOM     88  S   UNL A   1      47.100  35.484  31.820  1.00  0.00     0.124 S 
ATOM     89  O   UNL A   1      47.849  34.258  32.078  1.00  0.00    -0.237 OA
ATOM     90  O   UNL A   1      47.898  36.658  31.479  1.00  0.00    -0.237 OA
ATOM     91  O   UNL A   1      45.988  35.735  32.734  1.00  0.00    -0.744 OA
ENDBRANCH  84  88
ENDBRANCH  58  81
ENDBRANCH  32  33
ENDBRANCH  25  27
ENDBRANCH  24  25
ENDBRANCH  23  24
ENDBRANCH  22  23
ENDBRANCH  21  22
ENDBRANCH  20  21
ENDBRANCH   1  20
TORSDOF 24
ENDMDL
