MODEL 1
REMARK VINA RESULT:     -11.4      0.000      0.000
REMARK SMILES COc1nc2c(cc1C(=O)NCc1ccc(C(=O)OCCOCCOC(=O)c3ccc(-c4c5nc(c(-c6cc(S(=O)(=O)[O-])ccc6F)c6ccc([nH]6)c(-c6cc(S(=O)(=O)[O-])ccc6F)c6nc(c(-c7cc(S(=O)(=O)[O-])ccc7F)c7ccc4[nH]7)C=C6)C=C5)cc3)s1)CCC2
REMARK SMILES IDX 21 1 20 2 19 3 17 4 18 5 16 6 13 7 14 8 91 9 15 10 12 11
REMARK SMILES IDX 11 12 9 13 10 14 8 16 3 17 4 18 5 19 7 20 6 21 94 22 92 23
REMARK SMILES IDX 93 24 2 25 1 26 22 27 23 28 24 29 25 30 26 31 27 32 28 33
REMARK SMILES IDX 29 34 90 35 30 36 89 37 31 38 32 39 33 40 83 41 34 42 88 43
REMARK SMILES IDX 82 44 84 45 35 46 87 47 81 48 80 49 36 51 68 52 48 53 67 54
REMARK SMILES IDX 49 55 52 56 66 57 85 58 50 59 51 60 65 62 86 63 53 64 37 65
REMARK SMILES IDX 38 66 46 67 39 68 45 69 47 70 44 71 40 72 41 73 42 74 43 75
REMARK SMILES IDX 69 76 70 77 78 78 71 79 77 80 79 81 76 82 72 83 73 84 74 85
REMARK SMILES IDX 75 86 54 87 55 88 63 89 56 90 62 91 64 92 61 93 57 94 58 95
REMARK SMILES IDX 59 96 60 97
REMARK H PARENT 11 15 84 50 52 61
REMARK Flexibility Score: inf
ROOT
ATOM      1  C   UNL A   1      34.787  21.388  25.701  1.00  0.00     0.202 C 
ENDROOT
BRANCH   1   2
ATOM      2  C   UNL A   1      33.702  22.269  25.071  1.00  0.00     0.261 C 
BRANCH   2   3
ATOM      3  O   UNL A   1      34.308  23.293  24.265  1.00  0.00    -0.459 OA
BRANCH   3   4
ATOM      4  C   UNL A   1      33.682  23.568  23.083  1.00  0.00     0.348 C 
ATOM      5  O   UNL A   1      33.229  22.717  22.325  1.00  0.00    -0.245 OA
BRANCH   4   6
ATOM      6  C   UNL A   1      33.494  25.001  22.964  1.00  0.00     0.112 A 
ATOM      7  C   UNL A   1      33.620  27.427  23.477  1.00  0.00     0.025 A 
ATOM      8  C   UNL A   1      33.284  27.186  22.158  1.00  0.00     0.018 A 
ATOM      9  S   UNL A   1      33.717  25.961  24.362  1.00  0.00    -0.131 S 
ATOM     10  C   UNL A   1      33.232  25.787  21.857  1.00  0.00     0.028 A 
BRANCH   7  11
ATOM     11  C   UNL A   1      33.933  28.691  24.203  1.00  0.00     0.163 C 
BRANCH  11  12
ATOM     12  N   UNL A   1      32.926  29.037  25.181  1.00  0.00    -0.347 N 
ATOM     13  C   UNL A   1      31.615  28.631  25.201  1.00  0.00     0.257 C 
ATOM     14  O   UNL A   1      31.207  28.068  26.219  1.00  0.00    -0.269 OA
ATOM     15  H   UNL A   1      33.213  29.628  25.914  1.00  0.00     0.164 HD
BRANCH  13  16
ATOM     16  C   UNL A   1      30.618  29.069  24.191  1.00  0.00     0.102 A 
ATOM     17  C   UNL A   1      29.930  28.283  23.263  1.00  0.00     0.226 A 
ATOM     18  N   UNL A   1      29.026  28.762  22.363  1.00  0.00    -0.218 NA
ATOM     19  C   UNL A   1      28.798  30.082  22.413  1.00  0.00     0.048 A 
ATOM     20  C   UNL A   1      30.288  30.437  24.240  1.00  0.00     0.025 A 
ATOM     21  C   UNL A   1      29.371  30.939  23.338  1.00  0.00    -0.025 A 
ATOM     22  C   UNL A   1      27.842  30.819  21.518  1.00  0.00     0.057 C 
ATOM     23  C   UNL A   1      28.821  32.320  23.212  1.00  0.00     0.038 C 
ATOM     24  C   UNL A   1      28.247  32.277  21.787  1.00  0.00     0.011 C 
BRANCH  17  25
ATOM     25  O   UNL A   1      30.069  26.926  23.218  1.00  0.00    -0.480 OA
ATOM     26  C   UNL A   1      28.887  26.313  23.728  1.00  0.00     0.280 C 
ENDBRANCH  17  25
ENDBRANCH  13  16
ENDBRANCH  11  12
ENDBRANCH   7  11
ENDBRANCH   4   6
ENDBRANCH   3   4
ENDBRANCH   2   3
ENDBRANCH   1   2
BRANCH   1  27
ATOM     27  O   UNL A   1      35.108  20.212  24.952  1.00  0.00    -0.374 OA
BRANCH  27  28
ATOM     28  C   UNL A   1      36.480  19.809  24.954  1.00  0.00     0.202 C 
BRANCH  28  29
ATOM     29  C   UNL A   1      37.489  20.927  24.665  1.00  0.00     0.261 C 
BRANCH  29  30
ATOM     30  O   UNL A   1      37.929  21.547  25.888  1.00  0.00    -0.460 OA
BRANCH  30  31
ATOM     31  C   UNL A   1      39.246  21.405  26.168  1.00  0.00     0.338 C 
ATOM     32  O   UNL A   1      39.973  20.479  25.854  1.00  0.00    -0.246 OA
BRANCH  31  33
ATOM     33  C   UNL A   1      39.752  22.657  26.760  1.00  0.00     0.060 A 
ATOM     34  C   UNL A   1      39.192  23.858  26.309  1.00  0.00     0.016 A 
ATOM     35  C   UNL A   1      40.794  22.662  27.692  1.00  0.00     0.016 A 
ATOM     36  C   UNL A   1      39.695  25.074  26.763  1.00  0.00     0.010 A 
ATOM     37  C   UNL A   1      41.312  23.885  28.130  1.00  0.00     0.010 A 
ATOM     38  C   UNL A   1      40.784  25.093  27.642  1.00  0.00    -0.014 A 
BRANCH  38  39
ATOM     39  C   UNL A   1      41.454  26.382  27.929  1.00  0.00     0.031 A 
ATOM     40  C   UNL A   1      42.841  26.613  27.401  1.00  0.00     0.074 A 
ATOM     41  C   UNL A   1      40.817  27.349  28.612  1.00  0.00     0.049 A 
ATOM     42  N   UNL A   1      43.585  27.685  27.476  1.00  0.00    -0.248 NA
ATOM     43  C   UNL A   1      43.472  25.489  26.688  1.00  0.00     0.031 C 
ATOM     44  C   UNL A   1      39.463  27.245  29.148  1.00  0.00     0.029 A 
ATOM     45  N   UNL A   1      41.229  28.608  28.972  1.00  0.00    -0.354 N 
ATOM     46  C   UNL A   1      44.762  27.373  26.807  1.00  0.00     0.074 A 
ATOM     47  C   UNL A   1      44.650  26.001  26.364  1.00  0.00     0.031 C 
ATOM     48  C   UNL A   1      39.157  28.392  29.779  1.00  0.00     0.029 A 
ATOM     49  C   UNL A   1      40.300  29.303  29.707  1.00  0.00     0.049 A 
ATOM     50  H   UNL A   1      42.108  28.978  28.727  1.00  0.00     0.167 HD
ATOM     51  C   UNL A   1      45.832  28.167  26.571  1.00  0.00     0.034 A 
ATOM     52  C   UNL A   1      40.365  30.531  30.262  1.00  0.00     0.034 A 
ATOM     53  C   UNL A   1      45.944  29.523  27.033  1.00  0.00     0.049 A 
ATOM     54  C   UNL A   1      41.597  31.373  30.046  1.00  0.00     0.074 A 
ATOM     55  C   UNL A   1      46.983  30.413  26.826  1.00  0.00     0.029 A 
ATOM     56  N   UNL A   1      44.996  30.184  27.801  1.00  0.00    -0.354 N 
ATOM     57  N   UNL A   1      42.671  31.096  29.345  1.00  0.00    -0.248 NA
ATOM     58  C   UNL A   1      41.627  32.697  30.684  1.00  0.00     0.031 C 
ATOM     59  C   UNL A   1      46.686  31.595  27.509  1.00  0.00     0.029 A 
ATOM     60  C   UNL A   1      45.439  31.460  28.100  1.00  0.00     0.049 A 
ATOM     61  H   UNL A   1      44.137  29.802  28.090  1.00  0.00     0.167 HD
ATOM     62  C   UNL A   1      43.492  32.217  29.437  1.00  0.00     0.074 A 
ATOM     63  C   UNL A   1      42.784  33.183  30.251  1.00  0.00     0.031 C 
ATOM     64  C   UNL A   1      44.719  32.424  28.899  1.00  0.00     0.034 A 
BRANCH  51  65
ATOM     65  C   UNL A   1      46.973  27.601  25.773  1.00  0.00     0.023 A 
ATOM     66  C   UNL A   1      47.132  27.951  24.421  1.00  0.00     0.031 A 
ATOM     67  C   UNL A   1      47.835  26.636  26.323  1.00  0.00     0.131 A 
ATOM     68  C   UNL A   1      48.121  27.322  23.655  1.00  0.00     0.055 A 
ATOM     69  C   UNL A   1      48.836  26.032  25.563  1.00  0.00     0.041 A 
ATOM     70  F   UNL A   1      47.721  26.278  27.613  1.00  0.00    -0.206 F 
ATOM     71  C   UNL A   1      48.976  26.368  24.219  1.00  0.00     0.022 A 
BRANCH  68  72
ATOM     72  S   UNL A   1      48.320  27.698  21.893  1.00  0.00     0.124 S 
ATOM     73  O   UNL A   1      49.427  28.653  21.911  1.00  0.00    -0.237 OA
ATOM     74  O   UNL A   1      48.636  26.386  21.336  1.00  0.00    -0.237 OA
ATOM     75  O   UNL A   1      47.029  28.258  21.507  1.00  0.00    -0.744 OA
ENDBRANCH  68  72
ENDBRANCH  51  65
BRANCH  52  76
ATOM     76  C   UNL A   1      39.199  31.036  31.040  1.00  0.00     0.023 A 
ATOM     77  C   UNL A   1      38.163  31.747  30.407  1.00  0.00     0.031 A 
ATOM     78  C   UNL A   1      39.149  30.891  32.436  1.00  0.00     0.131 A 
ATOM     79  C   UNL A   1      37.150  32.332  31.176  1.00  0.00     0.055 A 
ATOM     80  C   UNL A   1      38.105  31.428  33.192  1.00  0.00     0.041 A 
ATOM     81  F   UNL A   1      40.120  30.227  33.082  1.00  0.00    -0.206 F 
ATOM     82  C   UNL A   1      37.106  32.163  32.563  1.00  0.00     0.022 A 
BRANCH  79  83
ATOM     83  S   UNL A   1      35.904  33.404  30.409  1.00  0.00     0.124 S 
ATOM     84  O   UNL A   1      34.809  32.472  30.158  1.00  0.00    -0.237 OA
ATOM     85  O   UNL A   1      35.671  34.385  31.467  1.00  0.00    -0.237 OA
ATOM     86  O   UNL A   1      36.576  33.917  29.220  1.00  0.00    -0.744 OA
ENDBRANCH  79  83
ENDBRANCH  52  76
BRANCH  64  87
ATOM     87  C   UNL A   1      45.408  33.742  29.148  1.00  0.00     0.023 A 
ATOM     88  C   UNL A   1      45.442  34.720  28.136  1.00  0.00     0.031 A 
ATOM     89  C   UNL A   1      46.161  33.959  30.313  1.00  0.00     0.131 A 
ATOM     90  C   UNL A   1      46.247  35.855  28.293  1.00  0.00     0.055 A 
ATOM     91  C   UNL A   1      46.931  35.110  30.481  1.00  0.00     0.041 A 
ATOM     92  F   UNL A   1      46.167  33.049  31.300  1.00  0.00    -0.206 F 
ATOM     93  C   UNL A   1      46.987  36.058  29.463  1.00  0.00     0.022 A 
BRANCH  90  94
ATOM     94  S   UNL A   1      46.420  37.072  26.959  1.00  0.00     0.124 S 
ATOM     95  O   UNL A   1      47.619  37.801  27.367  1.00  0.00    -0.237 OA
ATOM     96  O   UNL A   1      46.578  36.219  25.785  1.00  0.00    -0.237 OA
ATOM     97  O   UNL A   1      45.179  37.839  27.019  1.00  0.00    -0.744 OA
ENDBRANCH  90  94
ENDBRANCH  64  87
ENDBRANCH  38  39
ENDBRANCH  31  33
ENDBRANCH  30  31
ENDBRANCH  29  30
ENDBRANCH  28  29
ENDBRANCH  27  28
ENDBRANCH   1  27
TORSDOF 21
ENDMDL
MODEL 2
REMARK VINA RESULT:     -11.3      4.923     10.015
REMARK SMILES COc1nc2c(cc1C(=O)NCc1ccc(C(=O)OCCOCCOC(=O)c3ccc(-c4c5nc(c(-c6cc(S(=O)(=O)[O-])ccc6F)c6ccc([nH]6)c(-c6cc(S(=O)(=O)[O-])ccc6F)c6nc(c(-c7cc(S(=O)(=O)[O-])ccc7F)c7ccc4[nH]7)C=C6)C=C5)cc3)s1)CCC2
REMARK SMILES IDX 21 1 20 2 19 3 17 4 18 5 16 6 13 7 14 8 91 9 15 10 12 11
REMARK SMILES IDX 11 12 9 13 10 14 8 16 3 17 4 18 5 19 7 20 6 21 94 22 92 23
REMARK SMILES IDX 93 24 2 25 1 26 22 27 23 28 24 29 25 30 26 31 27 32 28 33
REMARK SMILES IDX 29 34 90 35 30 36 89 37 31 38 32 39 33 40 83 41 34 42 88 43
REMARK SMILES IDX 82 44 84 45 35 46 87 47 81 48 80 49 36 51 68 52 48 53 67 54
REMARK SMILES IDX 49 55 52 56 66 57 85 58 50 59 51 60 65 62 86 63 53 64 37 65
REMARK SMILES IDX 38 66 46 67 39 68 45 69 47 70 44 71 40 72 41 73 42 74 43 75
REMARK SMILES IDX 69 76 70 77 78 78 71 79 77 80 79 81 76 82 72 83 73 84 74 85
REMARK SMILES IDX 75 86 54 87 55 88 63 89 56 90 62 91 64 92 61 93 57 94 58 95
REMARK SMILES IDX 59 96 60 97
REMARK H PARENT 11 15 84 50 52 61
REMARK Flexibility Score: inf
ROOT
ATOM      1  C   UNL A   1      31.472  29.904  25.492  1.00  0.00     0.202 C 
ENDROOT
BRANCH   1   2
ATOM      2  C   UNL A   1      30.570  30.261  24.305  1.00  0.00     0.261 C 
BRANCH   2   3
ATOM      3  O   UNL A   1      31.042  29.607  23.116  1.00  0.00    -0.459 OA
BRANCH   3   4
ATOM      4  C   UNL A   1      30.099  28.936  22.392  1.00  0.00     0.348 C 
ATOM      5  O   UNL A   1      29.489  29.410  21.440  1.00  0.00    -0.245 OA
BRANCH   4   6
ATOM      6  C   UNL A   1      30.066  27.549  22.819  1.00  0.00     0.112 A 
ATOM      7  C   UNL A   1      30.828  25.245  23.342  1.00  0.00     0.025 A 
ATOM      8  C   UNL A   1      29.622  25.549  23.944  1.00  0.00     0.018 A 
ATOM      9  S   UNL A   1      31.343  26.526  22.322  1.00  0.00    -0.131 S 
ATOM     10  C   UNL A   1      29.193  26.885  23.659  1.00  0.00     0.028 A 
BRANCH   7  11
ATOM     11  C   UNL A   1      31.724  24.060  23.462  1.00  0.00     0.163 C 
BRANCH  11  12
ATOM     12  N   UNL A   1      31.769  23.528  24.806  1.00  0.00    -0.347 N 
ATOM     13  C   UNL A   1      32.801  23.633  25.705  1.00  0.00     0.257 C 
ATOM     14  O   UNL A   1      32.549  24.121  26.809  1.00  0.00    -0.269 OA
ATOM     15  H   UNL A   1      30.972  23.038  25.110  1.00  0.00     0.164 HD
BRANCH  13  16
ATOM     16  C   UNL A   1      34.108  22.954  25.517  1.00  0.00     0.102 A 
ATOM     17  C   UNL A   1      34.357  21.708  24.935  1.00  0.00     0.226 A 
ATOM     18  N   UNL A   1      35.592  21.150  24.799  1.00  0.00    -0.218 NA
ATOM     19  C   UNL A   1      36.617  21.885  25.253  1.00  0.00     0.048 A 
ATOM     20  C   UNL A   1      35.229  23.708  25.915  1.00  0.00     0.025 A 
ATOM     21  C   UNL A   1      36.489  23.159  25.780  1.00  0.00    -0.025 A 
ATOM     22  C   UNL A   1      38.058  21.467  25.202  1.00  0.00     0.057 C 
ATOM     23  C   UNL A   1      37.822  23.759  26.079  1.00  0.00     0.038 C 
ATOM     24  C   UNL A   1      38.702  22.501  26.140  1.00  0.00     0.011 C 
BRANCH  17  25
ATOM     25  O   UNL A   1      33.360  20.951  24.391  1.00  0.00    -0.480 OA
ATOM     26  C   UNL A   1      33.388  19.649  24.972  1.00  0.00     0.280 C 
ENDBRANCH  17  25
ENDBRANCH  13  16
ENDBRANCH  11  12
ENDBRANCH   7  11
ENDBRANCH   4   6
ENDBRANCH   3   4
ENDBRANCH   2   3
ENDBRANCH   1   2
BRANCH   1  27
ATOM     27  O   UNL A   1      31.397  28.537  25.906  1.00  0.00    -0.374 OA
BRANCH  27  28
ATOM     28  C   UNL A   1      32.616  27.790  25.864  1.00  0.00     0.202 C 
BRANCH  28  29
ATOM     29  C   UNL A   1      33.891  28.610  26.089  1.00  0.00     0.261 C 
BRANCH  29  30
ATOM     30  O   UNL A   1      34.051  28.936  27.483  1.00  0.00    -0.460 OA
BRANCH  30  31
ATOM     31  C   UNL A   1      34.633  30.132  27.736  1.00  0.00     0.338 C 
ATOM     32  O   UNL A   1      34.113  31.233  27.681  1.00  0.00    -0.246 OA
BRANCH  31  33
ATOM     33  C   UNL A   1      35.978  29.907  28.293  1.00  0.00     0.060 A 
ATOM     34  C   UNL A   1      37.073  30.118  27.446  1.00  0.00     0.016 A 
ATOM     35  C   UNL A   1      36.166  29.441  29.597  1.00  0.00     0.016 A 
ATOM     36  C   UNL A   1      38.361  29.831  27.889  1.00  0.00     0.010 A 
ATOM     37  C   UNL A   1      37.458  29.132  30.033  1.00  0.00     0.010 A 
ATOM     38  C   UNL A   1      38.555  29.297  29.169  1.00  0.00    -0.014 A 
BRANCH  38  39
ATOM     39  C   UNL A   1      39.893  28.780  29.536  1.00  0.00     0.031 A 
ATOM     40  C   UNL A   1      40.672  29.481  30.613  1.00  0.00     0.074 A 
ATOM     41  C   UNL A   1      40.387  27.676  28.949  1.00  0.00     0.049 A 
ATOM     42  N   UNL A   1      41.826  29.163  31.135  1.00  0.00    -0.248 NA
ATOM     43  C   UNL A   1      40.066  30.698  31.180  1.00  0.00     0.031 C 
ATOM     44  C   UNL A   1      39.709  26.902  27.913  1.00  0.00     0.029 A 
ATOM     45  N   UNL A   1      41.576  27.018  29.142  1.00  0.00    -0.354 N 
ATOM     46  C   UNL A   1      42.079  30.127  32.104  1.00  0.00     0.074 A 
ATOM     47  C   UNL A   1      40.976  31.062  32.073  1.00  0.00     0.031 C 
ATOM     48  C   UNL A   1      40.498  25.875  27.553  1.00  0.00     0.029 A 
ATOM     49  C   UNL A   1      41.743  25.930  28.320  1.00  0.00     0.049 A 
ATOM     50  H   UNL A   1      42.245  27.299  29.807  1.00  0.00     0.167 HD
ATOM     51  C   UNL A   1      43.129  30.213  32.952  1.00  0.00     0.034 A 
ATOM     52  C   UNL A   1      42.784  25.080  28.195  1.00  0.00     0.034 A 
ATOM     53  C   UNL A   1      44.232  29.292  32.963  1.00  0.00     0.049 A 
ATOM     54  C   UNL A   1      43.977  25.237  29.104  1.00  0.00     0.074 A 
ATOM     55  C   UNL A   1      45.333  29.286  33.800  1.00  0.00     0.029 A 
ATOM     56  N   UNL A   1      44.383  28.220  32.095  1.00  0.00    -0.354 N 
ATOM     57  N   UNL A   1      44.168  26.106  30.069  1.00  0.00    -0.248 NA
ATOM     58  C   UNL A   1      45.091  24.298  28.919  1.00  0.00     0.031 C 
ATOM     59  C   UNL A   1      46.173  28.243  33.408  1.00  0.00     0.029 A 
ATOM     60  C   UNL A   1      45.573  27.565  32.358  1.00  0.00     0.049 A 
ATOM     61  H   UNL A   1      43.739  27.965  31.396  1.00  0.00     0.167 HD
ATOM     62  C   UNL A   1      45.410  25.803  30.620  1.00  0.00     0.074 A 
ATOM     63  C   UNL A   1      45.920  24.661  29.890  1.00  0.00     0.031 C 
ATOM     64  C   UNL A   1      46.066  26.416  31.636  1.00  0.00     0.034 A 
BRANCH  51  65
ATOM     65  C   UNL A   1      43.144  31.337  33.950  1.00  0.00     0.023 A 
ATOM     66  C   UNL A   1      42.339  31.272  35.101  1.00  0.00     0.031 A 
ATOM     67  C   UNL A   1      43.874  32.514  33.706  1.00  0.00     0.131 A 
ATOM     68  C   UNL A   1      42.266  32.378  35.957  1.00  0.00     0.055 A 
ATOM     69  C   UNL A   1      43.818  33.602  34.577  1.00  0.00     0.041 A 
ATOM     70  F   UNL A   1      44.661  32.615  32.622  1.00  0.00    -0.206 F 
ATOM     71  C   UNL A   1      43.004  33.540  35.705  1.00  0.00     0.022 A 
BRANCH  68  72
ATOM     72  S   UNL A   1      41.192  32.360  37.417  1.00  0.00     0.124 S 
ATOM     73  O   UNL A   1      42.079  31.803  38.437  1.00  0.00    -0.237 OA
ATOM     74  O   UNL A   1      40.869  33.774  37.575  1.00  0.00    -0.237 OA
ATOM     75  O   UNL A   1      40.083  31.495  37.026  1.00  0.00    -0.744 OA
ENDBRANCH  68  72
ENDBRANCH  51  65
BRANCH  52  76
ATOM     76  C   UNL A   1      42.706  23.985  27.189  1.00  0.00     0.023 A 
ATOM     77  C   UNL A   1      42.113  22.751  27.511  1.00  0.00     0.031 A 
ATOM     78  C   UNL A   1      43.300  24.127  25.924  1.00  0.00     0.131 A 
ATOM     79  C   UNL A   1      42.175  21.690  26.599  1.00  0.00     0.055 A 
ATOM     80  C   UNL A   1      43.310  23.083  24.996  1.00  0.00     0.041 A 
ATOM     81  F   UNL A   1      43.885  25.284  25.578  1.00  0.00    -0.206 F 
ATOM     82  C   UNL A   1      42.756  21.854  25.337  1.00  0.00     0.022 A 
BRANCH  79  83
ATOM     83  S   UNL A   1      41.582  20.038  27.055  1.00  0.00     0.124 S 
ATOM     84  O   UNL A   1      42.811  19.377  27.482  1.00  0.00    -0.237 OA
ATOM     85  O   UNL A   1      40.630  20.351  28.117  1.00  0.00    -0.237 OA
ATOM     86  O   UNL A   1      40.994  19.530  25.819  1.00  0.00    -0.744 OA
ENDBRANCH  79  83
ENDBRANCH  52  76
BRANCH  64  87
ATOM     87  C   UNL A   1      47.416  25.887  32.052  1.00  0.00     0.023 A 
ATOM     88  C   UNL A   1      47.521  25.018  33.154  1.00  0.00     0.031 A 
ATOM     89  C   UNL A   1      48.597  26.369  31.465  1.00  0.00     0.131 A 
ATOM     90  C   UNL A   1      48.785  24.689  33.661  1.00  0.00     0.055 A 
ATOM     91  C   UNL A   1      49.854  26.008  31.950  1.00  0.00     0.041 A 
ATOM     92  F   UNL A   1      48.544  27.209  30.419  1.00  0.00    -0.206 F 
ATOM     93  C   UNL A   1      49.951  25.174  33.062  1.00  0.00     0.022 A 
BRANCH  90  94
ATOM     94  S   UNL A   1      48.958  23.679  35.158  1.00  0.00     0.124 S 
ATOM     95  O   UNL A   1      47.741  22.869  35.120  1.00  0.00    -0.237 OA
ATOM     96  O   UNL A   1      50.197  22.953  34.895  1.00  0.00    -0.237 OA
ATOM     97  O   UNL A   1      49.018  24.657  36.239  1.00  0.00    -0.744 OA
ENDBRANCH  90  94
ENDBRANCH  64  87
ENDBRANCH  38  39
ENDBRANCH  31  33
ENDBRANCH  30  31
ENDBRANCH  29  30
ENDBRANCH  28  29
ENDBRANCH  27  28
ENDBRANCH   1  27
TORSDOF 21
ENDMDL
MODEL 3
REMARK VINA RESULT:     -11.3      5.070      8.570
REMARK SMILES COc1nc2c(cc1C(=O)NCc1ccc(C(=O)OCCOCCOC(=O)c3ccc(-c4c5nc(c(-c6cc(S(=O)(=O)[O-])ccc6F)c6ccc([nH]6)c(-c6cc(S(=O)(=O)[O-])ccc6F)c6nc(c(-c7cc(S(=O)(=O)[O-])ccc7F)c7ccc4[nH]7)C=C6)C=C5)cc3)s1)CCC2
REMARK SMILES IDX 21 1 20 2 19 3 17 4 18 5 16 6 13 7 14 8 91 9 15 10 12 11
REMARK SMILES IDX 11 12 9 13 10 14 8 16 3 17 4 18 5 19 7 20 6 21 94 22 92 23
REMARK SMILES IDX 93 24 2 25 1 26 22 27 23 28 24 29 25 30 26 31 27 32 28 33
REMARK SMILES IDX 29 34 90 35 30 36 89 37 31 38 32 39 33 40 83 41 34 42 88 43
REMARK SMILES IDX 82 44 84 45 35 46 87 47 81 48 80 49 36 51 68 52 48 53 67 54
REMARK SMILES IDX 49 55 52 56 66 57 85 58 50 59 51 60 65 62 86 63 53 64 37 65
REMARK SMILES IDX 38 66 46 67 39 68 45 69 47 70 44 71 40 72 41 73 42 74 43 75
REMARK SMILES IDX 69 76 70 77 78 78 71 79 77 80 79 81 76 82 72 83 73 84 74 85
REMARK SMILES IDX 75 86 54 87 55 88 63 89 56 90 62 91 64 92 61 93 57 94 58 95
REMARK SMILES IDX 59 96 60 97
REMARK H PARENT 11 15 84 50 52 61
REMARK Flexibility Score: inf
ROOT
ATOM      1  C   UNL A   1      29.969  31.846  24.637  1.00  0.00     0.202 C 
ENDROOT
BRANCH   1   2
ATOM      2  C   UNL A   1      28.772  31.463  23.759  1.00  0.00     0.261 C 
BRANCH   2   3
ATOM      3  O   UNL A   1      29.209  31.226  22.410  1.00  0.00    -0.459 OA
BRANCH   3   4
ATOM      4  C   UNL A   1      28.524  30.265  21.724  1.00  0.00     0.348 C 
ATOM      5  O   UNL A   1      28.048  30.419  20.604  1.00  0.00    -0.245 OA
BRANCH   4   6
ATOM      6  C   UNL A   1      28.605  29.011  22.448  1.00  0.00     0.112 A 
ATOM      7  C   UNL A   1      29.541  27.134  23.777  1.00  0.00     0.025 A 
ATOM      8  C   UNL A   1      28.160  27.164  23.811  1.00  0.00     0.018 A 
ATOM      9  S   UNL A   1      30.154  28.338  22.719  1.00  0.00    -0.131 S 
ATOM     10  C   UNL A   1      27.621  28.258  23.061  1.00  0.00     0.028 A 
BRANCH   7  11
ATOM     11  C   UNL A   1      30.532  26.292  24.508  1.00  0.00     0.163 C 
BRANCH  11  12
ATOM     12  N   UNL A   1      30.363  24.880  24.248  1.00  0.00    -0.347 N 
ATOM     13  C   UNL A   1      31.171  23.856  24.675  1.00  0.00     0.257 C 
ATOM     14  O   UNL A   1      30.645  22.943  25.315  1.00  0.00    -0.269 OA
ATOM     15  H   UNL A   1      29.582  24.625  23.707  1.00  0.00     0.164 HD
BRANCH  13  16
ATOM     16  C   UNL A   1      32.558  23.663  24.182  1.00  0.00     0.102 A 
ATOM     17  C   UNL A   1      33.101  24.063  22.958  1.00  0.00     0.226 A 
ATOM     18  N   UNL A   1      34.392  23.846  22.576  1.00  0.00    -0.218 NA
ATOM     19  C   UNL A   1      35.165  23.215  23.471  1.00  0.00     0.048 A 
ATOM     20  C   UNL A   1      33.436  23.063  25.105  1.00  0.00     0.025 A 
ATOM     21  C   UNL A   1      34.748  22.840  24.736  1.00  0.00    -0.025 A 
ATOM     22  C   UNL A   1      36.613  22.877  23.260  1.00  0.00     0.057 C 
ATOM     23  C   UNL A   1      35.874  22.272  25.533  1.00  0.00     0.038 C 
ATOM     24  C   UNL A   1      36.861  21.896  24.417  1.00  0.00     0.011 C 
BRANCH  17  25
ATOM     25  O   UNL A   1      32.379  24.772  22.042  1.00  0.00    -0.480 OA
ATOM     26  C   UNL A   1      33.075  25.976  21.724  1.00  0.00     0.280 C 
ENDBRANCH  17  25
ENDBRANCH  13  16
ENDBRANCH  11  12
ENDBRANCH   7  11
ENDBRANCH   4   6
ENDBRANCH   3   4
ENDBRANCH   2   3
ENDBRANCH   1   2
BRANCH   1  27
ATOM     27  O   UNL A   1      30.650  30.737  25.230  1.00  0.00    -0.374 OA
BRANCH  27  28
ATOM     28  C   UNL A   1      31.703  31.052  26.147  1.00  0.00     0.202 C 
BRANCH  28  29
ATOM     29  C   UNL A   1      31.801  32.529  26.545  1.00  0.00     0.261 C 
BRANCH  29  30
ATOM     30  O   UNL A   1      32.482  32.675  27.805  1.00  0.00    -0.460 OA
BRANCH  30  31
ATOM     31  C   UNL A   1      33.525  33.539  27.804  1.00  0.00     0.338 C 
ATOM     32  O   UNL A   1      33.487  34.744  27.627  1.00  0.00    -0.246 OA
BRANCH  31  33
ATOM     33  C   UNL A   1      34.739  32.832  28.252  1.00  0.00     0.060 A 
ATOM     34  C   UNL A   1      34.576  31.556  28.807  1.00  0.00     0.016 A 
ATOM     35  C   UNL A   1      36.002  33.426  28.188  1.00  0.00     0.016 A 
ATOM     36  C   UNL A   1      35.674  30.882  29.333  1.00  0.00     0.010 A 
ATOM     37  C   UNL A   1      37.100  32.755  28.737  1.00  0.00     0.010 A 
ATOM     38  C   UNL A   1      36.932  31.495  29.338  1.00  0.00    -0.014 A 
BRANCH  38  39
ATOM     39  C   UNL A   1      38.033  30.870  30.105  1.00  0.00     0.031 A 
ATOM     40  C   UNL A   1      38.900  29.847  29.429  1.00  0.00     0.074 A 
ATOM     41  C   UNL A   1      38.284  31.243  31.373  1.00  0.00     0.049 A 
ATOM     42  N   UNL A   1      39.954  29.225  29.889  1.00  0.00    -0.248 NA
ATOM     43  C   UNL A   1      38.536  29.480  28.051  1.00  0.00     0.031 C 
ATOM     44  C   UNL A   1      37.526  32.244  32.119  1.00  0.00     0.029 A 
ATOM     45  N   UNL A   1      39.246  30.819  32.254  1.00  0.00    -0.354 N 
ATOM     46  C   UNL A   1      40.389  28.407  28.853  1.00  0.00     0.074 A 
ATOM     47  C   UNL A   1      39.466  28.584  27.754  1.00  0.00     0.031 C 
ATOM     48  C   UNL A   1      38.047  32.351  33.353  1.00  0.00     0.029 A 
ATOM     49  C   UNL A   1      39.164  31.415  33.489  1.00  0.00     0.049 A 
ATOM     50  H   UNL A   1      39.932  30.151  32.024  1.00  0.00     0.167 HD
ATOM     51  C   UNL A   1      41.471  27.596  28.819  1.00  0.00     0.034 A 
ATOM     52  C   UNL A   1      39.900  31.224  34.604  1.00  0.00     0.034 A 
ATOM     53  C   UNL A   1      42.372  27.410  29.923  1.00  0.00     0.049 A 
ATOM     54  C   UNL A   1      41.059  30.261  34.565  1.00  0.00     0.074 A 
ATOM     55  C   UNL A   1      43.508  26.622  29.976  1.00  0.00     0.029 A 
ATOM     56  N   UNL A   1      42.239  28.006  31.169  1.00  0.00    -0.354 N 
ATOM     57  N   UNL A   1      41.507  29.553  33.555  1.00  0.00    -0.248 NA
ATOM     58  C   UNL A   1      41.820  30.074  35.808  1.00  0.00     0.031 C 
ATOM     59  C   UNL A   1      44.034  26.703  31.267  1.00  0.00     0.029 A 
ATOM     60  C   UNL A   1      43.255  27.581  32.006  1.00  0.00     0.049 A 
ATOM     61  H   UNL A   1      41.527  28.637  31.420  1.00  0.00     0.167 HD
ATOM     62  C   UNL A   1      42.615  28.857  34.034  1.00  0.00     0.074 A 
ATOM     63  C   UNL A   1      42.778  29.240  35.421  1.00  0.00     0.031 C 
ATOM     64  C   UNL A   1      43.420  27.981  33.383  1.00  0.00     0.034 A 
BRANCH  51  65
ATOM     65  C   UNL A   1      41.754  26.844  27.548  1.00  0.00     0.023 A 
ATOM     66  C   UNL A   1      41.673  25.441  27.523  1.00  0.00     0.031 A 
ATOM     67  C   UNL A   1      42.203  27.513  26.395  1.00  0.00     0.131 A 
ATOM     68  C   UNL A   1      42.060  24.747  26.371  1.00  0.00     0.055 A 
ATOM     69  C   UNL A   1      42.561  26.817  25.241  1.00  0.00     0.041 A 
ATOM     70  F   UNL A   1      42.288  28.853  26.375  1.00  0.00    -0.206 F 
ATOM     71  C   UNL A   1      42.498  25.426  25.228  1.00  0.00     0.022 A 
BRANCH  68  72
ATOM     72  S   UNL A   1      42.031  22.935  26.317  1.00  0.00     0.124 S 
ATOM     73  O   UNL A   1      42.573  22.664  24.986  1.00  0.00    -0.237 OA
ATOM     74  O   UNL A   1      42.906  22.584  27.431  1.00  0.00    -0.237 OA
ATOM     75  O   UNL A   1      40.621  22.602  26.487  1.00  0.00    -0.744 OA
ENDBRANCH  68  72
ENDBRANCH  51  65
BRANCH  52  76
ATOM     76  C   UNL A   1      39.570  32.001  35.831  1.00  0.00     0.023 A 
ATOM     77  C   UNL A   1      38.688  31.485  36.797  1.00  0.00     0.031 A 
ATOM     78  C   UNL A   1      40.065  33.303  36.011  1.00  0.00     0.131 A 
ATOM     79  C   UNL A   1      38.284  32.287  37.870  1.00  0.00     0.055 A 
ATOM     80  C   UNL A   1      39.703  34.080  37.115  1.00  0.00     0.041 A 
ATOM     81  F   UNL A   1      40.903  33.839  35.111  1.00  0.00    -0.206 F 
ATOM     82  C   UNL A   1      38.799  33.576  38.044  1.00  0.00     0.022 A 
BRANCH  79  83
ATOM     83  S   UNL A   1      37.011  31.717  39.029  1.00  0.00     0.124 S 
ATOM     84  O   UNL A   1      36.779  30.347  38.581  1.00  0.00    -0.237 OA
ATOM     85  O   UNL A   1      37.698  31.855  40.311  1.00  0.00    -0.237 OA
ATOM     86  O   UNL A   1      35.906  32.644  38.811  1.00  0.00    -0.744 OA
ENDBRANCH  79  83
ENDBRANCH  52  76
BRANCH  64  87
ATOM     87  C   UNL A   1      44.570  27.357  34.133  1.00  0.00     0.023 A 
ATOM     88  C   UNL A   1      44.408  26.102  34.750  1.00  0.00     0.031 A 
ATOM     89  C   UNL A   1      45.755  28.072  34.372  1.00  0.00     0.131 A 
ATOM     90  C   UNL A   1      45.402  25.617  35.610  1.00  0.00     0.055 A 
ATOM     91  C   UNL A   1      46.759  27.567  35.199  1.00  0.00     0.041 A 
ATOM     92  F   UNL A   1      45.947  29.277  33.813  1.00  0.00    -0.206 F 
ATOM     93  C   UNL A   1      46.578  26.340  35.833  1.00  0.00     0.022 A 
BRANCH  90  94
ATOM     94  S   UNL A   1      45.173  24.067  36.524  1.00  0.00     0.124 S 
ATOM     95  O   UNL A   1      44.713  24.548  37.826  1.00  0.00    -0.237 OA
ATOM     96  O   UNL A   1      44.164  23.383  35.720  1.00  0.00    -0.237 OA
ATOM     97  O   UNL A   1      46.499  23.458  36.523  1.00  0.00    -0.744 OA
ENDBRANCH  90  94
ENDBRANCH  64  87
ENDBRANCH  38  39
ENDBRANCH  31  33
ENDBRANCH  30  31
ENDBRANCH  29  30
ENDBRANCH  28  29
ENDBRANCH  27  28
ENDBRANCH   1  27
TORSDOF 21
ENDMDL
