MODEL 1
REMARK VINA RESULT:     -10.7      0.000      0.000
REMARK SMILES CCc1[nH]nc(-n2cccc2)c1C(=O)OCCOCCOC(=O)c1ccc(-c2c3nc(c(-c4cc(S(=O)(=O)[O-])ccc4F)c4ccc([nH]4)c(-c4cc(S(=O)(=O)[O-])ccc4F)c4nc(c(-c5cc(S(=O)(=O)[O-])ccc5F)c5ccc2[nH]5)C=C4)C=C3)cc1
REMARK SMILES IDX 19 1 18 2 17 3 16 4 15 5 13 6 14 7 12 8 3 9 4 10 5 11 6 13
REMARK SMILES IDX 2 14 1 15 7 16 8 17 11 18 9 19 10 20 20 21 21 22 22 23 23 24
REMARK SMILES IDX 24 25 25 26 86 27 26 28 85 29 27 30 28 31 29 32 79 33 30 34
REMARK SMILES IDX 84 35 78 36 80 37 31 38 83 39 77 40 76 41 32 43 64 44 44 45
REMARK SMILES IDX 63 46 45 47 48 48 62 49 81 50 46 51 47 52 61 54 82 55 49 56
REMARK SMILES IDX 33 57 34 58 42 59 35 60 41 61 43 62 40 63 36 64 37 65 38 66
REMARK SMILES IDX 39 67 65 68 66 69 74 70 67 71 73 72 75 73 72 74 68 75 69 76
REMARK SMILES IDX 70 77 71 78 50 79 51 80 59 81 52 82 58 83 60 84 57 85 53 86
REMARK SMILES IDX 54 87 55 88 56 89
REMARK H PARENT 4 12 80 42 48 53
REMARK Flexibility Score: inf
ROOT
ATOM      1  C   UNL A   1      34.064  31.412  27.681  1.00  0.00     0.202 C 
ENDROOT
BRANCH   1   2
ATOM      2  O   UNL A   1      34.397  32.791  27.594  1.00  0.00    -0.374 OA
BRANCH   2   3
ATOM      3  C   UNL A   1      33.491  33.766  28.114  1.00  0.00     0.202 C 
BRANCH   3   4
ATOM      4  C   UNL A   1      33.911  34.451  29.410  1.00  0.00     0.261 C 
BRANCH   4   5
ATOM      5  O   UNL A   1      34.244  33.461  30.400  1.00  0.00    -0.459 OA
BRANCH   5   6
ATOM      6  C   UNL A   1      35.425  33.630  31.057  1.00  0.00     0.343 C 
ATOM      7  O   UNL A   1      36.513  33.617  30.519  1.00  0.00    -0.246 OA
BRANCH   6   8
ATOM      8  C   UNL A   1      35.253  33.969  32.465  1.00  0.00     0.125 A 
ATOM      9  C   UNL A   1      34.630  35.038  33.111  1.00  0.00     0.052 A 
ATOM     10  N   UNL A   1      34.724  34.745  34.456  1.00  0.00    -0.280 N 
ATOM     11  N   UNL A   1      35.447  33.657  34.744  1.00  0.00    -0.156 NA
ATOM     12  H   UNL A   1      34.293  35.293  35.151  1.00  0.00     0.190 HD
ATOM     13  C   UNL A   1      35.778  33.195  33.538  1.00  0.00     0.173 A 
BRANCH   9  14
ATOM     14  C   UNL A   1      33.902  36.298  32.746  1.00  0.00     0.053 C 
ATOM     15  C   UNL A   1      32.407  36.221  32.524  1.00  0.00     0.011 C 
ENDBRANCH   9  14
BRANCH  13  16
ATOM     16  N   UNL A   1      36.785  32.194  33.467  1.00  0.00    -0.306 N 
ATOM     17  C   UNL A   1      38.073  32.330  33.941  1.00  0.00     0.093 A 
ATOM     18  C   UNL A   1      36.648  30.912  32.981  1.00  0.00     0.093 A 
ATOM     19  C   UNL A   1      38.786  31.192  33.637  1.00  0.00     0.020 A 
ATOM     20  C   UNL A   1      37.878  30.288  33.038  1.00  0.00     0.020 A 
ENDBRANCH  13  16
ENDBRANCH   6   8
ENDBRANCH   5   6
ENDBRANCH   4   5
ENDBRANCH   3   4
ENDBRANCH   2   3
ENDBRANCH   1   2
BRANCH   1  21
ATOM     21  C   UNL A   1      35.174  30.370  27.778  1.00  0.00     0.261 C 
BRANCH  21  22
ATOM     22  O   UNL A   1      36.389  30.881  28.297  1.00  0.00    -0.460 OA
BRANCH  22  23
ATOM     23  C   UNL A   1      37.064  29.913  28.958  1.00  0.00     0.338 C 
ATOM     24  O   UNL A   1      36.629  29.161  29.817  1.00  0.00    -0.246 OA
BRANCH  23  25
ATOM     25  C   UNL A   1      38.489  30.028  28.691  1.00  0.00     0.060 A 
ATOM     26  C   UNL A   1      38.856  29.640  27.402  1.00  0.00     0.016 A 
ATOM     27  C   UNL A   1      39.369  29.992  29.782  1.00  0.00     0.016 A 
ATOM     28  C   UNL A   1      40.042  28.972  27.255  1.00  0.00     0.010 A 
ATOM     29  C   UNL A   1      40.540  29.288  29.641  1.00  0.00     0.010 A 
ATOM     30  C   UNL A   1      40.841  28.750  28.386  1.00  0.00    -0.014 A 
BRANCH  30  31
ATOM     31  C   UNL A   1      42.173  28.216  28.115  1.00  0.00     0.031 A 
ATOM     32  C   UNL A   1      43.110  29.452  27.992  1.00  0.00     0.074 A 
ATOM     33  C   UNL A   1      42.247  26.859  27.895  1.00  0.00     0.049 A 
ATOM     34  N   UNL A   1      44.049  29.691  27.138  1.00  0.00    -0.248 NA
ATOM     35  C   UNL A   1      42.851  30.689  28.810  1.00  0.00     0.031 C 
ATOM     36  C   UNL A   1      41.160  25.868  28.133  1.00  0.00     0.029 A 
ATOM     37  N   UNL A   1      43.235  26.017  27.428  1.00  0.00    -0.354 N 
ATOM     38  C   UNL A   1      44.685  30.889  27.534  1.00  0.00     0.074 A 
ATOM     39  C   UNL A   1      43.774  31.561  28.398  1.00  0.00     0.031 C 
ATOM     40  C   UNL A   1      41.518  24.618  27.729  1.00  0.00     0.029 A 
ATOM     41  C   UNL A   1      42.873  24.641  27.204  1.00  0.00     0.049 A 
ATOM     42  H   UNL A   1      44.148  26.343  27.257  1.00  0.00     0.167 HD
ATOM     43  C   UNL A   1      46.014  31.114  27.317  1.00  0.00     0.034 A 
ATOM     44  C   UNL A   1      43.626  23.640  26.614  1.00  0.00     0.034 A 
ATOM     45  C   UNL A   1      46.549  29.985  26.624  1.00  0.00     0.049 A 
ATOM     46  C   UNL A   1      44.937  24.290  26.502  1.00  0.00     0.074 A 
ATOM     47  C   UNL A   1      46.291  29.484  25.376  1.00  0.00     0.029 A 
ATOM     48  N   UNL A   1      47.089  28.995  27.420  1.00  0.00    -0.354 N 
ATOM     49  N   UNL A   1      45.732  24.498  27.505  1.00  0.00    -0.248 NA
ATOM     50  C   UNL A   1      45.375  24.794  25.195  1.00  0.00     0.031 C 
ATOM     51  C   UNL A   1      46.130  28.114  25.648  1.00  0.00     0.029 A 
ATOM     52  C   UNL A   1      46.665  27.803  26.907  1.00  0.00     0.049 A 
ATOM     53  H   UNL A   1      47.669  29.124  28.206  1.00  0.00     0.167 HD
ATOM     54  C   UNL A   1      46.569  25.460  27.016  1.00  0.00     0.074 A 
ATOM     55  C   UNL A   1      46.532  25.338  25.567  1.00  0.00     0.031 C 
ATOM     56  C   UNL A   1      46.710  26.613  27.724  1.00  0.00     0.034 A 
BRANCH  43  57
ATOM     57  C   UNL A   1      47.016  32.061  27.919  1.00  0.00     0.023 A 
ATOM     58  C   UNL A   1      47.824  32.751  26.981  1.00  0.00     0.031 A 
ATOM     59  C   UNL A   1      47.460  32.064  29.246  1.00  0.00     0.131 A 
ATOM     60  C   UNL A   1      49.090  33.231  27.322  1.00  0.00     0.055 A 
ATOM     61  C   UNL A   1      48.694  32.627  29.605  1.00  0.00     0.041 A 
ATOM     62  F   UNL A   1      46.777  31.455  30.223  1.00  0.00    -0.206 F 
ATOM     63  C   UNL A   1      49.536  33.171  28.636  1.00  0.00     0.022 A 
BRANCH  60  64
ATOM     64  S   UNL A   1      50.194  33.727  25.970  1.00  0.00     0.124 S 
ATOM     65  O   UNL A   1      51.166  34.564  26.665  1.00  0.00    -0.237 OA
ATOM     66  O   UNL A   1      50.686  32.438  25.493  1.00  0.00    -0.237 OA
ATOM     67  O   UNL A   1      49.304  34.431  25.051  1.00  0.00    -0.744 OA
ENDBRANCH  60  64
ENDBRANCH  43  57
BRANCH  44  68
ATOM     68  C   UNL A   1      43.648  22.200  26.042  1.00  0.00     0.023 A 
ATOM     69  C   UNL A   1      44.735  21.450  25.552  1.00  0.00     0.031 A 
ATOM     70  C   UNL A   1      42.418  21.442  26.102  1.00  0.00     0.131 A 
ATOM     71  C   UNL A   1      44.575  20.047  25.270  1.00  0.00     0.055 A 
ATOM     72  C   UNL A   1      42.301  20.064  25.941  1.00  0.00     0.041 A 
ATOM     73  F   UNL A   1      41.228  22.014  26.333  1.00  0.00    -0.206 F 
ATOM     74  C   UNL A   1      43.392  19.349  25.535  1.00  0.00     0.022 A 
BRANCH  71  75
ATOM     75  S   UNL A   1      45.907  19.034  24.540  1.00  0.00     0.124 S 
ATOM     76  O   UNL A   1      47.060  19.921  24.652  1.00  0.00    -0.237 OA
ATOM     77  O   UNL A   1      45.919  17.849  25.388  1.00  0.00    -0.237 OA
ATOM     78  O   UNL A   1      45.444  18.800  23.170  1.00  0.00    -0.744 OA
ENDBRANCH  71  75
ENDBRANCH  44  68
BRANCH  56  79
ATOM     79  C   UNL A   1      46.466  26.484  29.233  1.00  0.00     0.023 A 
ATOM     80  C   UNL A   1      45.366  27.151  29.821  1.00  0.00     0.031 A 
ATOM     81  C   UNL A   1      47.332  25.843  30.136  1.00  0.00     0.131 A 
ATOM     82  C   UNL A   1      45.196  27.210  31.218  1.00  0.00     0.055 A 
ATOM     83  C   UNL A   1      47.164  25.894  31.533  1.00  0.00     0.041 A 
ATOM     84  F   UNL A   1      48.385  25.147  29.704  1.00  0.00    -0.206 F 
ATOM     85  C   UNL A   1      46.092  26.585  32.082  1.00  0.00     0.022 A 
BRANCH  82  86
ATOM     86  S   UNL A   1      43.773  28.107  31.900  1.00  0.00     0.124 S 
ATOM     87  O   UNL A   1      43.905  27.878  33.334  1.00  0.00    -0.237 OA
ATOM     88  O   UNL A   1      44.012  29.473  31.443  1.00  0.00    -0.237 OA
ATOM     89  O   UNL A   1      42.624  27.450  31.276  1.00  0.00    -0.744 OA
ENDBRANCH  82  86
ENDBRANCH  56  79
ENDBRANCH  30  31
ENDBRANCH  23  25
ENDBRANCH  22  23
ENDBRANCH  21  22
ENDBRANCH   1  21
TORSDOF 19
ENDMDL
MODEL 2
REMARK VINA RESULT:     -10.6      4.721      9.809
REMARK SMILES CCc1[nH]nc(-n2cccc2)c1C(=O)OCCOCCOC(=O)c1ccc(-c2c3nc(c(-c4cc(S(=O)(=O)[O-])ccc4F)c4ccc([nH]4)c(-c4cc(S(=O)(=O)[O-])ccc4F)c4nc(c(-c5cc(S(=O)(=O)[O-])ccc5F)c5ccc2[nH]5)C=C4)C=C3)cc1
REMARK SMILES IDX 19 1 18 2 17 3 16 4 15 5 13 6 14 7 12 8 3 9 4 10 5 11 6 13
REMARK SMILES IDX 2 14 1 15 7 16 8 17 11 18 9 19 10 20 20 21 21 22 22 23 23 24
REMARK SMILES IDX 24 25 25 26 86 27 26 28 85 29 27 30 28 31 29 32 79 33 30 34
REMARK SMILES IDX 84 35 78 36 80 37 31 38 83 39 77 40 76 41 32 43 64 44 44 45
REMARK SMILES IDX 63 46 45 47 48 48 62 49 81 50 46 51 47 52 61 54 82 55 49 56
REMARK SMILES IDX 33 57 34 58 42 59 35 60 41 61 43 62 40 63 36 64 37 65 38 66
REMARK SMILES IDX 39 67 65 68 66 69 74 70 67 71 73 72 75 73 72 74 68 75 69 76
REMARK SMILES IDX 70 77 71 78 50 79 51 80 59 81 52 82 58 83 60 84 57 85 53 86
REMARK SMILES IDX 54 87 55 88 56 89
REMARK H PARENT 4 12 80 42 48 53
REMARK Flexibility Score: inf
ROOT
ATOM      1  C   UNL A   1      33.691  30.854  27.273  1.00  0.00     0.202 C 
ENDROOT
BRANCH   1   2
ATOM      2  O   UNL A   1      33.591  30.079  26.086  1.00  0.00    -0.374 OA
BRANCH   2   3
ATOM      3  C   UNL A   1      32.916  28.820  26.123  1.00  0.00     0.202 C 
BRANCH   3   4
ATOM      4  C   UNL A   1      31.438  28.838  25.750  1.00  0.00     0.261 C 
BRANCH   4   5
ATOM      5  O   UNL A   1      31.249  29.592  24.539  1.00  0.00    -0.459 OA
BRANCH   5   6
ATOM      6  C   UNL A   1      30.991  28.876  23.409  1.00  0.00     0.343 C 
ATOM      7  O   UNL A   1      31.815  28.637  22.550  1.00  0.00    -0.246 OA
BRANCH   6   8
ATOM      8  C   UNL A   1      29.652  28.299  23.392  1.00  0.00     0.125 A 
ATOM      9  C   UNL A   1      29.181  26.997  23.570  1.00  0.00     0.052 A 
ATOM     10  N   UNL A   1      27.806  27.108  23.529  1.00  0.00    -0.280 N 
ATOM     11  N   UNL A   1      27.350  28.327  23.224  1.00  0.00    -0.156 NA
ATOM     12  H   UNL A   1      27.207  26.348  23.709  1.00  0.00     0.190 HD
ATOM     13  C   UNL A   1      28.469  29.046  23.128  1.00  0.00     0.173 A 
BRANCH   9  14
ATOM     14  C   UNL A   1      29.739  25.627  23.822  1.00  0.00     0.053 C 
ATOM     15  C   UNL A   1      31.104  25.519  24.466  1.00  0.00     0.011 C 
ENDBRANCH   9  14
BRANCH  13  16
ATOM     16  N   UNL A   1      28.377  30.338  22.543  1.00  0.00    -0.306 N 
ATOM     17  C   UNL A   1      28.132  30.588  21.209  1.00  0.00     0.093 A 
ATOM     18  C   UNL A   1      28.451  31.550  23.192  1.00  0.00     0.093 A 
ATOM     19  C   UNL A   1      28.184  31.946  20.990  1.00  0.00     0.020 A 
ATOM     20  C   UNL A   1      28.376  32.557  22.251  1.00  0.00     0.020 A 
ENDBRANCH  13  16
ENDBRANCH   6   8
ENDBRANCH   5   6
ENDBRANCH   4   5
ENDBRANCH   3   4
ENDBRANCH   2   3
ENDBRANCH   1   2
BRANCH   1  21
ATOM     21  C   UNL A   1      35.061  31.296  27.775  1.00  0.00     0.261 C 
BRANCH  21  22
ATOM     22  O   UNL A   1      36.080  30.333  27.570  1.00  0.00    -0.460 OA
BRANCH  22  23
ATOM     23  C   UNL A   1      36.861  30.231  28.669  1.00  0.00     0.338 C 
ATOM     24  O   UNL A   1      36.901  30.993  29.623  1.00  0.00    -0.246 OA
BRANCH  23  25
ATOM     25  C   UNL A   1      37.864  29.196  28.473  1.00  0.00     0.060 A 
ATOM     26  C   UNL A   1      37.960  28.294  29.533  1.00  0.00     0.016 A 
ATOM     27  C   UNL A   1      38.925  29.464  27.597  1.00  0.00     0.016 A 
ATOM     28  C   UNL A   1      39.207  27.843  29.871  1.00  0.00     0.010 A 
ATOM     29  C   UNL A   1      40.181  29.043  27.959  1.00  0.00     0.010 A 
ATOM     30  C   UNL A   1      40.311  28.271  29.118  1.00  0.00    -0.014 A 
BRANCH  30  31
ATOM     31  C   UNL A   1      41.570  27.591  29.412  1.00  0.00     0.031 A 
ATOM     32  C   UNL A   1      41.650  26.398  28.416  1.00  0.00     0.074 A 
ATOM     33  C   UNL A   1      42.256  28.039  30.518  1.00  0.00     0.049 A 
ATOM     34  N   UNL A   1      42.019  25.177  28.622  1.00  0.00    -0.248 NA
ATOM     35  C   UNL A   1      41.062  26.516  27.035  1.00  0.00     0.031 C 
ATOM     36  C   UNL A   1      41.963  29.279  31.292  1.00  0.00     0.029 A 
ATOM     37  N   UNL A   1      43.335  27.564  31.233  1.00  0.00    -0.354 N 
ATOM     38  C   UNL A   1      42.038  24.524  27.368  1.00  0.00     0.074 A 
ATOM     39  C   UNL A   1      41.229  25.306  26.496  1.00  0.00     0.031 C 
ATOM     40  C   UNL A   1      42.766  29.392  32.385  1.00  0.00     0.029 A 
ATOM     41  C   UNL A   1      43.680  28.264  32.444  1.00  0.00     0.049 A 
ATOM     42  H   UNL A   1      43.848  26.781  30.927  1.00  0.00     0.167 HD
ATOM     43  C   UNL A   1      42.923  23.525  27.082  1.00  0.00     0.034 A 
ATOM     44  C   UNL A   1      44.615  27.912  33.402  1.00  0.00     0.034 A 
ATOM     45  C   UNL A   1      43.716  23.285  28.245  1.00  0.00     0.049 A 
ATOM     46  C   UNL A   1      45.300  26.793  32.744  1.00  0.00     0.074 A 
ATOM     47  C   UNL A   1      43.382  22.818  29.488  1.00  0.00     0.029 A 
ATOM     48  N   UNL A   1      44.901  23.990  28.317  1.00  0.00    -0.354 N 
ATOM     49  N   UNL A   1      46.139  26.930  31.766  1.00  0.00    -0.248 NA
ATOM     50  C   UNL A   1      44.991  25.420  33.163  1.00  0.00     0.031 C 
ATOM     51  C   UNL A   1      44.037  23.739  30.324  1.00  0.00     0.029 A 
ATOM     52  C   UNL A   1      45.013  24.441  29.601  1.00  0.00     0.049 A 
ATOM     53  H   UNL A   1      45.542  24.138  27.584  1.00  0.00     0.167 HD
ATOM     54  C   UNL A   1      46.168  25.674  31.231  1.00  0.00     0.074 A 
ATOM     55  C   UNL A   1      45.755  24.767  32.289  1.00  0.00     0.031 C 
ATOM     56  C   UNL A   1      45.909  25.533  29.903  1.00  0.00     0.034 A 
BRANCH  43  57
ATOM     57  C   UNL A   1      43.427  22.925  25.798  1.00  0.00     0.023 A 
ATOM     58  C   UNL A   1      43.390  21.509  25.745  1.00  0.00     0.031 A 
ATOM     59  C   UNL A   1      44.223  23.564  24.842  1.00  0.00     0.131 A 
ATOM     60  C   UNL A   1      44.255  20.787  24.920  1.00  0.00     0.055 A 
ATOM     61  C   UNL A   1      45.025  22.836  23.950  1.00  0.00     0.041 A 
ATOM     62  F   UNL A   1      44.330  24.898  24.784  1.00  0.00    -0.206 F 
ATOM     63  C   UNL A   1      45.081  21.444  24.018  1.00  0.00     0.022 A 
BRANCH  60  64
ATOM     64  S   UNL A   1      44.412  19.005  25.221  1.00  0.00     0.124 S 
ATOM     65  O   UNL A   1      43.854  18.441  23.997  1.00  0.00    -0.237 OA
ATOM     66  O   UNL A   1      45.853  18.852  25.396  1.00  0.00    -0.237 OA
ATOM     67  O   UNL A   1      43.614  18.796  26.427  1.00  0.00    -0.744 OA
ENDBRANCH  60  64
ENDBRANCH  43  57
BRANCH  44  68
ATOM     68  C   UNL A   1      45.193  28.189  34.813  1.00  0.00     0.023 A 
ATOM     69  C   UNL A   1      44.791  27.673  36.060  1.00  0.00     0.031 A 
ATOM     70  C   UNL A   1      46.385  29.003  34.895  1.00  0.00     0.131 A 
ATOM     71  C   UNL A   1      45.605  27.890  37.228  1.00  0.00     0.055 A 
ATOM     72  C   UNL A   1      47.226  29.109  36.000  1.00  0.00     0.041 A 
ATOM     73  F   UNL A   1      46.815  29.759  33.875  1.00  0.00    -0.206 F 
ATOM     74  C   UNL A   1      46.846  28.534  37.180  1.00  0.00     0.022 A 
BRANCH  71  75
ATOM     75  S   UNL A   1      45.100  27.339  38.893  1.00  0.00     0.124 S 
ATOM     76  O   UNL A   1      43.851  26.637  38.616  1.00  0.00    -0.237 OA
ATOM     77  O   UNL A   1      46.223  26.513  39.319  1.00  0.00    -0.237 OA
ATOM     78  O   UNL A   1      44.948  28.592  39.635  1.00  0.00    -0.744 OA
ENDBRANCH  71  75
ENDBRANCH  44  68
BRANCH  56  79
ATOM     79  C   UNL A   1      46.243  26.757  29.041  1.00  0.00     0.023 A 
ATOM     80  C   UNL A   1      45.195  27.545  28.512  1.00  0.00     0.031 A 
ATOM     81  C   UNL A   1      47.535  27.110  28.611  1.00  0.00     0.131 A 
ATOM     82  C   UNL A   1      45.437  28.570  27.577  1.00  0.00     0.055 A 
ATOM     83  C   UNL A   1      47.783  28.137  27.681  1.00  0.00     0.041 A 
ATOM     84  F   UNL A   1      48.612  26.468  29.067  1.00  0.00    -0.206 F 
ATOM     85  C   UNL A   1      46.729  28.871  27.154  1.00  0.00     0.022 A 
BRANCH  82  86
ATOM     86  S   UNL A   1      44.036  29.522  26.923  1.00  0.00     0.124 S 
ATOM     87  O   UNL A   1      44.691  30.549  26.122  1.00  0.00    -0.237 OA
ATOM     88  O   UNL A   1      43.285  28.513  26.183  1.00  0.00    -0.237 OA
ATOM     89  O   UNL A   1      43.368  30.016  28.128  1.00  0.00    -0.744 OA
ENDBRANCH  82  86
ENDBRANCH  56  79
ENDBRANCH  30  31
ENDBRANCH  23  25
ENDBRANCH  22  23
ENDBRANCH  21  22
ENDBRANCH   1  21
TORSDOF 19
ENDMDL
MODEL 3
REMARK VINA RESULT:     -10.3      5.255     11.876
REMARK SMILES CCc1[nH]nc(-n2cccc2)c1C(=O)OCCOCCOC(=O)c1ccc(-c2c3nc(c(-c4cc(S(=O)(=O)[O-])ccc4F)c4ccc([nH]4)c(-c4cc(S(=O)(=O)[O-])ccc4F)c4nc(c(-c5cc(S(=O)(=O)[O-])ccc5F)c5ccc2[nH]5)C=C4)C=C3)cc1
REMARK SMILES IDX 19 1 18 2 17 3 16 4 15 5 13 6 14 7 12 8 3 9 4 10 5 11 6 13
REMARK SMILES IDX 2 14 1 15 7 16 8 17 11 18 9 19 10 20 20 21 21 22 22 23 23 24
REMARK SMILES IDX 24 25 25 26 86 27 26 28 85 29 27 30 28 31 29 32 79 33 30 34
REMARK SMILES IDX 84 35 78 36 80 37 31 38 83 39 77 40 76 41 32 43 64 44 44 45
REMARK SMILES IDX 63 46 45 47 48 48 62 49 81 50 46 51 47 52 61 54 82 55 49 56
REMARK SMILES IDX 33 57 34 58 42 59 35 60 41 61 43 62 40 63 36 64 37 65 38 66
REMARK SMILES IDX 39 67 65 68 66 69 74 70 67 71 73 72 75 73 72 74 68 75 69 76
REMARK SMILES IDX 70 77 71 78 50 79 51 80 59 81 52 82 58 83 60 84 57 85 53 86
REMARK SMILES IDX 54 87 55 88 56 89
REMARK H PARENT 4 12 80 42 48 53
REMARK Flexibility Score: inf
ROOT
ATOM      1  C   UNL A   1      39.562  21.724  26.034  1.00  0.00     0.202 C 
ENDROOT
BRANCH   1   2
ATOM      2  O   UNL A   1      38.158  21.549  25.899  1.00  0.00    -0.374 OA
BRANCH   2   3
ATOM      3  C   UNL A   1      37.417  22.437  25.059  1.00  0.00     0.202 C 
BRANCH   3   4
ATOM      4  C   UNL A   1      35.907  22.458  25.268  1.00  0.00     0.261 C 
BRANCH   4   5
ATOM      5  O   UNL A   1      35.513  21.350  26.099  1.00  0.00    -0.459 OA
BRANCH   5   6
ATOM      6  C   UNL A   1      34.202  21.300  26.466  1.00  0.00     0.343 C 
ATOM      7  O   UNL A   1      33.814  21.329  27.616  1.00  0.00    -0.246 OA
BRANCH   6   8
ATOM      8  C   UNL A   1      33.289  21.347  25.329  1.00  0.00     0.125 A 
ATOM      9  C   UNL A   1      32.418  22.329  24.857  1.00  0.00     0.052 A 
ATOM     10  N   UNL A   1      31.896  21.810  23.690  1.00  0.00    -0.280 N 
ATOM     11  N   UNL A   1      32.253  20.549  23.428  1.00  0.00    -0.156 NA
ATOM     12  H   UNL A   1      31.306  22.328  23.095  1.00  0.00     0.190 HD
ATOM     13  C   UNL A   1      33.086  20.263  24.429  1.00  0.00     0.173 A 
BRANCH   9  14
ATOM     14  C   UNL A   1      31.975  23.712  25.236  1.00  0.00     0.053 C 
ATOM     15  C   UNL A   1      33.010  24.668  25.787  1.00  0.00     0.011 C 
ENDBRANCH   9  14
BRANCH  13  16
ATOM     16  N   UNL A   1      33.447  18.902  24.622  1.00  0.00    -0.306 N 
ATOM     17  C   UNL A   1      34.699  18.373  24.387  1.00  0.00     0.093 A 
ATOM     18  C   UNL A   1      32.653  17.897  25.129  1.00  0.00     0.093 A 
ATOM     19  C   UNL A   1      34.662  17.016  24.614  1.00  0.00     0.020 A 
ATOM     20  C   UNL A   1      33.366  16.716  25.095  1.00  0.00     0.020 A 
ENDBRANCH  13  16
ENDBRANCH   6   8
ENDBRANCH   5   6
ENDBRANCH   4   5
ENDBRANCH   3   4
ENDBRANCH   2   3
ENDBRANCH   1   2
BRANCH   1  21
ATOM     21  C   UNL A   1      40.115  22.525  27.207  1.00  0.00     0.261 C 
BRANCH  21  22
ATOM     22  O   UNL A   1      40.506  23.842  26.863  1.00  0.00    -0.460 OA
BRANCH  22  23
ATOM     23  C   UNL A   1      39.715  24.747  27.484  1.00  0.00     0.338 C 
ATOM     24  O   UNL A   1      38.506  24.686  27.647  1.00  0.00    -0.246 OA
BRANCH  23  25
ATOM     25  C   UNL A   1      40.462  25.969  27.740  1.00  0.00     0.060 A 
ATOM     26  C   UNL A   1      40.786  26.162  29.083  1.00  0.00     0.016 A 
ATOM     27  C   UNL A   1      40.338  27.021  26.822  1.00  0.00     0.016 A 
ATOM     28  C   UNL A   1      40.739  27.441  29.569  1.00  0.00     0.010 A 
ATOM     29  C   UNL A   1      40.253  28.300  27.317  1.00  0.00     0.010 A 
ATOM     30  C   UNL A   1      40.414  28.488  28.694  1.00  0.00    -0.014 A 
BRANCH  30  31
ATOM     31  C   UNL A   1      40.583  29.833  29.238  1.00  0.00     0.031 A 
ATOM     32  C   UNL A   1      39.148  30.354  29.535  1.00  0.00     0.074 A 
ATOM     33  C   UNL A   1      41.863  30.338  29.213  1.00  0.00     0.049 A 
ATOM     34  N   UNL A   1      38.632  31.518  29.312  1.00  0.00    -0.248 NA
ATOM     35  C   UNL A   1      38.065  29.403  29.970  1.00  0.00     0.031 C 
ATOM     36  C   UNL A   1      43.106  29.574  28.907  1.00  0.00     0.029 A 
ATOM     37  N   UNL A   1      42.404  31.588  29.434  1.00  0.00    -0.354 N 
ATOM     38  C   UNL A   1      37.339  31.523  29.883  1.00  0.00     0.074 A 
ATOM     39  C   UNL A   1      36.968  30.159  30.051  1.00  0.00     0.031 C 
ATOM     40  C   UNL A   1      44.200  30.382  28.875  1.00  0.00     0.029 A 
ATOM     41  C   UNL A   1      43.811  31.750  29.170  1.00  0.00     0.049 A 
ATOM     42  H   UNL A   1      41.852  32.336  29.758  1.00  0.00     0.167 HD
ATOM     43  C   UNL A   1      36.780  32.654  30.404  1.00  0.00     0.034 A 
ATOM     44  C   UNL A   1      44.556  32.917  29.175  1.00  0.00     0.034 A 
ATOM     45  C   UNL A   1      37.696  33.733  30.215  1.00  0.00     0.049 A 
ATOM     46  C   UNL A   1      43.595  33.874  29.736  1.00  0.00     0.074 A 
ATOM     47  C   UNL A   1      38.169  34.329  29.077  1.00  0.00     0.029 A 
ATOM     48  N   UNL A   1      38.567  33.969  31.260  1.00  0.00    -0.354 N 
ATOM     49  N   UNL A   1      43.257  33.913  30.987  1.00  0.00    -0.248 NA
ATOM     50  C   UNL A   1      42.920  34.819  28.839  1.00  0.00     0.031 C 
ATOM     51  C   UNL A   1      39.550  34.380  29.336  1.00  0.00     0.029 A 
ATOM     52  C   UNL A   1      39.794  34.195  30.705  1.00  0.00     0.049 A 
ATOM     53  H   UNL A   1      38.346  33.973  32.220  1.00  0.00     0.167 HD
ATOM     54  C   UNL A   1      42.090  34.621  30.949  1.00  0.00     0.074 A 
ATOM     55  C   UNL A   1      42.129  35.413  29.730  1.00  0.00     0.031 C 
ATOM     56  C   UNL A   1      40.983  34.070  31.516  1.00  0.00     0.034 A 
BRANCH  43  57
ATOM     57  C   UNL A   1      35.652  32.901  31.368  1.00  0.00     0.023 A 
ATOM     58  C   UNL A   1      34.775  33.954  31.005  1.00  0.00     0.031 A 
ATOM     59  C   UNL A   1      35.586  32.465  32.696  1.00  0.00     0.131 A 
ATOM     60  C   UNL A   1      34.037  34.652  31.963  1.00  0.00     0.055 A 
ATOM     61  C   UNL A   1      34.774  33.112  33.640  1.00  0.00     0.041 A 
ATOM     62  F   UNL A   1      36.357  31.471  33.155  1.00  0.00    -0.206 F 
ATOM     63  C   UNL A   1      34.032  34.239  33.288  1.00  0.00     0.022 A 
BRANCH  60  64
ATOM     64  S   UNL A   1      33.274  36.220  31.459  1.00  0.00     0.124 S 
ATOM     65  O   UNL A   1      34.130  37.199  32.119  1.00  0.00    -0.237 OA
ATOM     66  O   UNL A   1      33.381  36.155  30.005  1.00  0.00    -0.237 OA
ATOM     67  O   UNL A   1      31.916  36.117  31.987  1.00  0.00    -0.744 OA
ENDBRANCH  60  64
ENDBRANCH  43  57
BRANCH  44  68
ATOM     68  C   UNL A   1      45.908  33.593  28.835  1.00  0.00     0.023 A 
ATOM     69  C   UNL A   1      46.371  34.095  27.602  1.00  0.00     0.031 A 
ATOM     70  C   UNL A   1      46.809  33.868  29.931  1.00  0.00     0.131 A 
ATOM     71  C   UNL A   1      47.573  34.885  27.550  1.00  0.00     0.055 A 
ATOM     72  C   UNL A   1      47.903  34.728  29.893  1.00  0.00     0.041 A 
ATOM     73  F   UNL A   1      46.670  33.302  31.139  1.00  0.00    -0.206 F 
ATOM     74  C   UNL A   1      48.286  35.260  28.694  1.00  0.00     0.022 A 
BRANCH  71  75
ATOM     75  S   UNL A   1      48.288  35.483  25.980  1.00  0.00     0.124 S 
ATOM     76  O   UNL A   1      49.719  35.422  26.255  1.00  0.00    -0.237 OA
ATOM     77  O   UNL A   1      47.777  34.528  25.004  1.00  0.00    -0.237 OA
ATOM     78  O   UNL A   1      47.744  36.837  25.852  1.00  0.00    -0.744 OA
ENDBRANCH  71  75
ENDBRANCH  44  68
BRANCH  56  79
ATOM     79  C   UNL A   1      41.259  33.080  32.655  1.00  0.00     0.023 A 
ATOM     80  C   UNL A   1      40.768  31.757  32.563  1.00  0.00     0.031 A 
ATOM     81  C   UNL A   1      41.870  33.410  33.878  1.00  0.00     0.131 A 
ATOM     82  C   UNL A   1      40.840  30.862  33.648  1.00  0.00     0.055 A 
ATOM     83  C   UNL A   1      41.950  32.518  34.963  1.00  0.00     0.041 A 
ATOM     84  F   UNL A   1      42.408  34.614  34.075  1.00  0.00    -0.206 F 
ATOM     85  C   UNL A   1      41.429  31.236  34.854  1.00  0.00     0.022 A 
BRANCH  82  86
ATOM     86  S   UNL A   1      40.164  29.187  33.463  1.00  0.00     0.124 S 
ATOM     87  O   UNL A   1      38.733  29.431  33.329  1.00  0.00    -0.237 OA
ATOM     88  O   UNL A   1      40.847  28.701  32.269  1.00  0.00    -0.237 OA
ATOM     89  O   UNL A   1      40.560  28.521  34.705  1.00  0.00    -0.744 OA
ENDBRANCH  82  86
ENDBRANCH  56  79
ENDBRANCH  30  31
ENDBRANCH  23  25
ENDBRANCH  22  23
ENDBRANCH  21  22
ENDBRANCH   1  21
TORSDOF 19
ENDMDL
