MODEL 1
REMARK VINA RESULT:     -10.1      0.000      0.000
REMARK SMILES C[C@H](C(=O)OCCOCCOC(=O)c1ccc(-c2c3nc(c(-c4cc(S(=O)(=O)[O-])ccc4F)c4ccc([nH]4)c(-c4cc(S(=O)(=O)[O-])ccc4F)c4nc(c(-c5cc(S(=O)(=O)[O-])ccc5F)c5ccc2[nH]5)C=C4)C=C3)cc1)[C@H](C)[N@@H+]1CC[C@H]([NH+](C)C)C1
REMARK SMILES IDX 8 1 7 2 6 3 5 4 3 5 4 6 2 7 1 8 77 9 78 10 79 11 80 12 86 13
REMARK SMILES IDX 81 15 82 16 83 17 84 18 85 19 9 21 10 22 11 23 12 24 13 25
REMARK SMILES IDX 14 26 15 27 76 28 16 29 75 30 17 31 18 32 19 33 69 34 20 35
REMARK SMILES IDX 74 36 68 37 70 38 21 39 73 40 67 41 66 42 22 44 54 45 34 46
REMARK SMILES IDX 53 47 35 48 38 49 52 50 71 51 36 52 37 53 51 55 72 56 39 57
REMARK SMILES IDX 23 58 24 59 32 60 25 61 31 62 33 63 30 64 26 65 27 66 28 67
REMARK SMILES IDX 29 68 55 69 56 70 64 71 57 72 63 73 65 74 62 75 58 76 59 77
REMARK SMILES IDX 60 78 61 79 40 80 41 81 49 82 42 83 48 84 50 85 47 86 43 87
REMARK SMILES IDX 44 88 45 89 46 90
REMARK H PARENT 79 14 83 20 70 43 38 54
REMARK Flexibility Score: inf
ROOT
ATOM      1  O   UNL A   1      31.159  28.809  24.698  1.00  0.00    -0.374 OA
ENDROOT
BRANCH   1   2
ATOM      2  C   UNL A   1      30.853  27.451  24.361  1.00  0.00     0.202 C 
BRANCH   2   3
ATOM      3  C   UNL A   1      31.148  26.444  25.474  1.00  0.00     0.261 C 
BRANCH   3   4
ATOM      4  O   UNL A   1      30.507  25.194  25.169  1.00  0.00    -0.463 OA
BRANCH   4   5
ATOM      5  C   UNL A   1      30.867  24.141  25.941  1.00  0.00     0.314 C 
ATOM      6  O   UNL A   1      30.533  23.998  27.112  1.00  0.00    -0.252 OA
BRANCH   5   7
ATOM      7  C   UNL A   1      31.581  23.052  25.149  1.00  0.00     0.154 C 
ATOM      8  C   UNL A   1      31.176  23.335  23.684  1.00  0.00     0.026 C 
BRANCH   7   9
ATOM      9  C   UNL A   1      33.138  22.900  25.333  1.00  0.00     0.195 C 
ATOM     10  C   UNL A   1      33.480  22.933  26.851  1.00  0.00     0.076 C 
BRANCH   9  11
ATOM     11  N   UNL A   1      33.969  23.951  24.663  1.00  0.00    -0.327 N 
ATOM     12  C   UNL A   1      34.689  23.507  23.455  1.00  0.00     0.269 C 
ATOM     13  C   UNL A   1      35.088  24.459  25.517  1.00  0.00     0.328 C 
ATOM     14  H   UNL A   1      33.254  24.648  24.456  1.00  0.00     0.348 HD
ATOM     15  C   UNL A   1      35.930  22.803  23.978  1.00  0.00     0.132 C 
ATOM     16  C   UNL A   1      36.401  23.783  25.053  1.00  0.00     0.245 C 
BRANCH  16  17
ATOM     17  N   UNL A   1      37.315  23.196  26.045  1.00  0.00    -0.333 N 
ATOM     18  C   UNL A   1      37.861  21.917  25.599  1.00  0.00     0.332 C 
ATOM     19  C   UNL A   1      38.379  24.075  26.519  1.00  0.00     0.332 C 
ATOM     20  H   UNL A   1      36.719  23.042  26.858  1.00  0.00     0.348 HD
ENDBRANCH  16  17
ENDBRANCH   9  11
ENDBRANCH   7   9
ENDBRANCH   5   7
ENDBRANCH   4   5
ENDBRANCH   3   4
ENDBRANCH   2   3
ENDBRANCH   1   2
BRANCH   1  21
ATOM     21  C   UNL A   1      31.589  29.058  26.038  1.00  0.00     0.202 C 
BRANCH  21  22
ATOM     22  C   UNL A   1      31.850  30.526  26.390  1.00  0.00     0.261 C 
BRANCH  22  23
ATOM     23  O   UNL A   1      33.246  30.867  26.338  1.00  0.00    -0.460 OA
BRANCH  23  24
ATOM     24  C   UNL A   1      33.683  31.725  27.289  1.00  0.00     0.338 C 
ATOM     25  O   UNL A   1      33.056  32.666  27.770  1.00  0.00    -0.246 OA
BRANCH  24  26
ATOM     26  C   UNL A   1      34.994  31.290  27.801  1.00  0.00     0.060 A 
ATOM     27  C   UNL A   1      35.203  29.931  28.049  1.00  0.00     0.016 A 
ATOM     28  C   UNL A   1      35.996  32.212  28.099  1.00  0.00     0.016 A 
ATOM     29  C   UNL A   1      36.400  29.501  28.634  1.00  0.00     0.010 A 
ATOM     30  C   UNL A   1      37.213  31.776  28.638  1.00  0.00     0.010 A 
ATOM     31  C   UNL A   1      37.409  30.422  28.959  1.00  0.00    -0.014 A 
BRANCH  31  32
ATOM     32  C   UNL A   1      38.583  29.995  29.777  1.00  0.00     0.031 A 
ATOM     33  C   UNL A   1      38.717  30.499  31.195  1.00  0.00     0.074 A 
ATOM     34  C   UNL A   1      39.509  29.148  29.287  1.00  0.00     0.049 A 
ATOM     35  N   UNL A   1      39.654  30.263  32.081  1.00  0.00    -0.248 NA
ATOM     36  C   UNL A   1      37.664  31.410  31.671  1.00  0.00     0.031 C 
ATOM     37  C   UNL A   1      39.513  28.586  27.937  1.00  0.00     0.029 A 
ATOM     38  N   UNL A   1      40.629  28.605  29.875  1.00  0.00    -0.354 N 
ATOM     39  C   UNL A   1      39.312  31.009  33.206  1.00  0.00     0.074 A 
ATOM     40  C   UNL A   1      38.119  31.754  32.864  1.00  0.00     0.031 C 
ATOM     41  C   UNL A   1      40.567  27.762  27.807  1.00  0.00     0.029 A 
ATOM     42  C   UNL A   1      41.336  27.761  29.051  1.00  0.00     0.049 A 
ATOM     43  H   UNL A   1      40.898  28.804  30.801  1.00  0.00     0.167 HD
ATOM     44  C   UNL A   1      39.914  31.052  34.422  1.00  0.00     0.034 A 
ATOM     45  C   UNL A   1      42.475  27.070  29.268  1.00  0.00     0.034 A 
ATOM     46  C   UNL A   1      41.086  30.286  34.769  1.00  0.00     0.049 A 
ATOM     47  C   UNL A   1      43.149  27.156  30.619  1.00  0.00     0.074 A 
ATOM     48  C   UNL A   1      41.738  30.216  35.987  1.00  0.00     0.029 A 
ATOM     49  N   UNL A   1      41.784  29.461  33.898  1.00  0.00    -0.354 N 
ATOM     50  N   UNL A   1      42.790  27.836  31.682  1.00  0.00    -0.248 NA
ATOM     51  C   UNL A   1      44.378  26.369  30.798  1.00  0.00     0.031 C 
ATOM     52  C   UNL A   1      42.868  29.405  35.835  1.00  0.00     0.029 A 
ATOM     53  C   UNL A   1      42.878  28.903  34.544  1.00  0.00     0.049 A 
ATOM     54  H   UNL A   1      41.538  29.294  32.959  1.00  0.00     0.167 HD
ATOM     55  C   UNL A   1      43.730  27.531  32.665  1.00  0.00     0.074 A 
ATOM     56  C   UNL A   1      44.664  26.597  32.071  1.00  0.00     0.031 C 
ATOM     57  C   UNL A   1      43.810  27.978  33.944  1.00  0.00     0.034 A 
BRANCH  44  58
ATOM     58  C   UNL A   1      39.323  31.985  35.454  1.00  0.00     0.023 A 
ATOM     59  C   UNL A   1      39.725  33.329  35.558  1.00  0.00     0.031 A 
ATOM     60  C   UNL A   1      38.370  31.513  36.375  1.00  0.00     0.131 A 
ATOM     61  C   UNL A   1      39.247  34.125  36.608  1.00  0.00     0.055 A 
ATOM     62  C   UNL A   1      37.829  32.338  37.364  1.00  0.00     0.041 A 
ATOM     63  F   UNL A   1      37.960  30.236  36.340  1.00  0.00    -0.206 F 
ATOM     64  C   UNL A   1      38.281  33.648  37.496  1.00  0.00     0.022 A 
BRANCH  61  65
ATOM     65  S   UNL A   1      40.025  35.739  36.893  1.00  0.00     0.124 S 
ATOM     66  O   UNL A   1      41.432  35.367  37.023  1.00  0.00    -0.237 OA
ATOM     67  O   UNL A   1      39.667  36.480  35.689  1.00  0.00    -0.237 OA
ATOM     68  O   UNL A   1      39.397  36.208  38.127  1.00  0.00    -0.744 OA
ENDBRANCH  61  65
ENDBRANCH  44  58
BRANCH  45  69
ATOM     69  C   UNL A   1      43.076  26.240  28.182  1.00  0.00     0.023 A 
ATOM     70  C   UNL A   1      42.651  24.921  27.955  1.00  0.00     0.031 A 
ATOM     71  C   UNL A   1      44.131  26.736  27.395  1.00  0.00     0.131 A 
ATOM     72  C   UNL A   1      43.308  24.128  26.999  1.00  0.00     0.055 A 
ATOM     73  C   UNL A   1      44.745  25.962  26.410  1.00  0.00     0.041 A 
ATOM     74  F   UNL A   1      44.577  27.990  27.573  1.00  0.00    -0.206 F 
ATOM     75  C   UNL A   1      44.343  24.644  26.217  1.00  0.00     0.022 A 
BRANCH  72  76
ATOM     76  S   UNL A   1      42.844  22.380  26.852  1.00  0.00     0.124 S 
ATOM     77  O   UNL A   1      42.669  22.001  28.249  1.00  0.00    -0.237 OA
ATOM     78  O   UNL A   1      41.628  22.456  26.050  1.00  0.00    -0.237 OA
ATOM     79  O   UNL A   1      43.994  21.779  26.180  1.00  0.00    -0.744 OA
ENDBRANCH  72  76
ENDBRANCH  45  69
BRANCH  57  80
ATOM     80  C   UNL A   1      44.919  27.422  34.807  1.00  0.00     0.023 A 
ATOM     81  C   UNL A   1      44.762  26.238  35.549  1.00  0.00     0.031 A 
ATOM     82  C   UNL A   1      46.153  28.091  34.886  1.00  0.00     0.131 A 
ATOM     83  C   UNL A   1      45.802  25.787  36.377  1.00  0.00     0.055 A 
ATOM     84  C   UNL A   1      47.206  27.607  35.665  1.00  0.00     0.041 A 
ATOM     85  F   UNL A   1      46.361  29.228  34.201  1.00  0.00    -0.206 F 
ATOM     86  C   UNL A   1      47.029  26.455  36.426  1.00  0.00     0.022 A 
BRANCH  83  87
ATOM     87  S   UNL A   1      45.504  24.361  37.456  1.00  0.00     0.124 S 
ATOM     88  O   UNL A   1      44.574  24.911  38.437  1.00  0.00    -0.237 OA
ATOM     89  O   UNL A   1      44.948  23.379  36.532  1.00  0.00    -0.237 OA
ATOM     90  O   UNL A   1      46.833  24.039  37.975  1.00  0.00    -0.744 OA
ENDBRANCH  83  87
ENDBRANCH  57  80
ENDBRANCH  31  32
ENDBRANCH  24  26
ENDBRANCH  23  24
ENDBRANCH  22  23
ENDBRANCH  21  22
ENDBRANCH   1  21
TORSDOF 20
ENDMDL
MODEL 2
REMARK VINA RESULT:      -9.9      2.225      3.193
REMARK SMILES C[C@H](C(=O)OCCOCCOC(=O)c1ccc(-c2c3nc(c(-c4cc(S(=O)(=O)[O-])ccc4F)c4ccc([nH]4)c(-c4cc(S(=O)(=O)[O-])ccc4F)c4nc(c(-c5cc(S(=O)(=O)[O-])ccc5F)c5ccc2[nH]5)C=C4)C=C3)cc1)[C@H](C)[N@@H+]1CC[C@H]([NH+](C)C)C1
REMARK SMILES IDX 8 1 7 2 6 3 5 4 3 5 4 6 2 7 1 8 77 9 78 10 79 11 80 12 86 13
REMARK SMILES IDX 81 15 82 16 83 17 84 18 85 19 9 21 10 22 11 23 12 24 13 25
REMARK SMILES IDX 14 26 15 27 76 28 16 29 75 30 17 31 18 32 19 33 69 34 20 35
REMARK SMILES IDX 74 36 68 37 70 38 21 39 73 40 67 41 66 42 22 44 54 45 34 46
REMARK SMILES IDX 53 47 35 48 38 49 52 50 71 51 36 52 37 53 51 55 72 56 39 57
REMARK SMILES IDX 23 58 24 59 32 60 25 61 31 62 33 63 30 64 26 65 27 66 28 67
REMARK SMILES IDX 29 68 55 69 56 70 64 71 57 72 63 73 65 74 62 75 58 76 59 77
REMARK SMILES IDX 60 78 61 79 40 80 41 81 49 82 42 83 48 84 50 85 47 86 43 87
REMARK SMILES IDX 44 88 45 89 46 90
REMARK H PARENT 79 14 83 20 70 43 38 54
REMARK Flexibility Score: inf
ROOT
ATOM      1  O   UNL A   1      32.222  28.808  25.090  1.00  0.00    -0.374 OA
ENDROOT
BRANCH   1   2
ATOM      2  C   UNL A   1      32.300  28.879  23.662  1.00  0.00     0.202 C 
BRANCH   2   3
ATOM      3  C   UNL A   1      31.678  27.684  22.936  1.00  0.00     0.261 C 
BRANCH   3   4
ATOM      4  O   UNL A   1      32.196  26.465  23.493  1.00  0.00    -0.463 OA
BRANCH   4   5
ATOM      5  C   UNL A   1      33.380  26.041  22.990  1.00  0.00     0.314 C 
ATOM      6  O   UNL A   1      33.814  26.356  21.887  1.00  0.00    -0.252 OA
BRANCH   5   7
ATOM      7  C   UNL A   1      34.211  25.277  24.014  1.00  0.00     0.154 C 
ATOM      8  C   UNL A   1      33.911  26.001  25.347  1.00  0.00     0.026 C 
BRANCH   7   9
ATOM      9  C   UNL A   1      34.018  23.717  24.111  1.00  0.00     0.195 C 
ATOM     10  C   UNL A   1      35.114  23.011  23.260  1.00  0.00     0.076 C 
BRANCH   9  11
ATOM     11  N   UNL A   1      32.690  23.204  23.646  1.00  0.00    -0.327 N 
ATOM     12  C   UNL A   1      31.654  23.104  24.690  1.00  0.00     0.269 C 
ATOM     13  C   UNL A   1      32.741  21.800  23.130  1.00  0.00     0.328 C 
ATOM     14  H   UNL A   1      32.461  23.900  22.936  1.00  0.00     0.348 HD
ATOM     15  C   UNL A   1      31.950  21.798  25.409  1.00  0.00     0.132 C 
ATOM     16  C   UNL A   1      32.199  20.856  24.231  1.00  0.00     0.245 C 
BRANCH  16  17
ATOM     17  N   UNL A   1      32.941  19.635  24.581  1.00  0.00    -0.333 N 
ATOM     18  C   UNL A   1      32.709  18.559  23.620  1.00  0.00     0.332 C 
ATOM     19  C   UNL A   1      34.368  19.812  24.824  1.00  0.00     0.332 C 
ATOM     20  H   UNL A   1      32.550  19.368  25.484  1.00  0.00     0.348 HD
ENDBRANCH  16  17
ENDBRANCH   9  11
ENDBRANCH   7   9
ENDBRANCH   5   7
ENDBRANCH   4   5
ENDBRANCH   3   4
ENDBRANCH   2   3
ENDBRANCH   1   2
BRANCH   1  21
ATOM     21  C   UNL A   1      31.812  29.995  25.772  1.00  0.00     0.202 C 
BRANCH  21  22
ATOM     22  C   UNL A   1      32.495  30.258  27.118  1.00  0.00     0.261 C 
BRANCH  22  23
ATOM     23  O   UNL A   1      33.913  30.457  26.989  1.00  0.00    -0.460 OA
BRANCH  23  24
ATOM     24  C   UNL A   1      34.437  31.475  27.710  1.00  0.00     0.338 C 
ATOM     25  O   UNL A   1      33.938  32.585  27.881  1.00  0.00    -0.246 OA
BRANCH  24  26
ATOM     26  C   UNL A   1      35.653  31.026  28.412  1.00  0.00     0.060 A 
ATOM     27  C   UNL A   1      36.845  31.726  28.210  1.00  0.00     0.016 A 
ATOM     28  C   UNL A   1      35.645  29.887  29.216  1.00  0.00     0.016 A 
ATOM     29  C   UNL A   1      38.036  31.262  28.780  1.00  0.00     0.010 A 
ATOM     30  C   UNL A   1      36.827  29.451  29.826  1.00  0.00     0.010 A 
ATOM     31  C   UNL A   1      38.045  30.103  29.573  1.00  0.00    -0.014 A 
BRANCH  31  32
ATOM     32  C   UNL A   1      39.340  29.490  29.993  1.00  0.00     0.031 A 
ATOM     33  C   UNL A   1      40.053  30.034  31.209  1.00  0.00     0.074 A 
ATOM     34  C   UNL A   1      39.871  28.443  29.331  1.00  0.00     0.049 A 
ATOM     35  N   UNL A   1      41.188  29.661  31.749  1.00  0.00    -0.248 NA
ATOM     36  C   UNL A   1      39.413  31.168  31.894  1.00  0.00     0.031 C 
ATOM     37  C   UNL A   1      39.298  27.817  28.139  1.00  0.00     0.029 A 
ATOM     38  N   UNL A   1      41.013  27.716  29.570  1.00  0.00    -0.354 N 
ATOM     39  C   UNL A   1      41.402  30.523  32.821  1.00  0.00     0.074 A 
ATOM     40  C   UNL A   1      40.314  31.477  32.811  1.00  0.00     0.031 C 
ATOM     41  C   UNL A   1      40.077  26.788  27.766  1.00  0.00     0.029 A 
ATOM     42  C   UNL A   1      41.225  26.698  28.668  1.00  0.00     0.049 A 
ATOM     43  H   UNL A   1      41.624  27.906  30.319  1.00  0.00     0.167 HD
ATOM     44  C   UNL A   1      42.394  30.510  33.748  1.00  0.00     0.034 A 
ATOM     45  C   UNL A   1      42.229  25.801  28.574  1.00  0.00     0.034 A 
ATOM     46  C   UNL A   1      43.460  29.539  33.773  1.00  0.00     0.049 A 
ATOM     47  C   UNL A   1      43.341  25.822  29.597  1.00  0.00     0.074 A 
ATOM     48  C   UNL A   1      44.480  29.405  34.700  1.00  0.00     0.029 A 
ATOM     49  N   UNL A   1      43.650  28.540  32.829  1.00  0.00    -0.354 N 
ATOM     50  N   UNL A   1      43.507  26.620  30.625  1.00  0.00    -0.248 NA
ATOM     51  C   UNL A   1      44.398  24.810  29.448  1.00  0.00     0.031 C 
ATOM     52  C   UNL A   1      45.323  28.371  34.279  1.00  0.00     0.029 A 
ATOM     53  C   UNL A   1      44.787  27.806  33.133  1.00  0.00     0.049 A 
ATOM     54  H   UNL A   1      43.062  28.375  32.056  1.00  0.00     0.167 HD
ATOM     55  C   UNL A   1      44.666  26.184  31.264  1.00  0.00     0.074 A 
ATOM     56  C   UNL A   1      45.151  25.046  30.512  1.00  0.00     0.031 C 
ATOM     57  C   UNL A   1      45.270  26.677  32.375  1.00  0.00     0.034 A 
BRANCH  44  58
ATOM     58  C   UNL A   1      42.379  31.601  34.794  1.00  0.00     0.023 A 
ATOM     59  C   UNL A   1      41.441  31.612  35.842  1.00  0.00     0.031 A 
ATOM     60  C   UNL A   1      43.294  32.666  34.722  1.00  0.00     0.131 A 
ATOM     61  C   UNL A   1      41.380  32.706  36.717  1.00  0.00     0.055 A 
ATOM     62  C   UNL A   1      43.287  33.709  35.653  1.00  0.00     0.041 A 
ATOM     63  F   UNL A   1      44.202  32.723  33.736  1.00  0.00    -0.206 F 
ATOM     64  C   UNL A   1      42.314  33.742  36.647  1.00  0.00     0.022 A 
BRANCH  61  65
ATOM     65  S   UNL A   1      39.964  32.834  37.845  1.00  0.00     0.124 S 
ATOM     66  O   UNL A   1      40.593  32.571  39.137  1.00  0.00    -0.237 OA
ATOM     67  O   UNL A   1      39.506  34.200  37.623  1.00  0.00    -0.237 OA
ATOM     68  O   UNL A   1      39.059  31.786  37.378  1.00  0.00    -0.744 OA
ENDBRANCH  61  65
ENDBRANCH  44  58
BRANCH  45  69
ATOM     69  C   UNL A   1      42.252  24.805  27.461  1.00  0.00     0.023 A 
ATOM     70  C   UNL A   1      41.563  23.585  27.563  1.00  0.00     0.031 A 
ATOM     71  C   UNL A   1      43.017  25.034  26.304  1.00  0.00     0.131 A 
ATOM     72  C   UNL A   1      41.690  22.622  26.548  1.00  0.00     0.055 A 
ATOM     73  C   UNL A   1      43.098  24.096  25.275  1.00  0.00     0.041 A 
ATOM     74  F   UNL A   1      43.696  26.183  26.157  1.00  0.00    -0.206 F 
ATOM     75  C   UNL A   1      42.443  22.875  25.399  1.00  0.00     0.022 A 
BRANCH  72  76
ATOM     76  S   UNL A   1      40.924  20.995  26.791  1.00  0.00     0.124 S 
ATOM     77  O   UNL A   1      39.756  21.085  25.923  1.00  0.00    -0.237 OA
ATOM     78  O   UNL A   1      41.983  20.093  26.352  1.00  0.00    -0.237 OA
ATOM     79  O   UNL A   1      40.638  20.965  28.224  1.00  0.00    -0.744 OA
ENDBRANCH  72  76
ENDBRANCH  45  69
BRANCH  57  80
ATOM     80  C   UNL A   1      46.499  25.953  32.876  1.00  0.00     0.023 A 
ATOM     81  C   UNL A   1      46.414  24.881  33.782  1.00  0.00     0.031 A 
ATOM     82  C   UNL A   1      47.776  26.346  32.438  1.00  0.00     0.131 A 
ATOM     83  C   UNL A   1      47.585  24.274  34.260  1.00  0.00     0.055 A 
ATOM     84  C   UNL A   1      48.936  25.700  32.871  1.00  0.00     0.041 A 
ATOM     85  F   UNL A   1      47.920  27.364  31.574  1.00  0.00    -0.206 F 
ATOM     86  C   UNL A   1      48.845  24.665  33.797  1.00  0.00     0.022 A 
BRANCH  83  87
ATOM     87  S   UNL A   1      47.450  23.018  35.562  1.00  0.00     0.124 S 
ATOM     88  O   UNL A   1      48.674  22.248  35.370  1.00  0.00    -0.237 OA
ATOM     89  O   UNL A   1      47.390  23.828  36.774  1.00  0.00    -0.237 OA
ATOM     90  O   UNL A   1      46.215  22.310  35.229  1.00  0.00    -0.744 OA
ENDBRANCH  83  87
ENDBRANCH  57  80
ENDBRANCH  31  32
ENDBRANCH  24  26
ENDBRANCH  23  24
ENDBRANCH  22  23
ENDBRANCH  21  22
ENDBRANCH   1  21
TORSDOF 20
ENDMDL
MODEL 3
REMARK VINA RESULT:      -9.8      1.516      2.121
REMARK SMILES C[C@H](C(=O)OCCOCCOC(=O)c1ccc(-c2c3nc(c(-c4cc(S(=O)(=O)[O-])ccc4F)c4ccc([nH]4)c(-c4cc(S(=O)(=O)[O-])ccc4F)c4nc(c(-c5cc(S(=O)(=O)[O-])ccc5F)c5ccc2[nH]5)C=C4)C=C3)cc1)[C@H](C)[N@@H+]1CC[C@H]([NH+](C)C)C1
REMARK SMILES IDX 8 1 7 2 6 3 5 4 3 5 4 6 2 7 1 8 77 9 78 10 79 11 80 12 86 13
REMARK SMILES IDX 81 15 82 16 83 17 84 18 85 19 9 21 10 22 11 23 12 24 13 25
REMARK SMILES IDX 14 26 15 27 76 28 16 29 75 30 17 31 18 32 19 33 69 34 20 35
REMARK SMILES IDX 74 36 68 37 70 38 21 39 73 40 67 41 66 42 22 44 54 45 34 46
REMARK SMILES IDX 53 47 35 48 38 49 52 50 71 51 36 52 37 53 51 55 72 56 39 57
REMARK SMILES IDX 23 58 24 59 32 60 25 61 31 62 33 63 30 64 26 65 27 66 28 67
REMARK SMILES IDX 29 68 55 69 56 70 64 71 57 72 63 73 65 74 62 75 58 76 59 77
REMARK SMILES IDX 60 78 61 79 40 80 41 81 49 82 42 83 48 84 50 85 47 86 43 87
REMARK SMILES IDX 44 88 45 89 46 90
REMARK H PARENT 79 14 83 20 70 43 38 54
REMARK Flexibility Score: inf
ROOT
ATOM      1  O   UNL A   1      31.504  30.623  25.645  1.00  0.00    -0.374 OA
ENDROOT
BRANCH   1   2
ATOM      2  C   UNL A   1      32.132  29.423  25.180  1.00  0.00     0.202 C 
BRANCH   2   3
ATOM      3  C   UNL A   1      31.638  28.147  25.863  1.00  0.00     0.261 C 
BRANCH   3   4
ATOM      4  O   UNL A   1      30.881  27.365  24.925  1.00  0.00    -0.463 OA
BRANCH   4   5
ATOM      5  C   UNL A   1      30.624  26.086  25.292  1.00  0.00     0.314 C 
ATOM      6  O   UNL A   1      30.052  25.767  26.329  1.00  0.00    -0.252 OA
BRANCH   5   7
ATOM      7  C   UNL A   1      30.954  25.085  24.191  1.00  0.00     0.154 C 
ATOM      8  C   UNL A   1      31.404  25.972  23.008  1.00  0.00     0.026 C 
BRANCH   7   9
ATOM      9  C   UNL A   1      31.980  23.935  24.517  1.00  0.00     0.195 C 
ATOM     10  C   UNL A   1      32.096  22.988  23.287  1.00  0.00     0.076 C 
BRANCH   9  11
ATOM     11  N   UNL A   1      31.639  23.088  25.705  1.00  0.00    -0.327 N 
ATOM     12  C   UNL A   1      32.371  23.416  26.942  1.00  0.00     0.269 C 
ATOM     13  C   UNL A   1      31.979  21.642  25.522  1.00  0.00     0.328 C 
ATOM     14  H   UNL A   1      30.639  23.273  25.784  1.00  0.00     0.348 HD
ATOM     15  C   UNL A   1      33.718  22.731  26.791  1.00  0.00     0.132 C 
ATOM     16  C   UNL A   1      33.299  21.353  26.278  1.00  0.00     0.245 C 
BRANCH  16  17
ATOM     17  N   UNL A   1      34.376  20.603  25.613  1.00  0.00    -0.333 N 
ATOM     18  C   UNL A   1      33.855  19.553  24.741  1.00  0.00     0.332 C 
ATOM     19  C   UNL A   1      35.367  21.411  24.911  1.00  0.00     0.332 C 
ATOM     20  H   UNL A   1      34.884  20.176  26.387  1.00  0.00     0.348 HD
ENDBRANCH  16  17
ENDBRANCH   9  11
ENDBRANCH   7   9
ENDBRANCH   5   7
ENDBRANCH   4   5
ENDBRANCH   3   4
ENDBRANCH   2   3
ENDBRANCH   1   2
BRANCH   1  21
ATOM     21  C   UNL A   1      32.078  31.244  26.797  1.00  0.00     0.202 C 
BRANCH  21  22
ATOM     22  C   UNL A   1      32.098  32.777  26.785  1.00  0.00     0.261 C 
BRANCH  22  23
ATOM     23  O   UNL A   1      32.345  33.336  28.087  1.00  0.00    -0.460 OA
BRANCH  23  24
ATOM     24  C   UNL A   1      33.444  34.118  28.197  1.00  0.00     0.338 C 
ATOM     25  O   UNL A   1      33.477  35.345  28.157  1.00  0.00    -0.246 OA
BRANCH  24  26
ATOM     26  C   UNL A   1      34.620  33.294  28.529  1.00  0.00     0.060 A 
ATOM     27  C   UNL A   1      34.436  32.126  29.274  1.00  0.00     0.016 A 
ATOM     28  C   UNL A   1      35.907  33.692  28.170  1.00  0.00     0.016 A 
ATOM     29  C   UNL A   1      35.544  31.381  29.694  1.00  0.00     0.010 A 
ATOM     30  C   UNL A   1      37.011  32.919  28.548  1.00  0.00     0.010 A 
ATOM     31  C   UNL A   1      36.846  31.784  29.358  1.00  0.00    -0.014 A 
BRANCH  31  32
ATOM     32  C   UNL A   1      38.026  31.117  29.985  1.00  0.00     0.031 A 
ATOM     33  C   UNL A   1      38.371  31.429  31.423  1.00  0.00     0.074 A 
ATOM     34  C   UNL A   1      38.771  30.222  29.307  1.00  0.00     0.049 A 
ATOM     35  N   UNL A   1      39.350  30.974  32.165  1.00  0.00    -0.248 NA
ATOM     36  C   UNL A   1      37.509  32.405  32.109  1.00  0.00     0.031 C 
ATOM     37  C   UNL A   1      38.560  29.827  27.915  1.00  0.00     0.029 A 
ATOM     38  N   UNL A   1      39.857  29.476  29.703  1.00  0.00    -0.354 N 
ATOM     39  C   UNL A   1      39.231  31.620  33.393  1.00  0.00     0.074 A 
ATOM     40  C   UNL A   1      38.125  32.545  33.270  1.00  0.00     0.031 C 
ATOM     41  C   UNL A   1      39.471  28.897  27.580  1.00  0.00     0.029 A 
ATOM     42  C   UNL A   1      40.353  28.651  28.720  1.00  0.00     0.049 A 
ATOM     43  H   UNL A   1      40.244  29.528  30.607  1.00  0.00     0.167 HD
ATOM     44  C   UNL A   1      39.953  31.443  34.529  1.00  0.00     0.034 A 
ATOM     45  C   UNL A   1      41.401  27.801  28.732  1.00  0.00     0.034 A 
ATOM     46  C   UNL A   1      41.035  30.498  34.658  1.00  0.00     0.049 A 
ATOM     47  C   UNL A   1      42.213  27.641  29.997  1.00  0.00     0.074 A 
ATOM     48  C   UNL A   1      41.791  30.202  35.779  1.00  0.00     0.029 A 
ATOM     49  N   UNL A   1      41.520  29.699  33.632  1.00  0.00    -0.354 N 
ATOM     50  N   UNL A   1      42.062  28.231  31.159  1.00  0.00    -0.248 NA
ATOM     51  C   UNL A   1      43.333  26.688  29.951  1.00  0.00     0.031 C 
ATOM     52  C   UNL A   1      42.775  29.278  35.414  1.00  0.00     0.029 A 
ATOM     53  C   UNL A   1      42.585  28.934  34.086  1.00  0.00     0.049 A 
ATOM     54  H   UNL A   1      41.160  29.677  32.715  1.00  0.00     0.167 HD
ATOM     55  C   UNL A   1      43.044  27.695  31.990  1.00  0.00     0.074 A 
ATOM     56  C   UNL A   1      43.774  26.727  31.200  1.00  0.00     0.031 C 
ATOM     57  C   UNL A   1      43.314  27.975  33.290  1.00  0.00     0.034 A 
BRANCH  44  58
ATOM     58  C   UNL A   1      39.605  32.315  35.714  1.00  0.00     0.023 A 
ATOM     59  C   UNL A   1      40.210  33.568  35.916  1.00  0.00     0.031 A 
ATOM     60  C   UNL A   1      38.680  31.870  36.676  1.00  0.00     0.131 A 
ATOM     61  C   UNL A   1      39.954  34.290  37.091  1.00  0.00     0.055 A 
ATOM     62  C   UNL A   1      38.361  32.635  37.801  1.00  0.00     0.041 A 
ATOM     63  F   UNL A   1      38.083  30.675  36.550  1.00  0.00    -0.206 F 
ATOM     64  C   UNL A   1      39.013  33.845  38.023  1.00  0.00     0.022 A 
BRANCH  61  65
ATOM     65  S   UNL A   1      40.986  35.734  37.462  1.00  0.00     0.124 S 
ATOM     66  O   UNL A   1      41.569  35.357  38.747  1.00  0.00    -0.237 OA
ATOM     67  O   UNL A   1      41.904  35.766  36.329  1.00  0.00    -0.237 OA
ATOM     68  O   UNL A   1      40.026  36.835  37.521  1.00  0.00    -0.744 OA
ENDBRANCH  61  65
ENDBRANCH  44  58
BRANCH  45  69
ATOM     69  C   UNL A   1      41.768  27.035  27.504  1.00  0.00     0.023 A 
ATOM     70  C   UNL A   1      41.588  25.643  27.433  1.00  0.00     0.031 A 
ATOM     71  C   UNL A   1      42.365  27.677  26.405  1.00  0.00     0.131 A 
ATOM     72  C   UNL A   1      42.041  24.934  26.309  1.00  0.00     0.055 A 
ATOM     73  C   UNL A   1      42.766  26.975  25.267  1.00  0.00     0.041 A 
ATOM     74  F   UNL A   1      42.563  29.005  26.421  1.00  0.00    -0.206 F 
ATOM     75  C   UNL A   1      42.618  25.593  25.220  1.00  0.00     0.022 A 
BRANCH  72  76
ATOM     76  S   UNL A   1      41.945  23.122  26.325  1.00  0.00     0.124 S 
ATOM     77  O   UNL A   1      42.607  22.778  25.072  1.00  0.00    -0.237 OA
ATOM     78  O   UNL A   1      42.670  22.792  27.547  1.00  0.00    -0.237 OA
ATOM     79  O   UNL A   1      40.508  22.859  26.366  1.00  0.00    -0.744 OA
ENDBRANCH  72  76
ENDBRANCH  45  69
BRANCH  57  80
ATOM     80  C   UNL A   1      44.416  27.185  33.957  1.00  0.00     0.023 A 
ATOM     81  C   UNL A   1      44.167  25.963  34.607  1.00  0.00     0.031 A 
ATOM     82  C   UNL A   1      45.737  27.666  33.942  1.00  0.00     0.131 A 
ATOM     83  C   UNL A   1      45.213  25.290  35.257  1.00  0.00     0.055 A 
ATOM     84  C   UNL A   1      46.785  26.963  34.539  1.00  0.00     0.041 A 
ATOM     85  F   UNL A   1      46.035  28.828  33.337  1.00  0.00    -0.206 F 
ATOM     86  C   UNL A   1      46.524  25.774  35.212  1.00  0.00     0.022 A 
BRANCH  83  87
ATOM     87  S   UNL A   1      44.826  23.813  36.236  1.00  0.00     0.124 S 
ATOM     88  O   UNL A   1      46.057  23.038  36.117  1.00  0.00    -0.237 OA
ATOM     89  O   UNL A   1      44.552  24.374  37.555  1.00  0.00    -0.237 OA
ATOM     90  O   UNL A   1      43.666  23.242  35.554  1.00  0.00    -0.744 OA
ENDBRANCH  83  87
ENDBRANCH  57  80
ENDBRANCH  31  32
ENDBRANCH  24  26
ENDBRANCH  23  24
ENDBRANCH  22  23
ENDBRANCH  21  22
ENDBRANCH   1  21
TORSDOF 20
ENDMDL
