MODEL 1
REMARK VINA RESULT:     -12.0      0.000      0.000
REMARK SMILES CCc1cc(C(=O)c2[nH]c3cc(Cl)ccc3c2CC(=O)OCCOCCOC(=O)c2ccc(-c3c4nc(c(-c5cc(S(=O)(=O)[O-])ccc5F)c5ccc([nH]5)c(-c5cc(S(=O)(=O)[O-])ccc5F)c5nc(c(-c6cc(S(=O)(=O)[O-])ccc6F)c6ccc3[nH]6)C=C5)C=C4)cc2)ncc1Cl
REMARK SMILES IDX 23 1 22 2 21 3 19 4 20 5 18 6 17 7 8 8 9 9 10 10 16 12 11 13
REMARK SMILES IDX 15 14 12 15 14 16 13 17 6 18 7 19 5 20 3 21 4 22 95 23 94 24
REMARK SMILES IDX 96 25 93 26 2 27 1 28 24 29 25 30 26 31 27 32 28 33 29 34
REMARK SMILES IDX 30 35 31 36 92 37 32 38 91 39 33 40 34 41 35 42 85 43 36 44
REMARK SMILES IDX 90 45 84 46 86 47 37 48 89 49 83 50 82 51 38 53 70 54 50 55
REMARK SMILES IDX 69 56 51 57 54 58 68 59 87 60 52 61 53 62 67 64 88 65 55 66
REMARK SMILES IDX 39 67 40 68 48 69 41 70 47 71 49 72 46 73 42 74 43 75 44 76
REMARK SMILES IDX 45 77 71 78 72 79 80 80 73 81 79 82 81 83 78 84 74 85 75 86
REMARK SMILES IDX 76 87 77 88 56 89 57 90 65 91 58 92 64 93 66 94 63 95 59 96
REMARK SMILES IDX 60 97 61 98 62 99
REMARK H PARENT 9 11 86 52 54 63
REMARK Flexibility Score: inf
ROOT
ATOM      1  C   UNL A   1      33.314  27.061  26.475  1.00  0.00     0.202 C 
ENDROOT
BRANCH   1   2
ATOM      2  C   UNL A   1      34.038  26.306  25.355  1.00  0.00     0.261 C 
BRANCH   2   3
ATOM      3  O   UNL A   1      34.983  25.336  25.864  1.00  0.00    -0.463 OA
BRANCH   3   4
ATOM      4  C   UNL A   1      35.013  24.149  25.201  1.00  0.00     0.310 C 
ATOM      5  O   UNL A   1      35.184  24.044  23.987  1.00  0.00    -0.252 OA
BRANCH   4   6
ATOM      6  C   UNL A   1      34.721  22.926  26.043  1.00  0.00     0.161 C 
BRANCH   6   7
ATOM      7  C   UNL A   1      33.667  21.949  25.586  1.00  0.00     0.000 A 
ATOM      8  C   UNL A   1      32.282  22.057  25.742  1.00  0.00     0.093 A 
ATOM      9  N   UNL A   1      31.731  20.938  25.151  1.00  0.00    -0.351 N 
ATOM     10  C   UNL A   1      32.704  19.999  24.898  1.00  0.00     0.048 A 
ATOM     11  H   UNL A   1      30.776  20.828  24.940  1.00  0.00     0.167 HD
ATOM     12  C   UNL A   1      33.931  20.617  25.120  1.00  0.00     0.004 A 
ATOM     13  C   UNL A   1      32.590  18.659  24.500  1.00  0.00     0.047 A 
ATOM     14  C   UNL A   1      35.109  19.863  24.928  1.00  0.00     0.012 A 
ATOM     15  C   UNL A   1      33.773  17.925  24.364  1.00  0.00     0.043 A 
ATOM     16  C   UNL A   1      35.017  18.513  24.567  1.00  0.00     0.021 A 
ATOM     17  Cl  UNL A   1      33.685  16.252  23.966  1.00  0.00    -0.084 Cl
BRANCH   8  18
ATOM     18  C   UNL A   1      31.541  23.137  26.386  1.00  0.00     0.227 C 
ATOM     19  O   UNL A   1      31.236  23.104  27.577  1.00  0.00    -0.285 OA
BRANCH  18  20
ATOM     20  C   UNL A   1      31.054  24.309  25.597  1.00  0.00     0.113 A 
ATOM     21  C   UNL A   1      30.859  25.518  23.493  1.00  0.00    -0.026 A 
ATOM     22  C   UNL A   1      31.464  24.509  24.280  1.00  0.00     0.037 A 
ATOM     23  C   UNL A   1      29.875  26.304  24.109  1.00  0.00     0.062 A 
ATOM     24  C   UNL A   1      29.542  26.036  25.437  1.00  0.00     0.132 A 
ATOM     25  Cl  UNL A   1      29.036  27.599  23.350  1.00  0.00    -0.082 Cl
ATOM     26  N   UNL A   1      30.105  25.065  26.192  1.00  0.00    -0.251 NA
BRANCH  21  27
ATOM     27  C   UNL A   1      31.388  25.664  22.079  1.00  0.00     0.034 C 
ATOM     28  C   UNL A   1      32.799  26.189  21.850  1.00  0.00     0.009 C 
ENDBRANCH  21  27
ENDBRANCH  18  20
ENDBRANCH   8  18
ENDBRANCH   6   7
ENDBRANCH   4   6
ENDBRANCH   3   4
ENDBRANCH   2   3
ENDBRANCH   1   2
BRANCH   1  29
ATOM     29  O   UNL A   1      32.349  28.031  26.062  1.00  0.00    -0.374 OA
BRANCH  29  30
ATOM     30  C   UNL A   1      31.679  28.743  27.100  1.00  0.00     0.202 C 
BRANCH  30  31
ATOM     31  C   UNL A   1      31.972  30.245  27.182  1.00  0.00     0.261 C 
BRANCH  31  32
ATOM     32  O   UNL A   1      33.314  30.565  26.778  1.00  0.00    -0.460 OA
BRANCH  32  33
ATOM     33  C   UNL A   1      33.888  31.540  27.521  1.00  0.00     0.338 C 
ATOM     34  O   UNL A   1      33.317  32.482  28.063  1.00  0.00    -0.246 OA
BRANCH  33  35
ATOM     35  C   UNL A   1      35.312  31.255  27.756  1.00  0.00     0.060 A 
ATOM     36  C   UNL A   1      35.704  29.914  27.670  1.00  0.00     0.016 A 
ATOM     37  C   UNL A   1      36.225  32.240  28.144  1.00  0.00     0.016 A 
ATOM     38  C   UNL A   1      36.985  29.540  28.056  1.00  0.00     0.010 A 
ATOM     39  C   UNL A   1      37.517  31.860  28.533  1.00  0.00     0.010 A 
ATOM     40  C   UNL A   1      37.881  30.502  28.543  1.00  0.00    -0.014 A 
BRANCH  40  41
ATOM     41  C   UNL A   1      39.107  30.020  29.229  1.00  0.00     0.031 A 
ATOM     42  C   UNL A   1      39.400  30.524  30.618  1.00  0.00     0.074 A 
ATOM     43  C   UNL A   1      39.867  29.060  28.674  1.00  0.00     0.049 A 
ATOM     44  N   UNL A   1      40.318  30.140  31.466  1.00  0.00    -0.248 NA
ATOM     45  C   UNL A   1      38.535  31.604  31.118  1.00  0.00     0.031 C 
ATOM     46  C   UNL A   1      39.654  28.482  27.348  1.00  0.00     0.029 A 
ATOM     47  N   UNL A   1      40.955  28.386  29.165  1.00  0.00    -0.354 N 
ATOM     48  C   UNL A   1      40.132  30.919  32.605  1.00  0.00     0.074 A 
ATOM     49  C   UNL A   1      39.050  31.834  32.315  1.00  0.00     0.031 C 
ATOM     50  C   UNL A   1      40.574  27.525  27.137  1.00  0.00     0.029 A 
ATOM     51  C   UNL A   1      41.448  27.433  28.304  1.00  0.00     0.049 A 
ATOM     52  H   UNL A   1      41.347  28.566  30.050  1.00  0.00     0.167 HD
ATOM     53  C   UNL A   1      40.791  30.862  33.790  1.00  0.00     0.034 A 
ATOM     54  C   UNL A   1      42.482  26.580  28.449  1.00  0.00     0.034 A 
ATOM     55  C   UNL A   1      41.884  29.956  34.051  1.00  0.00     0.049 A 
ATOM     56  C   UNL A   1      43.233  26.568  29.758  1.00  0.00     0.074 A 
ATOM     57  C   UNL A   1      42.639  29.819  35.203  1.00  0.00     0.029 A 
ATOM     58  N   UNL A   1      42.385  29.034  33.140  1.00  0.00    -0.354 N 
ATOM     59  N   UNL A   1      43.035  27.297  30.834  1.00  0.00    -0.248 NA
ATOM     60  C   UNL A   1      44.327  25.598  29.881  1.00  0.00     0.031 C 
ATOM     61  C   UNL A   1      43.634  28.862  34.966  1.00  0.00     0.029 A 
ATOM     62  C   UNL A   1      43.453  28.344  33.693  1.00  0.00     0.049 A 
ATOM     63  H   UNL A   1      42.031  28.892  32.231  1.00  0.00     0.167 HD
ATOM     64  C   UNL A   1      43.963  26.850  31.772  1.00  0.00     0.074 A 
ATOM     65  C   UNL A   1      44.701  25.774  31.140  1.00  0.00     0.031 C 
ATOM     66  C   UNL A   1      44.186  27.284  33.041  1.00  0.00     0.034 A 
BRANCH  53  67
ATOM     67  C   UNL A   1      40.376  31.848  34.858  1.00  0.00     0.023 A 
ATOM     68  C   UNL A   1      39.507  31.487  35.904  1.00  0.00     0.031 A 
ATOM     69  C   UNL A   1      40.815  33.183  34.803  1.00  0.00     0.131 A 
ATOM     70  C   UNL A   1      39.046  32.463  36.803  1.00  0.00     0.055 A 
ATOM     71  C   UNL A   1      40.416  34.131  35.746  1.00  0.00     0.041 A 
ATOM     72  F   UNL A   1      41.625  33.596  33.813  1.00  0.00    -0.206 F 
ATOM     73  C   UNL A   1      39.514  33.777  36.746  1.00  0.00     0.022 A 
BRANCH  70  74
ATOM     74  S   UNL A   1      37.714  32.027  37.955  1.00  0.00     0.124 S 
ATOM     75  O   UNL A   1      36.697  33.021  37.618  1.00  0.00    -0.237 OA
ATOM     76  O   UNL A   1      37.411  30.651  37.582  1.00  0.00    -0.237 OA
ATOM     77  O   UNL A   1      38.328  32.197  39.270  1.00  0.00    -0.744 OA
ENDBRANCH  70  74
ENDBRANCH  53  67
BRANCH  54  78
ATOM     78  C   UNL A   1      42.877  25.673  27.332  1.00  0.00     0.023 A 
ATOM     79  C   UNL A   1      42.381  24.364  27.237  1.00  0.00     0.031 A 
ATOM     80  C   UNL A   1      43.804  26.098  26.361  1.00  0.00     0.131 A 
ATOM     81  C   UNL A   1      42.848  23.509  26.225  1.00  0.00     0.055 A 
ATOM     82  C   UNL A   1      44.227  25.261  25.328  1.00  0.00     0.041 A 
ATOM     83  F   UNL A   1      44.309  27.341  26.404  1.00  0.00    -0.206 F 
ATOM     84  C   UNL A   1      43.758  23.953  25.262  1.00  0.00     0.022 A 
BRANCH  81  85
ATOM     85  S   UNL A   1      42.310  21.776  26.229  1.00  0.00     0.124 S 
ATOM     86  O   UNL A   1      42.532  21.398  27.620  1.00  0.00    -0.237 OA
ATOM     87  O   UNL A   1      40.918  21.892  25.810  1.00  0.00    -0.237 OA
ATOM     88  O   UNL A   1      43.199  21.141  25.259  1.00  0.00    -0.744 OA
ENDBRANCH  81  85
ENDBRANCH  54  78
BRANCH  66  89
ATOM     89  C   UNL A   1      45.248  26.556  33.830  1.00  0.00     0.023 A 
ATOM     90  C   UNL A   1      44.988  25.324  34.458  1.00  0.00     0.031 A 
ATOM     91  C   UNL A   1      46.525  27.122  33.990  1.00  0.00     0.131 A 
ATOM     92  C   UNL A   1      45.962  24.739  35.281  1.00  0.00     0.055 A 
ATOM     93  C   UNL A   1      47.513  26.502  34.755  1.00  0.00     0.041 A 
ATOM     94  F   UNL A   1      46.830  28.295  33.414  1.00  0.00    -0.206 F 
ATOM     95  C   UNL A   1      47.228  25.312  35.422  1.00  0.00     0.022 A 
BRANCH  92  96
ATOM     96  S   UNL A   1      45.507  23.287  36.269  1.00  0.00     0.124 S 
ATOM     97  O   UNL A   1      44.141  23.032  35.823  1.00  0.00    -0.237 OA
ATOM     98  O   UNL A   1      46.505  22.306  35.857  1.00  0.00    -0.237 OA
ATOM     99  O   UNL A   1      45.632  23.759  37.647  1.00  0.00    -0.744 OA
ENDBRANCH  92  96
ENDBRANCH  66  89
ENDBRANCH  40  41
ENDBRANCH  33  35
ENDBRANCH  32  33
ENDBRANCH  31  32
ENDBRANCH  30  31
ENDBRANCH  29  30
ENDBRANCH   1  29
TORSDOF 21
ENDMDL
MODEL 2
REMARK VINA RESULT:     -11.7      1.074      7.320
REMARK SMILES CCc1cc(C(=O)c2[nH]c3cc(Cl)ccc3c2CC(=O)OCCOCCOC(=O)c2ccc(-c3c4nc(c(-c5cc(S(=O)(=O)[O-])ccc5F)c5ccc([nH]5)c(-c5cc(S(=O)(=O)[O-])ccc5F)c5nc(c(-c6cc(S(=O)(=O)[O-])ccc6F)c6ccc3[nH]6)C=C5)C=C4)cc2)ncc1Cl
REMARK SMILES IDX 23 1 22 2 21 3 19 4 20 5 18 6 17 7 8 8 9 9 10 10 16 12 11 13
REMARK SMILES IDX 15 14 12 15 14 16 13 17 6 18 7 19 5 20 3 21 4 22 95 23 94 24
REMARK SMILES IDX 96 25 93 26 2 27 1 28 24 29 25 30 26 31 27 32 28 33 29 34
REMARK SMILES IDX 30 35 31 36 92 37 32 38 91 39 33 40 34 41 35 42 85 43 36 44
REMARK SMILES IDX 90 45 84 46 86 47 37 48 89 49 83 50 82 51 38 53 70 54 50 55
REMARK SMILES IDX 69 56 51 57 54 58 68 59 87 60 52 61 53 62 67 64 88 65 55 66
REMARK SMILES IDX 39 67 40 68 48 69 41 70 47 71 49 72 46 73 42 74 43 75 44 76
REMARK SMILES IDX 45 77 71 78 72 79 80 80 73 81 79 82 81 83 78 84 74 85 75 86
REMARK SMILES IDX 76 87 77 88 56 89 57 90 65 91 58 92 64 93 66 94 63 95 59 96
REMARK SMILES IDX 60 97 61 98 62 99
REMARK H PARENT 9 11 86 52 54 63
REMARK Flexibility Score: inf
ROOT
ATOM      1  C   UNL A   1      33.168  27.036  26.365  1.00  0.00     0.202 C 
ENDROOT
BRANCH   1   2
ATOM      2  C   UNL A   1      34.134  26.460  25.324  1.00  0.00     0.261 C 
BRANCH   2   3
ATOM      3  O   UNL A   1      34.990  25.432  25.875  1.00  0.00    -0.463 OA
BRANCH   3   4
ATOM      4  C   UNL A   1      34.949  24.234  25.232  1.00  0.00     0.310 C 
ATOM      5  O   UNL A   1      35.060  24.104  24.014  1.00  0.00    -0.252 OA
BRANCH   4   6
ATOM      6  C   UNL A   1      34.656  23.035  26.108  1.00  0.00     0.161 C 
BRANCH   6   7
ATOM      7  C   UNL A   1      33.675  21.994  25.632  1.00  0.00     0.000 A 
ATOM      8  C   UNL A   1      32.284  22.008  25.775  1.00  0.00     0.093 A 
ATOM      9  N   UNL A   1      31.815  20.860  25.167  1.00  0.00    -0.351 N 
ATOM     10  C   UNL A   1      32.850  19.992  24.916  1.00  0.00     0.048 A 
ATOM     11  H   UNL A   1      30.872  20.689  24.946  1.00  0.00     0.167 HD
ATOM     12  C   UNL A   1      34.032  20.688  25.157  1.00  0.00     0.004 A 
ATOM     13  C   UNL A   1      32.830  18.650  24.505  1.00  0.00     0.047 A 
ATOM     14  C   UNL A   1      35.260  20.016  24.970  1.00  0.00     0.012 A 
ATOM     15  C   UNL A   1      34.061  17.999  24.375  1.00  0.00     0.043 A 
ATOM     16  C   UNL A   1      35.261  18.666  24.597  1.00  0.00     0.021 A 
ATOM     17  Cl  UNL A   1      34.089  16.327  23.962  1.00  0.00    -0.084 Cl
BRANCH   8  18
ATOM     18  C   UNL A   1      31.466  23.031  26.420  1.00  0.00     0.227 C 
ATOM     19  O   UNL A   1      31.083  22.926  27.584  1.00  0.00    -0.285 OA
BRANCH  18  20
ATOM     20  C   UNL A   1      30.994  24.227  25.659  1.00  0.00     0.113 A 
ATOM     21  C   UNL A   1      30.858  25.514  23.597  1.00  0.00    -0.026 A 
ATOM     22  C   UNL A   1      31.446  24.481  24.365  1.00  0.00     0.037 A 
ATOM     23  C   UNL A   1      29.846  26.268  24.209  1.00  0.00     0.062 A 
ATOM     24  C   UNL A   1      29.472  25.947  25.515  1.00  0.00     0.132 A 
ATOM     25  Cl  UNL A   1      29.020  27.583  23.472  1.00  0.00    -0.082 Cl
ATOM     26  N   UNL A   1      30.019  24.952  26.251  1.00  0.00    -0.251 NA
BRANCH  21  27
ATOM     27  C   UNL A   1      31.432  25.719  22.209  1.00  0.00     0.034 C 
ATOM     28  C   UNL A   1      32.625  24.890  21.754  1.00  0.00     0.009 C 
ENDBRANCH  21  27
ENDBRANCH  18  20
ENDBRANCH   8  18
ENDBRANCH   6   7
ENDBRANCH   4   6
ENDBRANCH   3   4
ENDBRANCH   2   3
ENDBRANCH   1   2
BRANCH   1  29
ATOM     29  O   UNL A   1      32.281  28.059  25.905  1.00  0.00    -0.374 OA
BRANCH  29  30
ATOM     30  C   UNL A   1      31.655  28.853  26.909  1.00  0.00     0.202 C 
BRANCH  30  31
ATOM     31  C   UNL A   1      31.716  30.371  26.701  1.00  0.00     0.261 C 
BRANCH  31  32
ATOM     32  O   UNL A   1      33.039  30.826  26.368  1.00  0.00    -0.460 OA
BRANCH  32  33
ATOM     33  C   UNL A   1      33.541  31.725  27.246  1.00  0.00     0.338 C 
ATOM     34  O   UNL A   1      32.959  32.700  27.711  1.00  0.00    -0.246 OA
BRANCH  33  35
ATOM     35  C   UNL A   1      34.866  31.305  27.732  1.00  0.00     0.060 A 
ATOM     36  C   UNL A   1      35.031  29.940  27.994  1.00  0.00     0.016 A 
ATOM     37  C   UNL A   1      35.888  32.214  28.018  1.00  0.00     0.016 A 
ATOM     38  C   UNL A   1      36.185  29.490  28.625  1.00  0.00     0.010 A 
ATOM     39  C   UNL A   1      37.050  31.758  28.654  1.00  0.00     0.010 A 
ATOM     40  C   UNL A   1      37.177  30.403  29.009  1.00  0.00    -0.014 A 
BRANCH  40  41
ATOM     41  C   UNL A   1      38.227  29.929  29.945  1.00  0.00     0.031 A 
ATOM     42  C   UNL A   1      39.265  28.964  29.435  1.00  0.00     0.074 A 
ATOM     43  C   UNL A   1      38.323  30.448  31.182  1.00  0.00     0.049 A 
ATOM     44  N   UNL A   1      40.353  28.529  30.015  1.00  0.00    -0.248 NA
ATOM     45  C   UNL A   1      39.046  28.422  28.085  1.00  0.00     0.031 C 
ATOM     46  C   UNL A   1      37.389  31.410  31.764  1.00  0.00     0.029 A 
ATOM     47  N   UNL A   1      39.263  30.257  32.161  1.00  0.00    -0.354 N 
ATOM     48  C   UNL A   1      40.957  27.674  29.097  1.00  0.00     0.074 A 
ATOM     49  C   UNL A   1      40.084  27.612  27.946  1.00  0.00     0.031 C 
ATOM     50  C   UNL A   1      37.813  31.741  32.996  1.00  0.00     0.029 A 
ATOM     51  C   UNL A   1      39.039  31.003  33.294  1.00  0.00     0.049 A 
ATOM     52  H   UNL A   1      40.027  29.644  32.062  1.00  0.00     0.167 HD
ATOM     53  C   UNL A   1      42.140  27.018  29.197  1.00  0.00     0.034 A 
ATOM     54  C   UNL A   1      39.748  31.085  34.438  1.00  0.00     0.034 A 
ATOM     55  C   UNL A   1      42.987  27.077  30.365  1.00  0.00     0.049 A 
ATOM     56  C   UNL A   1      41.038  30.307  34.547  1.00  0.00     0.074 A 
ATOM     57  C   UNL A   1      44.196  26.443  30.591  1.00  0.00     0.029 A 
ATOM     58  N   UNL A   1      42.706  27.809  31.513  1.00  0.00    -0.354 N 
ATOM     59  N   UNL A   1      41.607  29.518  33.664  1.00  0.00    -0.248 NA
ATOM     60  C   UNL A   1      41.793  30.456  35.797  1.00  0.00     0.031 C 
ATOM     61  C   UNL A   1      44.613  26.741  31.895  1.00  0.00     0.029 A 
ATOM     62  C   UNL A   1      43.704  27.623  32.457  1.00  0.00     0.049 A 
ATOM     63  H   UNL A   1      41.911  28.378  31.637  1.00  0.00     0.167 HD
ATOM     64  C   UNL A   1      42.804  29.101  34.243  1.00  0.00     0.074 A 
ATOM     65  C   UNL A   1      42.881  29.746  35.538  1.00  0.00     0.031 C 
ATOM     66  C   UNL A   1      43.755  28.264  33.751  1.00  0.00     0.034 A 
BRANCH  53  67
ATOM     67  C   UNL A   1      42.545  26.143  28.033  1.00  0.00     0.023 A 
ATOM     68  C   UNL A   1      41.992  24.864  27.839  1.00  0.00     0.031 A 
ATOM     69  C   UNL A   1      43.535  26.573  27.132  1.00  0.00     0.131 A 
ATOM     70  C   UNL A   1      42.485  24.033  26.819  1.00  0.00     0.055 A 
ATOM     71  C   UNL A   1      43.965  25.773  26.071  1.00  0.00     0.041 A 
ATOM     72  F   UNL A   1      44.120  27.773  27.280  1.00  0.00    -0.206 F 
ATOM     73  C   UNL A   1      43.451  24.488  25.919  1.00  0.00     0.022 A 
BRANCH  70  74
ATOM     74  S   UNL A   1      41.955  22.298  26.777  1.00  0.00     0.124 S 
ATOM     75  O   UNL A   1      42.408  21.885  25.451  1.00  0.00    -0.237 OA
ATOM     76  O   UNL A   1      42.673  21.721  27.907  1.00  0.00    -0.237 OA
ATOM     77  O   UNL A   1      40.505  22.379  26.933  1.00  0.00    -0.744 OA
ENDBRANCH  70  74
ENDBRANCH  53  67
BRANCH  54  78
ATOM     78  C   UNL A   1      39.261  31.922  35.573  1.00  0.00     0.023 A 
ATOM     79  C   UNL A   1      38.553  31.362  36.648  1.00  0.00     0.031 A 
ATOM     80  C   UNL A   1      39.459  33.315  35.570  1.00  0.00     0.131 A 
ATOM     81  C   UNL A   1      38.029  32.195  37.651  1.00  0.00     0.055 A 
ATOM     82  C   UNL A   1      38.981  34.132  36.594  1.00  0.00     0.041 A 
ATOM     83  F   UNL A   1      40.131  33.902  34.566  1.00  0.00    -0.206 F 
ATOM     84  C   UNL A   1      38.249  33.574  37.637  1.00  0.00     0.022 A 
BRANCH  81  85
ATOM     85  S   UNL A   1      36.983  31.459  38.938  1.00  0.00     0.124 S 
ATOM     86  O   UNL A   1      35.805  32.319  38.893  1.00  0.00    -0.237 OA
ATOM     87  O   UNL A   1      36.803  30.100  38.439  1.00  0.00    -0.237 OA
ATOM     88  O   UNL A   1      37.796  31.574  40.146  1.00  0.00    -0.744 OA
ENDBRANCH  81  85
ENDBRANCH  54  78
BRANCH  66  89
ATOM     89  C   UNL A   1      44.975  28.042  34.613  1.00  0.00     0.023 A 
ATOM     90  C   UNL A   1      45.032  27.004  35.561  1.00  0.00     0.031 A 
ATOM     91  C   UNL A   1      46.080  28.907  34.514  1.00  0.00     0.131 A 
ATOM     92  C   UNL A   1      46.133  26.906  36.425  1.00  0.00     0.055 A 
ATOM     93  C   UNL A   1      47.202  28.762  35.330  1.00  0.00     0.041 A 
ATOM     94  F   UNL A   1      46.082  29.914  33.627  1.00  0.00    -0.206 F 
ATOM     95  C   UNL A   1      47.225  27.769  36.306  1.00  0.00     0.022 A 
BRANCH  92  96
ATOM     96  S   UNL A   1      46.059  25.716  37.793  1.00  0.00     0.124 S 
ATOM     97  O   UNL A   1      47.456  25.315  37.922  1.00  0.00    -0.237 OA
ATOM     98  O   UNL A   1      45.527  26.528  38.882  1.00  0.00    -0.237 OA
ATOM     99  O   UNL A   1      45.159  24.677  37.295  1.00  0.00    -0.744 OA
ENDBRANCH  92  96
ENDBRANCH  66  89
ENDBRANCH  40  41
ENDBRANCH  33  35
ENDBRANCH  32  33
ENDBRANCH  31  32
ENDBRANCH  30  31
ENDBRANCH  29  30
ENDBRANCH   1  29
TORSDOF 21
ENDMDL
MODEL 3
REMARK VINA RESULT:     -11.6      1.671      2.661
REMARK SMILES CCc1cc(C(=O)c2[nH]c3cc(Cl)ccc3c2CC(=O)OCCOCCOC(=O)c2ccc(-c3c4nc(c(-c5cc(S(=O)(=O)[O-])ccc5F)c5ccc([nH]5)c(-c5cc(S(=O)(=O)[O-])ccc5F)c5nc(c(-c6cc(S(=O)(=O)[O-])ccc6F)c6ccc3[nH]6)C=C5)C=C4)cc2)ncc1Cl
REMARK SMILES IDX 23 1 22 2 21 3 19 4 20 5 18 6 17 7 8 8 9 9 10 10 16 12 11 13
REMARK SMILES IDX 15 14 12 15 14 16 13 17 6 18 7 19 5 20 3 21 4 22 95 23 94 24
REMARK SMILES IDX 96 25 93 26 2 27 1 28 24 29 25 30 26 31 27 32 28 33 29 34
REMARK SMILES IDX 30 35 31 36 92 37 32 38 91 39 33 40 34 41 35 42 85 43 36 44
REMARK SMILES IDX 90 45 84 46 86 47 37 48 89 49 83 50 82 51 38 53 70 54 50 55
REMARK SMILES IDX 69 56 51 57 54 58 68 59 87 60 52 61 53 62 67 64 88 65 55 66
REMARK SMILES IDX 39 67 40 68 48 69 41 70 47 71 49 72 46 73 42 74 43 75 44 76
REMARK SMILES IDX 45 77 71 78 72 79 80 80 73 81 79 82 81 83 78 84 74 85 75 86
REMARK SMILES IDX 76 87 77 88 56 89 57 90 65 91 58 92 64 93 66 94 63 95 59 96
REMARK SMILES IDX 60 97 61 98 62 99
REMARK H PARENT 9 11 86 52 54 63
REMARK Flexibility Score: inf
ROOT
ATOM      1  C   UNL A   1      32.846  30.079  26.437  1.00  0.00     0.202 C 
ENDROOT
BRANCH   1   2
ATOM      2  C   UNL A   1      32.439  28.948  27.388  1.00  0.00     0.261 C 
BRANCH   2   3
ATOM      3  O   UNL A   1      31.467  28.054  26.797  1.00  0.00    -0.463 OA
BRANCH   3   4
ATOM      4  C   UNL A   1      31.914  26.794  26.544  1.00  0.00     0.310 C 
ATOM      5  O   UNL A   1      31.285  25.774  26.822  1.00  0.00    -0.252 OA
BRANCH   4   6
ATOM      6  C   UNL A   1      33.311  26.702  25.971  1.00  0.00     0.161 C 
BRANCH   6   7
ATOM      7  C   UNL A   1      33.600  25.694  24.888  1.00  0.00     0.000 A 
ATOM      8  C   UNL A   1      33.396  25.840  23.512  1.00  0.00     0.093 A 
ATOM      9  N   UNL A   1      33.825  24.667  22.924  1.00  0.00    -0.351 N 
ATOM     10  C   UNL A   1      34.008  23.691  23.874  1.00  0.00     0.048 A 
ATOM     11  H   UNL A   1      33.978  24.548  21.959  1.00  0.00     0.167 HD
ATOM     12  C   UNL A   1      33.916  24.312  25.117  1.00  0.00     0.004 A 
ATOM     13  C   UNL A   1      34.238  22.315  23.729  1.00  0.00     0.047 A 
ATOM     14  C   UNL A   1      34.070  23.523  26.278  1.00  0.00     0.012 A 
ATOM     15  C   UNL A   1      34.339  21.553  24.898  1.00  0.00     0.043 A 
ATOM     16  C   UNL A   1      34.263  22.142  26.156  1.00  0.00     0.021 A 
ATOM     17  Cl  UNL A   1      34.530  19.845  24.775  1.00  0.00    -0.084 Cl
BRANCH   8  18
ATOM     18  C   UNL A   1      32.853  27.000  22.813  1.00  0.00     0.227 C 
ATOM     19  O   UNL A   1      33.537  27.691  22.060  1.00  0.00    -0.285 OA
BRANCH  18  20
ATOM     20  C   UNL A   1      31.444  27.444  23.042  1.00  0.00     0.113 A 
ATOM     21  C   UNL A   1      29.669  29.091  22.787  1.00  0.00    -0.026 A 
ATOM     22  C   UNL A   1      31.040  28.741  22.730  1.00  0.00     0.037 A 
ATOM     23  C   UNL A   1      28.772  28.093  23.196  1.00  0.00     0.062 A 
ATOM     24  C   UNL A   1      29.275  26.828  23.501  1.00  0.00     0.132 A 
ATOM     25  Cl  UNL A   1      27.075  28.309  23.363  1.00  0.00    -0.082 Cl
ATOM     26  N   UNL A   1      30.582  26.481  23.436  1.00  0.00    -0.251 NA
BRANCH  21  27
ATOM     27  C   UNL A   1      29.336  30.530  22.445  1.00  0.00     0.034 C 
ATOM     28  C   UNL A   1      28.777  31.453  23.519  1.00  0.00     0.009 C 
ENDBRANCH  21  27
ENDBRANCH  18  20
ENDBRANCH   8  18
ENDBRANCH   6   7
ENDBRANCH   4   6
ENDBRANCH   3   4
ENDBRANCH   2   3
ENDBRANCH   1   2
BRANCH   1  29
ATOM     29  O   UNL A   1      33.038  31.365  27.032  1.00  0.00    -0.374 OA
BRANCH  29  30
ATOM     30  C   UNL A   1      31.909  32.235  27.039  1.00  0.00     0.202 C 
BRANCH  30  31
ATOM     31  C   UNL A   1      32.151  33.647  27.585  1.00  0.00     0.261 C 
BRANCH  31  32
ATOM     32  O   UNL A   1      33.550  33.951  27.717  1.00  0.00    -0.460 OA
BRANCH  32  33
ATOM     33  C   UNL A   1      34.013  33.846  28.984  1.00  0.00     0.338 C 
ATOM     34  O   UNL A   1      33.442  34.214  30.007  1.00  0.00    -0.246 OA
BRANCH  33  35
ATOM     35  C   UNL A   1      35.259  33.063  29.028  1.00  0.00     0.060 A 
ATOM     36  C   UNL A   1      35.196  31.823  29.674  1.00  0.00     0.016 A 
ATOM     37  C   UNL A   1      36.475  33.554  28.545  1.00  0.00     0.016 A 
ATOM     38  C   UNL A   1      36.362  31.108  29.917  1.00  0.00     0.010 A 
ATOM     39  C   UNL A   1      37.650  32.832  28.792  1.00  0.00     0.010 A 
ATOM     40  C   UNL A   1      37.602  31.634  29.528  1.00  0.00    -0.014 A 
BRANCH  40  41
ATOM     41  C   UNL A   1      38.825  30.999  30.081  1.00  0.00     0.031 A 
ATOM     42  C   UNL A   1      39.240  31.338  31.489  1.00  0.00     0.074 A 
ATOM     43  C   UNL A   1      39.475  30.049  29.385  1.00  0.00     0.049 A 
ATOM     44  N   UNL A   1      40.174  30.806  32.232  1.00  0.00    -0.248 NA
ATOM     45  C   UNL A   1      38.493  32.421  32.147  1.00  0.00     0.031 C 
ATOM     46  C   UNL A   1      39.138  29.624  28.027  1.00  0.00     0.029 A 
ATOM     47  N   UNL A   1      40.535  29.253  29.735  1.00  0.00    -0.354 N 
ATOM     48  C   UNL A   1      40.118  31.477  33.451  1.00  0.00     0.074 A 
ATOM     49  C   UNL A   1      39.095  32.492  33.323  1.00  0.00     0.031 C 
ATOM     50  C   UNL A   1      39.967  28.630  27.664  1.00  0.00     0.029 A 
ATOM     51  C   UNL A   1      40.899  28.359  28.756  1.00  0.00     0.049 A 
ATOM     52  H   UNL A   1      40.991  29.314  30.605  1.00  0.00     0.167 HD
ATOM     53  C   UNL A   1      40.841  31.255  34.577  1.00  0.00     0.034 A 
ATOM     54  C   UNL A   1      41.871  27.425  28.747  1.00  0.00     0.034 A 
ATOM     55  C   UNL A   1      41.874  30.252  34.676  1.00  0.00     0.049 A 
ATOM     56  C   UNL A   1      42.696  27.227  29.996  1.00  0.00     0.074 A 
ATOM     57  C   UNL A   1      42.684  29.945  35.755  1.00  0.00     0.029 A 
ATOM     58  N   UNL A   1      42.246  29.393  33.648  1.00  0.00    -0.354 N 
ATOM     59  N   UNL A   1      42.620  27.856  31.148  1.00  0.00    -0.248 NA
ATOM     60  C   UNL A   1      43.718  26.174  29.951  1.00  0.00     0.031 C 
ATOM     61  C   UNL A   1      43.586  28.949  35.361  1.00  0.00     0.029 A 
ATOM     62  C   UNL A   1      43.289  28.576  34.059  1.00  0.00     0.049 A 
ATOM     63  H   UNL A   1      41.829  29.369  32.756  1.00  0.00     0.167 HD
ATOM     64  C   UNL A   1      43.566  27.252  31.973  1.00  0.00     0.074 A 
ATOM     65  C   UNL A   1      44.178  26.195  31.193  1.00  0.00     0.031 C 
ATOM     66  C   UNL A   1      43.898  27.538  33.260  1.00  0.00     0.034 A 
BRANCH  53  67
ATOM     67  C   UNL A   1      40.568  32.155  35.760  1.00  0.00     0.023 A 
ATOM     68  C   UNL A   1      39.482  31.933  36.628  1.00  0.00     0.031 A 
ATOM     69  C   UNL A   1      41.376  33.282  35.998  1.00  0.00     0.131 A 
ATOM     70  C   UNL A   1      39.190  32.862  37.639  1.00  0.00     0.055 A 
ATOM     71  C   UNL A   1      41.126  34.159  37.054  1.00  0.00     0.041 A 
ATOM     72  F   UNL A   1      42.411  33.563  35.190  1.00  0.00    -0.206 F 
ATOM     73  C   UNL A   1      40.019  33.961  37.874  1.00  0.00     0.022 A 
BRANCH  70  74
ATOM     74  S   UNL A   1      37.628  32.697  38.549  1.00  0.00     0.124 S 
ATOM     75  O   UNL A   1      37.809  33.671  39.622  1.00  0.00    -0.237 OA
ATOM     76  O   UNL A   1      36.635  33.035  37.537  1.00  0.00    -0.237 OA
ATOM     77  O   UNL A   1      37.629  31.301  38.981  1.00  0.00    -0.744 OA
ENDBRANCH  70  74
ENDBRANCH  53  67
BRANCH  54  78
ATOM     78  C   UNL A   1      42.127  26.609  27.524  1.00  0.00     0.023 A 
ATOM     79  C   UNL A   1      41.783  25.250  27.461  1.00  0.00     0.031 A 
ATOM     80  C   UNL A   1      42.770  27.178  26.409  1.00  0.00     0.131 A 
ATOM     81  C   UNL A   1      42.124  24.493  26.328  1.00  0.00     0.055 A 
ATOM     82  C   UNL A   1      43.062  26.434  25.265  1.00  0.00     0.041 A 
ATOM     83  F   UNL A   1      43.120  28.474  26.415  1.00  0.00    -0.206 F 
ATOM     84  C   UNL A   1      42.751  25.079  25.225  1.00  0.00     0.022 A 
BRANCH  81  85
ATOM     85  S   UNL A   1      41.812  22.706  26.347  1.00  0.00     0.124 S 
ATOM     86  O   UNL A   1      42.491  22.296  27.571  1.00  0.00    -0.237 OA
ATOM     87  O   UNL A   1      40.354  22.655  26.374  1.00  0.00    -0.237 OA
ATOM     88  O   UNL A   1      42.426  22.240  25.106  1.00  0.00    -0.744 OA
ENDBRANCH  81  85
ENDBRANCH  54  78
BRANCH  66  89
ATOM     89  C   UNL A   1      44.945  26.660  33.902  1.00  0.00     0.023 A 
ATOM     90  C   UNL A   1      44.671  25.330  34.270  1.00  0.00     0.031 A 
ATOM     91  C   UNL A   1      46.222  27.175  34.188  1.00  0.00     0.131 A 
ATOM     92  C   UNL A   1      45.632  24.587  34.973  1.00  0.00     0.055 A 
ATOM     93  C   UNL A   1      47.198  26.408  34.826  1.00  0.00     0.041 A 
ATOM     94  F   UNL A   1      46.540  28.436  33.859  1.00  0.00    -0.206 F 
ATOM     95  C   UNL A   1      46.898  25.112  35.240  1.00  0.00     0.022 A 
BRANCH  92  96
ATOM     96  S   UNL A   1      45.157  22.972  35.647  1.00  0.00     0.124 S 
ATOM     97  O   UNL A   1      45.859  22.052  34.758  1.00  0.00    -0.237 OA
ATOM     98  O   UNL A   1      45.661  23.045  37.014  1.00  0.00    -0.237 OA
ATOM     99  O   UNL A   1      43.699  22.963  35.522  1.00  0.00    -0.744 OA
ENDBRANCH  92  96
ENDBRANCH  66  89
ENDBRANCH  40  41
ENDBRANCH  33  35
ENDBRANCH  32  33
ENDBRANCH  31  32
ENDBRANCH  30  31
ENDBRANCH  29  30
ENDBRANCH   1  29
TORSDOF 21
ENDMDL
