MODEL 1
REMARK VINA RESULT:     -10.0      0.000      0.000
REMARK SMILES CC[C@H]1CC[C@](CC(C)(C)O)(C(=O)OCCOCCOC(=O)c2ccc(-c3c4nc(c(-c5cc(S(=O)(=O)[O-])ccc5F)c5ccc([nH]5)c(-c5cc(S(=O)(=O)[O-])ccc5F)c5nc(c(-c6cc(S(=O)(=O)[O-])ccc6F)c6ccc3[nH]6)C=C5)C=C4)cc2)C1
REMARK SMILES IDX 17 1 16 2 15 3 14 4 12 5 13 6 6 7 3 8 4 9 86 10 5 11 2 12
REMARK SMILES IDX 1 13 7 14 8 15 9 16 10 17 11 18 18 20 19 21 20 22 21 23
REMARK SMILES IDX 22 24 23 25 24 26 85 27 25 28 84 29 26 30 27 31 28 32 78 33
REMARK SMILES IDX 29 34 83 35 77 36 79 37 30 38 82 39 76 40 75 41 31 43 63 44
REMARK SMILES IDX 43 45 62 46 44 47 47 48 61 49 80 50 45 51 46 52 60 54 81 55
REMARK SMILES IDX 48 56 32 57 33 58 41 59 34 60 40 61 42 62 39 63 35 64 36 65
REMARK SMILES IDX 37 66 38 67 64 68 65 69 73 70 66 71 72 72 74 73 71 74 67 75
REMARK SMILES IDX 68 76 69 77 70 78 49 79 50 80 58 81 51 82 57 83 59 84 56 85
REMARK SMILES IDX 52 86 53 87 54 88 55 89
REMARK H PARENT 11 19 79 42 47 53
REMARK Flexibility Score: inf
ROOT
ATOM      1  O   UNL A   1      36.337  21.146  25.448  1.00  0.00    -0.374 OA
ENDROOT
BRANCH   1   2
ATOM      2  C   UNL A   1      35.394  21.997  24.794  1.00  0.00     0.202 C 
BRANCH   2   3
ATOM      3  C   UNL A   1      35.954  23.301  24.218  1.00  0.00     0.261 C 
BRANCH   3   4
ATOM      4  O   UNL A   1      35.198  24.439  24.672  1.00  0.00    -0.463 OA
BRANCH   4   5
ATOM      5  C   UNL A   1      34.213  24.847  23.829  1.00  0.00     0.312 C 
ATOM      6  O   UNL A   1      34.256  24.674  22.615  1.00  0.00    -0.252 OA
BRANCH   5   7
ATOM      7  C   UNL A   1      33.082  25.614  24.537  1.00  0.00     0.071 C 
ATOM      8  C   UNL A   1      32.897  28.020  25.210  1.00  0.00    -0.010 C 
ATOM      9  C   UNL A   1      33.886  27.323  26.133  1.00  0.00     0.005 C 
ATOM     10  C   UNL A   1      32.854  27.061  24.007  1.00  0.00     0.022 C 
ATOM     11  C   UNL A   1      33.515  25.850  26.022  1.00  0.00     0.019 C 
BRANCH   8  12
ATOM     12  C   UNL A   1      31.534  28.245  25.887  1.00  0.00     0.000 C 
ATOM     13  C   UNL A   1      31.648  28.533  27.378  1.00  0.00     0.004 C 
ENDBRANCH   8  12
BRANCH   7  14
ATOM     14  C   UNL A   1      31.787  24.751  24.529  1.00  0.00     0.053 C 
BRANCH  14  15
ATOM     15  C   UNL A   1      30.661  25.063  23.508  1.00  0.00     0.060 C 
ATOM     16  C   UNL A   1      29.529  25.885  24.132  1.00  0.00     0.042 C 
ATOM     17  C   UNL A   1      31.246  25.856  22.330  1.00  0.00     0.042 C 
BRANCH  15  18
ATOM     18  O   UNL A   1      30.125  23.858  22.975  1.00  0.00    -0.390 OA
ATOM     19  H   UNL A   1      29.931  23.243  23.700  1.00  0.00     0.211 HD
ENDBRANCH  15  18
ENDBRANCH  14  15
ENDBRANCH   7  14
ENDBRANCH   5   7
ENDBRANCH   4   5
ENDBRANCH   3   4
ENDBRANCH   2   3
ENDBRANCH   1   2
BRANCH   1  20
ATOM     20  C   UNL A   1      36.917  20.107  24.667  1.00  0.00     0.202 C 
BRANCH  20  21
ATOM     21  C   UNL A   1      38.364  19.706  24.992  1.00  0.00     0.261 C 
BRANCH  21  22
ATOM     22  O   UNL A   1      38.816  20.071  26.307  1.00  0.00    -0.460 OA
BRANCH  22  23
ATOM     23  C   UNL A   1      40.143  20.349  26.384  1.00  0.00     0.338 C 
ATOM     24  O   UNL A   1      41.057  19.683  25.929  1.00  0.00    -0.246 OA
BRANCH  23  25
ATOM     25  C   UNL A   1      40.375  21.665  27.012  1.00  0.00     0.060 A 
ATOM     26  C   UNL A   1      39.695  22.767  26.477  1.00  0.00     0.016 A 
ATOM     27  C   UNL A   1      41.351  21.848  27.995  1.00  0.00     0.016 A 
ATOM     28  C   UNL A   1      40.030  24.059  26.882  1.00  0.00     0.010 A 
ATOM     29  C   UNL A   1      41.690  23.149  28.395  1.00  0.00     0.010 A 
ATOM     30  C   UNL A   1      41.060  24.263  27.810  1.00  0.00    -0.014 A 
BRANCH  30  31
ATOM     31  C   UNL A   1      41.569  25.641  28.043  1.00  0.00     0.031 A 
ATOM     32  C   UNL A   1      42.947  26.009  27.557  1.00  0.00     0.074 A 
ATOM     33  C   UNL A   1      40.803  26.567  28.647  1.00  0.00     0.049 A 
ATOM     34  N   UNL A   1      43.587  27.147  27.652  1.00  0.00    -0.248 NA
ATOM     35  C   UNL A   1      43.703  24.948  26.876  1.00  0.00     0.031 C 
ATOM     36  C   UNL A   1      39.443  26.348  29.137  1.00  0.00     0.029 A 
ATOM     37  N   UNL A   1      41.065  27.879  28.957  1.00  0.00    -0.354 N 
ATOM     38  C   UNL A   1      44.823  26.941  27.046  1.00  0.00     0.074 A 
ATOM     39  C   UNL A   1      44.852  25.556  26.622  1.00  0.00     0.031 C 
ATOM     40  C   UNL A   1      38.996  27.483  29.701  1.00  0.00     0.029 A 
ATOM     41  C   UNL A   1      40.044  28.500  29.636  1.00  0.00     0.049 A 
ATOM     42  H   UNL A   1      41.905  28.333  28.714  1.00  0.00     0.167 HD
ATOM     43  C   UNL A   1      45.834  27.824  26.851  1.00  0.00     0.034 A 
ATOM     44  C   UNL A   1      39.969  29.739  30.166  1.00  0.00     0.034 A 
ATOM     45  C   UNL A   1      45.799  29.201  27.284  1.00  0.00     0.049 A 
ATOM     46  C   UNL A   1      41.130  30.687  29.996  1.00  0.00     0.074 A 
ATOM     47  C   UNL A   1      46.752  30.189  27.100  1.00  0.00     0.029 A 
ATOM     48  N   UNL A   1      44.762  29.783  28.003  1.00  0.00    -0.354 N 
ATOM     49  N   UNL A   1      42.279  30.487  29.394  1.00  0.00    -0.248 NA
ATOM     50  C   UNL A   1      40.977  32.031  30.570  1.00  0.00     0.031 C 
ATOM     51  C   UNL A   1      46.325  31.343  27.767  1.00  0.00     0.029 A 
ATOM     52  C   UNL A   1      45.071  31.101  28.306  1.00  0.00     0.049 A 
ATOM     53  H   UNL A   1      43.930  29.325  28.260  1.00  0.00     0.167 HD
ATOM     54  C   UNL A   1      42.977  31.689  29.497  1.00  0.00     0.074 A 
ATOM     55  C   UNL A   1      42.114  32.610  30.209  1.00  0.00     0.031 C 
ATOM     56  C   UNL A   1      44.214  32.005  29.037  1.00  0.00     0.034 A 
BRANCH  43  57
ATOM     57  C   UNL A   1      47.088  27.304  26.187  1.00  0.00     0.023 A 
ATOM     58  C   UNL A   1      48.114  26.684  26.921  1.00  0.00     0.031 A 
ATOM     59  C   UNL A   1      47.272  27.464  24.802  1.00  0.00     0.131 A 
ATOM     60  C   UNL A   1      49.308  26.317  26.281  1.00  0.00     0.055 A 
ATOM     61  C   UNL A   1      48.431  27.027  24.159  1.00  0.00     0.041 A 
ATOM     62  F   UNL A   1      46.336  28.066  24.053  1.00  0.00    -0.206 F 
ATOM     63  C   UNL A   1      49.465  26.464  24.900  1.00  0.00     0.022 A 
BRANCH  60  64
ATOM     64  S   UNL A   1      50.710  25.779  27.300  1.00  0.00     0.124 S 
ATOM     65  O   UNL A   1      50.635  26.713  28.421  1.00  0.00    -0.237 OA
ATOM     66  O   UNL A   1      50.369  24.393  27.598  1.00  0.00    -0.237 OA
ATOM     67  O   UNL A   1      51.863  25.963  26.421  1.00  0.00    -0.744 OA
ENDBRANCH  60  64
ENDBRANCH  43  57
BRANCH  44  68
ATOM     68  C   UNL A   1      38.769  30.141  30.950  1.00  0.00     0.023 A 
ATOM     69  C   UNL A   1      37.734  30.893  30.373  1.00  0.00     0.031 A 
ATOM     70  C   UNL A   1      38.662  29.802  32.311  1.00  0.00     0.131 A 
ATOM     71  C   UNL A   1      36.650  31.308  31.163  1.00  0.00     0.055 A 
ATOM     72  C   UNL A   1      37.563  30.181  33.082  1.00  0.00     0.041 A 
ATOM     73  F   UNL A   1      39.624  29.081  32.908  1.00  0.00    -0.206 F 
ATOM     74  C   UNL A   1      36.552  30.948  32.510  1.00  0.00     0.022 A 
BRANCH  71  75
ATOM     75  S   UNL A   1      35.388  32.378  30.418  1.00  0.00     0.124 S 
ATOM     76  O   UNL A   1      36.137  33.611  30.197  1.00  0.00    -0.237 OA
ATOM     77  O   UNL A   1      35.022  31.626  29.223  1.00  0.00    -0.237 OA
ATOM     78  O   UNL A   1      34.354  32.450  31.447  1.00  0.00    -0.744 OA
ENDBRANCH  71  75
ENDBRANCH  44  68
BRANCH  56  79
ATOM     79  C   UNL A   1      44.692  33.420  29.263  1.00  0.00     0.023 A 
ATOM     80  C   UNL A   1      44.587  34.405  28.264  1.00  0.00     0.031 A 
ATOM     81  C   UNL A   1      45.269  33.784  30.493  1.00  0.00     0.131 A 
ATOM     82  C   UNL A   1      45.097  35.692  28.496  1.00  0.00     0.055 A 
ATOM     83  C   UNL A   1      45.725  35.080  30.736  1.00  0.00     0.041 A 
ATOM     84  F   UNL A   1      45.396  32.883  31.481  1.00  0.00    -0.206 F 
ATOM     85  C   UNL A   1      45.651  36.040  29.730  1.00  0.00     0.022 A 
BRANCH  82  86
ATOM     86  S   UNL A   1      45.099  36.889  27.132  1.00  0.00     0.124 S 
ATOM     87  O   UNL A   1      45.880  36.190  26.117  1.00  0.00    -0.237 OA
ATOM     88  O   UNL A   1      43.676  37.043  26.850  1.00  0.00    -0.237 OA
ATOM     89  O   UNL A   1      45.746  38.066  27.710  1.00  0.00    -0.744 OA
ENDBRANCH  82  86
ENDBRANCH  56  79
ENDBRANCH  30  31
ENDBRANCH  23  25
ENDBRANCH  22  23
ENDBRANCH  21  22
ENDBRANCH  20  21
ENDBRANCH   1  20
TORSDOF 21
ENDMDL
MODEL 2
REMARK VINA RESULT:      -9.5      4.840     10.243
REMARK SMILES CC[C@H]1CC[C@](CC(C)(C)O)(C(=O)OCCOCCOC(=O)c2ccc(-c3c4nc(c(-c5cc(S(=O)(=O)[O-])ccc5F)c5ccc([nH]5)c(-c5cc(S(=O)(=O)[O-])ccc5F)c5nc(c(-c6cc(S(=O)(=O)[O-])ccc6F)c6ccc3[nH]6)C=C5)C=C4)cc2)C1
REMARK SMILES IDX 17 1 16 2 15 3 14 4 12 5 13 6 6 7 3 8 4 9 86 10 5 11 2 12
REMARK SMILES IDX 1 13 7 14 8 15 9 16 10 17 11 18 18 20 19 21 20 22 21 23
REMARK SMILES IDX 22 24 23 25 24 26 85 27 25 28 84 29 26 30 27 31 28 32 78 33
REMARK SMILES IDX 29 34 83 35 77 36 79 37 30 38 82 39 76 40 75 41 31 43 63 44
REMARK SMILES IDX 43 45 62 46 44 47 47 48 61 49 80 50 45 51 46 52 60 54 81 55
REMARK SMILES IDX 48 56 32 57 33 58 41 59 34 60 40 61 42 62 39 63 35 64 36 65
REMARK SMILES IDX 37 66 38 67 64 68 65 69 73 70 66 71 72 72 74 73 71 74 67 75
REMARK SMILES IDX 68 76 69 77 70 78 49 79 50 80 58 81 51 82 57 83 59 84 56 85
REMARK SMILES IDX 52 86 53 87 54 88 55 89
REMARK H PARENT 11 19 79 42 47 53
REMARK Flexibility Score: inf
ROOT
ATOM      1  O   UNL A   1      33.375  28.782  26.836  1.00  0.00    -0.374 OA
ENDROOT
BRANCH   1   2
ATOM      2  C   UNL A   1      33.108  27.767  25.866  1.00  0.00     0.202 C 
BRANCH   2   3
ATOM      3  C   UNL A   1      32.913  26.350  26.414  1.00  0.00     0.261 C 
BRANCH   3   4
ATOM      4  O   UNL A   1      33.171  25.359  25.402  1.00  0.00    -0.463 OA
BRANCH   4   5
ATOM      5  C   UNL A   1      33.284  24.085  25.862  1.00  0.00     0.312 C 
ATOM      6  O   UNL A   1      32.614  23.647  26.793  1.00  0.00    -0.252 OA
BRANCH   5   7
ATOM      7  C   UNL A   1      34.385  23.275  25.156  1.00  0.00     0.071 C 
ATOM      8  C   UNL A   1      36.606  22.456  25.976  1.00  0.00    -0.010 C 
ATOM      9  C   UNL A   1      36.678  23.963  25.776  1.00  0.00     0.005 C 
ATOM     10  C   UNL A   1      35.088  22.218  26.058  1.00  0.00     0.022 C 
ATOM     11  C   UNL A   1      35.550  24.256  24.796  1.00  0.00     0.019 C 
BRANCH   8  12
ATOM     12  C   UNL A   1      37.305  21.689  24.840  1.00  0.00     0.000 C 
ATOM     13  C   UNL A   1      36.999  20.197  24.850  1.00  0.00     0.004 C 
ENDBRANCH   8  12
BRANCH   7  14
ATOM     14  C   UNL A   1      33.820  22.672  23.837  1.00  0.00     0.053 C 
BRANCH  14  15
ATOM     15  C   UNL A   1      32.725  21.574  23.901  1.00  0.00     0.060 C 
ATOM     16  C   UNL A   1      31.885  21.524  22.620  1.00  0.00     0.042 C 
ATOM     17  C   UNL A   1      33.388  20.203  24.101  1.00  0.00     0.042 C 
BRANCH  15  18
ATOM     18  O   UNL A   1      31.868  21.790  25.014  1.00  0.00    -0.390 OA
ATOM     19  H   UNL A   1      32.369  22.211  25.730  1.00  0.00     0.211 HD
ENDBRANCH  15  18
ENDBRANCH  14  15
ENDBRANCH   7  14
ENDBRANCH   5   7
ENDBRANCH   4   5
ENDBRANCH   3   4
ENDBRANCH   2   3
ENDBRANCH   1   2
BRANCH   1  20
ATOM     20  C   UNL A   1      32.518  29.919  26.831  1.00  0.00     0.202 C 
BRANCH  20  21
ATOM     21  C   UNL A   1      33.185  31.302  26.769  1.00  0.00     0.261 C 
BRANCH  21  22
ATOM     22  O   UNL A   1      32.940  32.148  27.905  1.00  0.00    -0.460 OA
BRANCH  22  23
ATOM     23  C   UNL A   1      33.980  32.955  28.235  1.00  0.00     0.338 C 
ATOM     24  O   UNL A   1      33.934  34.153  28.460  1.00  0.00    -0.246 OA
BRANCH  23  25
ATOM     25  C   UNL A   1      35.223  32.177  28.409  1.00  0.00     0.060 A 
ATOM     26  C   UNL A   1      35.120  30.922  29.022  1.00  0.00     0.016 A 
ATOM     27  C   UNL A   1      36.477  32.724  28.128  1.00  0.00     0.016 A 
ATOM     28  C   UNL A   1      36.272  30.235  29.407  1.00  0.00     0.010 A 
ATOM     29  C   UNL A   1      37.633  32.034  28.522  1.00  0.00     0.010 A 
ATOM     30  C   UNL A   1      37.535  30.805  29.201  1.00  0.00    -0.014 A 
BRANCH  30  31
ATOM     31  C   UNL A   1      38.728  30.183  29.835  1.00  0.00     0.031 A 
ATOM     32  C   UNL A   1      39.150  30.630  31.209  1.00  0.00     0.074 A 
ATOM     33  C   UNL A   1      39.409  29.204  29.210  1.00  0.00     0.049 A 
ATOM     34  N   UNL A   1      40.153  30.225  31.945  1.00  0.00    -0.248 NA
ATOM     35  C   UNL A   1      38.331  31.680  31.833  1.00  0.00     0.031 C 
ATOM     36  C   UNL A   1      39.086  28.660  27.893  1.00  0.00     0.029 A 
ATOM     37  N   UNL A   1      40.519  28.498  29.604  1.00  0.00    -0.354 N 
ATOM     38  C   UNL A   1      40.090  30.969  33.120  1.00  0.00     0.074 A 
ATOM     39  C   UNL A   1      38.970  31.877  32.977  1.00  0.00     0.031 C 
ATOM     40  C   UNL A   1      39.989  27.716  27.579  1.00  0.00     0.029 A 
ATOM     41  C   UNL A   1      40.968  27.606  28.660  1.00  0.00     0.049 A 
ATOM     42  H   UNL A   1      40.952  28.619  30.480  1.00  0.00     0.167 HD
ATOM     43  C   UNL A   1      40.883  30.896  34.219  1.00  0.00     0.034 A 
ATOM     44  C   UNL A   1      42.055  26.807  28.655  1.00  0.00     0.034 A 
ATOM     45  C   UNL A   1      42.002  29.994  34.349  1.00  0.00     0.049 A 
ATOM     46  C   UNL A   1      42.964  26.787  29.860  1.00  0.00     0.074 A 
ATOM     47  C   UNL A   1      42.843  29.812  35.435  1.00  0.00     0.029 A 
ATOM     48  N   UNL A   1      42.449  29.132  33.356  1.00  0.00    -0.354 N 
ATOM     49  N   UNL A   1      42.873  27.474  30.975  1.00  0.00    -0.248 NA
ATOM     50  C   UNL A   1      44.115  25.875  29.807  1.00  0.00     0.031 C 
ATOM     51  C   UNL A   1      43.837  28.896  35.073  1.00  0.00     0.029 A 
ATOM     52  C   UNL A   1      43.576  28.448  33.787  1.00  0.00     0.049 A 
ATOM     53  H   UNL A   1      42.026  29.022  32.474  1.00  0.00     0.167 HD
ATOM     54  C   UNL A   1      43.943  27.059  31.765  1.00  0.00     0.074 A 
ATOM     55  C   UNL A   1      44.657  26.055  31.003  1.00  0.00     0.031 C 
ATOM     56  C   UNL A   1      44.297  27.465  33.011  1.00  0.00     0.034 A 
BRANCH  43  57
ATOM     57  C   UNL A   1      40.596  31.864  35.343  1.00  0.00     0.023 A 
ATOM     58  C   UNL A   1      39.548  31.651  36.256  1.00  0.00     0.031 A 
ATOM     59  C   UNL A   1      41.361  33.036  35.480  1.00  0.00     0.131 A 
ATOM     60  C   UNL A   1      39.246  32.630  37.215  1.00  0.00     0.055 A 
ATOM     61  C   UNL A   1      41.103  33.970  36.485  1.00  0.00     0.041 A 
ATOM     62  F   UNL A   1      42.361  33.302  34.627  1.00  0.00    -0.206 F 
ATOM     63  C   UNL A   1      40.031  33.778  37.351  1.00  0.00     0.022 A 
BRANCH  60  64
ATOM     64  S   UNL A   1      37.724  32.453  38.188  1.00  0.00     0.124 S 
ATOM     65  O   UNL A   1      36.821  33.367  37.493  1.00  0.00    -0.237 OA
ATOM     66  O   UNL A   1      37.427  31.032  38.050  1.00  0.00    -0.237 OA
ATOM     67  O   UNL A   1      38.123  32.880  39.528  1.00  0.00    -0.744 OA
ENDBRANCH  60  64
ENDBRANCH  43  57
BRANCH  44  68
ATOM     68  C   UNL A   1      42.376  25.992  27.451  1.00  0.00     0.023 A 
ATOM     69  C   UNL A   1      42.057  24.627  27.382  1.00  0.00     0.031 A 
ATOM     70  C   UNL A   1      43.041  26.573  26.356  1.00  0.00     0.131 A 
ATOM     71  C   UNL A   1      42.435  23.879  26.255  1.00  0.00     0.055 A 
ATOM     72  C   UNL A   1      43.377  25.836  25.221  1.00  0.00     0.041 A 
ATOM     73  F   UNL A   1      43.364  27.876  26.372  1.00  0.00    -0.206 F 
ATOM     74  C   UNL A   1      43.082  24.477  25.170  1.00  0.00     0.022 A 
BRANCH  71  75
ATOM     75  S   UNL A   1      42.116  22.093  26.249  1.00  0.00     0.124 S 
ATOM     76  O   UNL A   1      42.434  21.730  27.625  1.00  0.00    -0.237 OA
ATOM     77  O   UNL A   1      40.706  22.040  25.880  1.00  0.00    -0.237 OA
ATOM     78  O   UNL A   1      43.042  21.587  25.238  1.00  0.00    -0.744 OA
ENDBRANCH  71  75
ENDBRANCH  44  68
BRANCH  56  79
ATOM     79  C   UNL A   1      45.495  26.795  33.639  1.00  0.00     0.023 A 
ATOM     80  C   UNL A   1      45.393  25.547  34.281  1.00  0.00     0.031 A 
ATOM     81  C   UNL A   1      46.755  27.419  33.603  1.00  0.00     0.131 A 
ATOM     82  C   UNL A   1      46.520  24.986  34.902  1.00  0.00     0.055 A 
ATOM     83  C   UNL A   1      47.883  26.830  34.176  1.00  0.00     0.041 A 
ATOM     84  F   UNL A   1      46.909  28.611  33.006  1.00  0.00    -0.206 F 
ATOM     85  C   UNL A   1      47.767  25.612  34.840  1.00  0.00     0.022 A 
BRANCH  82  86
ATOM     86  S   UNL A   1      46.319  23.460  35.863  1.00  0.00     0.124 S 
ATOM     87  O   UNL A   1      47.177  23.713  37.016  1.00  0.00    -0.237 OA
ATOM     88  O   UNL A   1      44.884  23.443  36.127  1.00  0.00    -0.237 OA
ATOM     89  O   UNL A   1      46.793  22.417  34.954  1.00  0.00    -0.744 OA
ENDBRANCH  82  86
ENDBRANCH  56  79
ENDBRANCH  30  31
ENDBRANCH  23  25
ENDBRANCH  22  23
ENDBRANCH  21  22
ENDBRANCH  20  21
ENDBRANCH   1  20
TORSDOF 21
ENDMDL
MODEL 3
REMARK VINA RESULT:      -9.3      2.116      2.484
REMARK SMILES CC[C@H]1CC[C@](CC(C)(C)O)(C(=O)OCCOCCOC(=O)c2ccc(-c3c4nc(c(-c5cc(S(=O)(=O)[O-])ccc5F)c5ccc([nH]5)c(-c5cc(S(=O)(=O)[O-])ccc5F)c5nc(c(-c6cc(S(=O)(=O)[O-])ccc6F)c6ccc3[nH]6)C=C5)C=C4)cc2)C1
REMARK SMILES IDX 17 1 16 2 15 3 14 4 12 5 13 6 6 7 3 8 4 9 86 10 5 11 2 12
REMARK SMILES IDX 1 13 7 14 8 15 9 16 10 17 11 18 18 20 19 21 20 22 21 23
REMARK SMILES IDX 22 24 23 25 24 26 85 27 25 28 84 29 26 30 27 31 28 32 78 33
REMARK SMILES IDX 29 34 83 35 77 36 79 37 30 38 82 39 76 40 75 41 31 43 63 44
REMARK SMILES IDX 43 45 62 46 44 47 47 48 61 49 80 50 45 51 46 52 60 54 81 55
REMARK SMILES IDX 48 56 32 57 33 58 41 59 34 60 40 61 42 62 39 63 35 64 36 65
REMARK SMILES IDX 37 66 38 67 64 68 65 69 73 70 66 71 72 72 74 73 71 74 67 75
REMARK SMILES IDX 68 76 69 77 70 78 49 79 50 80 58 81 51 82 57 83 59 84 56 85
REMARK SMILES IDX 52 86 53 87 54 88 55 89
REMARK H PARENT 11 19 79 42 47 53
REMARK Flexibility Score: inf
ROOT
ATOM      1  O   UNL A   1      36.501  20.705  25.434  1.00  0.00    -0.374 OA
ENDROOT
BRANCH   1   2
ATOM      2  C   UNL A   1      35.572  21.303  24.528  1.00  0.00     0.202 C 
BRANCH   2   3
ATOM      3  C   UNL A   1      36.047  22.577  23.823  1.00  0.00     0.261 C 
BRANCH   3   4
ATOM      4  O   UNL A   1      35.197  23.696  24.137  1.00  0.00    -0.463 OA
BRANCH   4   5
ATOM      5  C   UNL A   1      34.144  23.870  23.296  1.00  0.00     0.312 C 
ATOM      6  O   UNL A   1      34.085  23.361  22.182  1.00  0.00    -0.252 OA
BRANCH   5   7
ATOM      7  C   UNL A   1      33.074  24.829  23.848  1.00  0.00     0.071 C 
ATOM      8  C   UNL A   1      33.035  26.231  25.923  1.00  0.00    -0.010 C 
ATOM      9  C   UNL A   1      32.858  24.770  26.310  1.00  0.00     0.005 C 
ATOM     10  C   UNL A   1      33.643  26.116  24.514  1.00  0.00     0.022 C 
ATOM     11  C   UNL A   1      32.348  24.113  25.034  1.00  0.00     0.019 C 
BRANCH   8  12
ATOM     12  C   UNL A   1      31.707  27.007  25.975  1.00  0.00     0.000 C 
ATOM     13  C   UNL A   1      31.564  27.862  27.227  1.00  0.00     0.004 C 
ENDBRANCH   8  12
BRANCH   7  14
ATOM     14  C   UNL A   1      32.027  25.131  22.736  1.00  0.00     0.053 C 
BRANCH  14  15
ATOM     15  C   UNL A   1      32.302  26.259  21.706  1.00  0.00     0.060 C 
ATOM     16  C   UNL A   1      33.525  27.100  22.087  1.00  0.00     0.042 C 
ATOM     17  C   UNL A   1      32.549  25.638  20.324  1.00  0.00     0.042 C 
BRANCH  15  18
ATOM     18  O   UNL A   1      31.169  27.109  21.586  1.00  0.00    -0.390 OA
ATOM     19  H   UNL A   1      30.959  27.237  20.647  1.00  0.00     0.211 HD
ENDBRANCH  15  18
ENDBRANCH  14  15
ENDBRANCH   7  14
ENDBRANCH   5   7
ENDBRANCH   4   5
ENDBRANCH   3   4
ENDBRANCH   2   3
ENDBRANCH   1   2
BRANCH   1  20
ATOM     20  C   UNL A   1      37.415  19.760  24.889  1.00  0.00     0.202 C 
BRANCH  20  21
ATOM     21  C   UNL A   1      38.820  19.701  25.508  1.00  0.00     0.261 C 
BRANCH  21  22
ATOM     22  O   UNL A   1      39.105  20.730  26.471  1.00  0.00    -0.460 OA
BRANCH  22  23
ATOM     23  C   UNL A   1      40.426  20.900  26.731  1.00  0.00     0.338 C 
ATOM     24  O   UNL A   1      41.325  20.109  26.497  1.00  0.00    -0.246 OA
BRANCH  23  25
ATOM     25  C   UNL A   1      40.696  22.254  27.254  1.00  0.00     0.060 A 
ATOM     26  C   UNL A   1      40.110  23.335  26.584  1.00  0.00     0.016 A 
ATOM     27  C   UNL A   1      41.625  22.476  28.274  1.00  0.00     0.016 A 
ATOM     28  C   UNL A   1      40.493  24.641  26.893  1.00  0.00     0.010 A 
ATOM     29  C   UNL A   1      42.012  23.789  28.578  1.00  0.00     0.010 A 
ATOM     30  C   UNL A   1      41.479  24.876  27.861  1.00  0.00    -0.014 A 
BRANCH  30  31
ATOM     31  C   UNL A   1      42.051  26.242  28.001  1.00  0.00     0.031 A 
ATOM     32  C   UNL A   1      43.399  26.542  27.400  1.00  0.00     0.074 A 
ATOM     33  C   UNL A   1      41.365  27.216  28.626  1.00  0.00     0.049 A 
ATOM     34  N   UNL A   1      44.083  27.658  27.404  1.00  0.00    -0.248 NA
ATOM     35  C   UNL A   1      44.065  25.430  26.706  1.00  0.00     0.031 C 
ATOM     36  C   UNL A   1      40.040  27.064  29.224  1.00  0.00     0.029 A 
ATOM     37  N   UNL A   1      41.693  28.528  28.865  1.00  0.00    -0.354 N 
ATOM     38  C   UNL A   1      45.261  27.385  26.715  1.00  0.00     0.074 A 
ATOM     39  C   UNL A   1      45.212  25.986  26.344  1.00  0.00     0.031 C 
ATOM     40  C   UNL A   1      39.675  28.234  29.776  1.00  0.00     0.029 A 
ATOM     41  C   UNL A   1      40.749  29.209  29.594  1.00  0.00     0.049 A 
ATOM     42  H   UNL A   1      42.527  28.942  28.542  1.00  0.00     0.167 HD
ATOM     43  C   UNL A   1      46.284  28.224  26.412  1.00  0.00     0.034 A 
ATOM     44  C   UNL A   1      40.756  30.468  30.080  1.00  0.00     0.034 A 
ATOM     45  C   UNL A   1      46.328  29.615  26.793  1.00  0.00     0.049 A 
ATOM     46  C   UNL A   1      41.932  31.366  29.788  1.00  0.00     0.074 A 
ATOM     47  C   UNL A   1      47.298  30.561  26.501  1.00  0.00     0.029 A 
ATOM     48  N   UNL A   1      45.370  30.260  27.565  1.00  0.00    -0.354 N 
ATOM     49  N   UNL A   1      43.025  31.104  29.110  1.00  0.00    -0.248 NA
ATOM     50  C   UNL A   1      41.869  32.735  30.320  1.00  0.00     0.031 C 
ATOM     51  C   UNL A   1      46.961  31.752  27.154  1.00  0.00     0.029 A 
ATOM     52  C   UNL A   1      45.745  31.576  27.793  1.00  0.00     0.049 A 
ATOM     53  H   UNL A   1      44.544  29.843  27.901  1.00  0.00     0.167 HD
ATOM     54  C   UNL A   1      43.768  32.282  29.115  1.00  0.00     0.074 A 
ATOM     55  C   UNL A   1      42.993  33.259  29.853  1.00  0.00     0.031 C 
ATOM     56  C   UNL A   1      44.977  32.536  28.552  1.00  0.00     0.034 A 
BRANCH  43  57
ATOM     57  C   UNL A   1      47.465  27.635  25.676  1.00  0.00     0.023 A 
ATOM     58  C   UNL A   1      48.573  27.100  26.358  1.00  0.00     0.031 A 
ATOM     59  C   UNL A   1      47.497  27.642  24.271  1.00  0.00     0.131 A 
ATOM     60  C   UNL A   1      49.695  26.666  25.636  1.00  0.00     0.055 A 
ATOM     61  C   UNL A   1      48.586  27.138  23.556  1.00  0.00     0.041 A 
ATOM     62  F   UNL A   1      46.478  28.157  23.566  1.00  0.00    -0.206 F 
ATOM     63  C   UNL A   1      49.700  26.660  24.238  1.00  0.00     0.022 A 
BRANCH  60  64
ATOM     64  S   UNL A   1      51.205  26.245  26.549  1.00  0.00     0.124 S 
ATOM     65  O   UNL A   1      50.701  25.288  27.530  1.00  0.00    -0.237 OA
ATOM     66  O   UNL A   1      52.063  25.699  25.504  1.00  0.00    -0.237 OA
ATOM     67  O   UNL A   1      51.638  27.527  27.105  1.00  0.00    -0.744 OA
ENDBRANCH  60  64
ENDBRANCH  43  57
BRANCH  44  68
ATOM     68  C   UNL A   1      39.634  30.942  30.936  1.00  0.00     0.023 A 
ATOM     69  C   UNL A   1      39.740  30.972  32.335  1.00  0.00     0.031 A 
ATOM     70  C   UNL A   1      38.416  31.343  30.355  1.00  0.00     0.131 A 
ATOM     71  C   UNL A   1      38.637  31.364  33.110  1.00  0.00     0.055 A 
ATOM     72  C   UNL A   1      37.337  31.771  31.127  1.00  0.00     0.041 A 
ATOM     73  F   UNL A   1      38.266  31.335  29.022  1.00  0.00    -0.206 F 
ATOM     74  C   UNL A   1      37.440  31.774  32.515  1.00  0.00     0.022 A 
BRANCH  71  75
ATOM     75  S   UNL A   1      38.767  31.278  34.917  1.00  0.00     0.124 S 
ATOM     76  O   UNL A   1      37.438  31.716  35.332  1.00  0.00    -0.237 OA
ATOM     77  O   UNL A   1      39.074  29.868  35.131  1.00  0.00    -0.237 OA
ATOM     78  O   UNL A   1      39.855  32.204  35.223  1.00  0.00    -0.744 OA
ENDBRANCH  71  75
ENDBRANCH  44  68
BRANCH  56  79
ATOM     79  C   UNL A   1      45.518  33.940  28.687  1.00  0.00     0.023 A 
ATOM     80  C   UNL A   1      46.360  34.308  29.752  1.00  0.00     0.031 A 
ATOM     81  C   UNL A   1      45.179  34.923  27.741  1.00  0.00     0.131 A 
ATOM     82  C   UNL A   1      46.793  35.638  29.872  1.00  0.00     0.055 A 
ATOM     83  C   UNL A   1      45.657  36.231  27.836  1.00  0.00     0.041 A 
ATOM     84  F   UNL A   1      44.377  34.627  26.706  1.00  0.00    -0.206 F 
ATOM     85  C   UNL A   1      46.460  36.597  28.913  1.00  0.00     0.022 A 
BRANCH  82  86
ATOM     86  S   UNL A   1      47.737  36.120  31.345  1.00  0.00     0.124 S 
ATOM     87  O   UNL A   1      47.493  34.995  32.242  1.00  0.00    -0.237 OA
ATOM     88  O   UNL A   1      49.094  36.237  30.822  1.00  0.00    -0.237 OA
ATOM     89  O   UNL A   1      47.120  37.382  31.751  1.00  0.00    -0.744 OA
ENDBRANCH  82  86
ENDBRANCH  56  79
ENDBRANCH  30  31
ENDBRANCH  23  25
ENDBRANCH  22  23
ENDBRANCH  21  22
ENDBRANCH  20  21
ENDBRANCH   1  20
TORSDOF 21
ENDMDL
