MODEL 1
REMARK VINA RESULT:     -10.8      0.000      0.000
REMARK SMILES C[C@@H](C(=O)OCCOCCOC(=O)c1ccc(-c2c3nc(c(-c4cc(S(=O)(=O)[O-])ccc4F)c4ccc([nH]4)c(-c4cc(S(=O)(=O)[O-])ccc4F)c4nc(c(-c5cc(S(=O)(=O)[O-])ccc5F)c5ccc2[nH]5)C=C4)C=C3)cc1)c1ccc(-c2cccc(OC(=O)Nc3ccccc3)c2)c(F)c1
REMARK SMILES IDX 7 1 6 2 5 3 3 4 4 5 2 6 1 7 77 8 78 9 99 10 79 11 97 12
REMARK SMILES IDX 80 13 98 14 81 15 82 16 96 17 83 18 85 19 84 20 86 21 87 22
REMARK SMILES IDX 88 23 89 24 90 26 91 27 95 28 92 29 94 30 93 31 8 32 9 33
REMARK SMILES IDX 10 34 11 35 12 36 13 37 14 38 15 39 76 40 16 41 75 42 17 43
REMARK SMILES IDX 18 44 19 45 69 46 20 47 74 48 68 49 70 50 21 51 73 52 67 53
REMARK SMILES IDX 66 54 22 56 54 57 34 58 53 59 35 60 38 61 52 62 71 63 36 64
REMARK SMILES IDX 37 65 51 67 72 68 39 69 23 70 24 71 32 72 25 73 31 74 33 75
REMARK SMILES IDX 30 76 26 77 27 78 28 79 29 80 55 81 56 82 64 83 57 84 63 85
REMARK SMILES IDX 65 86 62 87 58 88 59 89 60 90 61 91 40 92 41 93 49 94 42 95
REMARK SMILES IDX 48 96 50 97 47 98 43 99 44 100 45 101 46 102
REMARK H PARENT 89 25 70 55 38 66
REMARK Flexibility Score: inf
ROOT
ATOM      1  C   UNL A   1      44.302  31.326  26.888  1.00  0.00     0.202 C 
ENDROOT
BRANCH   1   2
ATOM      2  C   UNL A   1      43.463  30.143  27.380  1.00  0.00     0.261 C 
BRANCH   2   3
ATOM      3  O   UNL A   1      43.002  30.378  28.727  1.00  0.00    -0.463 OA
BRANCH   3   4
ATOM      4  C   UNL A   1      42.338  29.350  29.318  1.00  0.00     0.313 C 
ATOM      5  O   UNL A   1      42.855  28.541  30.083  1.00  0.00    -0.252 OA
BRANCH   4   6
ATOM      6  C   UNL A   1      40.848  29.314  28.949  1.00  0.00     0.126 C 
ATOM      7  C   UNL A   1      39.885  29.783  30.048  1.00  0.00     0.025 C 
BRANCH   6   8
ATOM      8  C   UNL A   1      40.485  27.932  28.410  1.00  0.00    -0.031 A 
ATOM      9  C   UNL A   1      39.644  27.091  29.151  1.00  0.00     0.005 A 
ATOM     10  C   UNL A   1      40.881  27.507  27.138  1.00  0.00     0.044 A 
ATOM     11  C   UNL A   1      39.213  25.861  28.631  1.00  0.00     0.012 A 
ATOM     12  C   UNL A   1      40.427  26.298  26.617  1.00  0.00     0.131 A 
ATOM     13  C   UNL A   1      39.595  25.441  27.348  1.00  0.00     0.018 A 
ATOM     14  F   UNL A   1      40.812  25.976  25.371  1.00  0.00    -0.206 F 
BRANCH  13  15
ATOM     15  C   UNL A   1      39.188  24.130  26.814  1.00  0.00    -0.012 A 
ATOM     16  C   UNL A   1      39.994  22.987  26.938  1.00  0.00     0.009 A 
ATOM     17  C   UNL A   1      37.963  24.006  26.136  1.00  0.00     0.056 A 
ATOM     18  C   UNL A   1      39.589  21.762  26.396  1.00  0.00     0.004 A 
ATOM     19  C   UNL A   1      37.562  22.790  25.593  1.00  0.00     0.133 A 
ATOM     20  C   UNL A   1      38.373  21.663  25.721  1.00  0.00     0.047 A 
BRANCH  19  21
ATOM     21  O   UNL A   1      36.365  22.606  24.856  1.00  0.00    -0.410 OA
BRANCH  21  22
ATOM     22  C   UNL A   1      36.102  23.093  23.575  1.00  0.00     0.417 C 
ATOM     23  O   UNL A   1      36.762  22.863  22.566  1.00  0.00    -0.224 OA
ATOM     24  N   UNL A   1      34.931  23.794  23.455  1.00  0.00    -0.291 N 
ATOM     25  H   UNL A   1      34.668  23.998  22.528  1.00  0.00     0.173 HD
BRANCH  24  26
ATOM     26  C   UNL A   1      34.049  24.271  24.432  1.00  0.00     0.044 A 
ATOM     27  C   UNL A   1      32.989  23.430  24.791  1.00  0.00     0.026 A 
ATOM     28  C   UNL A   1      34.149  25.531  25.023  1.00  0.00     0.026 A 
ATOM     29  C   UNL A   1      32.069  23.825  25.763  1.00  0.00     0.002 A 
ATOM     30  C   UNL A   1      33.215  25.934  25.981  1.00  0.00     0.002 A 
ATOM     31  C   UNL A   1      32.183  25.078  26.359  1.00  0.00     0.000 A 
ENDBRANCH  24  26
ENDBRANCH  21  22
ENDBRANCH  19  21
ENDBRANCH  13  15
ENDBRANCH   6   8
ENDBRANCH   4   6
ENDBRANCH   3   4
ENDBRANCH   2   3
ENDBRANCH   1   2
BRANCH   1  32
ATOM     32  O   UNL A   1      43.867  31.944  25.672  1.00  0.00    -0.374 OA
BRANCH  32  33
ATOM     33  C   UNL A   1      44.507  33.162  25.305  1.00  0.00     0.202 C 
BRANCH  33  34
ATOM     34  C   UNL A   1      43.602  34.357  24.975  1.00  0.00     0.261 C 
BRANCH  34  35
ATOM     35  O   UNL A   1      43.119  35.022  26.152  1.00  0.00    -0.460 OA
BRANCH  35  36
ATOM     36  C   UNL A   1      44.102  35.505  26.954  1.00  0.00     0.338 C 
ATOM     37  O   UNL A   1      45.056  36.183  26.614  1.00  0.00    -0.246 OA
BRANCH  36  38
ATOM     38  C   UNL A   1      43.766  35.260  28.369  1.00  0.00     0.060 A 
ATOM     39  C   UNL A   1      43.439  33.946  28.727  1.00  0.00     0.016 A 
ATOM     40  C   UNL A   1      43.708  36.289  29.311  1.00  0.00     0.016 A 
ATOM     41  C   UNL A   1      43.002  33.662  30.017  1.00  0.00     0.010 A 
ATOM     42  C   UNL A   1      43.259  36.003  30.607  1.00  0.00     0.010 A 
ATOM     43  C   UNL A   1      42.869  34.696  30.953  1.00  0.00    -0.014 A 
BRANCH  43  44
ATOM     44  C   UNL A   1      42.165  34.425  32.231  1.00  0.00     0.031 A 
ATOM     45  C   UNL A   1      40.660  34.416  32.238  1.00  0.00     0.074 A 
ATOM     46  C   UNL A   1      42.853  34.135  33.349  1.00  0.00     0.049 A 
ATOM     47  N   UNL A   1      39.834  34.209  33.230  1.00  0.00    -0.248 NA
ATOM     48  C   UNL A   1      40.000  34.676  30.949  1.00  0.00     0.031 C 
ATOM     49  C   UNL A   1      44.310  34.060  33.445  1.00  0.00     0.029 A 
ATOM     50  N   UNL A   1      42.417  33.845  34.617  1.00  0.00    -0.354 N 
ATOM     51  C   UNL A   1      38.557  34.317  32.690  1.00  0.00     0.074 A 
ATOM     52  C   UNL A   1      38.721  34.646  31.290  1.00  0.00     0.031 C 
ATOM     53  C   UNL A   1      44.647  33.746  34.709  1.00  0.00     0.029 A 
ATOM     54  C   UNL A   1      43.435  33.636  35.518  1.00  0.00     0.049 A 
ATOM     55  H   UNL A   1      41.464  33.792  34.859  1.00  0.00     0.167 HD
ATOM     56  C   UNL A   1      37.360  34.151  33.304  1.00  0.00     0.034 A 
ATOM     57  C   UNL A   1      43.391  33.407  36.846  1.00  0.00     0.034 A 
ATOM     58  C   UNL A   1      37.216  33.831  34.704  1.00  0.00     0.049 A 
ATOM     59  C   UNL A   1      42.046  33.317  37.527  1.00  0.00     0.074 A 
ATOM     60  C   UNL A   1      36.054  33.622  35.426  1.00  0.00     0.029 A 
ATOM     61  N   UNL A   1      38.269  33.688  35.599  1.00  0.00    -0.354 N 
ATOM     62  N   UNL A   1      40.845  33.414  37.003  1.00  0.00    -0.248 NA
ATOM     63  C   UNL A   1      42.051  33.080  38.976  1.00  0.00     0.031 C 
ATOM     64  C   UNL A   1      36.400  33.431  36.768  1.00  0.00     0.029 A 
ATOM     65  C   UNL A   1      37.782  33.435  36.873  1.00  0.00     0.049 A 
ATOM     66  H   UNL A   1      39.223  33.757  35.363  1.00  0.00     0.167 HD
ATOM     67  C   UNL A   1      39.954  33.215  38.056  1.00  0.00     0.074 A 
ATOM     68  C   UNL A   1      40.756  32.982  39.239  1.00  0.00     0.031 C 
ATOM     69  C   UNL A   1      38.596  33.217  38.046  1.00  0.00     0.034 A 
BRANCH  56  70
ATOM     70  C   UNL A   1      36.117  34.370  32.474  1.00  0.00     0.023 A 
ATOM     71  C   UNL A   1      35.341  35.537  32.588  1.00  0.00     0.031 A 
ATOM     72  C   UNL A   1      35.684  33.377  31.577  1.00  0.00     0.131 A 
ATOM     73  C   UNL A   1      34.140  35.652  31.871  1.00  0.00     0.055 A 
ATOM     74  C   UNL A   1      34.529  33.533  30.807  1.00  0.00     0.041 A 
ATOM     75  F   UNL A   1      36.369  32.232  31.443  1.00  0.00    -0.206 F 
ATOM     76  C   UNL A   1      33.741  34.668  30.963  1.00  0.00     0.022 A 
BRANCH  73  77
ATOM     77  S   UNL A   1      33.032  37.038  32.248  1.00  0.00     0.124 S 
ATOM     78  O   UNL A   1      33.718  37.665  33.377  1.00  0.00    -0.237 OA
ATOM     79  O   UNL A   1      33.034  37.792  31.000  1.00  0.00    -0.237 OA
ATOM     80  O   UNL A   1      31.768  36.385  32.582  1.00  0.00    -0.744 OA
ENDBRANCH  73  77
ENDBRANCH  56  70
BRANCH  57  81
ATOM     81  C   UNL A   1      44.651  33.285  37.635  1.00  0.00     0.023 A 
ATOM     82  C   UNL A   1      45.228  34.400  38.262  1.00  0.00     0.031 A 
ATOM     83  C   UNL A   1      45.330  32.056  37.721  1.00  0.00     0.131 A 
ATOM     84  C   UNL A   1      46.468  34.274  38.909  1.00  0.00     0.055 A 
ATOM     85  C   UNL A   1      46.535  31.924  38.413  1.00  0.00     0.041 A 
ATOM     86  F   UNL A   1      44.824  30.958  37.137  1.00  0.00    -0.206 F 
ATOM     87  C   UNL A   1      47.118  33.042  39.001  1.00  0.00     0.022 A 
BRANCH  84  88
ATOM     88  S   UNL A   1      47.265  35.770  39.558  1.00  0.00     0.124 S 
ATOM     89  O   UNL A   1      46.621  35.908  40.859  1.00  0.00    -0.237 OA
ATOM     90  O   UNL A   1      48.671  35.380  39.576  1.00  0.00    -0.237 OA
ATOM     91  O   UNL A   1      46.917  36.794  38.576  1.00  0.00    -0.744 OA
ENDBRANCH  84  88
ENDBRANCH  57  81
BRANCH  69  92
ATOM     92  C   UNL A   1      37.898  32.910  39.350  1.00  0.00     0.023 A 
ATOM     93  C   UNL A   1      37.907  33.813  40.428  1.00  0.00     0.031 A 
ATOM     94  C   UNL A   1      37.219  31.690  39.517  1.00  0.00     0.131 A 
ATOM     95  C   UNL A   1      37.300  33.459  41.643  1.00  0.00     0.055 A 
ATOM     96  C   UNL A   1      36.564  31.369  40.706  1.00  0.00     0.041 A 
ATOM     97  F   UNL A   1      37.178  30.789  38.522  1.00  0.00    -0.206 F 
ATOM     98  C   UNL A   1      36.614  32.250  41.783  1.00  0.00     0.022 A 
BRANCH  95  99
ATOM     99  S   UNL A   1      37.500  34.559  43.072  1.00  0.00     0.124 S 
ATOM    100  O   UNL A   1      38.024  35.771  42.451  1.00  0.00    -0.237 OA
ATOM    101  O   UNL A   1      36.140  34.646  43.591  1.00  0.00    -0.237 OA
ATOM    102  O   UNL A   1      38.444  33.842  43.927  1.00  0.00    -0.744 OA
ENDBRANCH  95  99
ENDBRANCH  69  92
ENDBRANCH  43  44
ENDBRANCH  36  38
ENDBRANCH  35  36
ENDBRANCH  34  35
ENDBRANCH  33  34
ENDBRANCH  32  33
ENDBRANCH   1  32
TORSDOF 22
ENDMDL
MODEL 2
REMARK VINA RESULT:     -10.7      6.178     11.282
REMARK SMILES C[C@@H](C(=O)OCCOCCOC(=O)c1ccc(-c2c3nc(c(-c4cc(S(=O)(=O)[O-])ccc4F)c4ccc([nH]4)c(-c4cc(S(=O)(=O)[O-])ccc4F)c4nc(c(-c5cc(S(=O)(=O)[O-])ccc5F)c5ccc2[nH]5)C=C4)C=C3)cc1)c1ccc(-c2cccc(OC(=O)Nc3ccccc3)c2)c(F)c1
REMARK SMILES IDX 7 1 6 2 5 3 3 4 4 5 2 6 1 7 77 8 78 9 99 10 79 11 97 12
REMARK SMILES IDX 80 13 98 14 81 15 82 16 96 17 83 18 85 19 84 20 86 21 87 22
REMARK SMILES IDX 88 23 89 24 90 26 91 27 95 28 92 29 94 30 93 31 8 32 9 33
REMARK SMILES IDX 10 34 11 35 12 36 13 37 14 38 15 39 76 40 16 41 75 42 17 43
REMARK SMILES IDX 18 44 19 45 69 46 20 47 74 48 68 49 70 50 21 51 73 52 67 53
REMARK SMILES IDX 66 54 22 56 54 57 34 58 53 59 35 60 38 61 52 62 71 63 36 64
REMARK SMILES IDX 37 65 51 67 72 68 39 69 23 70 24 71 32 72 25 73 31 74 33 75
REMARK SMILES IDX 30 76 26 77 27 78 28 79 29 80 55 81 56 82 64 83 57 84 63 85
REMARK SMILES IDX 65 86 62 87 58 88 59 89 60 90 61 91 40 92 41 93 49 94 42 95
REMARK SMILES IDX 48 96 50 97 47 98 43 99 44 100 45 101 46 102
REMARK H PARENT 89 25 70 55 38 66
REMARK Flexibility Score: inf
ROOT
ATOM      1  C   UNL A   1      34.977  33.608  29.447  1.00  0.00     0.202 C 
ENDROOT
BRANCH   1   2
ATOM      2  C   UNL A   1      34.755  32.942  28.086  1.00  0.00     0.261 C 
BRANCH   2   3
ATOM      3  O   UNL A   1      33.929  31.767  28.228  1.00  0.00    -0.463 OA
BRANCH   3   4
ATOM      4  C   UNL A   1      34.234  30.721  27.416  1.00  0.00     0.313 C 
ATOM      5  O   UNL A   1      35.260  30.054  27.504  1.00  0.00    -0.252 OA
BRANCH   4   6
ATOM      6  C   UNL A   1      33.140  30.436  26.377  1.00  0.00     0.126 C 
ATOM      7  C   UNL A   1      31.703  30.697  26.845  1.00  0.00     0.025 C 
BRANCH   6   8
ATOM      8  C   UNL A   1      33.321  29.029  25.813  1.00  0.00    -0.031 A 
ATOM      9  C   UNL A   1      33.020  27.913  26.606  1.00  0.00     0.005 A 
ATOM     10  C   UNL A   1      33.683  28.806  24.481  1.00  0.00     0.044 A 
ATOM     11  C   UNL A   1      33.079  26.615  26.078  1.00  0.00     0.012 A 
ATOM     12  C   UNL A   1      33.712  27.517  23.955  1.00  0.00     0.131 A 
ATOM     13  C   UNL A   1      33.424  26.391  24.737  1.00  0.00     0.018 A 
ATOM     14  F   UNL A   1      34.023  27.383  22.655  1.00  0.00    -0.206 F 
BRANCH  13  15
ATOM     15  C   UNL A   1      33.537  25.029  24.187  1.00  0.00    -0.012 A 
ATOM     16  C   UNL A   1      33.153  24.715  22.874  1.00  0.00     0.009 A 
ATOM     17  C   UNL A   1      34.025  23.991  25.001  1.00  0.00     0.056 A 
ATOM     18  C   UNL A   1      33.248  23.405  22.393  1.00  0.00     0.004 A 
ATOM     19  C   UNL A   1      34.117  22.688  24.525  1.00  0.00     0.133 A 
ATOM     20  C   UNL A   1      33.729  22.389  23.219  1.00  0.00     0.047 A 
BRANCH  19  21
ATOM     21  O   UNL A   1      34.553  21.587  25.303  1.00  0.00    -0.410 OA
BRANCH  21  22
ATOM     22  C   UNL A   1      33.875  21.021  26.385  1.00  0.00     0.417 C 
ATOM     23  O   UNL A   1      33.699  21.546  27.480  1.00  0.00    -0.224 OA
ATOM     24  N   UNL A   1      33.272  19.820  26.121  1.00  0.00    -0.291 N 
ATOM     25  H   UNL A   1      32.665  19.502  26.829  1.00  0.00     0.173 HD
BRANCH  24  26
ATOM     26  C   UNL A   1      33.376  18.969  25.015  1.00  0.00     0.044 A 
ATOM     27  C   UNL A   1      32.382  19.079  24.036  1.00  0.00     0.026 A 
ATOM     28  C   UNL A   1      34.379  18.011  24.862  1.00  0.00     0.026 A 
ATOM     29  C   UNL A   1      32.417  18.275  22.896  1.00  0.00     0.002 A 
ATOM     30  C   UNL A   1      34.402  17.191  23.730  1.00  0.00     0.002 A 
ATOM     31  C   UNL A   1      33.428  17.330  22.744  1.00  0.00     0.000 A 
ENDBRANCH  24  26
ENDBRANCH  21  22
ENDBRANCH  19  21
ENDBRANCH  13  15
ENDBRANCH   6   8
ENDBRANCH   4   6
ENDBRANCH   3   4
ENDBRANCH   2   3
ENDBRANCH   1   2
BRANCH   1  32
ATOM     32  O   UNL A   1      35.799  32.891  30.374  1.00  0.00    -0.374 OA
BRANCH  32  33
ATOM     33  C   UNL A   1      35.144  32.298  31.490  1.00  0.00     0.202 C 
BRANCH  33  34
ATOM     34  C   UNL A   1      35.996  31.418  32.415  1.00  0.00     0.261 C 
BRANCH  34  35
ATOM     35  O   UNL A   1      36.238  30.115  31.864  1.00  0.00    -0.460 OA
BRANCH  35  36
ATOM     36  C   UNL A   1      37.385  29.537  32.304  1.00  0.00     0.338 C 
ATOM     37  O   UNL A   1      37.490  28.472  32.887  1.00  0.00    -0.246 OA
BRANCH  36  38
ATOM     38  C   UNL A   1      38.553  30.288  31.807  1.00  0.00     0.060 A 
ATOM     39  C   UNL A   1      38.665  30.446  30.419  1.00  0.00     0.016 A 
ATOM     40  C   UNL A   1      39.546  30.775  32.659  1.00  0.00     0.016 A 
ATOM     41  C   UNL A   1      39.796  31.042  29.873  1.00  0.00     0.010 A 
ATOM     42  C   UNL A   1      40.689  31.368  32.107  1.00  0.00     0.010 A 
ATOM     43  C   UNL A   1      40.834  31.470  30.711  1.00  0.00    -0.014 A 
BRANCH  43  44
ATOM     44  C   UNL A   1      42.131  31.865  30.107  1.00  0.00     0.031 A 
ATOM     45  C   UNL A   1      42.373  33.318  29.801  1.00  0.00     0.074 A 
ATOM     46  C   UNL A   1      43.095  30.953  29.889  1.00  0.00     0.049 A 
ATOM     47  N   UNL A   1      43.420  33.894  29.271  1.00  0.00    -0.248 NA
ATOM     48  C   UNL A   1      41.282  34.246  30.141  1.00  0.00     0.031 C 
ATOM     49  C   UNL A   1      42.992  29.528  30.199  1.00  0.00     0.029 A 
ATOM     50  N   UNL A   1      44.353  31.093  29.360  1.00  0.00    -0.354 N 
ATOM     51  C   UNL A   1      43.117  35.249  29.208  1.00  0.00     0.074 A 
ATOM     52  C   UNL A   1      41.772  35.402  29.721  1.00  0.00     0.031 C 
ATOM     53  C   UNL A   1      44.141  28.923  29.850  1.00  0.00     0.029 A 
ATOM     54  C   UNL A   1      45.045  29.908  29.259  1.00  0.00     0.049 A 
ATOM     55  H   UNL A   1      44.726  31.959  29.078  1.00  0.00     0.167 HD
ATOM     56  C   UNL A   1      43.892  36.272  28.771  1.00  0.00     0.034 A 
ATOM     57  C   UNL A   1      46.257  29.649  28.729  1.00  0.00     0.034 A 
ATOM     58  C   UNL A   1      45.229  36.099  28.256  1.00  0.00     0.049 A 
ATOM     59  C   UNL A   1      47.067  30.791  28.162  1.00  0.00     0.074 A 
ATOM     60  C   UNL A   1      46.110  37.065  27.803  1.00  0.00     0.029 A 
ATOM     61  N   UNL A   1      45.873  34.877  28.112  1.00  0.00    -0.354 N 
ATOM     62  N   UNL A   1      46.771  32.071  28.116  1.00  0.00    -0.248 NA
ATOM     63  C   UNL A   1      48.373  30.455  27.584  1.00  0.00     0.031 C 
ATOM     64  C   UNL A   1      47.252  36.422  27.314  1.00  0.00     0.029 A 
ATOM     65  C   UNL A   1      47.123  35.061  27.539  1.00  0.00     0.049 A 
ATOM     66  H   UNL A   1      45.497  34.006  28.377  1.00  0.00     0.167 HD
ATOM     67  C   UNL A   1      47.873  32.694  27.533  1.00  0.00     0.074 A 
ATOM     68  C   UNL A   1      48.840  31.651  27.258  1.00  0.00     0.031 C 
ATOM     69  C   UNL A   1      48.072  34.009  27.259  1.00  0.00     0.034 A 
BRANCH  56  70
ATOM     70  C   UNL A   1      43.286  37.656  28.779  1.00  0.00     0.023 A 
ATOM     71  C   UNL A   1      43.469  38.544  29.853  1.00  0.00     0.031 A 
ATOM     72  C   UNL A   1      42.483  38.080  27.705  1.00  0.00     0.131 A 
ATOM     73  C   UNL A   1      42.803  39.779  29.862  1.00  0.00     0.055 A 
ATOM     74  C   UNL A   1      41.888  39.343  27.683  1.00  0.00     0.041 A 
ATOM     75  F   UNL A   1      42.252  37.267  26.662  1.00  0.00    -0.206 F 
ATOM     76  C   UNL A   1      42.034  40.195  28.773  1.00  0.00     0.022 A 
BRANCH  73  77
ATOM     77  S   UNL A   1      42.840  40.776  31.377  1.00  0.00     0.124 S 
ATOM     78  O   UNL A   1      43.921  41.717  31.086  1.00  0.00    -0.237 OA
ATOM     79  O   UNL A   1      41.496  41.339  31.417  1.00  0.00    -0.237 OA
ATOM     80  O   UNL A   1      43.140  39.800  32.422  1.00  0.00    -0.744 OA
ENDBRANCH  73  77
ENDBRANCH  56  70
BRANCH  57  81
ATOM     81  C   UNL A   1      46.772  28.250  28.666  1.00  0.00     0.023 A 
ATOM     82  C   UNL A   1      46.477  27.413  27.579  1.00  0.00     0.031 A 
ATOM     83  C   UNL A   1      47.520  27.710  29.729  1.00  0.00     0.131 A 
ATOM     84  C   UNL A   1      46.887  26.070  27.598  1.00  0.00     0.055 A 
ATOM     85  C   UNL A   1      47.973  26.390  29.717  1.00  0.00     0.041 A 
ATOM     86  F   UNL A   1      47.827  28.466  30.795  1.00  0.00    -0.206 F 
ATOM     87  C   UNL A   1      47.645  25.558  28.652  1.00  0.00     0.022 A 
BRANCH  84  88
ATOM     88  S   UNL A   1      46.342  24.975  26.258  1.00  0.00     0.124 S 
ATOM     89  O   UNL A   1      44.894  24.994  26.431  1.00  0.00    -0.237 OA
ATOM     90  O   UNL A   1      46.856  25.661  25.078  1.00  0.00    -0.237 OA
ATOM     91  O   UNL A   1      46.992  23.705  26.572  1.00  0.00    -0.744 OA
ENDBRANCH  84  88
ENDBRANCH  57  81
BRANCH  69  92
ATOM     92  C   UNL A   1      49.409  34.394  26.670  1.00  0.00     0.023 A 
ATOM     93  C   UNL A   1      50.600  34.310  27.413  1.00  0.00     0.031 A 
ATOM     94  C   UNL A   1      49.489  34.859  25.345  1.00  0.00     0.131 A 
ATOM     95  C   UNL A   1      51.810  34.739  26.846  1.00  0.00     0.055 A 
ATOM     96  C   UNL A   1      50.704  35.225  24.766  1.00  0.00     0.041 A 
ATOM     97  F   UNL A   1      48.384  34.961  24.589  1.00  0.00    -0.206 F 
ATOM     98  C   UNL A   1      51.872  35.180  25.522  1.00  0.00     0.022 A 
BRANCH  95  99
ATOM     99  S   UNL A   1      53.290  34.804  27.894  1.00  0.00     0.124 S 
ATOM    100  O   UNL A   1      53.621  36.225  27.864  1.00  0.00    -0.237 OA
ATOM    101  O   UNL A   1      52.794  34.291  29.166  1.00  0.00    -0.237 OA
ATOM    102  O   UNL A   1      54.238  33.932  27.202  1.00  0.00    -0.744 OA
ENDBRANCH  95  99
ENDBRANCH  69  92
ENDBRANCH  43  44
ENDBRANCH  36  38
ENDBRANCH  35  36
ENDBRANCH  34  35
ENDBRANCH  33  34
ENDBRANCH  32  33
ENDBRANCH   1  32
TORSDOF 22
ENDMDL
MODEL 3
REMARK VINA RESULT:     -10.6      4.486      9.220
REMARK SMILES C[C@@H](C(=O)OCCOCCOC(=O)c1ccc(-c2c3nc(c(-c4cc(S(=O)(=O)[O-])ccc4F)c4ccc([nH]4)c(-c4cc(S(=O)(=O)[O-])ccc4F)c4nc(c(-c5cc(S(=O)(=O)[O-])ccc5F)c5ccc2[nH]5)C=C4)C=C3)cc1)c1ccc(-c2cccc(OC(=O)Nc3ccccc3)c2)c(F)c1
REMARK SMILES IDX 7 1 6 2 5 3 3 4 4 5 2 6 1 7 77 8 78 9 99 10 79 11 97 12
REMARK SMILES IDX 80 13 98 14 81 15 82 16 96 17 83 18 85 19 84 20 86 21 87 22
REMARK SMILES IDX 88 23 89 24 90 26 91 27 95 28 92 29 94 30 93 31 8 32 9 33
REMARK SMILES IDX 10 34 11 35 12 36 13 37 14 38 15 39 76 40 16 41 75 42 17 43
REMARK SMILES IDX 18 44 19 45 69 46 20 47 74 48 68 49 70 50 21 51 73 52 67 53
REMARK SMILES IDX 66 54 22 56 54 57 34 58 53 59 35 60 38 61 52 62 71 63 36 64
REMARK SMILES IDX 37 65 51 67 72 68 39 69 23 70 24 71 32 72 25 73 31 74 33 75
REMARK SMILES IDX 30 76 26 77 27 78 28 79 29 80 55 81 56 82 64 83 57 84 63 85
REMARK SMILES IDX 65 86 62 87 58 88 59 89 60 90 61 91 40 92 41 93 49 94 42 95
REMARK SMILES IDX 48 96 50 97 47 98 43 99 44 100 45 101 46 102
REMARK H PARENT 89 25 70 55 38 66
REMARK Flexibility Score: inf
ROOT
ATOM      1  C   UNL A   1      44.567  21.545  24.742  1.00  0.00     0.202 C 
ENDROOT
BRANCH   1   2
ATOM      2  C   UNL A   1      43.427  22.553  24.910  1.00  0.00     0.261 C 
BRANCH   2   3
ATOM      3  O   UNL A   1      42.330  21.958  25.634  1.00  0.00    -0.463 OA
BRANCH   3   4
ATOM      4  C   UNL A   1      42.008  22.543  26.817  1.00  0.00     0.313 C 
ATOM      5  O   UNL A   1      41.145  22.126  27.584  1.00  0.00    -0.252 OA
BRANCH   4   6
ATOM      6  C   UNL A   1      42.860  23.785  27.118  1.00  0.00     0.126 C 
ATOM      7  C   UNL A   1      43.972  23.585  28.156  1.00  0.00     0.025 C 
BRANCH   6   8
ATOM      8  C   UNL A   1      41.950  24.962  27.461  1.00  0.00    -0.031 A 
ATOM      9  C   UNL A   1      40.883  25.291  26.615  1.00  0.00     0.005 A 
ATOM     10  C   UNL A   1      42.078  25.672  28.659  1.00  0.00     0.044 A 
ATOM     11  C   UNL A   1      39.972  26.301  26.960  1.00  0.00     0.012 A 
ATOM     12  C   UNL A   1      41.155  26.653  29.010  1.00  0.00     0.131 A 
ATOM     13  C   UNL A   1      40.089  27.001  28.170  1.00  0.00     0.018 A 
ATOM     14  F   UNL A   1      41.315  27.261  30.196  1.00  0.00    -0.206 F 
BRANCH  13  15
ATOM     15  C   UNL A   1      39.167  28.097  28.518  1.00  0.00    -0.012 A 
ATOM     16  C   UNL A   1      39.055  29.259  27.739  1.00  0.00     0.009 A 
ATOM     17  C   UNL A   1      38.381  28.000  29.680  1.00  0.00     0.056 A 
ATOM     18  C   UNL A   1      38.189  30.292  28.113  1.00  0.00     0.004 A 
ATOM     19  C   UNL A   1      37.523  29.028  30.055  1.00  0.00     0.133 A 
ATOM     20  C   UNL A   1      37.423  30.178  29.273  1.00  0.00     0.047 A 
BRANCH  19  21
ATOM     21  O   UNL A   1      36.740  29.018  31.235  1.00  0.00    -0.410 OA
BRANCH  21  22
ATOM     22  C   UNL A   1      37.217  29.122  32.543  1.00  0.00     0.417 C 
ATOM     23  O   UNL A   1      37.600  28.192  33.248  1.00  0.00    -0.224 OA
ATOM     24  N   UNL A   1      37.361  30.404  33.003  1.00  0.00    -0.291 N 
ATOM     25  H   UNL A   1      37.844  30.482  33.857  1.00  0.00     0.173 HD
BRANCH  24  26
ATOM     26  C   UNL A   1      36.932  31.622  32.460  1.00  0.00     0.044 A 
ATOM     27  C   UNL A   1      37.866  32.663  32.430  1.00  0.00     0.026 A 
ATOM     28  C   UNL A   1      35.637  31.853  31.996  1.00  0.00     0.026 A 
ATOM     29  C   UNL A   1      37.523  33.907  31.897  1.00  0.00     0.002 A 
ATOM     30  C   UNL A   1      35.288  33.105  31.481  1.00  0.00     0.002 A 
ATOM     31  C   UNL A   1      36.233  34.127  31.423  1.00  0.00     0.000 A 
ENDBRANCH  24  26
ENDBRANCH  21  22
ENDBRANCH  19  21
ENDBRANCH  13  15
ENDBRANCH   6   8
ENDBRANCH   4   6
ENDBRANCH   3   4
ENDBRANCH   2   3
ENDBRANCH   1   2
BRANCH   1  32
ATOM     32  O   UNL A   1      45.840  22.088  24.376  1.00  0.00    -0.374 OA
BRANCH  32  33
ATOM     33  C   UNL A   1      46.286  23.228  25.103  1.00  0.00     0.202 C 
BRANCH  33  34
ATOM     34  C   UNL A   1      46.492  24.527  24.311  1.00  0.00     0.261 C 
BRANCH  34  35
ATOM     35  O   UNL A   1      47.257  25.499  25.040  1.00  0.00    -0.460 OA
BRANCH  35  36
ATOM     36  C   UNL A   1      46.794  26.769  24.913  1.00  0.00     0.338 C 
ATOM     37  O   UNL A   1      46.693  27.412  23.882  1.00  0.00    -0.246 OA
BRANCH  36  38
ATOM     38  C   UNL A   1      46.229  27.231  26.195  1.00  0.00     0.060 A 
ATOM     39  C   UNL A   1      44.834  27.325  26.278  1.00  0.00     0.016 A 
ATOM     40  C   UNL A   1      47.033  27.622  27.268  1.00  0.00     0.016 A 
ATOM     41  C   UNL A   1      44.237  27.860  27.414  1.00  0.00     0.010 A 
ATOM     42  C   UNL A   1      46.430  28.169  28.408  1.00  0.00     0.010 A 
ATOM     43  C   UNL A   1      45.033  28.325  28.470  1.00  0.00    -0.014 A 
BRANCH  43  44
ATOM     44  C   UNL A   1      44.402  29.120  29.552  1.00  0.00     0.031 A 
ATOM     45  C   UNL A   1      44.130  28.454  30.874  1.00  0.00     0.074 A 
ATOM     46  C   UNL A   1      44.130  30.425  29.379  1.00  0.00     0.049 A 
ATOM     47  N   UNL A   1      43.585  28.944  31.956  1.00  0.00    -0.248 NA
ATOM     48  C   UNL A   1      44.527  27.042  30.986  1.00  0.00     0.031 C 
ATOM     49  C   UNL A   1      44.403  31.188  28.161  1.00  0.00     0.029 A 
ATOM     50  N   UNL A   1      43.568  31.342  30.231  1.00  0.00    -0.354 N 
ATOM     51  C   UNL A   1      43.569  27.904  32.878  1.00  0.00     0.074 A 
ATOM     52  C   UNL A   1      44.125  26.745  32.212  1.00  0.00     0.031 C 
ATOM     53  C   UNL A   1      44.004  32.459  28.345  1.00  0.00     0.029 A 
ATOM     54  C   UNL A   1      43.414  32.591  29.676  1.00  0.00     0.049 A 
ATOM     55  H   UNL A   1      43.300  31.126  31.153  1.00  0.00     0.167 HD
ATOM     56  C   UNL A   1      43.137  27.916  34.163  1.00  0.00     0.034 A 
ATOM     57  C   UNL A   1      42.841  33.704  30.178  1.00  0.00     0.034 A 
ATOM     58  C   UNL A   1      42.578  29.079  34.808  1.00  0.00     0.049 A 
ATOM     59  C   UNL A   1      42.283  33.669  31.581  1.00  0.00     0.074 A 
ATOM     60  C   UNL A   1      42.126  29.210  36.109  1.00  0.00     0.029 A 
ATOM     61  N   UNL A   1      42.381  30.310  34.195  1.00  0.00    -0.354 N 
ATOM     62  N   UNL A   1      42.281  32.679  32.446  1.00  0.00    -0.248 NA
ATOM     63  C   UNL A   1      41.657  34.901  32.076  1.00  0.00     0.031 C 
ATOM     64  C   UNL A   1      41.586  30.492  36.260  1.00  0.00     0.029 A 
ATOM     65  C   UNL A   1      41.776  31.192  35.079  1.00  0.00     0.049 A 
ATOM     66  H   UNL A   1      42.633  30.525  33.268  1.00  0.00     0.167 HD
ATOM     67  C   UNL A   1      41.683  33.184  33.599  1.00  0.00     0.074 A 
ATOM     68  C   UNL A   1      41.351  34.566  33.321  1.00  0.00     0.031 C 
ATOM     69  C   UNL A   1      41.439  32.565  34.783  1.00  0.00     0.034 A 
BRANCH  56  70
ATOM     70  C   UNL A   1      43.202  26.617  34.930  1.00  0.00     0.023 A 
ATOM     71  C   UNL A   1      44.415  26.092  35.408  1.00  0.00     0.031 A 
ATOM     72  C   UNL A   1      42.029  25.873  35.157  1.00  0.00     0.131 A 
ATOM     73  C   UNL A   1      44.438  24.832  36.026  1.00  0.00     0.055 A 
ATOM     74  C   UNL A   1      42.049  24.657  35.843  1.00  0.00     0.041 A 
ATOM     75  F   UNL A   1      40.844  26.311  34.704  1.00  0.00    -0.206 F 
ATOM     76  C   UNL A   1      43.260  24.122  36.269  1.00  0.00     0.022 A 
BRANCH  73  77
ATOM     77  S   UNL A   1      46.045  24.066  36.380  1.00  0.00     0.124 S 
ATOM     78  O   UNL A   1      45.876  22.740  35.789  1.00  0.00    -0.237 OA
ATOM     79  O   UNL A   1      46.975  24.957  35.696  1.00  0.00    -0.237 OA
ATOM     80  O   UNL A   1      46.119  24.085  37.839  1.00  0.00    -0.744 OA
ENDBRANCH  73  77
ENDBRANCH  56  70
BRANCH  57  81
ATOM     81  C   UNL A   1      42.725  34.936  29.346  1.00  0.00     0.023 A 
ATOM     82  C   UNL A   1      43.831  35.770  29.121  1.00  0.00     0.031 A 
ATOM     83  C   UNL A   1      41.484  35.330  28.812  1.00  0.00     0.131 A 
ATOM     84  C   UNL A   1      43.667  36.977  28.422  1.00  0.00     0.055 A 
ATOM     85  C   UNL A   1      41.338  36.503  28.070  1.00  0.00     0.041 A 
ATOM     86  F   UNL A   1      40.393  34.571  28.999  1.00  0.00    -0.206 F 
ATOM     87  C   UNL A   1      42.432  37.341  27.883  1.00  0.00     0.022 A 
BRANCH  84  88
ATOM     88  S   UNL A   1      45.079  38.110  28.299  1.00  0.00     0.124 S 
ATOM     89  O   UNL A   1      44.617  39.246  29.089  1.00  0.00    -0.237 OA
ATOM     90  O   UNL A   1      46.155  37.317  28.884  1.00  0.00    -0.237 OA
ATOM     91  O   UNL A   1      45.196  38.353  26.863  1.00  0.00    -0.744 OA
ENDBRANCH  84  88
ENDBRANCH  57  81
BRANCH  69  92
ATOM     92  C   UNL A   1      40.822  33.400  35.881  1.00  0.00     0.023 A 
ATOM     93  C   UNL A   1      41.597  34.241  36.700  1.00  0.00     0.031 A 
ATOM     94  C   UNL A   1      39.437  33.345  36.114  1.00  0.00     0.131 A 
ATOM     95  C   UNL A   1      40.989  34.948  37.748  1.00  0.00     0.055 A 
ATOM     96  C   UNL A   1      38.829  34.099  37.119  1.00  0.00     0.041 A 
ATOM     97  F   UNL A   1      38.647  32.559  35.364  1.00  0.00    -0.206 F 
ATOM     98  C   UNL A   1      39.608  34.896  37.952  1.00  0.00     0.022 A 
BRANCH  95  99
ATOM     99  S   UNL A   1      42.042  35.866  38.906  1.00  0.00     0.124 S 
ATOM    100  O   UNL A   1      41.114  36.856  39.443  1.00  0.00    -0.237 OA
ATOM    101  O   UNL A   1      42.468  34.824  39.834  1.00  0.00    -0.237 OA
ATOM    102  O   UNL A   1      43.100  36.406  38.054  1.00  0.00    -0.744 OA
ENDBRANCH  95  99
ENDBRANCH  69  92
ENDBRANCH  43  44
ENDBRANCH  36  38
ENDBRANCH  35  36
ENDBRANCH  34  35
ENDBRANCH  33  34
ENDBRANCH  32  33
ENDBRANCH   1  32
TORSDOF 22
ENDMDL
