MODEL 1
REMARK VINA RESULT:      -8.8      0.000      0.000
REMARK SMILES C[C@@H](CCCO)[NH2+][C@@H](C)CC(=O)OCCOCCOC(=O)c1ccc(-c2c3nc(c(-c4cc(S(=O)(=O)[O-])ccc4F)c4ccc([nH]4)c(-c4cc(S(=O)(=O)[O-])ccc4F)c4nc(c(-c5cc(S(=O)(=O)[O-])ccc5F)c5ccc2[nH]5)C=C4)C=C3)cc1
REMARK SMILES IDX 14 1 13 2 11 3 12 4 10 5 8 6 9 7 7 8 2 11 1 12 3 13 4 14
REMARK SMILES IDX 5 15 6 16 15 18 16 19 17 20 18 21 19 22 20 23 21 24 22 25
REMARK SMILES IDX 23 26 84 27 24 28 83 29 25 30 26 31 27 32 77 33 28 34 82 35
REMARK SMILES IDX 76 36 78 37 29 38 81 39 75 40 74 41 30 43 62 44 42 45 61 46
REMARK SMILES IDX 43 47 46 48 60 49 79 50 44 51 45 52 59 54 80 55 47 56 31 57
REMARK SMILES IDX 32 58 40 59 33 60 39 61 41 62 38 63 34 64 35 65 36 66 37 67
REMARK SMILES IDX 63 68 64 69 72 70 65 71 71 72 73 73 70 74 66 75 67 76 68 77
REMARK SMILES IDX 69 78 48 79 49 80 57 81 50 82 56 83 58 84 55 85 51 86 52 87
REMARK SMILES IDX 53 88 54 89
REMARK H PARENT 7 9 7 10 6 17 78 42 46 53
REMARK Flexibility Score: inf
ROOT
ATOM      1  C   UNL A   1      36.420  23.204  24.667  1.00  0.00     0.261 C 
ENDROOT
BRANCH   1   2
ATOM      2  O   UNL A   1      34.991  23.060  24.799  1.00  0.00    -0.463 OA
BRANCH   2   3
ATOM      3  C   UNL A   1      34.503  23.184  26.061  1.00  0.00     0.311 C 
ATOM      4  O   UNL A   1      35.118  22.902  27.084  1.00  0.00    -0.252 OA
BRANCH   3   5
ATOM      5  C   UNL A   1      33.080  23.691  26.108  1.00  0.00     0.187 C 
BRANCH   5   6
ATOM      6  C   UNL A   1      31.966  22.703  25.701  1.00  0.00     0.190 C 
ATOM      7  C   UNL A   1      30.690  23.056  26.481  1.00  0.00     0.076 C 
BRANCH   6   8
ATOM      8  N   UNL A   1      32.446  21.326  25.942  1.00  0.00    -0.341 N 
ATOM      9  H   UNL A   1      33.438  21.375  26.177  1.00  0.00     0.346 HD
ATOM     10  H   UNL A   1      31.865  20.953  26.692  1.00  0.00     0.346 HD
BRANCH   8  11
ATOM     11  C   UNL A   1      32.293  20.394  24.808  1.00  0.00     0.179 C 
ATOM     12  C   UNL A   1      32.469  21.148  23.484  1.00  0.00     0.075 C 
BRANCH  11  13
ATOM     13  C   UNL A   1      33.288  19.218  24.901  1.00  0.00     0.067 C 
BRANCH  13  14
ATOM     14  C   UNL A   1      32.841  17.842  24.373  1.00  0.00     0.034 C 
BRANCH  14  15
ATOM     15  C   UNL A   1      33.007  17.577  22.879  1.00  0.00     0.156 C 
BRANCH  15  16
ATOM     16  O   UNL A   1      31.755  17.626  22.213  1.00  0.00    -0.396 OA
ATOM     17  H   UNL A   1      31.759  18.352  21.570  1.00  0.00     0.210 HD
ENDBRANCH  15  16
ENDBRANCH  14  15
ENDBRANCH  13  14
ENDBRANCH  11  13
ENDBRANCH   8  11
ENDBRANCH   6   8
ENDBRANCH   5   6
ENDBRANCH   3   5
ENDBRANCH   2   3
ENDBRANCH   1   2
BRANCH   1  18
ATOM     18  C   UNL A   1      37.088  21.896  24.232  1.00  0.00     0.202 C 
BRANCH  18  19
ATOM     19  O   UNL A   1      37.039  20.811  25.159  1.00  0.00    -0.374 OA
BRANCH  19  20
ATOM     20  C   UNL A   1      38.066  19.829  25.070  1.00  0.00     0.202 C 
BRANCH  20  21
ATOM     21  C   UNL A   1      39.396  20.133  25.777  1.00  0.00     0.261 C 
BRANCH  21  22
ATOM     22  O   UNL A   1      40.214  18.968  25.982  1.00  0.00    -0.460 OA
BRANCH  22  23
ATOM     23  C   UNL A   1      41.544  19.229  26.089  1.00  0.00     0.338 C 
ATOM     24  O   UNL A   1      42.463  18.485  25.791  1.00  0.00    -0.246 OA
BRANCH  23  25
ATOM     25  C   UNL A   1      41.757  20.642  26.460  1.00  0.00     0.060 A 
ATOM     26  C   UNL A   1      41.787  21.587  25.426  1.00  0.00     0.016 A 
ATOM     27  C   UNL A   1      41.989  21.031  27.780  1.00  0.00     0.016 A 
ATOM     28  C   UNL A   1      42.076  22.922  25.706  1.00  0.00     0.010 A 
ATOM     29  C   UNL A   1      42.281  22.372  28.059  1.00  0.00     0.010 A 
ATOM     30  C   UNL A   1      42.354  23.319  27.021  1.00  0.00    -0.014 A 
BRANCH  30  31
ATOM     31  C   UNL A   1      42.862  24.691  27.287  1.00  0.00     0.031 A 
ATOM     32  C   UNL A   1      41.951  25.691  27.944  1.00  0.00     0.074 A 
ATOM     33  C   UNL A   1      44.126  25.033  26.976  1.00  0.00     0.049 A 
ATOM     34  N   UNL A   1      42.159  26.953  28.219  1.00  0.00    -0.248 NA
ATOM     35  C   UNL A   1      40.623  25.198  28.339  1.00  0.00     0.031 C 
ATOM     36  C   UNL A   1      45.123  24.138  26.390  1.00  0.00     0.029 A 
ATOM     37  N   UNL A   1      44.786  26.230  27.107  1.00  0.00    -0.354 N 
ATOM     38  C   UNL A   1      40.990  27.408  28.821  1.00  0.00     0.074 A 
ATOM     39  C   UNL A   1      40.063  26.295  28.827  1.00  0.00     0.031 C 
ATOM     40  C   UNL A   1      46.267  24.819  26.209  1.00  0.00     0.029 A 
ATOM     41  C   UNL A   1      46.074  26.207  26.624  1.00  0.00     0.049 A 
ATOM     42  H   UNL A   1      44.376  27.029  27.510  1.00  0.00     0.167 HD
ATOM     43  C   UNL A   1      40.719  28.634  29.332  1.00  0.00     0.034 A 
ATOM     44  C   UNL A   1      46.980  27.199  26.506  1.00  0.00     0.034 A 
ATOM     45  C   UNL A   1      41.646  29.739  29.305  1.00  0.00     0.049 A 
ATOM     46  C   UNL A   1      46.615  28.589  26.972  1.00  0.00     0.074 A 
ATOM     47  C   UNL A   1      41.475  31.022  29.796  1.00  0.00     0.029 A 
ATOM     48  N   UNL A   1      42.916  29.698  28.742  1.00  0.00    -0.354 N 
ATOM     49  N   UNL A   1      45.503  29.008  27.532  1.00  0.00    -0.248 NA
ATOM     50  C   UNL A   1      47.627  29.638  26.790  1.00  0.00     0.031 C 
ATOM     51  C   UNL A   1      42.610  31.774  29.469  1.00  0.00     0.029 A 
ATOM     52  C   UNL A   1      43.522  30.941  28.841  1.00  0.00     0.049 A 
ATOM     53  H   UNL A   1      43.325  28.902  28.333  1.00  0.00     0.167 HD
ATOM     54  C   UNL A   1      45.698  30.362  27.796  1.00  0.00     0.074 A 
ATOM     55  C   UNL A   1      47.034  30.686  27.342  1.00  0.00     0.031 C 
ATOM     56  C   UNL A   1      44.851  31.256  28.370  1.00  0.00     0.034 A 
BRANCH  43  57
ATOM     57  C   UNL A   1      39.341  28.848  29.911  1.00  0.00     0.023 A 
ATOM     58  C   UNL A   1      38.316  29.463  29.171  1.00  0.00     0.031 A 
ATOM     59  C   UNL A   1      39.060  28.472  31.236  1.00  0.00     0.131 A 
ATOM     60  C   UNL A   1      37.089  29.758  29.785  1.00  0.00     0.055 A 
ATOM     61  C   UNL A   1      37.809  28.694  31.816  1.00  0.00     0.041 A 
ATOM     62  F   UNL A   1      40.005  27.901  32.000  1.00  0.00    -0.206 F 
ATOM     63  C   UNL A   1      36.820  29.355  31.095  1.00  0.00     0.022 A 
BRANCH  60  64
ATOM     64  S   UNL A   1      35.910  30.814  28.900  1.00  0.00     0.124 S 
ATOM     65  O   UNL A   1      35.131  29.826  28.155  1.00  0.00    -0.237 OA
ATOM     66  O   UNL A   1      35.212  31.489  29.989  1.00  0.00    -0.237 OA
ATOM     67  O   UNL A   1      36.764  31.670  28.079  1.00  0.00    -0.744 OA
ENDBRANCH  60  64
ENDBRANCH  43  57
BRANCH  44  68
ATOM     68  C   UNL A   1      48.307  26.938  25.879  1.00  0.00     0.023 A 
ATOM     69  C   UNL A   1      49.402  26.514  26.648  1.00  0.00     0.031 A 
ATOM     70  C   UNL A   1      48.514  27.165  24.506  1.00  0.00     0.131 A 
ATOM     71  C   UNL A   1      50.664  26.369  26.049  1.00  0.00     0.055 A 
ATOM     72  C   UNL A   1      49.758  26.972  23.905  1.00  0.00     0.041 A 
ATOM     73  F   UNL A   1      47.501  27.576  23.726  1.00  0.00    -0.206 F 
ATOM     74  C   UNL A   1      50.846  26.582  24.680  1.00  0.00     0.022 A 
BRANCH  71  75
ATOM     75  S   UNL A   1      52.086  25.972  27.102  1.00  0.00     0.124 S 
ATOM     76  O   UNL A   1      52.671  24.838  26.396  1.00  0.00    -0.237 OA
ATOM     77  O   UNL A   1      52.847  27.216  27.063  1.00  0.00    -0.237 OA
ATOM     78  O   UNL A   1      51.476  25.657  28.392  1.00  0.00    -0.744 OA
ENDBRANCH  71  75
ENDBRANCH  44  68
BRANCH  56  79
ATOM     79  C   UNL A   1      45.368  32.658  28.577  1.00  0.00     0.023 A 
ATOM     80  C   UNL A   1      46.127  33.011  29.706  1.00  0.00     0.031 A 
ATOM     81  C   UNL A   1      45.093  33.658  27.626  1.00  0.00     0.131 A 
ATOM     82  C   UNL A   1      46.547  34.339  29.879  1.00  0.00     0.055 A 
ATOM     83  C   UNL A   1      45.559  34.965  27.776  1.00  0.00     0.041 A 
ATOM     84  F   UNL A   1      44.371  33.378  26.530  1.00  0.00    -0.206 F 
ATOM     85  C   UNL A   1      46.282  35.314  28.913  1.00  0.00     0.022 A 
BRANCH  82  86
ATOM     86  S   UNL A   1      47.384  34.797  31.423  1.00  0.00     0.124 S 
ATOM     87  O   UNL A   1      46.276  35.297  32.230  1.00  0.00    -0.237 OA
ATOM     88  O   UNL A   1      47.964  33.528  31.852  1.00  0.00    -0.237 OA
ATOM     89  O   UNL A   1      48.352  35.808  31.002  1.00  0.00    -0.744 OA
ENDBRANCH  82  86
ENDBRANCH  56  79
ENDBRANCH  30  31
ENDBRANCH  23  25
ENDBRANCH  22  23
ENDBRANCH  21  22
ENDBRANCH  20  21
ENDBRANCH  19  20
ENDBRANCH  18  19
ENDBRANCH   1  18
TORSDOF 24
ENDMDL
MODEL 2
REMARK VINA RESULT:      -8.7      4.057      9.681
REMARK SMILES C[C@@H](CCCO)[NH2+][C@@H](C)CC(=O)OCCOCCOC(=O)c1ccc(-c2c3nc(c(-c4cc(S(=O)(=O)[O-])ccc4F)c4ccc([nH]4)c(-c4cc(S(=O)(=O)[O-])ccc4F)c4nc(c(-c5cc(S(=O)(=O)[O-])ccc5F)c5ccc2[nH]5)C=C4)C=C3)cc1
REMARK SMILES IDX 14 1 13 2 11 3 12 4 10 5 8 6 9 7 7 8 2 11 1 12 3 13 4 14
REMARK SMILES IDX 5 15 6 16 15 18 16 19 17 20 18 21 19 22 20 23 21 24 22 25
REMARK SMILES IDX 23 26 84 27 24 28 83 29 25 30 26 31 27 32 77 33 28 34 82 35
REMARK SMILES IDX 76 36 78 37 29 38 81 39 75 40 74 41 30 43 62 44 42 45 61 46
REMARK SMILES IDX 43 47 46 48 60 49 79 50 44 51 45 52 59 54 80 55 47 56 31 57
REMARK SMILES IDX 32 58 40 59 33 60 39 61 41 62 38 63 34 64 35 65 36 66 37 67
REMARK SMILES IDX 63 68 64 69 72 70 65 71 71 72 73 73 70 74 66 75 67 76 68 77
REMARK SMILES IDX 69 78 48 79 49 80 57 81 50 82 56 83 58 84 55 85 51 86 52 87
REMARK SMILES IDX 53 88 54 89
REMARK H PARENT 7 9 7 10 6 17 78 42 46 53
REMARK Flexibility Score: inf
ROOT
ATOM      1  C   UNL A   1      33.762  24.908  23.786  1.00  0.00     0.261 C 
ENDROOT
BRANCH   1   2
ATOM      2  O   UNL A   1      33.742  26.350  23.777  1.00  0.00    -0.463 OA
BRANCH   2   3
ATOM      3  C   UNL A   1      32.762  26.918  23.027  1.00  0.00     0.311 C 
ATOM      4  O   UNL A   1      32.394  26.515  21.929  1.00  0.00    -0.252 OA
BRANCH   3   5
ATOM      5  C   UNL A   1      32.158  28.149  23.661  1.00  0.00     0.187 C 
BRANCH   5   6
ATOM      6  C   UNL A   1      30.649  28.107  23.987  1.00  0.00     0.190 C 
ATOM      7  C   UNL A   1      30.369  26.868  24.849  1.00  0.00     0.076 C 
BRANCH   6   8
ATOM      8  N   UNL A   1      29.892  28.131  22.718  1.00  0.00    -0.341 N 
ATOM      9  H   UNL A   1      30.564  28.198  21.952  1.00  0.00     0.346 HD
ATOM     10  H   UNL A   1      29.340  27.274  22.704  1.00  0.00     0.346 HD
BRANCH   8  11
ATOM     11  C   UNL A   1      28.928  29.239  22.576  1.00  0.00     0.179 C 
ATOM     12  C   UNL A   1      27.518  28.755  22.936  1.00  0.00     0.075 C 
BRANCH  11  13
ATOM     13  C   UNL A   1      29.325  30.452  23.444  1.00  0.00     0.067 C 
BRANCH  13  14
ATOM     14  C   UNL A   1      28.381  31.669  23.470  1.00  0.00     0.034 C 
BRANCH  14  15
ATOM     15  C   UNL A   1      28.819  32.911  22.701  1.00  0.00     0.156 C 
BRANCH  15  16
ATOM     16  O   UNL A   1      27.809  33.329  21.795  1.00  0.00    -0.396 OA
ATOM     17  H   UNL A   1      28.180  33.976  21.174  1.00  0.00     0.210 HD
ENDBRANCH  15  16
ENDBRANCH  14  15
ENDBRANCH  13  14
ENDBRANCH  11  13
ENDBRANCH   8  11
ENDBRANCH   6   8
ENDBRANCH   5   6
ENDBRANCH   3   5
ENDBRANCH   2   3
ENDBRANCH   1   2
BRANCH   1  18
ATOM     18  C   UNL A   1      34.202  24.352  25.144  1.00  0.00     0.202 C 
BRANCH  18  19
ATOM     19  O   UNL A   1      34.336  22.934  25.244  1.00  0.00    -0.374 OA
BRANCH  19  20
ATOM     20  C   UNL A   1      35.393  22.432  26.055  1.00  0.00     0.202 C 
BRANCH  20  21
ATOM     21  C   UNL A   1      36.753  22.202  25.378  1.00  0.00     0.261 C 
BRANCH  21  22
ATOM     22  O   UNL A   1      37.680  23.285  25.574  1.00  0.00    -0.460 OA
BRANCH  22  23
ATOM     23  C   UNL A   1      38.774  22.958  26.312  1.00  0.00     0.338 C 
ATOM     24  O   UNL A   1      39.261  21.849  26.448  1.00  0.00    -0.246 OA
BRANCH  23  25
ATOM     25  C   UNL A   1      39.436  24.181  26.809  1.00  0.00     0.060 A 
ATOM     26  C   UNL A   1      39.296  24.489  28.168  1.00  0.00     0.016 A 
ATOM     27  C   UNL A   1      40.122  25.046  25.955  1.00  0.00     0.016 A 
ATOM     28  C   UNL A   1      39.819  25.678  28.673  1.00  0.00     0.010 A 
ATOM     29  C   UNL A   1      40.646  26.241  26.464  1.00  0.00     0.010 A 
ATOM     30  C   UNL A   1      40.474  26.576  27.820  1.00  0.00    -0.014 A 
BRANCH  30  31
ATOM     31  C   UNL A   1      40.846  27.928  28.315  1.00  0.00     0.031 A 
ATOM     32  C   UNL A   1      42.296  28.329  28.320  1.00  0.00     0.074 A 
ATOM     33  C   UNL A   1      39.905  28.797  28.726  1.00  0.00     0.049 A 
ATOM     34  N   UNL A   1      42.855  29.428  28.756  1.00  0.00    -0.248 NA
ATOM     35  C   UNL A   1      43.240  27.352  27.759  1.00  0.00     0.031 C 
ATOM     36  C   UNL A   1      38.464  28.550  28.715  1.00  0.00     0.029 A 
ATOM     37  N   UNL A   1      40.023  30.067  29.237  1.00  0.00    -0.354 N 
ATOM     38  C   UNL A   1      44.218  29.278  28.522  1.00  0.00     0.074 A 
ATOM     39  C   UNL A   1      44.401  27.961  27.948  1.00  0.00     0.031 C 
ATOM     40  C   UNL A   1      37.832  29.632  29.201  1.00  0.00     0.029 A 
ATOM     41  C   UNL A   1      38.822  30.632  29.597  1.00  0.00     0.049 A 
ATOM     42  H   UNL A   1      40.887  30.529  29.335  1.00  0.00     0.167 HD
ATOM     43  C   UNL A   1      45.222  30.160  28.754  1.00  0.00     0.034 A 
ATOM     44  C   UNL A   1      38.557  31.808  30.203  1.00  0.00     0.034 A 
ATOM     45  C   UNL A   1      45.027  31.463  29.342  1.00  0.00     0.049 A 
ATOM     46  C   UNL A   1      39.701  32.725  30.562  1.00  0.00     0.074 A 
ATOM     47  C   UNL A   1      45.973  32.436  29.618  1.00  0.00     0.029 A 
ATOM     48  N   UNL A   1      43.804  31.971  29.761  1.00  0.00    -0.354 N 
ATOM     49  N   UNL A   1      40.987  32.569  30.343  1.00  0.00    -0.248 NA
ATOM     50  C   UNL A   1      39.358  33.978  31.249  1.00  0.00     0.031 C 
ATOM     51  C   UNL A   1      45.334  33.500  30.265  1.00  0.00     0.029 A 
ATOM     52  C   UNL A   1      43.977  33.226  30.325  1.00  0.00     0.049 A 
ATOM     53  H   UNL A   1      42.941  31.509  29.669  1.00  0.00     0.167 HD
ATOM     54  C   UNL A   1      41.599  33.718  30.839  1.00  0.00     0.074 A 
ATOM     55  C   UNL A   1      40.542  34.560  31.359  1.00  0.00     0.031 C 
ATOM     56  C   UNL A   1      42.916  34.051  30.855  1.00  0.00     0.034 A 
BRANCH  43  57
ATOM     57  C   UNL A   1      46.623  29.710  28.416  1.00  0.00     0.023 A 
ATOM     58  C   UNL A   1      47.443  29.074  29.364  1.00  0.00     0.031 A 
ATOM     59  C   UNL A   1      47.164  29.960  27.143  1.00  0.00     0.131 A 
ATOM     60  C   UNL A   1      48.780  28.785  29.053  1.00  0.00     0.055 A 
ATOM     61  C   UNL A   1      48.470  29.595  26.812  1.00  0.00     0.041 A 
ATOM     62  F   UNL A   1      46.437  30.585  26.203  1.00  0.00    -0.206 F 
ATOM     63  C   UNL A   1      49.292  29.019  27.775  1.00  0.00     0.022 A 
BRANCH  60  64
ATOM     64  S   UNL A   1      49.884  28.246  30.388  1.00  0.00     0.124 S 
ATOM     65  O   UNL A   1      50.533  29.502  30.758  1.00  0.00    -0.237 OA
ATOM     66  O   UNL A   1      48.951  27.696  31.365  1.00  0.00    -0.237 OA
ATOM     67  O   UNL A   1      50.757  27.271  29.739  1.00  0.00    -0.744 OA
ENDBRANCH  60  64
ENDBRANCH  43  57
BRANCH  44  68
ATOM     68  C   UNL A   1      37.156  32.175  30.557  1.00  0.00     0.023 A 
ATOM     69  C   UNL A   1      36.300  32.766  29.614  1.00  0.00     0.031 A 
ATOM     70  C   UNL A   1      36.669  31.991  31.864  1.00  0.00     0.131 A 
ATOM     71  C   UNL A   1      35.018  33.189  30.001  1.00  0.00     0.055 A 
ATOM     72  C   UNL A   1      35.377  32.368  32.231  1.00  0.00     0.041 A 
ATOM     73  F   UNL A   1      37.448  31.434  32.806  1.00  0.00    -0.206 F 
ATOM     74  C   UNL A   1      34.547  32.983  31.299  1.00  0.00     0.022 A 
BRANCH  71  75
ATOM     75  S   UNL A   1      34.000  34.089  28.798  1.00  0.00     0.124 S 
ATOM     76  O   UNL A   1      34.927  35.116  28.335  1.00  0.00    -0.237 OA
ATOM     77  O   UNL A   1      33.669  33.041  27.839  1.00  0.00    -0.237 OA
ATOM     78  O   UNL A   1      32.879  34.575  29.599  1.00  0.00    -0.744 OA
ENDBRANCH  71  75
ENDBRANCH  44  68
BRANCH  56  79
ATOM     79  C   UNL A   1      43.276  35.404  31.416  1.00  0.00     0.023 A 
ATOM     80  C   UNL A   1      43.502  36.516  30.586  1.00  0.00     0.031 A 
ATOM     81  C   UNL A   1      43.397  35.582  32.806  1.00  0.00     0.131 A 
ATOM     82  C   UNL A   1      43.881  37.744  31.150  1.00  0.00     0.055 A 
ATOM     83  C   UNL A   1      43.720  36.819  33.365  1.00  0.00     0.041 A 
ATOM     84  F   UNL A   1      43.194  34.555  33.646  1.00  0.00    -0.206 F 
ATOM     85  C   UNL A   1      43.976  37.907  32.535  1.00  0.00     0.022 A 
BRANCH  82  86
ATOM     86  S   UNL A   1      44.324  39.114  30.045  1.00  0.00     0.124 S 
ATOM     87  O   UNL A   1      43.163  39.989  30.167  1.00  0.00    -0.237 OA
ATOM     88  O   UNL A   1      45.561  39.609  30.643  1.00  0.00    -0.237 OA
ATOM     89  O   UNL A   1      44.483  38.469  28.744  1.00  0.00    -0.744 OA
ENDBRANCH  82  86
ENDBRANCH  56  79
ENDBRANCH  30  31
ENDBRANCH  23  25
ENDBRANCH  22  23
ENDBRANCH  21  22
ENDBRANCH  20  21
ENDBRANCH  19  20
ENDBRANCH  18  19
ENDBRANCH   1  18
TORSDOF 24
ENDMDL
MODEL 3
REMARK VINA RESULT:      -8.4      6.801     11.258
REMARK SMILES C[C@@H](CCCO)[NH2+][C@@H](C)CC(=O)OCCOCCOC(=O)c1ccc(-c2c3nc(c(-c4cc(S(=O)(=O)[O-])ccc4F)c4ccc([nH]4)c(-c4cc(S(=O)(=O)[O-])ccc4F)c4nc(c(-c5cc(S(=O)(=O)[O-])ccc5F)c5ccc2[nH]5)C=C4)C=C3)cc1
REMARK SMILES IDX 14 1 13 2 11 3 12 4 10 5 8 6 9 7 7 8 2 11 1 12 3 13 4 14
REMARK SMILES IDX 5 15 6 16 15 18 16 19 17 20 18 21 19 22 20 23 21 24 22 25
REMARK SMILES IDX 23 26 84 27 24 28 83 29 25 30 26 31 27 32 77 33 28 34 82 35
REMARK SMILES IDX 76 36 78 37 29 38 81 39 75 40 74 41 30 43 62 44 42 45 61 46
REMARK SMILES IDX 43 47 46 48 60 49 79 50 44 51 45 52 59 54 80 55 47 56 31 57
REMARK SMILES IDX 32 58 40 59 33 60 39 61 41 62 38 63 34 64 35 65 36 66 37 67
REMARK SMILES IDX 63 68 64 69 72 70 65 71 71 72 73 73 70 74 66 75 67 76 68 77
REMARK SMILES IDX 69 78 48 79 49 80 57 81 50 82 56 83 58 84 55 85 51 86 52 87
REMARK SMILES IDX 53 88 54 89
REMARK H PARENT 7 9 7 10 6 17 78 42 46 53
REMARK Flexibility Score: inf
ROOT
ATOM      1  C   UNL A   1      35.523  31.862  28.652  1.00  0.00     0.261 C 
ENDROOT
BRANCH   1   2
ATOM      2  O   UNL A   1      35.010  31.419  27.380  1.00  0.00    -0.463 OA
BRANCH   2   3
ATOM      3  C   UNL A   1      34.333  30.241  27.398  1.00  0.00     0.311 C 
ATOM      4  O   UNL A   1      34.854  29.132  27.461  1.00  0.00    -0.252 OA
BRANCH   3   5
ATOM      5  C   UNL A   1      32.835  30.407  27.302  1.00  0.00     0.187 C 
BRANCH   5   6
ATOM      6  C   UNL A   1      32.051  29.319  26.537  1.00  0.00     0.190 C 
ATOM      7  C   UNL A   1      31.591  28.250  27.539  1.00  0.00     0.076 C 
BRANCH   6   8
ATOM      8  N   UNL A   1      32.912  28.788  25.459  1.00  0.00    -0.341 N 
ATOM      9  H   UNL A   1      33.823  29.242  25.532  1.00  0.00     0.346 HD
ATOM     10  H   UNL A   1      32.945  27.779  25.597  1.00  0.00     0.346 HD
BRANCH   8  11
ATOM     11  C   UNL A   1      32.409  28.995  24.087  1.00  0.00     0.179 C 
ATOM     12  C   UNL A   1      33.576  28.979  23.093  1.00  0.00     0.075 C 
BRANCH  11  13
ATOM     13  C   UNL A   1      31.354  27.936  23.702  1.00  0.00     0.067 C 
BRANCH  13  14
ATOM     14  C   UNL A   1      31.618  26.469  24.090  1.00  0.00     0.034 C 
BRANCH  14  15
ATOM     15  C   UNL A   1      31.475  25.418  22.993  1.00  0.00     0.156 C 
BRANCH  15  16
ATOM     16  O   UNL A   1      31.695  25.988  21.712  1.00  0.00    -0.396 OA
ATOM     17  H   UNL A   1      30.854  26.031  21.229  1.00  0.00     0.210 HD
ENDBRANCH  15  16
ENDBRANCH  14  15
ENDBRANCH  13  14
ENDBRANCH  11  13
ENDBRANCH   8  11
ENDBRANCH   6   8
ENDBRANCH   5   6
ENDBRANCH   3   5
ENDBRANCH   2   3
ENDBRANCH   1   2
BRANCH   1  18
ATOM     18  C   UNL A   1      35.298  33.362  28.868  1.00  0.00     0.202 C 
BRANCH  18  19
ATOM     19  O   UNL A   1      34.440  34.023  27.937  1.00  0.00    -0.374 OA
BRANCH  19  20
ATOM     20  C   UNL A   1      33.159  34.433  28.405  1.00  0.00     0.202 C 
BRANCH  20  21
ATOM     21  C   UNL A   1      33.122  35.475  29.533  1.00  0.00     0.261 C 
BRANCH  21  22
ATOM     22  O   UNL A   1      32.535  34.980  30.750  1.00  0.00    -0.460 OA
BRANCH  22  23
ATOM     23  C   UNL A   1      32.901  35.664  31.867  1.00  0.00     0.338 C 
ATOM     24  O   UNL A   1      32.318  36.609  32.370  1.00  0.00    -0.246 OA
BRANCH  23  25
ATOM     25  C   UNL A   1      34.037  34.990  32.527  1.00  0.00     0.060 A 
ATOM     26  C   UNL A   1      35.305  35.570  32.390  1.00  0.00     0.016 A 
ATOM     27  C   UNL A   1      33.883  33.781  33.207  1.00  0.00     0.016 A 
ATOM     28  C   UNL A   1      36.427  34.929  32.911  1.00  0.00     0.010 A 
ATOM     29  C   UNL A   1      35.012  33.138  33.729  1.00  0.00     0.010 A 
ATOM     30  C   UNL A   1      36.294  33.694  33.560  1.00  0.00    -0.014 A 
BRANCH  30  31
ATOM     31  C   UNL A   1      37.506  32.918  33.930  1.00  0.00     0.031 A 
ATOM     32  C   UNL A   1      38.230  33.260  35.203  1.00  0.00     0.074 A 
ATOM     33  C   UNL A   1      37.941  31.905  33.159  1.00  0.00     0.049 A 
ATOM     34  N   UNL A   1      39.334  32.758  35.695  1.00  0.00    -0.248 NA
ATOM     35  C   UNL A   1      37.625  34.313  36.031  1.00  0.00     0.031 C 
ATOM     36  C   UNL A   1      37.294  31.439  31.932  1.00  0.00     0.029 A 
ATOM     37  N   UNL A   1      39.034  31.084  33.293  1.00  0.00    -0.354 N 
ATOM     38  C   UNL A   1      39.557  33.433  36.890  1.00  0.00     0.074 A 
ATOM     39  C   UNL A   1      38.497  34.411  37.023  1.00  0.00     0.031 C 
ATOM     40  C   UNL A   1      38.005  30.418  31.425  1.00  0.00     0.029 A 
ATOM     41  C   UNL A   1      39.180  30.184  32.263  1.00  0.00     0.049 A 
ATOM     42  H   UNL A   1      39.654  31.135  34.056  1.00  0.00     0.167 HD
ATOM     43  C   UNL A   1      40.547  33.248  37.799  1.00  0.00     0.034 A 
ATOM     44  C   UNL A   1      40.163  29.295  32.013  1.00  0.00     0.034 A 
ATOM     45  C   UNL A   1      41.607  32.281  37.646  1.00  0.00     0.049 A 
ATOM     46  C   UNL A   1      41.320  29.188  32.977  1.00  0.00     0.074 A 
ATOM     47  C   UNL A   1      42.658  32.008  38.506  1.00  0.00     0.029 A 
ATOM     48  N   UNL A   1      41.762  31.437  36.554  1.00  0.00    -0.354 N 
ATOM     49  N   UNL A   1      41.525  29.837  34.100  1.00  0.00    -0.248 NA
ATOM     50  C   UNL A   1      42.379  28.226  32.639  1.00  0.00     0.031 C 
ATOM     51  C   UNL A   1      43.484  31.052  37.902  1.00  0.00     0.029 A 
ATOM     52  C   UNL A   1      42.909  30.671  36.700  1.00  0.00     0.049 A 
ATOM     53  H   UNL A   1      41.147  31.388  35.787  1.00  0.00     0.167 HD
ATOM     54  C   UNL A   1      42.720  29.339  34.615  1.00  0.00     0.074 A 
ATOM     55  C   UNL A   1      43.185  28.331  33.685  1.00  0.00     0.031 C 
ATOM     56  C   UNL A   1      43.370  29.678  35.758  1.00  0.00     0.034 A 
BRANCH  43  57
ATOM     57  C   UNL A   1      40.549  34.153  39.007  1.00  0.00     0.023 A 
ATOM     58  C   UNL A   1      39.724  33.904  40.118  1.00  0.00     0.031 A 
ATOM     59  C   UNL A   1      41.354  35.305  39.032  1.00  0.00     0.131 A 
ATOM     60  C   UNL A   1      39.660  34.834  41.166  1.00  0.00     0.055 A 
ATOM     61  C   UNL A   1      41.348  36.185  40.116  1.00  0.00     0.041 A 
ATOM     62  F   UNL A   1      42.146  35.608  37.991  1.00  0.00    -0.206 F 
ATOM     63  C   UNL A   1      40.486  35.961  41.184  1.00  0.00     0.022 A 
BRANCH  60  64
ATOM     64  S   UNL A   1      38.371  34.633  42.426  1.00  0.00     0.124 S 
ATOM     65  O   UNL A   1      37.155  34.736  41.623  1.00  0.00    -0.237 OA
ATOM     66  O   UNL A   1      38.667  33.312  42.972  1.00  0.00    -0.237 OA
ATOM     67  O   UNL A   1      38.604  35.751  43.337  1.00  0.00    -0.744 OA
ENDBRANCH  60  64
ENDBRANCH  43  57
BRANCH  44  68
ATOM     68  C   UNL A   1      40.131  28.464  30.776  1.00  0.00     0.023 A 
ATOM     69  C   UNL A   1      40.935  28.778  29.669  1.00  0.00     0.031 A 
ATOM     70  C   UNL A   1      39.251  27.372  30.662  1.00  0.00     0.131 A 
ATOM     71  C   UNL A   1      40.815  28.036  28.483  1.00  0.00     0.055 A 
ATOM     72  C   UNL A   1      39.170  26.606  29.499  1.00  0.00     0.041 A 
ATOM     73  F   UNL A   1      38.456  27.031  31.690  1.00  0.00    -0.206 F 
ATOM     74  C   UNL A   1      39.947  26.945  28.395  1.00  0.00     0.022 A 
BRANCH  71  75
ATOM     75  S   UNL A   1      41.755  28.568  27.026  1.00  0.00     0.124 S 
ATOM     76  O   UNL A   1      40.688  28.974  26.117  1.00  0.00    -0.237 OA
ATOM     77  O   UNL A   1      42.577  29.642  27.573  1.00  0.00    -0.237 OA
ATOM     78  O   UNL A   1      42.485  27.364  26.634  1.00  0.00    -0.744 OA
ENDBRANCH  71  75
ENDBRANCH  44  68
BRANCH  56  79
ATOM     79  C   UNL A   1      44.632  28.917  36.084  1.00  0.00     0.023 A 
ATOM     80  C   UNL A   1      45.899  29.371  35.678  1.00  0.00     0.031 A 
ATOM     81  C   UNL A   1      44.562  27.716  36.812  1.00  0.00     0.131 A 
ATOM     82  C   UNL A   1      47.040  28.606  35.963  1.00  0.00     0.055 A 
ATOM     83  C   UNL A   1      45.706  26.987  37.141  1.00  0.00     0.041 A 
ATOM     84  F   UNL A   1      43.379  27.234  37.224  1.00  0.00    -0.206 F 
ATOM     85  C   UNL A   1      46.954  27.425  36.706  1.00  0.00     0.022 A 
BRANCH  82  86
ATOM     86  S   UNL A   1      48.638  29.134  35.285  1.00  0.00     0.124 S 
ATOM     87  O   UNL A   1      49.481  27.975  35.561  1.00  0.00    -0.237 OA
ATOM     88  O   UNL A   1      48.319  29.370  33.880  1.00  0.00    -0.237 OA
ATOM     89  O   UNL A   1      48.959  30.333  36.056  1.00  0.00    -0.744 OA
ENDBRANCH  82  86
ENDBRANCH  56  79
ENDBRANCH  30  31
ENDBRANCH  23  25
ENDBRANCH  22  23
ENDBRANCH  21  22
ENDBRANCH  20  21
ENDBRANCH  19  20
ENDBRANCH  18  19
ENDBRANCH   1  18
TORSDOF 24
ENDMDL
