MODEL 1
REMARK VINA RESULT:     -10.4      0.000      0.000
REMARK SMILES O=C(C[C@@H]1CSCC[NH2+]1)NC[C@@H](C(=O)OCCOCCOC(=O)c1ccc(-c2c3nc(c(-c4cc(S(=O)(=O)[O-])ccc4F)c4ccc([nH]4)c(-c4cc(S(=O)(=O)[O-])ccc4F)c4nc(c(-c5cc(S(=O)(=O)[O-])ccc5F)c5ccc2[nH]5)C=C4)C=C3)cc1)c1ccccc1
REMARK SMILES IDX 17 1 16 2 15 3 13 4 14 5 12 6 11 7 10 8 1 9 2 10 3 12 4 13
REMARK SMILES IDX 5 14 9 15 6 16 8 17 7 20 87 21 88 22 92 23 89 24 91 25 90 26
REMARK SMILES IDX 18 27 19 28 20 29 21 30 22 31 23 32 24 33 25 34 86 35 26 36
REMARK SMILES IDX 85 37 27 38 28 39 29 40 79 41 30 42 84 43 78 44 80 45 31 46
REMARK SMILES IDX 83 47 77 48 76 49 32 51 64 52 44 53 63 54 45 55 48 56 62 57
REMARK SMILES IDX 81 58 46 59 47 60 61 62 82 63 49 64 33 65 34 66 42 67 35 68
REMARK SMILES IDX 41 69 43 70 40 71 36 72 37 73 38 74 39 75 65 76 66 77 74 78
REMARK SMILES IDX 67 79 73 80 75 81 72 82 68 83 69 84 70 85 71 86 50 87 51 88
REMARK SMILES IDX 59 89 52 90 58 91 60 92 57 93 53 94 54 95 55 96 56 97
REMARK H PARENT 10 11 9 18 9 19 80 50 48 61
REMARK Flexibility Score: inf
ROOT
ATOM      1  C   UNL A   1      32.644  27.854  26.837  1.00  0.00     0.202 C 
ENDROOT
BRANCH   1   2
ATOM      2  C   UNL A   1      32.528  27.354  25.393  1.00  0.00     0.261 C 
BRANCH   2   3
ATOM      3  O   UNL A   1      32.035  26.003  25.364  1.00  0.00    -0.463 OA
BRANCH   3   4
ATOM      4  C   UNL A   1      30.678  25.867  25.363  1.00  0.00     0.315 C 
ATOM      5  O   UNL A   1      29.988  25.909  26.376  1.00  0.00    -0.251 OA
BRANCH   4   6
ATOM      6  C   UNL A   1      30.094  25.774  23.951  1.00  0.00     0.148 C 
BRANCH   6   7
ATOM      7  C   UNL A   1      31.148  25.577  22.842  1.00  0.00     0.136 C 
BRANCH   7   8
ATOM      8  N   UNL A   1      32.029  24.438  23.025  1.00  0.00    -0.355 N 
ATOM      9  O   UNL A   1      33.715  25.288  21.743  1.00  0.00    -0.275 OA
ATOM     10  C   UNL A   1      33.305  24.425  22.515  1.00  0.00     0.226 C 
ATOM     11  H   UNL A   1      31.705  23.656  23.528  1.00  0.00     0.163 HD
BRANCH  10  12
ATOM     12  C   UNL A   1      34.167  23.258  22.952  1.00  0.00     0.165 C 
BRANCH  12  13
ATOM     13  C   UNL A   1      35.061  23.561  24.172  1.00  0.00     0.201 C 
ATOM     14  C   UNL A   1      36.155  22.513  24.473  1.00  0.00     0.135 C 
ATOM     15  N   UNL A   1      34.272  23.883  25.384  1.00  0.00    -0.342 N 
ATOM     16  S   UNL A   1      35.487  20.916  25.017  1.00  0.00    -0.150 SA
ATOM     17  C   UNL A   1      33.578  22.723  25.967  1.00  0.00     0.271 C 
ATOM     18  H   UNL A   1      33.575  24.584  25.136  1.00  0.00     0.346 HD
ATOM     19  H   UNL A   1      34.931  24.219  26.086  1.00  0.00     0.346 HD
ATOM     20  C   UNL A   1      34.487  21.562  26.393  1.00  0.00     0.131 C 
ENDBRANCH  12  13
ENDBRANCH  10  12
ENDBRANCH   7   8
ENDBRANCH   6   7
BRANCH   6  21
ATOM     21  C   UNL A   1      29.197  26.972  23.600  1.00  0.00    -0.032 A 
ATOM     22  C   UNL A   1      27.807  26.978  23.808  1.00  0.00     0.004 A 
ATOM     23  C   UNL A   1      29.786  28.135  23.070  1.00  0.00     0.004 A 
ATOM     24  C   UNL A   1      27.036  28.103  23.496  1.00  0.00     0.000 A 
ATOM     25  C   UNL A   1      29.017  29.261  22.769  1.00  0.00     0.000 A 
ATOM     26  C   UNL A   1      27.642  29.246  22.981  1.00  0.00     0.000 A 
ENDBRANCH   6  21
ENDBRANCH   4   6
ENDBRANCH   3   4
ENDBRANCH   2   3
ENDBRANCH   1   2
BRANCH   1  27
ATOM     27  O   UNL A   1      31.895  29.026  27.165  1.00  0.00    -0.374 OA
BRANCH  27  28
ATOM     28  C   UNL A   1      31.723  30.011  26.148  1.00  0.00     0.202 C 
BRANCH  28  29
ATOM     29  C   UNL A   1      31.998  31.477  26.517  1.00  0.00     0.261 C 
BRANCH  29  30
ATOM     30  O   UNL A   1      32.777  31.635  27.718  1.00  0.00    -0.460 OA
BRANCH  30  31
ATOM     31  C   UNL A   1      33.749  32.579  27.631  1.00  0.00     0.338 C 
ATOM     32  O   UNL A   1      33.599  33.766  27.368  1.00  0.00    -0.246 OA
BRANCH  31  33
ATOM     33  C   UNL A   1      35.041  32.031  28.081  1.00  0.00     0.060 A 
ATOM     34  C   UNL A   1      35.073  30.694  28.492  1.00  0.00     0.016 A 
ATOM     35  C   UNL A   1      36.181  32.829  28.183  1.00  0.00     0.016 A 
ATOM     36  C   UNL A   1      36.239  30.157  29.035  1.00  0.00     0.010 A 
ATOM     37  C   UNL A   1      37.354  32.286  28.724  1.00  0.00     0.010 A 
ATOM     38  C   UNL A   1      37.381  30.957  29.183  1.00  0.00    -0.014 A 
BRANCH  38  39
ATOM     39  C   UNL A   1      38.543  30.438  29.952  1.00  0.00     0.031 A 
ATOM     40  C   UNL A   1      39.447  29.417  29.312  1.00  0.00     0.074 A 
ATOM     41  C   UNL A   1      38.818  30.904  31.185  1.00  0.00     0.049 A 
ATOM     42  N   UNL A   1      40.508  28.825  29.797  1.00  0.00    -0.248 NA
ATOM     43  C   UNL A   1      39.107  29.011  27.939  1.00  0.00     0.031 C 
ATOM     44  C   UNL A   1      38.043  31.923  31.893  1.00  0.00     0.029 A 
ATOM     45  N   UNL A   1      39.828  30.584  32.058  1.00  0.00    -0.354 N 
ATOM     46  C   UNL A   1      40.962  27.976  28.793  1.00  0.00     0.074 A 
ATOM     47  C   UNL A   1      40.035  28.101  27.688  1.00  0.00     0.031 C 
ATOM     48  C   UNL A   1      38.607  32.142  33.093  1.00  0.00     0.029 A 
ATOM     49  C   UNL A   1      39.758  31.258  33.256  1.00  0.00     0.049 A 
ATOM     50  H   UNL A   1      40.535  29.934  31.847  1.00  0.00     0.167 HD
ATOM     51  C   UNL A   1      42.058  27.177  28.786  1.00  0.00     0.034 A 
ATOM     52  C   UNL A   1      40.524  31.157  34.362  1.00  0.00     0.034 A 
ATOM     53  C   UNL A   1      42.973  27.055  29.895  1.00  0.00     0.049 A 
ATOM     54  C   UNL A   1      41.692  30.198  34.361  1.00  0.00     0.074 A 
ATOM     55  C   UNL A   1      44.119  26.284  29.989  1.00  0.00     0.029 A 
ATOM     56  N   UNL A   1      42.841  27.715  31.111  1.00  0.00    -0.354 N 
ATOM     57  N   UNL A   1      42.114  29.409  33.399  1.00  0.00    -0.248 NA
ATOM     58  C   UNL A   1      42.490  30.123  35.592  1.00  0.00     0.031 C 
ATOM     59  C   UNL A   1      44.640  26.424  31.280  1.00  0.00     0.029 A 
ATOM     60  C   UNL A   1      43.864  27.342  31.969  1.00  0.00     0.049 A 
ATOM     61  H   UNL A   1      42.125  28.354  31.330  1.00  0.00     0.167 HD
ATOM     62  C   UNL A   1      43.245  28.769  33.902  1.00  0.00     0.074 A 
ATOM     63  C   UNL A   1      43.448  29.277  35.242  1.00  0.00     0.031 C 
ATOM     64  C   UNL A   1      44.047  27.847  33.309  1.00  0.00     0.034 A 
BRANCH  51  65
ATOM     65  C   UNL A   1      42.296  26.337  27.554  1.00  0.00     0.023 A 
ATOM     66  C   UNL A   1      41.855  25.005  27.470  1.00  0.00     0.031 A 
ATOM     67  C   UNL A   1      42.993  26.870  26.456  1.00  0.00     0.131 A 
ATOM     68  C   UNL A   1      42.174  24.232  26.342  1.00  0.00     0.055 A 
ATOM     69  C   UNL A   1      43.241  26.120  25.305  1.00  0.00     0.041 A 
ATOM     70  F   UNL A   1      43.458  28.130  26.488  1.00  0.00    -0.206 F 
ATOM     71  C   UNL A   1      42.843  24.788  25.248  1.00  0.00     0.022 A 
BRANCH  68  72
ATOM     72  S   UNL A   1      41.819  22.454  26.380  1.00  0.00     0.124 S 
ATOM     73  O   UNL A   1      42.521  21.989  25.186  1.00  0.00    -0.237 OA
ATOM     74  O   UNL A   1      42.389  22.044  27.657  1.00  0.00    -0.237 OA
ATOM     75  O   UNL A   1      40.361  22.393  26.299  1.00  0.00    -0.744 OA
ENDBRANCH  68  72
ENDBRANCH  51  65
BRANCH  52  76
ATOM     76  C   UNL A   1      40.199  31.947  35.585  1.00  0.00     0.023 A 
ATOM     77  C   UNL A   1      39.203  31.526  36.482  1.00  0.00     0.031 A 
ATOM     78  C   UNL A   1      40.833  33.178  35.838  1.00  0.00     0.131 A 
ATOM     79  C   UNL A   1      38.835  32.352  37.556  1.00  0.00     0.055 A 
ATOM     80  C   UNL A   1      40.502  33.968  36.939  1.00  0.00     0.041 A 
ATOM     81  F   UNL A   1      41.792  33.628  35.012  1.00  0.00    -0.206 F 
ATOM     82  C   UNL A   1      39.486  33.564  37.798  1.00  0.00     0.022 A 
BRANCH  79  83
ATOM     83  S   UNL A   1      37.419  31.863  38.581  1.00  0.00     0.124 S 
ATOM     84  O   UNL A   1      37.184  30.497  38.129  1.00  0.00    -0.237 OA
ATOM     85  O   UNL A   1      37.959  32.009  39.928  1.00  0.00    -0.237 OA
ATOM     86  O   UNL A   1      36.387  32.831  38.216  1.00  0.00    -0.744 OA
ENDBRANCH  79  83
ENDBRANCH  52  76
BRANCH  64  87
ATOM     87  C   UNL A   1      45.240  27.365  34.100  1.00  0.00     0.023 A 
ATOM     88  C   UNL A   1      45.168  26.235  34.933  1.00  0.00     0.031 A 
ATOM     89  C   UNL A   1      46.463  28.057  34.029  1.00  0.00     0.131 A 
ATOM     90  C   UNL A   1      46.278  25.866  35.708  1.00  0.00     0.055 A 
ATOM     91  C   UNL A   1      47.582  27.648  34.755  1.00  0.00     0.041 A 
ATOM     92  F   UNL A   1      46.589  29.143  33.250  1.00  0.00    -0.206 F 
ATOM     93  C   UNL A   1      47.490  26.555  35.612  1.00  0.00     0.022 A 
BRANCH  90  94
ATOM     94  S   UNL A   1      46.089  24.527  36.919  1.00  0.00     0.124 S 
ATOM     95  O   UNL A   1      44.775  24.814  37.485  1.00  0.00    -0.237 OA
ATOM     96  O   UNL A   1      46.176  23.335  36.081  1.00  0.00    -0.237 OA
ATOM     97  O   UNL A   1      47.215  24.727  37.829  1.00  0.00    -0.744 OA
ENDBRANCH  90  94
ENDBRANCH  64  87
ENDBRANCH  38  39
ENDBRANCH  31  33
ENDBRANCH  30  31
ENDBRANCH  29  30
ENDBRANCH  28  29
ENDBRANCH  27  28
ENDBRANCH   1  27
TORSDOF 22
ENDMDL
MODEL 2
REMARK VINA RESULT:     -10.3      2.638      8.492
REMARK SMILES O=C(C[C@@H]1CSCC[NH2+]1)NC[C@@H](C(=O)OCCOCCOC(=O)c1ccc(-c2c3nc(c(-c4cc(S(=O)(=O)[O-])ccc4F)c4ccc([nH]4)c(-c4cc(S(=O)(=O)[O-])ccc4F)c4nc(c(-c5cc(S(=O)(=O)[O-])ccc5F)c5ccc2[nH]5)C=C4)C=C3)cc1)c1ccccc1
REMARK SMILES IDX 17 1 16 2 15 3 13 4 14 5 12 6 11 7 10 8 1 9 2 10 3 12 4 13
REMARK SMILES IDX 5 14 9 15 6 16 8 17 7 20 87 21 88 22 92 23 89 24 91 25 90 26
REMARK SMILES IDX 18 27 19 28 20 29 21 30 22 31 23 32 24 33 25 34 86 35 26 36
REMARK SMILES IDX 85 37 27 38 28 39 29 40 79 41 30 42 84 43 78 44 80 45 31 46
REMARK SMILES IDX 83 47 77 48 76 49 32 51 64 52 44 53 63 54 45 55 48 56 62 57
REMARK SMILES IDX 81 58 46 59 47 60 61 62 82 63 49 64 33 65 34 66 42 67 35 68
REMARK SMILES IDX 41 69 43 70 40 71 36 72 37 73 38 74 39 75 65 76 66 77 74 78
REMARK SMILES IDX 67 79 73 80 75 81 72 82 68 83 69 84 70 85 71 86 50 87 51 88
REMARK SMILES IDX 59 89 52 90 58 91 60 92 57 93 53 94 54 95 55 96 56 97
REMARK H PARENT 10 11 9 18 9 19 80 50 48 61
REMARK Flexibility Score: inf
ROOT
ATOM      1  C   UNL A   1      33.555  27.054  25.213  1.00  0.00     0.202 C 
ENDROOT
BRANCH   1   2
ATOM      2  C   UNL A   1      33.924  27.208  23.733  1.00  0.00     0.261 C 
BRANCH   2   3
ATOM      3  O   UNL A   1      32.770  26.996  22.900  1.00  0.00    -0.463 OA
BRANCH   3   4
ATOM      4  C   UNL A   1      32.829  25.917  22.070  1.00  0.00     0.315 C 
ATOM      5  O   UNL A   1      33.531  25.866  21.065  1.00  0.00    -0.251 OA
BRANCH   4   6
ATOM      6  C   UNL A   1      32.014  24.728  22.586  1.00  0.00     0.148 C 
BRANCH   6   7
ATOM      7  C   UNL A   1      30.809  25.120  23.465  1.00  0.00     0.136 C 
BRANCH   7   8
ATOM      8  N   UNL A   1      29.998  26.207  22.947  1.00  0.00    -0.355 N 
ATOM      9  O   UNL A   1      30.023  27.410  24.886  1.00  0.00    -0.275 OA
ATOM     10  C   UNL A   1      29.735  27.330  23.696  1.00  0.00     0.226 C 
ATOM     11  H   UNL A   1      29.627  26.139  22.039  1.00  0.00     0.163 HD
BRANCH  10  12
ATOM     12  C   UNL A   1      29.043  28.456  22.955  1.00  0.00     0.165 C 
BRANCH  12  13
ATOM     13  C   UNL A   1      29.840  29.777  22.936  1.00  0.00     0.201 C 
ATOM     14  C   UNL A   1      29.361  30.858  23.929  1.00  0.00     0.135 C 
ATOM     15  N   UNL A   1      29.991  30.326  21.568  1.00  0.00    -0.342 N 
ATOM     16  S   UNL A   1      27.722  31.525  23.524  1.00  0.00    -0.150 SA
ATOM     17  C   UNL A   1      28.744  30.873  21.007  1.00  0.00     0.271 C 
ATOM     18  H   UNL A   1      30.319  29.578  20.957  1.00  0.00     0.346 HD
ATOM     19  H   UNL A   1      30.653  31.098  21.631  1.00  0.00     0.346 HD
ATOM     20  C   UNL A   1      28.107  32.012  21.813  1.00  0.00     0.131 C 
ENDBRANCH  12  13
ENDBRANCH  10  12
ENDBRANCH   7   8
ENDBRANCH   6   7
BRANCH   6  21
ATOM     21  C   UNL A   1      32.877  23.695  23.330  1.00  0.00    -0.032 A 
ATOM     22  C   UNL A   1      34.239  23.488  23.050  1.00  0.00     0.004 A 
ATOM     23  C   UNL A   1      32.295  22.934  24.360  1.00  0.00     0.004 A 
ATOM     24  C   UNL A   1      34.989  22.554  23.773  1.00  0.00     0.000 A 
ATOM     25  C   UNL A   1      33.049  22.010  25.088  1.00  0.00     0.000 A 
ATOM     26  C   UNL A   1      34.395  21.819  24.795  1.00  0.00     0.000 A 
ENDBRANCH   6  21
ENDBRANCH   4   6
ENDBRANCH   3   4
ENDBRANCH   2   3
ENDBRANCH   1   2
BRANCH   1  27
ATOM     27  O   UNL A   1      33.356  28.263  25.946  1.00  0.00    -0.374 OA
BRANCH  27  28
ATOM     28  C   UNL A   1      32.620  29.309  25.317  1.00  0.00     0.202 C 
BRANCH  28  29
ATOM     29  C   UNL A   1      32.299  30.561  26.148  1.00  0.00     0.261 C 
BRANCH  29  30
ATOM     30  O   UNL A   1      32.985  30.607  27.414  1.00  0.00    -0.460 OA
BRANCH  30  31
ATOM     31  C   UNL A   1      33.793  31.687  27.570  1.00  0.00     0.338 C 
ATOM     32  O   UNL A   1      33.474  32.864  27.461  1.00  0.00    -0.246 OA
BRANCH  31  33
ATOM     33  C   UNL A   1      35.112  31.274  28.082  1.00  0.00     0.060 A 
ATOM     34  C   UNL A   1      35.283  29.931  28.434  1.00  0.00     0.016 A 
ATOM     35  C   UNL A   1      36.137  32.196  28.296  1.00  0.00     0.016 A 
ATOM     36  C   UNL A   1      36.470  29.510  29.030  1.00  0.00     0.010 A 
ATOM     37  C   UNL A   1      37.332  31.770  28.891  1.00  0.00     0.010 A 
ATOM     38  C   UNL A   1      37.494  30.431  29.291  1.00  0.00    -0.014 A 
BRANCH  38  39
ATOM     39  C   UNL A   1      38.660  30.015  30.113  1.00  0.00     0.031 A 
ATOM     40  C   UNL A   1      38.802  30.559  31.511  1.00  0.00     0.074 A 
ATOM     41  C   UNL A   1      39.556  29.127  29.641  1.00  0.00     0.049 A 
ATOM     42  N   UNL A   1      39.737  30.339  32.398  1.00  0.00    -0.248 NA
ATOM     43  C   UNL A   1      37.743  31.473  31.967  1.00  0.00     0.031 C 
ATOM     44  C   UNL A   1      39.503  28.497  28.322  1.00  0.00     0.029 A 
ATOM     45  N   UNL A   1      40.683  28.598  30.220  1.00  0.00    -0.354 N 
ATOM     46  C   UNL A   1      39.384  31.087  33.516  1.00  0.00     0.074 A 
ATOM     47  C   UNL A   1      38.170  31.799  33.177  1.00  0.00     0.031 C 
ATOM     48  C   UNL A   1      40.553  27.668  28.193  1.00  0.00     0.029 A 
ATOM     49  C   UNL A   1      41.371  27.733  29.401  1.00  0.00     0.049 A 
ATOM     50  H   UNL A   1      40.970  28.817  31.135  1.00  0.00     0.167 HD
ATOM     51  C   UNL A   1      40.005  31.163  34.720  1.00  0.00     0.034 A 
ATOM     52  C   UNL A   1      42.538  27.084  29.598  1.00  0.00     0.034 A 
ATOM     53  C   UNL A   1      41.218  30.453  35.046  1.00  0.00     0.049 A 
ATOM     54  C   UNL A   1      43.256  27.250  30.917  1.00  0.00     0.074 A 
ATOM     55  C   UNL A   1      41.923  30.451  36.237  1.00  0.00     0.029 A 
ATOM     56  N   UNL A   1      41.914  29.626  34.174  1.00  0.00    -0.354 N 
ATOM     57  N   UNL A   1      42.903  27.955  31.969  1.00  0.00    -0.248 NA
ATOM     58  C   UNL A   1      44.524  26.527  31.078  1.00  0.00     0.031 C 
ATOM     59  C   UNL A   1      43.078  29.681  36.064  1.00  0.00     0.029 A 
ATOM     60  C   UNL A   1      43.057  29.137  34.790  1.00  0.00     0.049 A 
ATOM     61  H   UNL A   1      41.637  29.418  33.252  1.00  0.00     0.167 HD
ATOM     62  C   UNL A   1      43.893  27.731  32.924  1.00  0.00     0.074 A 
ATOM     63  C   UNL A   1      44.844  26.815  32.331  1.00  0.00     0.031 C 
ATOM     64  C   UNL A   1      44.004  28.235  34.181  1.00  0.00     0.034 A 
BRANCH  51  65
ATOM     65  C   UNL A   1      39.404  32.085  35.753  1.00  0.00     0.023 A 
ATOM     66  C   UNL A   1      39.808  33.426  35.875  1.00  0.00     0.031 A 
ATOM     67  C   UNL A   1      38.426  31.609  36.645  1.00  0.00     0.131 A 
ATOM     68  C   UNL A   1      39.288  34.223  36.906  1.00  0.00     0.055 A 
ATOM     69  C   UNL A   1      37.856  32.429  37.620  1.00  0.00     0.041 A 
ATOM     70  F   UNL A   1      38.016  30.331  36.591  1.00  0.00    -0.206 F 
ATOM     71  C   UNL A   1      38.296  33.741  37.764  1.00  0.00     0.022 A 
BRANCH  68  72
ATOM     72  S   UNL A   1      40.020  35.858  37.193  1.00  0.00     0.124 S 
ATOM     73  O   UNL A   1      39.332  36.277  38.412  1.00  0.00    -0.237 OA
ATOM     74  O   UNL A   1      41.438  35.548  37.334  1.00  0.00    -0.237 OA
ATOM     75  O   UNL A   1      39.661  36.610  35.993  1.00  0.00    -0.744 OA
ENDBRANCH  68  72
ENDBRANCH  51  65
BRANCH  52  76
ATOM     76  C   UNL A   1      43.136  26.251  28.515  1.00  0.00     0.023 A 
ATOM     77  C   UNL A   1      44.150  26.752  27.683  1.00  0.00     0.031 A 
ATOM     78  C   UNL A   1      42.647  24.958  28.248  1.00  0.00     0.131 A 
ATOM     79  C   UNL A   1      44.605  25.989  26.596  1.00  0.00     0.055 A 
ATOM     80  C   UNL A   1      43.143  24.182  27.200  1.00  0.00     0.041 A 
ATOM     81  F   UNL A   1      41.676  24.429  29.012  1.00  0.00    -0.206 F 
ATOM     82  C   UNL A   1      44.117  24.703  26.356  1.00  0.00     0.022 A 
BRANCH  79  83
ATOM     83  S   UNL A   1      45.779  26.744  25.436  1.00  0.00     0.124 S 
ATOM     84  O   UNL A   1      46.855  27.159  26.331  1.00  0.00    -0.237 OA
ATOM     85  O   UNL A   1      46.080  25.630  24.545  1.00  0.00    -0.237 OA
ATOM     86  O   UNL A   1      45.010  27.832  24.836  1.00  0.00    -0.744 OA
ENDBRANCH  79  83
ENDBRANCH  52  76
BRANCH  64  87
ATOM     87  C   UNL A   1      45.179  27.766  35.006  1.00  0.00     0.023 A 
ATOM     88  C   UNL A   1      45.154  26.547  35.705  1.00  0.00     0.031 A 
ATOM     89  C   UNL A   1      46.335  28.561  35.108  1.00  0.00     0.131 A 
ATOM     90  C   UNL A   1      46.236  26.185  36.521  1.00  0.00     0.055 A 
ATOM     91  C   UNL A   1      47.434  28.167  35.872  1.00  0.00     0.041 A 
ATOM     92  F   UNL A   1      46.415  29.736  34.463  1.00  0.00    -0.206 F 
ATOM     93  C   UNL A   1      47.383  26.980  36.596  1.00  0.00     0.022 A 
BRANCH  90  94
ATOM     94  S   UNL A   1      46.087  24.705  37.561  1.00  0.00     0.124 S 
ATOM     95  O   UNL A   1      45.102  23.918  36.827  1.00  0.00    -0.237 OA
ATOM     96  O   UNL A   1      47.450  24.185  37.559  1.00  0.00    -0.237 OA
ATOM     97  O   UNL A   1      45.629  25.234  38.845  1.00  0.00    -0.744 OA
ENDBRANCH  90  94
ENDBRANCH  64  87
ENDBRANCH  38  39
ENDBRANCH  31  33
ENDBRANCH  30  31
ENDBRANCH  29  30
ENDBRANCH  28  29
ENDBRANCH  27  28
ENDBRANCH   1  27
TORSDOF 22
ENDMDL
MODEL 3
REMARK VINA RESULT:     -10.1      5.351      8.935
REMARK SMILES O=C(C[C@@H]1CSCC[NH2+]1)NC[C@@H](C(=O)OCCOCCOC(=O)c1ccc(-c2c3nc(c(-c4cc(S(=O)(=O)[O-])ccc4F)c4ccc([nH]4)c(-c4cc(S(=O)(=O)[O-])ccc4F)c4nc(c(-c5cc(S(=O)(=O)[O-])ccc5F)c5ccc2[nH]5)C=C4)C=C3)cc1)c1ccccc1
REMARK SMILES IDX 17 1 16 2 15 3 13 4 14 5 12 6 11 7 10 8 1 9 2 10 3 12 4 13
REMARK SMILES IDX 5 14 9 15 6 16 8 17 7 20 87 21 88 22 92 23 89 24 91 25 90 26
REMARK SMILES IDX 18 27 19 28 20 29 21 30 22 31 23 32 24 33 25 34 86 35 26 36
REMARK SMILES IDX 85 37 27 38 28 39 29 40 79 41 30 42 84 43 78 44 80 45 31 46
REMARK SMILES IDX 83 47 77 48 76 49 32 51 64 52 44 53 63 54 45 55 48 56 62 57
REMARK SMILES IDX 81 58 46 59 47 60 61 62 82 63 49 64 33 65 34 66 42 67 35 68
REMARK SMILES IDX 41 69 43 70 40 71 36 72 37 73 38 74 39 75 65 76 66 77 74 78
REMARK SMILES IDX 67 79 73 80 75 81 72 82 68 83 69 84 70 85 71 86 50 87 51 88
REMARK SMILES IDX 59 89 52 90 58 91 60 92 57 93 53 94 54 95 55 96 56 97
REMARK H PARENT 10 11 9 18 9 19 80 50 48 61
REMARK Flexibility Score: inf
ROOT
ATOM      1  C   UNL A   1      36.411  22.711  25.805  1.00  0.00     0.202 C 
ENDROOT
BRANCH   1   2
ATOM      2  C   UNL A   1      34.892  22.694  25.593  1.00  0.00     0.261 C 
BRANCH   2   3
ATOM      3  O   UNL A   1      34.539  21.778  24.542  1.00  0.00    -0.463 OA
BRANCH   3   4
ATOM      4  C   UNL A   1      33.474  22.142  23.773  1.00  0.00     0.315 C 
ATOM      5  O   UNL A   1      33.540  22.958  22.859  1.00  0.00    -0.251 OA
BRANCH   4   6
ATOM      6  C   UNL A   1      32.211  21.339  24.093  1.00  0.00     0.148 C 
BRANCH   6   7
ATOM      7  C   UNL A   1      31.472  21.803  25.365  1.00  0.00     0.136 C 
BRANCH   7   8
ATOM      8  N   UNL A   1      30.970  23.165  25.323  1.00  0.00    -0.355 N 
ATOM      9  O   UNL A   1      31.680  23.699  27.425  1.00  0.00    -0.275 OA
ATOM     10  C   UNL A   1      31.196  24.048  26.353  1.00  0.00     0.226 C 
ATOM     11  H   UNL A   1      30.457  23.464  24.539  1.00  0.00     0.163 HD
BRANCH  10  12
ATOM     12  C   UNL A   1      30.784  25.480  26.082  1.00  0.00     0.165 C 
BRANCH  12  13
ATOM     13  C   UNL A   1      31.849  26.525  26.474  1.00  0.00     0.201 C 
ATOM     14  C   UNL A   1      31.578  27.967  25.992  1.00  0.00     0.135 C 
ATOM     15  N   UNL A   1      33.222  26.088  26.130  1.00  0.00    -0.342 N 
ATOM     16  S   UNL A   1      31.673  28.148  24.188  1.00  0.00    -0.150 SA
ATOM     17  C   UNL A   1      33.504  26.096  24.685  1.00  0.00     0.271 C 
ATOM     18  H   UNL A   1      33.353  25.139  26.480  1.00  0.00     0.346 HD
ATOM     19  H   UNL A   1      33.861  26.755  26.562  1.00  0.00     0.346 HD
ATOM     20  C   UNL A   1      33.345  27.456  23.994  1.00  0.00     0.131 C 
ENDBRANCH  12  13
ENDBRANCH  10  12
ENDBRANCH   7   8
ENDBRANCH   6   7
BRANCH   6  21
ATOM     21  C   UNL A   1      32.474  19.826  24.176  1.00  0.00    -0.032 A 
ATOM     22  C   UNL A   1      32.604  19.006  23.042  1.00  0.00     0.004 A 
ATOM     23  C   UNL A   1      32.622  19.227  25.440  1.00  0.00     0.004 A 
ATOM     24  C   UNL A   1      32.870  17.639  23.169  1.00  0.00     0.000 A 
ATOM     25  C   UNL A   1      32.898  17.863  25.564  1.00  0.00     0.000 A 
ATOM     26  C   UNL A   1      33.021  17.068  24.429  1.00  0.00     0.000 A 
ENDBRANCH   6  21
ENDBRANCH   4   6
ENDBRANCH   3   4
ENDBRANCH   2   3
ENDBRANCH   1   2
BRANCH   1  27
ATOM     27  O   UNL A   1      37.112  21.512  25.469  1.00  0.00    -0.374 OA
BRANCH  27  28
ATOM     28  C   UNL A   1      38.512  21.464  25.736  1.00  0.00     0.202 C 
BRANCH  28  29
ATOM     29  C   UNL A   1      39.232  20.121  25.543  1.00  0.00     0.261 C 
BRANCH  29  30
ATOM     30  O   UNL A   1      40.210  19.837  26.562  1.00  0.00    -0.460 OA
BRANCH  30  31
ATOM     31  C   UNL A   1      41.497  19.896  26.132  1.00  0.00     0.338 C 
ATOM     32  O   UNL A   1      42.089  19.051  25.471  1.00  0.00    -0.246 OA
BRANCH  31  33
ATOM     33  C   UNL A   1      42.072  21.224  26.408  1.00  0.00     0.060 A 
ATOM     34  C   UNL A   1      42.298  21.570  27.745  1.00  0.00     0.016 A 
ATOM     35  C   UNL A   1      42.308  22.148  25.389  1.00  0.00     0.016 A 
ATOM     36  C   UNL A   1      42.732  22.854  28.070  1.00  0.00     0.010 A 
ATOM     37  C   UNL A   1      42.749  23.437  25.718  1.00  0.00     0.010 A 
ATOM     38  C   UNL A   1      42.933  23.808  27.063  1.00  0.00    -0.014 A 
BRANCH  38  39
ATOM     39  C   UNL A   1      43.189  25.224  27.436  1.00  0.00     0.031 A 
ATOM     40  C   UNL A   1      44.573  25.790  27.254  1.00  0.00     0.074 A 
ATOM     41  C   UNL A   1      42.193  26.010  27.885  1.00  0.00     0.049 A 
ATOM     42  N   UNL A   1      45.022  26.990  27.518  1.00  0.00    -0.248 NA
ATOM     43  C   UNL A   1      45.584  24.878  26.698  1.00  0.00     0.031 C 
ATOM     44  C   UNL A   1      40.802  25.590  28.063  1.00  0.00     0.029 A 
ATOM     45  N   UNL A   1      42.196  27.327  28.270  1.00  0.00    -0.354 N 
ATOM     46  C   UNL A   1      46.367  26.978  27.163  1.00  0.00     0.074 A 
ATOM     47  C   UNL A   1      46.668  25.639  26.704  1.00  0.00     0.031 C 
ATOM     48  C   UNL A   1      40.088  26.631  28.524  1.00  0.00     0.029 A 
ATOM     49  C   UNL A   1      40.972  27.779  28.708  1.00  0.00     0.049 A 
ATOM     50  H   UNL A   1      42.998  27.896  28.235  1.00  0.00     0.167 HD
ATOM     51  C   UNL A   1      47.266  27.994  27.201  1.00  0.00     0.034 A 
ATOM     52  C   UNL A   1      40.613  28.976  29.217  1.00  0.00     0.034 A 
ATOM     53  C   UNL A   1      46.956  29.325  27.666  1.00  0.00     0.049 A 
ATOM     54  C   UNL A   1      41.652  30.068  29.329  1.00  0.00     0.074 A 
ATOM     55  C   UNL A   1      47.788  30.430  27.736  1.00  0.00     0.029 A 
ATOM     56  N   UNL A   1      45.719  29.731  28.149  1.00  0.00    -0.354 N 
ATOM     57  N   UNL A   1      42.918  30.044  28.980  1.00  0.00    -0.248 NA
ATOM     58  C   UNL A   1      41.210  31.349  29.895  1.00  0.00     0.031 C 
ATOM     59  C   UNL A   1      47.076  31.481  28.325  1.00  0.00     0.029 A 
ATOM     60  C   UNL A   1      45.776  31.057  28.551  1.00  0.00     0.049 A 
ATOM     61  H   UNL A   1      44.919  29.160  28.201  1.00  0.00     0.167 HD
ATOM     62  C   UNL A   1      43.412  31.317  29.257  1.00  0.00     0.074 A 
ATOM     63  C   UNL A   1      42.305  32.087  29.784  1.00  0.00     0.031 C 
ATOM     64  C   UNL A   1      44.667  31.809  29.088  1.00  0.00     0.034 A 
BRANCH  51  65
ATOM     65  C   UNL A   1      48.680  27.686  26.773  1.00  0.00     0.023 A 
ATOM     66  C   UNL A   1      49.113  27.882  25.450  1.00  0.00     0.031 A 
ATOM     67  C   UNL A   1      49.603  27.166  27.697  1.00  0.00     0.131 A 
ATOM     68  C   UNL A   1      50.410  27.499  25.074  1.00  0.00     0.055 A 
ATOM     69  C   UNL A   1      50.916  26.858  27.335  1.00  0.00     0.041 A 
ATOM     70  F   UNL A   1      49.240  26.936  28.970  1.00  0.00    -0.206 F 
ATOM     71  C   UNL A   1      51.322  27.012  26.013  1.00  0.00     0.022 A 
BRANCH  68  72
ATOM     72  S   UNL A   1      50.846  27.524  23.313  1.00  0.00     0.124 S 
ATOM     73  O   UNL A   1      49.676  26.890  22.712  1.00  0.00    -0.237 OA
ATOM     74  O   UNL A   1      51.008  28.949  23.049  1.00  0.00    -0.237 OA
ATOM     75  O   UNL A   1      52.074  26.734  23.253  1.00  0.00    -0.744 OA
ENDBRANCH  68  72
ENDBRANCH  51  65
BRANCH  52  76
ATOM     76  C   UNL A   1      39.222  29.207  29.706  1.00  0.00     0.023 A 
ATOM     77  C   UNL A   1      38.298  29.949  28.953  1.00  0.00     0.031 A 
ATOM     78  C   UNL A   1      38.818  28.746  30.973  1.00  0.00     0.131 A 
ATOM     79  C   UNL A   1      37.038  30.253  29.494  1.00  0.00     0.055 A 
ATOM     80  C   UNL A   1      37.545  29.004  31.482  1.00  0.00     0.041 A 
ATOM     81  F   UNL A   1      39.662  28.031  31.736  1.00  0.00    -0.206 F 
ATOM     82  C   UNL A   1      36.651  29.775  30.748  1.00  0.00     0.022 A 
BRANCH  79  83
ATOM     83  S   UNL A   1      35.944  31.370  28.572  1.00  0.00     0.124 S 
ATOM     84  O   UNL A   1      36.775  32.563  28.448  1.00  0.00    -0.237 OA
ATOM     85  O   UNL A   1      35.713  30.618  27.344  1.00  0.00    -0.237 OA
ATOM     86  O   UNL A   1      34.783  31.505  29.448  1.00  0.00    -0.744 OA
ENDBRANCH  79  83
ENDBRANCH  52  76
BRANCH  64  87
ATOM     87  C   UNL A   1      44.889  33.260  29.441  1.00  0.00     0.023 A 
ATOM     88  C   UNL A   1      44.600  34.295  28.534  1.00  0.00     0.031 A 
ATOM     89  C   UNL A   1      45.413  33.611  30.698  1.00  0.00     0.131 A 
ATOM     90  C   UNL A   1      44.893  35.625  28.873  1.00  0.00     0.055 A 
ATOM     91  C   UNL A   1      45.644  34.941  31.054  1.00  0.00     0.041 A 
ATOM     92  F   UNL A   1      45.708  32.665  31.604  1.00  0.00    -0.206 F 
ATOM     93  C   UNL A   1      45.397  35.956  30.134  1.00  0.00     0.022 A 
BRANCH  90  94
ATOM     94  S   UNL A   1      44.695  36.910  27.609  1.00  0.00     0.124 S 
ATOM     95  O   UNL A   1      43.917  36.215  26.589  1.00  0.00    -0.237 OA
ATOM     96  O   UNL A   1      43.993  37.961  28.340  1.00  0.00    -0.237 OA
ATOM     97  O   UNL A   1      46.070  37.233  27.229  1.00  0.00    -0.744 OA
ENDBRANCH  90  94
ENDBRANCH  64  87
ENDBRANCH  38  39
ENDBRANCH  31  33
ENDBRANCH  30  31
ENDBRANCH  29  30
ENDBRANCH  28  29
ENDBRANCH  27  28
ENDBRANCH   1  27
TORSDOF 22
ENDMDL
