MODEL 1
REMARK VINA RESULT:     -11.4      0.000      0.000
REMARK SMILES COc1ccc(-n2c(SCc3cn(-c4ccc(C(=O)OCCOCCOC(=O)c5ccc(-c6c7nc(c(-c8cc(S(=O)(=O)[O-])ccc8F)c8ccc([nH]8)c(-c8cc(S(=O)(=O)[O-])ccc8F)c8nc(c(-c9cc(S(=O)(=O)[O-])ccc9F)c9ccc6[nH]9)C=C8)C=C7)cc5)cc4)nn3)nc3ccccc3c2=O)cc1
REMARK SMILES IDX 21 1 20 2 18 3 19 4 17 5 14 6 15 7 93 8 16 9 92 10 13 11
REMARK SMILES IDX 11 12 12 13 95 14 94 15 10 16 9 17 8 18 7 19 103 20 96 21
REMARK SMILES IDX 102 22 104 23 97 24 101 25 98 26 100 27 99 28 6 29 3 30 4 31
REMARK SMILES IDX 106 32 5 33 105 34 2 35 1 36 22 37 23 38 24 39 25 40 26 41
REMARK SMILES IDX 27 42 28 43 29 44 30 45 91 46 31 47 90 48 32 49 33 50 34 51
REMARK SMILES IDX 84 52 35 53 89 54 83 55 85 56 36 57 88 58 82 59 81 60 37 62
REMARK SMILES IDX 69 63 49 64 68 65 50 66 53 67 67 68 86 69 51 70 52 71 66 73
REMARK SMILES IDX 87 74 54 75 38 76 39 77 47 78 40 79 46 80 48 81 45 82 41 83
REMARK SMILES IDX 42 84 43 85 44 86 70 87 71 88 79 89 72 90 78 91 80 92 77 93
REMARK SMILES IDX 73 94 74 95 75 96 76 97 55 98 56 99 64 100 57 101 63 102
REMARK SMILES IDX 65 103 62 104 58 105 59 106 60 107 61 108
REMARK H PARENT 85 61 53 72
REMARK Flexibility Score: inf
ROOT
ATOM      1  C   UNL A   1      34.569  35.638  28.450  1.00  0.00     0.261 C 
ENDROOT
BRANCH   1   2
ATOM      2  O   UNL A   1      34.645  34.468  27.636  1.00  0.00    -0.460 OA
BRANCH   2   3
ATOM      3  C   UNL A   1      35.581  33.566  28.020  1.00  0.00     0.338 C 
ATOM      4  O   UNL A   1      36.652  33.774  28.548  1.00  0.00    -0.246 OA
BRANCH   3   5
ATOM      5  C   UNL A   1      35.010  32.221  27.840  1.00  0.00     0.060 A 
ATOM      6  C   UNL A   1      34.015  29.699  27.419  1.00  0.00     0.066 A 
ATOM      7  C   UNL A   1      35.388  29.848  27.626  1.00  0.00     0.029 A 
ATOM      8  C   UNL A   1      33.129  30.780  27.497  1.00  0.00     0.029 A 
ATOM      9  C   UNL A   1      35.890  31.128  27.806  1.00  0.00     0.018 A 
ATOM     10  C   UNL A   1      33.629  32.047  27.731  1.00  0.00     0.018 A 
BRANCH   6  11
ATOM     11  N   UNL A   1      33.504  28.455  27.056  1.00  0.00    -0.220 N 
ATOM     12  C   UNL A   1      33.179  26.540  26.119  1.00  0.00     0.093 A 
ATOM     13  C   UNL A   1      34.051  27.592  26.146  1.00  0.00     0.141 A 
ATOM     14  N   UNL A   1      32.166  26.785  27.007  1.00  0.00    -0.134 NA
ATOM     15  N   UNL A   1      32.421  27.915  27.636  1.00  0.00    -0.062 NA
BRANCH  12  16
ATOM     16  C   UNL A   1      33.291  25.302  25.338  1.00  0.00     0.138 C 
BRANCH  16  17
ATOM     17  S   UNL A   1      33.129  25.549  23.587  1.00  0.00    -0.081 SA
BRANCH  17  18
ATOM     18  C   UNL A   1      31.395  25.134  23.243  1.00  0.00     0.176 A 
ATOM     19  N   UNL A   1      30.534  25.562  24.239  1.00  0.00    -0.255 N 
ATOM     20  C   UNL A   1      30.267  24.641  25.245  1.00  0.00     0.266 A 
ATOM     21  N   UNL A   1      31.221  23.943  22.749  1.00  0.00    -0.223 NA
ATOM     22  C   UNL A   1      31.034  23.358  25.092  1.00  0.00     0.066 A 
ATOM     23  O   UNL A   1      29.530  24.807  26.211  1.00  0.00    -0.268 OA
ATOM     24  C   UNL A   1      31.416  23.005  23.782  1.00  0.00     0.079 A 
ATOM     25  C   UNL A   1      31.615  22.723  26.184  1.00  0.00     0.016 A 
ATOM     26  C   UNL A   1      32.298  21.951  23.559  1.00  0.00     0.029 A 
ATOM     27  C   UNL A   1      32.577  21.733  25.954  1.00  0.00     0.001 A 
ATOM     28  C   UNL A   1      32.898  21.331  24.651  1.00  0.00     0.002 A 
BRANCH  19  29
ATOM     29  C   UNL A   1      29.892  26.825  24.136  1.00  0.00     0.052 A 
ATOM     30  C   UNL A   1      28.826  29.240  23.181  1.00  0.00     0.119 A 
ATOM     31  C   UNL A   1      28.002  28.126  23.315  1.00  0.00     0.048 A 
ATOM     32  C   UNL A   1      30.138  29.189  23.655  1.00  0.00     0.048 A 
ATOM     33  C   UNL A   1      28.542  26.911  23.760  1.00  0.00     0.030 A 
ATOM     34  C   UNL A   1      30.659  27.992  24.168  1.00  0.00     0.030 A 
BRANCH  30  35
ATOM     35  O   UNL A   1      28.291  30.382  22.653  1.00  0.00    -0.497 OA
ATOM     36  C   UNL A   1      28.488  30.496  21.242  1.00  0.00     0.278 C 
ENDBRANCH  30  35
ENDBRANCH  19  29
ENDBRANCH  17  18
ENDBRANCH  16  17
ENDBRANCH  12  16
ENDBRANCH   6  11
ENDBRANCH   3   5
ENDBRANCH   2   3
ENDBRANCH   1   2
BRANCH   1  37
ATOM     37  C   UNL A   1      33.382  35.580  29.409  1.00  0.00     0.202 C 
BRANCH  37  38
ATOM     38  O   UNL A   1      32.925  36.806  29.978  1.00  0.00    -0.374 OA
BRANCH  38  39
ATOM     39  C   UNL A   1      32.874  36.959  31.394  1.00  0.00     0.202 C 
BRANCH  39  40
ATOM     40  C   UNL A   1      32.749  35.721  32.269  1.00  0.00     0.261 C 
BRANCH  40  41
ATOM     41  O   UNL A   1      34.011  35.173  32.615  1.00  0.00    -0.460 OA
BRANCH  41  42
ATOM     42  C   UNL A   1      34.013  33.818  32.643  1.00  0.00     0.338 C 
ATOM     43  O   UNL A   1      33.246  33.097  33.250  1.00  0.00    -0.246 OA
BRANCH  42  44
ATOM     44  C   UNL A   1      35.216  33.346  31.955  1.00  0.00     0.060 A 
ATOM     45  C   UNL A   1      35.229  31.994  31.609  1.00  0.00     0.016 A 
ATOM     46  C   UNL A   1      36.380  34.129  31.966  1.00  0.00     0.016 A 
ATOM     47  C   UNL A   1      36.448  31.367  31.507  1.00  0.00     0.010 A 
ATOM     48  C   UNL A   1      37.594  33.496  31.884  1.00  0.00     0.010 A 
ATOM     49  C   UNL A   1      37.610  32.112  31.744  1.00  0.00    -0.014 A 
BRANCH  49  50
ATOM     50  C   UNL A   1      38.887  31.441  31.633  1.00  0.00     0.031 A 
ATOM     51  C   UNL A   1      39.546  31.366  32.953  1.00  0.00     0.074 A 
ATOM     52  C   UNL A   1      39.336  30.878  30.495  1.00  0.00     0.049 A 
ATOM     53  N   UNL A   1      40.540  32.087  33.351  1.00  0.00    -0.248 NA
ATOM     54  C   UNL A   1      38.866  30.639  34.040  1.00  0.00     0.031 C 
ATOM     55  C   UNL A   1      38.650  30.758  29.208  1.00  0.00     0.029 A 
ATOM     56  N   UNL A   1      40.498  30.207  30.274  1.00  0.00    -0.354 N 
ATOM     57  C   UNL A   1      40.798  31.655  34.642  1.00  0.00     0.074 A 
ATOM     58  C   UNL A   1      39.596  31.012  35.092  1.00  0.00     0.031 C 
ATOM     59  C   UNL A   1      39.308  29.864  28.430  1.00  0.00     0.029 A 
ATOM     60  C   UNL A   1      40.515  29.427  29.117  1.00  0.00     0.049 A 
ATOM     61  H   UNL A   1      41.268  30.266  30.885  1.00  0.00     0.167 HD
ATOM     62  C   UNL A   1      42.082  31.550  35.076  1.00  0.00     0.034 A 
ATOM     63  C   UNL A   1      41.422  28.459  28.794  1.00  0.00     0.034 A 
ATOM     64  C   UNL A   1      42.970  32.334  34.237  1.00  0.00     0.049 A 
ATOM     65  C   UNL A   1      42.650  28.756  29.580  1.00  0.00     0.074 A 
ATOM     66  C   UNL A   1      43.003  33.663  33.851  1.00  0.00     0.029 A 
ATOM     67  N   UNL A   1      43.758  31.666  33.324  1.00  0.00    -0.354 N 
ATOM     68  N   UNL A   1      43.380  29.816  29.367  1.00  0.00    -0.248 NA
ATOM     69  C   UNL A   1      42.755  28.199  30.924  1.00  0.00     0.031 C 
ATOM     70  C   UNL A   1      43.376  33.639  32.475  1.00  0.00     0.029 A 
ATOM     71  C   UNL A   1      43.661  32.319  32.119  1.00  0.00     0.049 A 
ATOM     72  H   UNL A   1      44.296  30.861  33.504  1.00  0.00     0.167 HD
ATOM     73  C   UNL A   1      43.652  30.324  30.629  1.00  0.00     0.074 A 
ATOM     74  C   UNL A   1      43.319  29.237  31.553  1.00  0.00     0.031 C 
ATOM     75  C   UNL A   1      43.815  31.667  30.831  1.00  0.00     0.034 A 
BRANCH  62  76
ATOM     76  C   UNL A   1      42.582  30.410  35.935  1.00  0.00     0.023 A 
ATOM     77  C   UNL A   1      43.431  30.759  36.998  1.00  0.00     0.031 A 
ATOM     78  C   UNL A   1      42.546  29.033  35.605  1.00  0.00     0.131 A 
ATOM     79  C   UNL A   1      44.289  29.809  37.575  1.00  0.00     0.055 A 
ATOM     80  C   UNL A   1      43.351  28.080  36.231  1.00  0.00     0.041 A 
ATOM     81  F   UNL A   1      41.809  28.533  34.608  1.00  0.00    -0.206 F 
ATOM     82  C   UNL A   1      44.258  28.471  37.196  1.00  0.00     0.022 A 
BRANCH  79  83
ATOM     83  S   UNL A   1      45.581  30.406  38.688  1.00  0.00     0.124 S 
ATOM     84  O   UNL A   1      44.834  31.347  39.515  1.00  0.00    -0.237 OA
ATOM     85  O   UNL A   1      46.007  29.172  39.337  1.00  0.00    -0.237 OA
ATOM     86  O   UNL A   1      46.556  31.004  37.780  1.00  0.00    -0.744 OA
ENDBRANCH  79  83
ENDBRANCH  62  76
BRANCH  63  87
ATOM     87  C   UNL A   1      41.170  27.142  28.122  1.00  0.00     0.023 A 
ATOM     88  C   UNL A   1      42.186  26.359  27.518  1.00  0.00     0.031 A 
ATOM     89  C   UNL A   1      39.918  26.506  28.292  1.00  0.00     0.131 A 
ATOM     90  C   UNL A   1      41.927  25.019  27.122  1.00  0.00     0.055 A 
ATOM     91  C   UNL A   1      39.670  25.187  27.902  1.00  0.00     0.041 A 
ATOM     92  F   UNL A   1      38.906  27.114  28.928  1.00  0.00    -0.206 F 
ATOM     93  C   UNL A   1      40.677  24.434  27.326  1.00  0.00     0.022 A 
BRANCH  90  94
ATOM     94  S   UNL A   1      43.239  23.963  26.410  1.00  0.00     0.124 S 
ATOM     95  O   UNL A   1      42.876  23.922  24.998  1.00  0.00    -0.237 OA
ATOM     96  O   UNL A   1      44.455  24.693  26.749  1.00  0.00    -0.237 OA
ATOM     97  O   UNL A   1      43.079  22.692  27.118  1.00  0.00    -0.744 OA
ENDBRANCH  90  94
ENDBRANCH  63  87
BRANCH  75  98
ATOM     98  C   UNL A   1      43.983  32.565  29.618  1.00  0.00     0.023 A 
ATOM     99  C   UNL A   1      43.186  33.695  29.318  1.00  0.00     0.031 A 
ATOM    100  C   UNL A   1      45.081  32.307  28.778  1.00  0.00     0.131 A 
ATOM    101  C   UNL A   1      43.493  34.501  28.202  1.00  0.00     0.055 A 
ATOM    102  C   UNL A   1      45.398  33.121  27.693  1.00  0.00     0.041 A 
ATOM    103  F   UNL A   1      45.894  31.266  29.022  1.00  0.00    -0.206 F 
ATOM    104  C   UNL A   1      44.598  34.217  27.394  1.00  0.00     0.022 A 
BRANCH 101 105
ATOM    105  S   UNL A   1      42.439  35.921  27.755  1.00  0.00     0.124 S 
ATOM    106  O   UNL A   1      42.583  36.823  28.892  1.00  0.00    -0.237 OA
ATOM    107  O   UNL A   1      43.033  36.373  26.501  1.00  0.00    -0.237 OA
ATOM    108  O   UNL A   1      41.108  35.325  27.616  1.00  0.00    -0.744 OA
ENDBRANCH 101 105
ENDBRANCH  75  98
ENDBRANCH  49  50
ENDBRANCH  42  44
ENDBRANCH  41  42
ENDBRANCH  40  41
ENDBRANCH  39  40
ENDBRANCH  38  39
ENDBRANCH  37  38
ENDBRANCH   1  37
TORSDOF 23
ENDMDL
MODEL 2
REMARK VINA RESULT:     -11.3      3.000      4.919
REMARK SMILES COc1ccc(-n2c(SCc3cn(-c4ccc(C(=O)OCCOCCOC(=O)c5ccc(-c6c7nc(c(-c8cc(S(=O)(=O)[O-])ccc8F)c8ccc([nH]8)c(-c8cc(S(=O)(=O)[O-])ccc8F)c8nc(c(-c9cc(S(=O)(=O)[O-])ccc9F)c9ccc6[nH]9)C=C8)C=C7)cc5)cc4)nn3)nc3ccccc3c2=O)cc1
REMARK SMILES IDX 21 1 20 2 18 3 19 4 17 5 14 6 15 7 93 8 16 9 92 10 13 11
REMARK SMILES IDX 11 12 12 13 95 14 94 15 10 16 9 17 8 18 7 19 103 20 96 21
REMARK SMILES IDX 102 22 104 23 97 24 101 25 98 26 100 27 99 28 6 29 3 30 4 31
REMARK SMILES IDX 106 32 5 33 105 34 2 35 1 36 22 37 23 38 24 39 25 40 26 41
REMARK SMILES IDX 27 42 28 43 29 44 30 45 91 46 31 47 90 48 32 49 33 50 34 51
REMARK SMILES IDX 84 52 35 53 89 54 83 55 85 56 36 57 88 58 82 59 81 60 37 62
REMARK SMILES IDX 69 63 49 64 68 65 50 66 53 67 67 68 86 69 51 70 52 71 66 73
REMARK SMILES IDX 87 74 54 75 38 76 39 77 47 78 40 79 46 80 48 81 45 82 41 83
REMARK SMILES IDX 42 84 43 85 44 86 70 87 71 88 79 89 72 90 78 91 80 92 77 93
REMARK SMILES IDX 73 94 74 95 75 96 76 97 55 98 56 99 64 100 57 101 63 102
REMARK SMILES IDX 65 103 62 104 58 105 59 106 60 107 61 108
REMARK H PARENT 85 61 53 72
REMARK Flexibility Score: inf
ROOT
ATOM      1  C   UNL A   1      33.661  35.656  31.250  1.00  0.00     0.261 C 
ENDROOT
BRANCH   1   2
ATOM      2  O   UNL A   1      34.324  34.901  30.236  1.00  0.00    -0.460 OA
BRANCH   2   3
ATOM      3  C   UNL A   1      33.830  35.069  28.985  1.00  0.00     0.338 C 
ATOM      4  O   UNL A   1      33.685  36.102  28.368  1.00  0.00    -0.246 OA
BRANCH   3   5
ATOM      5  C   UNL A   1      33.634  33.734  28.396  1.00  0.00     0.060 A 
ATOM      6  C   UNL A   1      33.372  31.254  27.253  1.00  0.00     0.066 A 
ATOM      7  C   UNL A   1      34.459  31.487  28.098  1.00  0.00     0.029 A 
ATOM      8  C   UNL A   1      32.379  32.216  27.036  1.00  0.00     0.029 A 
ATOM      9  C   UNL A   1      34.604  32.752  28.647  1.00  0.00     0.018 A 
ATOM     10  C   UNL A   1      32.501  33.458  27.629  1.00  0.00     0.018 A 
BRANCH   6  11
ATOM     11  N   UNL A   1      33.294  30.057  26.544  1.00  0.00    -0.220 N 
ATOM     12  C   UNL A   1      33.268  27.973  25.991  1.00  0.00     0.093 A 
ATOM     13  C   UNL A   1      33.360  28.799  27.076  1.00  0.00     0.141 A 
ATOM     14  N   UNL A   1      33.133  28.740  24.865  1.00  0.00    -0.134 NA
ATOM     15  N   UNL A   1      33.062  30.007  25.223  1.00  0.00    -0.062 NA
BRANCH  12  16
ATOM     16  C   UNL A   1      33.248  26.505  25.979  1.00  0.00     0.138 C 
BRANCH  16  17
ATOM     17  S   UNL A   1      31.697  25.811  26.493  1.00  0.00    -0.081 SA
BRANCH  17  18
ATOM     18  C   UNL A   1      31.465  24.386  25.392  1.00  0.00     0.176 A 
ATOM     19  N   UNL A   1      32.596  24.092  24.651  1.00  0.00    -0.255 N 
ATOM     20  C   UNL A   1      32.675  24.696  23.401  1.00  0.00     0.266 A 
ATOM     21  N   UNL A   1      30.312  24.362  24.790  1.00  0.00    -0.223 NA
ATOM     22  C   UNL A   1      31.527  25.624  23.118  1.00  0.00     0.066 A 
ATOM     23  O   UNL A   1      33.579  24.567  22.582  1.00  0.00    -0.268 OA
ATOM     24  C   UNL A   1      30.317  25.350  23.786  1.00  0.00     0.079 A 
ATOM     25  C   UNL A   1      31.722  26.856  22.502  1.00  0.00     0.016 A 
ATOM     26  C   UNL A   1      29.264  26.261  23.752  1.00  0.00     0.029 A 
ATOM     27  C   UNL A   1      30.696  27.807  22.559  1.00  0.00     0.001 A 
ATOM     28  C   UNL A   1      29.466  27.503  23.156  1.00  0.00     0.002 A 
BRANCH  19  29
ATOM     29  C   UNL A   1      33.533  23.136  25.124  1.00  0.00     0.052 A 
ATOM     30  C   UNL A   1      35.822  21.550  25.486  1.00  0.00     0.119 A 
ATOM     31  C   UNL A   1      35.640  22.690  26.265  1.00  0.00     0.048 A 
ATOM     32  C   UNL A   1      34.802  21.128  24.632  1.00  0.00     0.048 A 
ATOM     33  C   UNL A   1      34.513  23.499  26.061  1.00  0.00     0.030 A 
ATOM     34  C   UNL A   1      33.641  21.900  24.480  1.00  0.00     0.030 A 
BRANCH  30  35
ATOM     35  O   UNL A   1      36.977  20.836  25.642  1.00  0.00    -0.497 OA
ATOM     36  C   UNL A   1      38.143  21.555  25.233  1.00  0.00     0.278 C 
ENDBRANCH  30  35
ENDBRANCH  19  29
ENDBRANCH  17  18
ENDBRANCH  16  17
ENDBRANCH  12  16
ENDBRANCH   6  11
ENDBRANCH   3   5
ENDBRANCH   2   3
ENDBRANCH   1   2
BRANCH   1  37
ATOM     37  C   UNL A   1      34.390  35.561  32.589  1.00  0.00     0.202 C 
BRANCH  37  38
ATOM     38  O   UNL A   1      34.257  34.353  33.336  1.00  0.00    -0.374 OA
BRANCH  38  39
ATOM     39  C   UNL A   1      34.389  33.093  32.684  1.00  0.00     0.202 C 
BRANCH  39  40
ATOM     40  C   UNL A   1      35.714  32.349  32.770  1.00  0.00     0.261 C 
BRANCH  40  41
ATOM     41  O   UNL A   1      36.062  31.723  31.546  1.00  0.00    -0.460 OA
BRANCH  41  42
ATOM     42  C   UNL A   1      37.296  32.068  31.104  1.00  0.00     0.338 C 
ATOM     43  O   UNL A   1      37.571  32.948  30.313  1.00  0.00    -0.246 OA
BRANCH  42  44
ATOM     44  C   UNL A   1      38.255  31.080  31.603  1.00  0.00     0.060 A 
ATOM     45  C   UNL A   1      39.533  31.562  31.888  1.00  0.00     0.016 A 
ATOM     46  C   UNL A   1      37.983  29.711  31.466  1.00  0.00     0.016 A 
ATOM     47  C   UNL A   1      40.587  30.685  31.799  1.00  0.00     0.010 A 
ATOM     48  C   UNL A   1      39.039  28.842  31.358  1.00  0.00     0.010 A 
ATOM     49  C   UNL A   1      40.330  29.357  31.438  1.00  0.00    -0.014 A 
BRANCH  49  50
ATOM     50  C   UNL A   1      41.447  28.443  31.347  1.00  0.00     0.031 A 
ATOM     51  C   UNL A   1      41.911  28.060  32.696  1.00  0.00     0.074 A 
ATOM     52  C   UNL A   1      41.907  27.943  30.184  1.00  0.00     0.049 A 
ATOM     53  N   UNL A   1      42.974  28.490  33.288  1.00  0.00    -0.248 NA
ATOM     54  C   UNL A   1      40.969  27.369  33.596  1.00  0.00     0.031 C 
ATOM     55  C   UNL A   1      41.374  28.139  28.835  1.00  0.00     0.029 A 
ATOM     56  N   UNL A   1      42.926  27.067  29.974  1.00  0.00    -0.354 N 
ATOM     57  C   UNL A   1      42.980  27.854  34.519  1.00  0.00     0.074 A 
ATOM     58  C   UNL A   1      41.626  27.438  34.755  1.00  0.00     0.031 C 
ATOM     59  C   UNL A   1      41.926  27.227  27.998  1.00  0.00     0.029 A 
ATOM     60  C   UNL A   1      42.925  26.454  28.721  1.00  0.00     0.049 A 
ATOM     61  H   UNL A   1      43.612  26.879  30.656  1.00  0.00     0.167 HD
ATOM     62  C   UNL A   1      44.153  27.417  35.048  1.00  0.00     0.034 A 
ATOM     63  C   UNL A   1      43.649  25.359  28.343  1.00  0.00     0.034 A 
ATOM     64  C   UNL A   1      45.277  28.087  34.421  1.00  0.00     0.049 A 
ATOM     65  C   UNL A   1      44.807  25.280  29.274  1.00  0.00     0.074 A 
ATOM     66  C   UNL A   1      45.626  29.414  34.243  1.00  0.00     0.029 A 
ATOM     67  N   UNL A   1      46.018  27.382  33.496  1.00  0.00    -0.354 N 
ATOM     68  N   UNL A   1      45.758  26.173  29.291  1.00  0.00    -0.248 NA
ATOM     69  C   UNL A   1      44.630  24.549  30.525  1.00  0.00     0.031 C 
ATOM     70  C   UNL A   1      46.152  29.482  32.919  1.00  0.00     0.029 A 
ATOM     71  C   UNL A   1      46.203  28.188  32.399  1.00  0.00     0.049 A 
ATOM     72  H   UNL A   1      46.355  26.463  33.604  1.00  0.00     0.167 HD
ATOM     73  C   UNL A   1      45.970  26.446  30.634  1.00  0.00     0.074 A 
ATOM     74  C   UNL A   1      45.313  25.351  31.350  1.00  0.00     0.031 C 
ATOM     75  C   UNL A   1      46.378  27.684  31.047  1.00  0.00     0.034 A 
BRANCH  62  76
ATOM     76  C   UNL A   1      44.301  26.096  35.771  1.00  0.00     0.023 A 
ATOM     77  C   UNL A   1      45.017  26.126  36.979  1.00  0.00     0.031 A 
ATOM     78  C   UNL A   1      44.077  24.810  35.222  1.00  0.00     0.131 A 
ATOM     79  C   UNL A   1      45.592  24.957  37.503  1.00  0.00     0.055 A 
ATOM     80  C   UNL A   1      44.592  23.642  35.787  1.00  0.00     0.041 A 
ATOM     81  F   UNL A   1      43.433  24.602  34.069  1.00  0.00    -0.206 F 
ATOM     82  C   UNL A   1      45.388  23.714  36.913  1.00  0.00     0.022 A 
BRANCH  79  83
ATOM     83  S   UNL A   1      46.773  25.134  38.858  1.00  0.00     0.124 S 
ATOM     84  O   UNL A   1      47.922  24.405  38.332  1.00  0.00    -0.237 OA
ATOM     85  O   UNL A   1      46.912  26.583  38.945  1.00  0.00    -0.237 OA
ATOM     86  O   UNL A   1      46.090  24.503  39.983  1.00  0.00    -0.744 OA
ENDBRANCH  79  83
ENDBRANCH  62  76
BRANCH  63  87
ATOM     87  C   UNL A   1      43.218  24.225  27.462  1.00  0.00     0.023 A 
ATOM     88  C   UNL A   1      44.058  23.616  26.495  1.00  0.00     0.031 A 
ATOM     89  C   UNL A   1      42.010  23.547  27.746  1.00  0.00     0.131 A 
ATOM     90  C   UNL A   1      43.678  22.396  25.874  1.00  0.00     0.055 A 
ATOM     91  C   UNL A   1      41.642  22.347  27.132  1.00  0.00     0.041 A 
ATOM     92  F   UNL A   1      41.175  23.980  28.703  1.00  0.00    -0.206 F 
ATOM     93  C   UNL A   1      42.479  21.760  26.202  1.00  0.00     0.022 A 
BRANCH  90  94
ATOM     94  S   UNL A   1      44.775  21.549  24.680  1.00  0.00     0.124 S 
ATOM     95  O   UNL A   1      44.075  20.290  24.452  1.00  0.00    -0.237 OA
ATOM     96  O   UNL A   1      44.813  22.485  23.563  1.00  0.00    -0.237 OA
ATOM     97  O   UNL A   1      46.039  21.422  25.408  1.00  0.00    -0.744 OA
ENDBRANCH  90  94
ENDBRANCH  63  87
BRANCH  75  98
ATOM     98  C   UNL A   1      46.872  28.670  30.002  1.00  0.00     0.023 A 
ATOM     99  C   UNL A   1      46.053  29.377  29.090  1.00  0.00     0.031 A 
ATOM    100  C   UNL A   1      48.245  28.974  30.010  1.00  0.00     0.131 A 
ATOM    101  C   UNL A   1      46.623  30.329  28.219  1.00  0.00     0.055 A 
ATOM    102  C   UNL A   1      48.800  29.935  29.168  1.00  0.00     0.041 A 
ATOM    103  F   UNL A   1      49.074  28.359  30.869  1.00  0.00    -0.206 F 
ATOM    104  C   UNL A   1      47.992  30.610  28.261  1.00  0.00     0.022 A 
BRANCH 101 105
ATOM    105  S   UNL A   1      45.600  31.200  26.987  1.00  0.00     0.124 S 
ATOM    106  O   UNL A   1      45.997  32.595  27.139  1.00  0.00    -0.237 OA
ATOM    107  O   UNL A   1      45.993  30.557  25.737  1.00  0.00    -0.237 OA
ATOM    108  O   UNL A   1      44.230  30.907  27.415  1.00  0.00    -0.744 OA
ENDBRANCH 101 105
ENDBRANCH  75  98
ENDBRANCH  49  50
ENDBRANCH  42  44
ENDBRANCH  41  42
ENDBRANCH  40  41
ENDBRANCH  39  40
ENDBRANCH  38  39
ENDBRANCH  37  38
ENDBRANCH   1  37
TORSDOF 23
ENDMDL
MODEL 3
REMARK VINA RESULT:     -11.0      1.816      3.540
REMARK SMILES COc1ccc(-n2c(SCc3cn(-c4ccc(C(=O)OCCOCCOC(=O)c5ccc(-c6c7nc(c(-c8cc(S(=O)(=O)[O-])ccc8F)c8ccc([nH]8)c(-c8cc(S(=O)(=O)[O-])ccc8F)c8nc(c(-c9cc(S(=O)(=O)[O-])ccc9F)c9ccc6[nH]9)C=C8)C=C7)cc5)cc4)nn3)nc3ccccc3c2=O)cc1
REMARK SMILES IDX 21 1 20 2 18 3 19 4 17 5 14 6 15 7 93 8 16 9 92 10 13 11
REMARK SMILES IDX 11 12 12 13 95 14 94 15 10 16 9 17 8 18 7 19 103 20 96 21
REMARK SMILES IDX 102 22 104 23 97 24 101 25 98 26 100 27 99 28 6 29 3 30 4 31
REMARK SMILES IDX 106 32 5 33 105 34 2 35 1 36 22 37 23 38 24 39 25 40 26 41
REMARK SMILES IDX 27 42 28 43 29 44 30 45 91 46 31 47 90 48 32 49 33 50 34 51
REMARK SMILES IDX 84 52 35 53 89 54 83 55 85 56 36 57 88 58 82 59 81 60 37 62
REMARK SMILES IDX 69 63 49 64 68 65 50 66 53 67 67 68 86 69 51 70 52 71 66 73
REMARK SMILES IDX 87 74 54 75 38 76 39 77 47 78 40 79 46 80 48 81 45 82 41 83
REMARK SMILES IDX 42 84 43 85 44 86 70 87 71 88 79 89 72 90 78 91 80 92 77 93
REMARK SMILES IDX 73 94 74 95 75 96 76 97 55 98 56 99 64 100 57 101 63 102
REMARK SMILES IDX 65 103 62 104 58 105 59 106 60 107 61 108
REMARK H PARENT 85 61 53 72
REMARK Flexibility Score: inf
ROOT
ATOM      1  C   UNL A   1      34.591  34.193  28.535  1.00  0.00     0.261 C 
ENDROOT
BRANCH   1   2
ATOM      2  O   UNL A   1      34.078  33.025  27.894  1.00  0.00    -0.460 OA
BRANCH   2   3
ATOM      3  C   UNL A   1      34.961  32.003  27.778  1.00  0.00     0.338 C 
ATOM      4  O   UNL A   1      36.161  32.025  27.951  1.00  0.00    -0.246 OA
BRANCH   3   5
ATOM      5  C   UNL A   1      34.192  30.767  27.558  1.00  0.00     0.060 A 
ATOM      6  C   UNL A   1      32.823  28.443  27.059  1.00  0.00     0.066 A 
ATOM      7  C   UNL A   1      34.209  28.378  27.226  1.00  0.00     0.029 A 
ATOM      8  C   UNL A   1      32.110  29.636  27.215  1.00  0.00     0.029 A 
ATOM      9  C   UNL A   1      34.899  29.561  27.446  1.00  0.00     0.018 A 
ATOM     10  C   UNL A   1      32.799  30.803  27.488  1.00  0.00     0.018 A 
BRANCH   6  11
ATOM     11  N   UNL A   1      32.124  27.306  26.659  1.00  0.00    -0.220 N 
ATOM     12  C   UNL A   1      31.596  25.342  25.943  1.00  0.00     0.093 A 
ATOM     13  C   UNL A   1      32.675  26.120  26.256  1.00  0.00     0.141 A 
ATOM     14  N   UNL A   1      30.453  26.058  26.179  1.00  0.00    -0.134 NA
ATOM     15  N   UNL A   1      30.785  27.223  26.698  1.00  0.00    -0.062 NA
BRANCH  12  16
ATOM     16  C   UNL A   1      31.599  23.946  25.487  1.00  0.00     0.138 C 
BRANCH  16  17
ATOM     17  S   UNL A   1      30.837  23.715  23.900  1.00  0.00    -0.081 SA
BRANCH  17  18
ATOM     18  C   UNL A   1      32.128  22.917  22.904  1.00  0.00     0.176 A 
ATOM     19  N   UNL A   1      33.226  22.535  23.656  1.00  0.00    -0.255 N 
ATOM     20  C   UNL A   1      34.254  23.466  23.743  1.00  0.00     0.266 A 
ATOM     21  N   UNL A   1      32.340  23.487  21.753  1.00  0.00    -0.223 NA
ATOM     22  C   UNL A   1      33.941  24.761  23.049  1.00  0.00     0.066 A 
ATOM     23  O   UNL A   1      35.314  23.331  24.346  1.00  0.00    -0.268 OA
ATOM     24  C   UNL A   1      33.026  24.697  21.979  1.00  0.00     0.079 A 
ATOM     25  C   UNL A   1      34.268  25.988  23.616  1.00  0.00     0.016 A 
ATOM     26  C   UNL A   1      32.517  25.860  21.408  1.00  0.00     0.029 A 
ATOM     27  C   UNL A   1      33.674  27.147  23.101  1.00  0.00     0.001 A 
ATOM     28  C   UNL A   1      32.825  27.087  21.989  1.00  0.00     0.002 A 
BRANCH  19  29
ATOM     29  C   UNL A   1      33.307  21.220  24.186  1.00  0.00     0.052 A 
ATOM     30  C   UNL A   1      32.739  18.788  25.468  1.00  0.00     0.119 A 
ATOM     31  C   UNL A   1      32.564  18.901  24.091  1.00  0.00     0.048 A 
ATOM     32  C   UNL A   1      33.327  19.836  26.177  1.00  0.00     0.048 A 
ATOM     33  C   UNL A   1      32.817  20.125  23.456  1.00  0.00     0.030 A 
ATOM     34  C   UNL A   1      33.646  21.038  25.529  1.00  0.00     0.030 A 
BRANCH  30  35
ATOM     35  O   UNL A   1      32.393  17.610  26.071  1.00  0.00    -0.497 OA
ATOM     36  C   UNL A   1      32.704  16.460  25.281  1.00  0.00     0.278 C 
ENDBRANCH  30  35
ENDBRANCH  19  29
ENDBRANCH  17  18
ENDBRANCH  16  17
ENDBRANCH  12  16
ENDBRANCH   6  11
ENDBRANCH   3   5
ENDBRANCH   2   3
ENDBRANCH   1   2
BRANCH   1  37
ATOM     37  C   UNL A   1      33.812  34.527  29.805  1.00  0.00     0.202 C 
BRANCH  37  38
ATOM     38  O   UNL A   1      33.098  35.762  29.843  1.00  0.00    -0.374 OA
BRANCH  38  39
ATOM     39  C   UNL A   1      32.971  36.473  31.072  1.00  0.00     0.202 C 
BRANCH  39  40
ATOM     40  C   UNL A   1      33.326  35.772  32.375  1.00  0.00     0.261 C 
BRANCH  40  41
ATOM     41  O   UNL A   1      34.722  35.769  32.623  1.00  0.00    -0.460 OA
BRANCH  41  42
ATOM     42  C   UNL A   1      35.129  34.704  33.356  1.00  0.00     0.338 C 
ATOM     43  O   UNL A   1      34.823  34.443  34.503  1.00  0.00    -0.246 OA
BRANCH  42  44
ATOM     44  C   UNL A   1      36.159  33.990  32.597  1.00  0.00     0.060 A 
ATOM     45  C   UNL A   1      35.976  32.613  32.470  1.00  0.00     0.016 A 
ATOM     46  C   UNL A   1      37.387  34.612  32.330  1.00  0.00     0.016 A 
ATOM     47  C   UNL A   1      37.092  31.827  32.306  1.00  0.00     0.010 A 
ATOM     48  C   UNL A   1      38.501  33.825  32.187  1.00  0.00     0.010 A 
ATOM     49  C   UNL A   1      38.349  32.443  32.266  1.00  0.00    -0.014 A 
BRANCH  49  50
ATOM     50  C   UNL A   1      39.516  31.607  32.093  1.00  0.00     0.031 A 
ATOM     51  C   UNL A   1      40.216  31.426  33.381  1.00  0.00     0.074 A 
ATOM     52  C   UNL A   1      39.833  31.003  30.931  1.00  0.00     0.049 A 
ATOM     53  N   UNL A   1      41.315  31.999  33.739  1.00  0.00    -0.248 NA
ATOM     54  C   UNL A   1      39.490  30.784  34.493  1.00  0.00     0.031 C 
ATOM     55  C   UNL A   1      39.082  30.995  29.676  1.00  0.00     0.029 A 
ATOM     56  N   UNL A   1      40.882  30.183  30.654  1.00  0.00    -0.354 N 
ATOM     57  C   UNL A   1      41.568  31.519  35.014  1.00  0.00     0.074 A 
ATOM     58  C   UNL A   1      40.311  31.040  35.513  1.00  0.00     0.031 C 
ATOM     59  C   UNL A   1      39.577  30.029  28.863  1.00  0.00     0.029 A 
ATOM     60  C   UNL A   1      40.742  29.423  29.492  1.00  0.00     0.049 A 
ATOM     61  H   UNL A   1      41.679  30.129  31.229  1.00  0.00     0.167 HD
ATOM     62  C   UNL A   1      42.844  31.235  35.388  1.00  0.00     0.034 A 
ATOM     63  C   UNL A   1      41.494  28.345  29.121  1.00  0.00     0.034 A 
ATOM     64  C   UNL A   1      43.792  31.902  34.516  1.00  0.00     0.049 A 
ATOM     65  C   UNL A   1      42.784  28.461  29.853  1.00  0.00     0.074 A 
ATOM     66  C   UNL A   1      43.990  33.219  34.139  1.00  0.00     0.029 A 
ATOM     67  N   UNL A   1      44.441  31.144  33.564  1.00  0.00    -0.354 N 
ATOM     68  N   UNL A   1      43.642  29.416  29.615  1.00  0.00    -0.248 NA
ATOM     69  C   UNL A   1      42.870  27.878  31.187  1.00  0.00     0.031 C 
ATOM     70  C   UNL A   1      44.295  33.162  32.747  1.00  0.00     0.029 A 
ATOM     71  C   UNL A   1      44.382  31.821  32.370  1.00  0.00     0.049 A 
ATOM     72  H   UNL A   1      44.872  30.271  33.714  1.00  0.00     0.167 HD
ATOM     73  C   UNL A   1      44.035  29.865  30.867  1.00  0.00     0.074 A 
ATOM     74  C   UNL A   1      43.598  28.821  31.797  1.00  0.00     0.031 C 
ATOM     75  C   UNL A   1      44.389  31.170  31.071  1.00  0.00     0.034 A 
BRANCH  62  76
ATOM     76  C   UNL A   1      43.220  30.026  36.217  1.00  0.00     0.023 A 
ATOM     77  C   UNL A   1      44.148  30.244  37.248  1.00  0.00     0.031 A 
ATOM     78  C   UNL A   1      42.989  28.671  35.875  1.00  0.00     0.131 A 
ATOM     79  C   UNL A   1      44.893  29.181  37.781  1.00  0.00     0.055 A 
ATOM     80  C   UNL A   1      43.684  27.610  36.460  1.00  0.00     0.041 A 
ATOM     81  F   UNL A   1      42.155  28.287  34.904  1.00  0.00    -0.206 F 
ATOM     82  C   UNL A   1      44.671  27.864  37.392  1.00  0.00     0.022 A 
BRANCH  79  83
ATOM     83  S   UNL A   1      46.295  29.585  38.847  1.00  0.00     0.124 S 
ATOM     84  O   UNL A   1      46.989  28.304  38.905  1.00  0.00    -0.237 OA
ATOM     85  O   UNL A   1      46.952  30.642  38.087  1.00  0.00    -0.237 OA
ATOM     86  O   UNL A   1      45.658  30.012  40.090  1.00  0.00    -0.744 OA
ENDBRANCH  79  83
ENDBRANCH  62  76
BRANCH  63  87
ATOM     87  C   UNL A   1      41.035  27.084  28.452  1.00  0.00     0.023 A 
ATOM     88  C   UNL A   1      41.866  26.282  27.629  1.00  0.00     0.031 A 
ATOM     89  C   UNL A   1      39.800  26.507  28.831  1.00  0.00     0.131 A 
ATOM     90  C   UNL A   1      41.451  24.983  27.231  1.00  0.00     0.055 A 
ATOM     91  C   UNL A   1      39.398  25.228  28.438  1.00  0.00     0.041 A 
ATOM     92  F   UNL A   1      38.968  27.133  29.677  1.00  0.00    -0.206 F 
ATOM     93  C   UNL A   1      40.227  24.455  27.645  1.00  0.00     0.022 A 
BRANCH  90  94
ATOM     94  S   UNL A   1      42.534  23.898  26.232  1.00  0.00     0.124 S 
ATOM     95  O   UNL A   1      42.775  24.707  25.043  1.00  0.00    -0.237 OA
ATOM     96  O   UNL A   1      43.674  23.685  27.116  1.00  0.00    -0.237 OA
ATOM     97  O   UNL A   1      41.712  22.708  26.005  1.00  0.00    -0.744 OA
ENDBRANCH  90  94
ENDBRANCH  63  87
BRANCH  75  98
ATOM     98  C   UNL A   1      44.625  32.053  29.858  1.00  0.00     0.023 A 
ATOM     99  C   UNL A   1      43.802  33.132  29.457  1.00  0.00     0.031 A 
ATOM    100  C   UNL A   1      45.810  31.839  29.132  1.00  0.00     0.131 A 
ATOM    101  C   UNL A   1      44.171  33.932  28.356  1.00  0.00     0.055 A 
ATOM    102  C   UNL A   1      46.186  32.649  28.063  1.00  0.00     0.041 A 
ATOM    103  F   UNL A   1      46.650  30.849  29.477  1.00  0.00    -0.206 F 
ATOM    104  C   UNL A   1      45.362  33.694  27.663  1.00  0.00     0.022 A 
BRANCH 101 105
ATOM    105  S   UNL A   1      43.092  35.284  27.777  1.00  0.00     0.124 S 
ATOM    106  O   UNL A   1      42.756  34.892  26.413  1.00  0.00    -0.237 OA
ATOM    107  O   UNL A   1      41.995  35.246  28.740  1.00  0.00    -0.237 OA
ATOM    108  O   UNL A   1      43.948  36.468  27.878  1.00  0.00    -0.744 OA
ENDBRANCH 101 105
ENDBRANCH  75  98
ENDBRANCH  49  50
ENDBRANCH  42  44
ENDBRANCH  41  42
ENDBRANCH  40  41
ENDBRANCH  39  40
ENDBRANCH  38  39
ENDBRANCH  37  38
ENDBRANCH   1  37
TORSDOF 23
ENDMDL
