MODEL 1
REMARK VINA RESULT:     -11.7      0.000      0.000
REMARK SMILES C[C@H]1SCCC[C@]1(Nc1ccc(Cl)cc1)C(=O)OCCOCCOC(=O)c1ccc(-c2c3nc(c(-c4cc(S(=O)(=O)[O-])ccc4F)c4ccc([nH]4)c(-c4cc(S(=O)(=O)[O-])ccc4F)c4nc(c(-c5cc(S(=O)(=O)[O-])ccc5F)c5ccc2[nH]5)C=C4)C=C3)cc1
REMARK SMILES IDX 22 1 21 2 20 3 19 4 18 5 16 6 17 7 7 8 1 9 2 10 3 11 4 12
REMARK SMILES IDX 6 13 5 14 8 15 9 17 10 18 15 19 11 20 14 21 12 22 13 23
REMARK SMILES IDX 23 24 24 25 25 26 26 27 27 28 28 29 89 30 29 31 88 32 30 33
REMARK SMILES IDX 31 34 32 35 82 36 33 37 87 38 81 39 83 40 34 41 86 42 80 43
REMARK SMILES IDX 79 44 35 46 67 47 47 48 66 49 48 50 51 51 65 52 84 53 49 54
REMARK SMILES IDX 50 55 64 57 85 58 52 59 36 60 37 61 45 62 38 63 44 64 46 65
REMARK SMILES IDX 43 66 39 67 40 68 41 69 42 70 68 71 69 72 77 73 70 74 76 75
REMARK SMILES IDX 78 76 75 77 71 78 72 79 73 80 74 81 53 82 54 83 62 84 55 85
REMARK SMILES IDX 61 86 63 87 60 88 56 89 57 90 58 91 59 92
REMARK H PARENT 8 16 83 45 51 56
REMARK Flexibility Score: inf
ROOT
ATOM      1  C   UNL A   1      35.690  20.442  25.055  1.00  0.00     0.202 C 
ENDROOT
BRANCH   1   2
ATOM      2  O   UNL A   1      35.258  21.602  25.763  1.00  0.00    -0.374 OA
BRANCH   2   3
ATOM      3  C   UNL A   1      34.280  21.440  26.786  1.00  0.00     0.202 C 
BRANCH   3   4
ATOM      4  C   UNL A   1      33.568  22.698  27.289  1.00  0.00     0.261 C 
BRANCH   4   5
ATOM      5  O   UNL A   1      33.508  23.736  26.299  1.00  0.00    -0.461 OA
BRANCH   5   6
ATOM      6  C   UNL A   1      32.340  24.432  26.274  1.00  0.00     0.333 C 
ATOM      7  O   UNL A   1      31.485  24.347  27.154  1.00  0.00    -0.249 OA
BRANCH   6   8
ATOM      8  C   UNL A   1      32.181  25.331  25.006  1.00  0.00     0.147 C 
ATOM      9  C   UNL A   1      30.676  23.673  23.585  1.00  0.00     0.022 C 
ATOM     10  C   UNL A   1      31.963  24.502  23.687  1.00  0.00     0.080 C 
ATOM     11  S   UNL A   1      31.994  25.593  22.189  1.00  0.00    -0.156 SA
ATOM     12  C   UNL A   1      33.666  26.252  22.386  1.00  0.00     0.070 C 
ATOM     13  C   UNL A   1      33.557  26.074  24.920  1.00  0.00     0.042 C 
ATOM     14  C   UNL A   1      33.790  26.976  23.712  1.00  0.00     0.014 C 
BRANCH   8  15
ATOM     15  N   UNL A   1      31.111  26.373  25.148  1.00  0.00    -0.369 N 
ATOM     16  H   UNL A   1      30.172  26.129  24.983  1.00  0.00     0.161 HD
BRANCH  15  17
ATOM     17  C   UNL A   1      31.424  27.678  25.509  1.00  0.00     0.035 A 
ATOM     18  C   UNL A   1      31.789  28.003  26.821  1.00  0.00     0.027 A 
ATOM     19  C   UNL A   1      31.223  28.725  24.601  1.00  0.00     0.027 A 
ATOM     20  C   UNL A   1      31.876  29.333  27.239  1.00  0.00     0.022 A 
ATOM     21  C   UNL A   1      31.306  30.059  25.012  1.00  0.00     0.022 A 
ATOM     22  C   UNL A   1      31.615  30.355  26.335  1.00  0.00     0.041 A 
ATOM     23  Cl  UNL A   1      31.653  31.991  26.863  1.00  0.00    -0.084 Cl
ENDBRANCH  15  17
ENDBRANCH   8  15
ENDBRANCH   6   8
ENDBRANCH   5   6
ENDBRANCH   4   5
ENDBRANCH   3   4
ENDBRANCH   2   3
ENDBRANCH   1   2
BRANCH   1  24
ATOM     24  C   UNL A   1      37.179  20.332  24.712  1.00  0.00     0.261 C 
BRANCH  24  25
ATOM     25  O   UNL A   1      37.920  21.474  25.176  1.00  0.00    -0.460 OA
BRANCH  25  26
ATOM     26  C   UNL A   1      39.014  21.172  25.915  1.00  0.00     0.338 C 
ATOM     27  O   UNL A   1      39.657  20.128  25.874  1.00  0.00    -0.246 OA
BRANCH  26  28
ATOM     28  C   UNL A   1      39.480  22.364  26.646  1.00  0.00     0.060 A 
ATOM     29  C   UNL A   1      38.894  23.596  26.323  1.00  0.00     0.016 A 
ATOM     30  C   UNL A   1      40.524  22.294  27.570  1.00  0.00     0.016 A 
ATOM     31  C   UNL A   1      39.397  24.775  26.866  1.00  0.00     0.010 A 
ATOM     32  C   UNL A   1      41.036  23.478  28.105  1.00  0.00     0.010 A 
ATOM     33  C   UNL A   1      40.507  24.725  27.716  1.00  0.00    -0.014 A 
BRANCH  33  34
ATOM     34  C   UNL A   1      41.269  25.962  28.011  1.00  0.00     0.031 A 
ATOM     35  C   UNL A   1      40.568  27.060  28.765  1.00  0.00     0.074 A 
ATOM     36  C   UNL A   1      42.550  26.108  27.634  1.00  0.00     0.049 A 
ATOM     37  N   UNL A   1      40.965  28.277  29.030  1.00  0.00    -0.248 NA
ATOM     38  C   UNL A   1      39.229  26.733  29.277  1.00  0.00     0.031 C 
ATOM     39  C   UNL A   1      43.360  25.083  26.981  1.00  0.00     0.029 A 
ATOM     40  N   UNL A   1      43.389  27.187  27.742  1.00  0.00    -0.354 N 
ATOM     41  C   UNL A   1      39.917  28.868  29.730  1.00  0.00     0.074 A 
ATOM     42  C   UNL A   1      38.856  27.887  29.805  1.00  0.00     0.031 C 
ATOM     43  C   UNL A   1      44.581  25.588  26.735  1.00  0.00     0.029 A 
ATOM     44  C   UNL A   1      44.620  26.986  27.166  1.00  0.00     0.049 A 
ATOM     45  H   UNL A   1      43.134  28.026  28.190  1.00  0.00     0.167 HD
ATOM     46  C   UNL A   1      39.852  30.112  30.267  1.00  0.00     0.034 A 
ATOM     47  C   UNL A   1      45.644  27.844  26.980  1.00  0.00     0.034 A 
ATOM     48  C   UNL A   1      40.915  31.081  30.159  1.00  0.00     0.049 A 
ATOM     49  C   UNL A   1      45.502  29.270  27.459  1.00  0.00     0.074 A 
ATOM     50  C   UNL A   1      40.959  32.376  30.646  1.00  0.00     0.029 A 
ATOM     51  N   UNL A   1      42.123  30.863  29.506  1.00  0.00    -0.354 N 
ATOM     52  N   UNL A   1      44.496  29.836  28.085  1.00  0.00    -0.248 NA
ATOM     53  C   UNL A   1      46.632  30.172  27.200  1.00  0.00     0.031 C 
ATOM     54  C   UNL A   1      42.156  32.962  30.223  1.00  0.00     0.029 A 
ATOM     55  C   UNL A   1      42.901  32.008  29.548  1.00  0.00     0.049 A 
ATOM     56  H   UNL A   1      42.385  30.017  29.075  1.00  0.00     0.167 HD
ATOM     57  C   UNL A   1      44.895  31.147  28.339  1.00  0.00     0.074 A 
ATOM     58  C   UNL A   1      46.225  31.291  27.785  1.00  0.00     0.031 C 
ATOM     59  C   UNL A   1      44.229  32.134  28.991  1.00  0.00     0.034 A 
BRANCH  46  60
ATOM     60  C   UNL A   1      38.558  30.497  30.946  1.00  0.00     0.023 A 
ATOM     61  C   UNL A   1      37.489  31.065  30.232  1.00  0.00     0.031 A 
ATOM     62  C   UNL A   1      38.422  30.374  32.340  1.00  0.00     0.131 A 
ATOM     63  C   UNL A   1      36.384  31.587  30.922  1.00  0.00     0.055 A 
ATOM     64  C   UNL A   1      37.275  30.804  33.010  1.00  0.00     0.041 A 
ATOM     65  F   UNL A   1      39.417  29.863  33.082  1.00  0.00    -0.206 F 
ATOM     66  C   UNL A   1      36.257  31.437  32.304  1.00  0.00     0.022 A 
BRANCH  63  67
ATOM     67  S   UNL A   1      35.220  32.642  30.013  1.00  0.00     0.124 S 
ATOM     68  O   UNL A   1      34.292  33.036  31.071  1.00  0.00    -0.237 OA
ATOM     69  O   UNL A   1      36.086  33.696  29.497  1.00  0.00    -0.237 OA
ATOM     70  O   UNL A   1      34.658  31.745  29.006  1.00  0.00    -0.744 OA
ENDBRANCH  63  67
ENDBRANCH  46  60
BRANCH  47  71
ATOM     71  C   UNL A   1      46.882  27.394  26.285  1.00  0.00     0.023 A 
ATOM     72  C   UNL A   1      47.101  27.706  24.934  1.00  0.00     0.031 A 
ATOM     73  C   UNL A   1      47.852  26.623  26.951  1.00  0.00     0.131 A 
ATOM     74  C   UNL A   1      48.248  27.224  24.284  1.00  0.00     0.055 A 
ATOM     75  C   UNL A   1      49.012  26.187  26.312  1.00  0.00     0.041 A 
ATOM     76  F   UNL A   1      47.689  26.296  28.243  1.00  0.00    -0.206 F 
ATOM     77  C   UNL A   1      49.211  26.479  24.966  1.00  0.00     0.022 A 
BRANCH  74  78
ATOM     78  S   UNL A   1      48.430  27.534  22.506  1.00  0.00     0.124 S 
ATOM     79  O   UNL A   1      47.208  28.270  22.207  1.00  0.00    -0.237 OA
ATOM     80  O   UNL A   1      49.671  28.300  22.457  1.00  0.00    -0.237 OA
ATOM     81  O   UNL A   1      48.507  26.191  21.933  1.00  0.00    -0.744 OA
ENDBRANCH  74  78
ENDBRANCH  47  71
BRANCH  59  82
ATOM     82  C   UNL A   1      44.958  33.437  29.215  1.00  0.00     0.023 A 
ATOM     83  C   UNL A   1      44.959  34.471  28.264  1.00  0.00     0.031 A 
ATOM     84  C   UNL A   1      45.632  33.653  30.431  1.00  0.00     0.131 A 
ATOM     85  C   UNL A   1      45.649  35.664  28.534  1.00  0.00     0.055 A 
ATOM     86  C   UNL A   1      46.272  34.859  30.714  1.00  0.00     0.041 A 
ATOM     87  F   UNL A   1      45.662  32.697  31.374  1.00  0.00    -0.206 F 
ATOM     88  C   UNL A   1      46.288  35.872  29.760  1.00  0.00     0.022 A 
BRANCH  85  89
ATOM     89  S   UNL A   1      45.743  36.934  27.242  1.00  0.00     0.124 S 
ATOM     90  O   UNL A   1      45.969  36.132  26.044  1.00  0.00    -0.237 OA
ATOM     91  O   UNL A   1      44.437  37.580  27.339  1.00  0.00    -0.237 OA
ATOM     92  O   UNL A   1      46.873  37.763  27.656  1.00  0.00    -0.744 OA
ENDBRANCH  85  89
ENDBRANCH  59  82
ENDBRANCH  33  34
ENDBRANCH  26  28
ENDBRANCH  25  26
ENDBRANCH  24  25
ENDBRANCH   1  24
TORSDOF 19
ENDMDL
MODEL 2
REMARK VINA RESULT:     -11.7      1.876      2.920
REMARK SMILES C[C@H]1SCCC[C@]1(Nc1ccc(Cl)cc1)C(=O)OCCOCCOC(=O)c1ccc(-c2c3nc(c(-c4cc(S(=O)(=O)[O-])ccc4F)c4ccc([nH]4)c(-c4cc(S(=O)(=O)[O-])ccc4F)c4nc(c(-c5cc(S(=O)(=O)[O-])ccc5F)c5ccc2[nH]5)C=C4)C=C3)cc1
REMARK SMILES IDX 22 1 21 2 20 3 19 4 18 5 16 6 17 7 7 8 1 9 2 10 3 11 4 12
REMARK SMILES IDX 6 13 5 14 8 15 9 17 10 18 15 19 11 20 14 21 12 22 13 23
REMARK SMILES IDX 23 24 24 25 25 26 26 27 27 28 28 29 89 30 29 31 88 32 30 33
REMARK SMILES IDX 31 34 32 35 82 36 33 37 87 38 81 39 83 40 34 41 86 42 80 43
REMARK SMILES IDX 79 44 35 46 67 47 47 48 66 49 48 50 51 51 65 52 84 53 49 54
REMARK SMILES IDX 50 55 64 57 85 58 52 59 36 60 37 61 45 62 38 63 44 64 46 65
REMARK SMILES IDX 43 66 39 67 40 68 41 69 42 70 68 71 69 72 77 73 70 74 76 75
REMARK SMILES IDX 78 76 75 77 71 78 72 79 73 80 74 81 53 82 54 83 62 84 55 85
REMARK SMILES IDX 61 86 63 87 60 88 56 89 57 90 58 91 59 92
REMARK H PARENT 8 16 83 45 51 56
REMARK Flexibility Score: inf
ROOT
ATOM      1  C   UNL A   1      36.276  20.715  24.911  1.00  0.00     0.202 C 
ENDROOT
BRANCH   1   2
ATOM      2  O   UNL A   1      35.714  21.450  25.996  1.00  0.00    -0.374 OA
BRANCH   2   3
ATOM      3  C   UNL A   1      35.917  22.861  26.030  1.00  0.00     0.202 C 
BRANCH   3   4
ATOM      4  C   UNL A   1      35.782  23.624  24.710  1.00  0.00     0.261 C 
BRANCH   4   5
ATOM      5  O   UNL A   1      34.822  24.688  24.779  1.00  0.00    -0.461 OA
BRANCH   5   6
ATOM      6  C   UNL A   1      34.037  24.820  23.676  1.00  0.00     0.333 C 
ATOM      7  O   UNL A   1      34.435  24.594  22.535  1.00  0.00    -0.249 OA
BRANCH   6   8
ATOM      8  C   UNL A   1      32.590  25.313  24.000  1.00  0.00     0.147 C 
ATOM      9  C   UNL A   1      31.893  26.001  21.536  1.00  0.00     0.022 C 
ATOM     10  C   UNL A   1      32.077  26.415  23.001  1.00  0.00     0.080 C 
ATOM     11  S   UNL A   1      30.451  27.118  23.548  1.00  0.00    -0.156 SA
ATOM     12  C   UNL A   1      30.975  27.756  25.155  1.00  0.00     0.070 C 
ATOM     13  C   UNL A   1      32.738  25.944  25.425  1.00  0.00     0.042 C 
ATOM     14  C   UNL A   1      31.510  26.629  26.017  1.00  0.00     0.014 C 
BRANCH   8  15
ATOM     15  N   UNL A   1      31.593  24.197  24.099  1.00  0.00    -0.369 N 
ATOM     16  H   UNL A   1      30.635  24.408  24.187  1.00  0.00     0.161 HD
BRANCH  15  17
ATOM     17  C   UNL A   1      31.998  22.867  24.068  1.00  0.00     0.035 A 
ATOM     18  C   UNL A   1      32.031  22.145  22.869  1.00  0.00     0.027 A 
ATOM     19  C   UNL A   1      32.228  22.176  25.262  1.00  0.00     0.027 A 
ATOM     20  C   UNL A   1      32.210  20.759  22.865  1.00  0.00     0.022 A 
ATOM     21  C   UNL A   1      32.407  20.789  25.268  1.00  0.00     0.022 A 
ATOM     22  C   UNL A   1      32.379  20.085  24.069  1.00  0.00     0.041 A 
ATOM     23  Cl  UNL A   1      32.531  18.373  24.073  1.00  0.00    -0.084 Cl
ENDBRANCH  15  17
ENDBRANCH   8  15
ENDBRANCH   6   8
ENDBRANCH   5   6
ENDBRANCH   4   5
ENDBRANCH   3   4
ENDBRANCH   2   3
ENDBRANCH   1   2
BRANCH   1  24
ATOM     24  C   UNL A   1      37.602  19.989  25.156  1.00  0.00     0.261 C 
BRANCH  24  25
ATOM     25  O   UNL A   1      38.723  20.889  25.090  1.00  0.00    -0.460 OA
BRANCH  25  26
ATOM     26  C   UNL A   1      39.665  20.683  26.040  1.00  0.00     0.338 C 
ATOM     27  O   UNL A   1      40.292  19.646  26.235  1.00  0.00    -0.246 OA
BRANCH  26  28
ATOM     28  C   UNL A   1      40.011  21.956  26.699  1.00  0.00     0.060 A 
ATOM     29  C   UNL A   1      39.496  23.136  26.144  1.00  0.00     0.016 A 
ATOM     30  C   UNL A   1      40.885  22.004  27.786  1.00  0.00     0.016 A 
ATOM     31  C   UNL A   1      39.909  24.375  26.626  1.00  0.00     0.010 A 
ATOM     32  C   UNL A   1      41.308  23.247  28.261  1.00  0.00     0.010 A 
ATOM     33  C   UNL A   1      40.860  24.434  27.650  1.00  0.00    -0.014 A 
BRANCH  33  34
ATOM     34  C   UNL A   1      41.571  25.707  27.926  1.00  0.00     0.031 A 
ATOM     35  C   UNL A   1      40.839  26.770  28.700  1.00  0.00     0.074 A 
ATOM     36  C   UNL A   1      42.833  25.913  27.515  1.00  0.00     0.049 A 
ATOM     37  N   UNL A   1      41.185  28.004  28.956  1.00  0.00    -0.248 NA
ATOM     38  C   UNL A   1      39.532  26.380  29.248  1.00  0.00     0.031 C 
ATOM     39  C   UNL A   1      43.672  24.927  26.838  1.00  0.00     0.029 A 
ATOM     40  N   UNL A   1      43.622  27.030  27.601  1.00  0.00    -0.354 N 
ATOM     41  C   UNL A   1      40.130  28.545  29.685  1.00  0.00     0.074 A 
ATOM     42  C   UNL A   1      39.119  27.514  29.788  1.00  0.00     0.031 C 
ATOM     43  C   UNL A   1      44.861  25.490  26.560  1.00  0.00     0.029 A 
ATOM     44  C   UNL A   1      44.845  26.888  26.992  1.00  0.00     0.049 A 
ATOM     45  H   UNL A   1      43.340  27.856  28.057  1.00  0.00     0.167 HD
ATOM     46  C   UNL A   1      40.021  29.785  30.225  1.00  0.00     0.034 A 
ATOM     47  C   UNL A   1      45.821  27.794  26.779  1.00  0.00     0.034 A 
ATOM     48  C   UNL A   1      41.033  30.803  30.090  1.00  0.00     0.049 A 
ATOM     49  C   UNL A   1      45.625  29.211  27.263  1.00  0.00     0.074 A 
ATOM     50  C   UNL A   1      41.029  32.098  30.577  1.00  0.00     0.029 A 
ATOM     51  N   UNL A   1      42.232  30.642  29.404  1.00  0.00    -0.354 N 
ATOM     52  N   UNL A   1      44.611  29.729  27.918  1.00  0.00    -0.248 NA
ATOM     53  C   UNL A   1      46.704  30.166  26.975  1.00  0.00     0.031 C 
ATOM     54  C   UNL A   1      42.185  32.741  30.123  1.00  0.00     0.029 A 
ATOM     55  C   UNL A   1      42.956  31.822  29.426  1.00  0.00     0.049 A 
ATOM     56  H   UNL A   1      42.522  29.810  28.965  1.00  0.00     0.167 HD
ATOM     57  C   UNL A   1      44.954  31.057  28.162  1.00  0.00     0.074 A 
ATOM     58  C   UNL A   1      46.261  31.264  27.572  1.00  0.00     0.031 C 
ATOM     59  C   UNL A   1      44.261  32.012  28.834  1.00  0.00     0.034 A 
BRANCH  46  60
ATOM     60  C   UNL A   1      38.729  30.108  30.940  1.00  0.00     0.023 A 
ATOM     61  C   UNL A   1      37.672  30.771  30.293  1.00  0.00     0.031 A 
ATOM     62  C   UNL A   1      38.584  29.826  32.310  1.00  0.00     0.131 A 
ATOM     63  C   UNL A   1      36.571  31.226  31.034  1.00  0.00     0.055 A 
ATOM     64  C   UNL A   1      37.440  30.193  33.021  1.00  0.00     0.041 A 
ATOM     65  F   UNL A   1      39.567  29.218  32.992  1.00  0.00    -0.206 F 
ATOM     66  C   UNL A   1      36.435  30.919  32.390  1.00  0.00     0.022 A 
BRANCH  63  67
ATOM     67  S   UNL A   1      35.427  32.396  30.250  1.00  0.00     0.124 S 
ATOM     68  O   UNL A   1      35.074  31.686  29.023  1.00  0.00    -0.237 OA
ATOM     69  O   UNL A   1      34.369  32.518  31.247  1.00  0.00    -0.237 OA
ATOM     70  O   UNL A   1      36.243  33.593  30.054  1.00  0.00    -0.744 OA
ENDBRANCH  63  67
ENDBRANCH  46  60
BRANCH  47  71
ATOM     71  C   UNL A   1      47.060  27.403  26.050  1.00  0.00     0.023 A 
ATOM     72  C   UNL A   1      47.217  27.702  24.688  1.00  0.00     0.031 A 
ATOM     73  C   UNL A   1      48.094  26.702  26.695  1.00  0.00     0.131 A 
ATOM     74  C   UNL A   1      48.367  27.274  24.006  1.00  0.00     0.055 A 
ATOM     75  C   UNL A   1      49.257  26.321  26.025  1.00  0.00     0.041 A 
ATOM     76  F   UNL A   1      47.994  26.390  27.998  1.00  0.00    -0.206 F 
ATOM     77  C   UNL A   1      49.394  26.599  24.668  1.00  0.00     0.022 A 
BRANCH  74  78
ATOM     78  S   UNL A   1      48.472  27.562  22.219  1.00  0.00     0.124 S 
ATOM     79  O   UNL A   1      47.176  28.167  21.940  1.00  0.00    -0.237 OA
ATOM     80  O   UNL A   1      49.630  28.444  22.120  1.00  0.00    -0.237 OA
ATOM     81  O   UNL A   1      48.667  26.220  21.670  1.00  0.00    -0.744 OA
ENDBRANCH  74  78
ENDBRANCH  47  71
BRANCH  59  82
ATOM     82  C   UNL A   1      44.933  33.348  29.040  1.00  0.00     0.023 A 
ATOM     83  C   UNL A   1      44.944  34.344  28.049  1.00  0.00     0.031 A 
ATOM     84  C   UNL A   1      45.540  33.634  30.277  1.00  0.00     0.131 A 
ATOM     85  C   UNL A   1      45.579  35.571  28.304  1.00  0.00     0.055 A 
ATOM     86  C   UNL A   1      46.124  34.872  30.541  1.00  0.00     0.041 A 
ATOM     87  F   UNL A   1      45.557  32.716  31.257  1.00  0.00    -0.206 F 
ATOM     88  C   UNL A   1      46.151  35.848  29.549  1.00  0.00     0.022 A 
BRANCH  85  89
ATOM     89  S   UNL A   1      45.692  36.793  26.968  1.00  0.00     0.124 S 
ATOM     90  O   UNL A   1      46.059  35.961  25.825  1.00  0.00    -0.237 OA
ATOM     91  O   UNL A   1      44.346  37.356  26.940  1.00  0.00    -0.237 OA
ATOM     92  O   UNL A   1      46.735  37.709  27.427  1.00  0.00    -0.744 OA
ENDBRANCH  85  89
ENDBRANCH  59  82
ENDBRANCH  33  34
ENDBRANCH  26  28
ENDBRANCH  25  26
ENDBRANCH  24  25
ENDBRANCH   1  24
TORSDOF 19
ENDMDL
MODEL 3
REMARK VINA RESULT:     -11.5      2.302      8.144
REMARK SMILES C[C@H]1SCCC[C@]1(Nc1ccc(Cl)cc1)C(=O)OCCOCCOC(=O)c1ccc(-c2c3nc(c(-c4cc(S(=O)(=O)[O-])ccc4F)c4ccc([nH]4)c(-c4cc(S(=O)(=O)[O-])ccc4F)c4nc(c(-c5cc(S(=O)(=O)[O-])ccc5F)c5ccc2[nH]5)C=C4)C=C3)cc1
REMARK SMILES IDX 22 1 21 2 20 3 19 4 18 5 16 6 17 7 7 8 1 9 2 10 3 11 4 12
REMARK SMILES IDX 6 13 5 14 8 15 9 17 10 18 15 19 11 20 14 21 12 22 13 23
REMARK SMILES IDX 23 24 24 25 25 26 26 27 27 28 28 29 89 30 29 31 88 32 30 33
REMARK SMILES IDX 31 34 32 35 82 36 33 37 87 38 81 39 83 40 34 41 86 42 80 43
REMARK SMILES IDX 79 44 35 46 67 47 47 48 66 49 48 50 51 51 65 52 84 53 49 54
REMARK SMILES IDX 50 55 64 57 85 58 52 59 36 60 37 61 45 62 38 63 44 64 46 65
REMARK SMILES IDX 43 66 39 67 40 68 41 69 42 70 68 71 69 72 77 73 70 74 76 75
REMARK SMILES IDX 78 76 75 77 71 78 72 79 73 80 74 81 53 82 54 83 62 84 55 85
REMARK SMILES IDX 61 86 63 87 60 88 56 89 57 90 58 91 59 92
REMARK H PARENT 8 16 83 45 51 56
REMARK Flexibility Score: inf
ROOT
ATOM      1  C   UNL A   1      37.641  19.561  24.971  1.00  0.00     0.202 C 
ENDROOT
BRANCH   1   2
ATOM      2  O   UNL A   1      37.599  20.931  24.578  1.00  0.00    -0.374 OA
BRANCH   2   3
ATOM      3  C   UNL A   1      36.571  21.755  25.122  1.00  0.00     0.202 C 
BRANCH   3   4
ATOM      4  C   UNL A   1      36.672  23.263  24.877  1.00  0.00     0.261 C 
BRANCH   4   5
ATOM      5  O   UNL A   1      35.435  23.949  25.116  1.00  0.00    -0.461 OA
BRANCH   5   6
ATOM      6  C   UNL A   1      34.748  24.293  23.993  1.00  0.00     0.333 C 
ATOM      7  O   UNL A   1      35.056  23.904  22.869  1.00  0.00    -0.249 OA
BRANCH   6   8
ATOM      8  C   UNL A   1      33.545  25.250  24.272  1.00  0.00     0.147 C 
ATOM      9  C   UNL A   1      33.110  26.007  21.767  1.00  0.00     0.022 C 
ATOM     10  C   UNL A   1      33.423  26.408  23.215  1.00  0.00     0.080 C 
ATOM     11  S   UNL A   1      32.120  27.634  23.703  1.00  0.00    -0.156 SA
ATOM     12  C   UNL A   1      32.827  28.143  25.286  1.00  0.00     0.070 C 
ATOM     13  C   UNL A   1      33.894  25.867  25.667  1.00  0.00     0.042 C 
ATOM     14  C   UNL A   1      32.962  26.946  26.208  1.00  0.00     0.014 C 
BRANCH   8  15
ATOM     15  N   UNL A   1      32.235  24.531  24.408  1.00  0.00    -0.369 N 
ATOM     16  H   UNL A   1      31.419  25.043  24.611  1.00  0.00     0.161 HD
BRANCH  15  17
ATOM     17  C   UNL A   1      32.154  23.152  24.252  1.00  0.00     0.035 A 
ATOM     18  C   UNL A   1      32.431  22.282  25.314  1.00  0.00     0.027 A 
ATOM     19  C   UNL A   1      31.950  22.600  22.982  1.00  0.00     0.027 A 
ATOM     20  C   UNL A   1      32.578  20.909  25.104  1.00  0.00     0.022 A 
ATOM     21  C   UNL A   1      32.097  21.227  22.762  1.00  0.00     0.022 A 
ATOM     22  C   UNL A   1      32.429  20.390  23.823  1.00  0.00     0.041 A 
ATOM     23  Cl  UNL A   1      32.677  18.712  23.548  1.00  0.00    -0.084 Cl
ENDBRANCH  15  17
ENDBRANCH   8  15
ENDBRANCH   6   8
ENDBRANCH   5   6
ENDBRANCH   4   5
ENDBRANCH   3   4
ENDBRANCH   2   3
ENDBRANCH   1   2
BRANCH   1  24
ATOM     24  C   UNL A   1      38.887  19.072  25.716  1.00  0.00     0.261 C 
BRANCH  24  25
ATOM     25  O   UNL A   1      39.979  20.001  25.597  1.00  0.00    -0.460 OA
BRANCH  25  26
ATOM     26  C   UNL A   1      40.789  20.059  26.680  1.00  0.00     0.338 C 
ATOM     27  O   UNL A   1      41.511  19.161  27.101  1.00  0.00    -0.246 OA
BRANCH  26  28
ATOM     28  C   UNL A   1      40.861  21.441  27.190  1.00  0.00     0.060 A 
ATOM     29  C   UNL A   1      40.109  22.419  26.523  1.00  0.00     0.016 A 
ATOM     30  C   UNL A   1      41.707  21.789  28.243  1.00  0.00     0.016 A 
ATOM     31  C   UNL A   1      40.255  23.763  26.859  1.00  0.00     0.010 A 
ATOM     32  C   UNL A   1      41.862  23.138  28.571  1.00  0.00     0.010 A 
ATOM     33  C   UNL A   1      41.174  24.132  27.846  1.00  0.00    -0.014 A 
BRANCH  33  34
ATOM     34  C   UNL A   1      41.603  25.546  27.966  1.00  0.00     0.031 A 
ATOM     35  C   UNL A   1      42.955  25.922  27.425  1.00  0.00     0.074 A 
ATOM     36  C   UNL A   1      40.813  26.477  28.527  1.00  0.00     0.049 A 
ATOM     37  N   UNL A   1      43.610  27.049  27.521  1.00  0.00    -0.248 NA
ATOM     38  C   UNL A   1      43.664  24.871  26.681  1.00  0.00     0.031 C 
ATOM     39  C   UNL A   1      39.451  26.252  29.004  1.00  0.00     0.029 A 
ATOM     40  N   UNL A   1      41.054  27.799  28.797  1.00  0.00    -0.354 N 
ATOM     41  C   UNL A   1      44.818  26.839  26.862  1.00  0.00     0.074 A 
ATOM     42  C   UNL A   1      44.815  25.463  26.412  1.00  0.00     0.031 C 
ATOM     43  C   UNL A   1      38.978  27.400  29.520  1.00  0.00     0.029 A 
ATOM     44  C   UNL A   1      40.023  28.423  29.456  1.00  0.00     0.049 A 
ATOM     45  H   UNL A   1      41.887  28.258  28.542  1.00  0.00     0.167 HD
ATOM     46  C   UNL A   1      45.830  27.715  26.646  1.00  0.00     0.034 A 
ATOM     47  C   UNL A   1      39.948  29.664  29.978  1.00  0.00     0.034 A 
ATOM     48  C   UNL A   1      45.818  29.076  27.124  1.00  0.00     0.049 A 
ATOM     49  C   UNL A   1      41.140  30.585  29.853  1.00  0.00     0.074 A 
ATOM     50  C   UNL A   1      46.789  30.052  26.983  1.00  0.00     0.029 A 
ATOM     51  N   UNL A   1      44.783  29.652  27.851  1.00  0.00    -0.354 N 
ATOM     52  N   UNL A   1      42.293  30.370  29.263  1.00  0.00    -0.248 NA
ATOM     53  C   UNL A   1      41.019  31.914  30.468  1.00  0.00     0.031 C 
ATOM     54  C   UNL A   1      46.375  31.187  27.686  1.00  0.00     0.029 A 
ATOM     55  C   UNL A   1      45.106  30.954  28.193  1.00  0.00     0.049 A 
ATOM     56  H   UNL A   1      43.941  29.198  28.089  1.00  0.00     0.167 HD
ATOM     57  C   UNL A   1      43.015  31.554  29.395  1.00  0.00     0.074 A 
ATOM     58  C   UNL A   1      42.173  32.474  30.132  1.00  0.00     0.031 C 
ATOM     59  C   UNL A   1      44.253  31.860  28.928  1.00  0.00     0.034 A 
BRANCH  46  60
ATOM     60  C   UNL A   1      47.049  27.189  25.924  1.00  0.00     0.023 A 
ATOM     61  C   UNL A   1      48.039  26.445  26.590  1.00  0.00     0.031 A 
ATOM     62  C   UNL A   1      47.268  27.507  24.572  1.00  0.00     0.131 A 
ATOM     63  C   UNL A   1      49.244  26.141  25.939  1.00  0.00     0.055 A 
ATOM     64  C   UNL A   1      48.427  27.113  23.900  1.00  0.00     0.041 A 
ATOM     65  F   UNL A   1      46.373  28.235  23.887  1.00  0.00    -0.206 F 
ATOM     66  C   UNL A   1      49.435  26.447  24.591  1.00  0.00     0.022 A 
BRANCH  63  67
ATOM     67  S   UNL A   1      50.631  25.527  26.935  1.00  0.00     0.124 S 
ATOM     68  O   UNL A   1      50.024  24.383  27.613  1.00  0.00    -0.237 OA
ATOM     69  O   UNL A   1      51.632  25.213  25.922  1.00  0.00    -0.237 OA
ATOM     70  O   UNL A   1      50.954  26.656  27.806  1.00  0.00    -0.744 OA
ENDBRANCH  63  67
ENDBRANCH  46  60
BRANCH  47  71
ATOM     71  C   UNL A   1      38.718  30.104  30.692  1.00  0.00     0.023 A 
ATOM     72  C   UNL A   1      37.709  30.809  30.017  1.00  0.00     0.031 A 
ATOM     73  C   UNL A   1      38.542  29.851  32.064  1.00  0.00     0.131 A 
ATOM     74  C   UNL A   1      36.583  31.264  30.722  1.00  0.00     0.055 A 
ATOM     75  C   UNL A   1      37.399  30.264  32.749  1.00  0.00     0.041 A 
ATOM     76  F   UNL A   1      39.477  29.181  32.756  1.00  0.00    -0.206 F 
ATOM     77  C   UNL A   1      36.414  30.984  32.079  1.00  0.00     0.022 A 
BRANCH  74  78
ATOM     78  S   UNL A   1      35.367  32.286  29.846  1.00  0.00     0.124 S 
ATOM     79  O   UNL A   1      34.938  31.387  28.781  1.00  0.00    -0.237 OA
ATOM     80  O   UNL A   1      34.388  32.557  30.893  1.00  0.00    -0.237 OA
ATOM     81  O   UNL A   1      36.148  33.443  29.411  1.00  0.00    -0.744 OA
ENDBRANCH  74  78
ENDBRANCH  47  71
BRANCH  59  82
ATOM     82  C   UNL A   1      44.744  33.274  29.128  1.00  0.00     0.023 A 
ATOM     83  C   UNL A   1      44.377  34.325  28.271  1.00  0.00     0.031 A 
ATOM     84  C   UNL A   1      45.570  33.571  30.228  1.00  0.00     0.131 A 
ATOM     85  C   UNL A   1      44.860  35.621  28.514  1.00  0.00     0.055 A 
ATOM     86  C   UNL A   1      46.005  34.869  30.492  1.00  0.00     0.041 A 
ATOM     87  F   UNL A   1      45.950  32.602  31.077  1.00  0.00    -0.206 F 
ATOM     88  C   UNL A   1      45.655  35.903  29.628  1.00  0.00     0.022 A 
BRANCH  85  89
ATOM     89  S   UNL A   1      44.477  36.937  27.325  1.00  0.00     0.124 S 
ATOM     90  O   UNL A   1      43.377  36.348  26.565  1.00  0.00    -0.237 OA
ATOM     91  O   UNL A   1      44.123  38.054  28.194  1.00  0.00    -0.237 OA
ATOM     92  O   UNL A   1      45.724  37.103  26.581  1.00  0.00    -0.744 OA
ENDBRANCH  85  89
ENDBRANCH  59  82
ENDBRANCH  33  34
ENDBRANCH  26  28
ENDBRANCH  25  26
ENDBRANCH  24  25
ENDBRANCH   1  24
TORSDOF 19
ENDMDL
