MODEL 1
REMARK VINA RESULT:     -11.0      0.000      0.000
REMARK SMILES COc1cccc(C(=O)N2CCC(C(=O)N3CC[N@H+](C)[C@@H](C(=O)OCCOCCOC(=O)c4ccc(-c5c6nc(c(-c7cc(S(=O)(=O)[O-])ccc7F)c7ccc([nH]7)c(-c7cc(S(=O)(=O)[O-])ccc7F)c7nc(c(-c8cc(S(=O)(=O)[O-])ccc8F)c8ccc5[nH]8)C=C7)C=C6)cc4)C3)CC2)c1
REMARK SMILES IDX 26 1 25 2 24 3 22 4 23 5 21 6 16 7 17 8 96 9 18 10 19 11
REMARK SMILES IDX 20 12 14 14 15 15 13 16 8 17 9 18 10 19 11 20 98 21 12 22
REMARK SMILES IDX 97 23 7 24 3 25 4 26 99 27 5 28 6 29 2 30 1 31 27 32 28 33
REMARK SMILES IDX 29 34 30 35 31 36 32 37 33 38 34 39 95 40 35 41 94 42 36 43
REMARK SMILES IDX 37 44 38 45 88 46 39 47 93 48 87 49 89 50 40 51 92 52 86 53
REMARK SMILES IDX 85 54 41 56 73 57 53 58 72 59 54 60 57 61 71 62 90 63 55 64
REMARK SMILES IDX 56 65 70 67 91 68 58 69 42 70 43 71 51 72 44 73 50 74 52 75
REMARK SMILES IDX 49 76 45 77 46 78 47 79 48 80 74 81 75 82 83 83 76 84 82 85
REMARK SMILES IDX 84 86 81 87 77 88 78 89 79 90 80 91 59 92 60 93 68 94 61 95
REMARK SMILES IDX 67 96 69 97 66 98 62 99 63 100 64 101 65 102
REMARK H PARENT 19 13 89 55 57 66
REMARK Flexibility Score: inf
ROOT
ATOM      1  C   UNL A   1      37.958  22.215  25.522  1.00  0.00     0.202 C 
ENDROOT
BRANCH   1   2
ATOM      2  C   UNL A   1      37.239  21.641  24.292  1.00  0.00     0.261 C 
BRANCH   2   3
ATOM      3  O   UNL A   1      35.969  22.238  23.972  1.00  0.00    -0.459 OA
BRANCH   3   4
ATOM      4  C   UNL A   1      34.924  21.745  24.696  1.00  0.00     0.366 C 
ATOM      5  O   UNL A   1      34.808  20.567  25.029  1.00  0.00    -0.245 OA
BRANCH   4   6
ATOM      6  C   UNL A   1      33.834  22.790  25.013  1.00  0.00     0.314 C 
ATOM      7  N   UNL A   1      33.185  24.514  23.180  1.00  0.00    -0.330 N 
ATOM      8  C   UNL A   1      31.997  23.691  22.928  1.00  0.00     0.181 C 
ATOM      9  C   UNL A   1      34.004  24.193  24.367  1.00  0.00     0.197 C 
ATOM     10  C   UNL A   1      32.088  22.251  23.438  1.00  0.00     0.284 C 
ATOM     11  N   UNL A   1      32.510  22.141  24.842  1.00  0.00    -0.323 N 
ATOM     12  C   UNL A   1      31.523  22.683  25.769  1.00  0.00     0.333 C 
ATOM     13  H   UNL A   1      32.591  21.150  25.071  1.00  0.00     0.348 HD
BRANCH   7  14
ATOM     14  C   UNL A   1      33.182  25.754  22.527  1.00  0.00     0.226 C 
ATOM     15  O   UNL A   1      33.773  25.893  21.452  1.00  0.00    -0.275 OA
BRANCH  14  16
ATOM     16  C   UNL A   1      32.431  26.946  23.142  1.00  0.00     0.082 C 
ATOM     17  C   UNL A   1      32.606  29.084  26.675  1.00  0.00     0.253 C 
ATOM     18  O   UNL A   1      32.764  28.201  27.514  1.00  0.00    -0.269 OA
ATOM     19  N   UNL A   1      32.154  28.808  25.386  1.00  0.00    -0.339 N 
ATOM     20  C   UNL A   1      31.215  27.724  25.201  1.00  0.00     0.120 C 
ATOM     21  C   UNL A   1      32.804  29.302  24.179  1.00  0.00     0.120 C 
ATOM     22  C   UNL A   1      31.869  26.545  24.503  1.00  0.00     0.035 C 
ATOM     23  C   UNL A   1      33.401  28.146  23.358  1.00  0.00     0.035 C 
BRANCH  17  24
ATOM     24  C   UNL A   1      32.709  30.503  27.113  1.00  0.00     0.043 A 
ATOM     25  C   UNL A   1      34.058  32.354  27.907  1.00  0.00     0.119 A 
ATOM     26  C   UNL A   1      33.031  33.240  27.578  1.00  0.00     0.046 A 
ATOM     27  C   UNL A   1      33.889  30.985  27.692  1.00  0.00     0.060 A 
ATOM     28  C   UNL A   1      31.855  32.770  26.991  1.00  0.00     0.005 A 
ATOM     29  C   UNL A   1      31.698  31.403  26.750  1.00  0.00     0.014 A 
BRANCH  25  30
ATOM     30  O   UNL A   1      35.189  32.917  28.436  1.00  0.00    -0.497 OA
ATOM     31  C   UNL A   1      34.975  34.154  29.110  1.00  0.00     0.278 C 
ENDBRANCH  25  30
ENDBRANCH  17  24
ENDBRANCH  14  16
ENDBRANCH   7  14
ENDBRANCH   4   6
ENDBRANCH   3   4
ENDBRANCH   2   3
ENDBRANCH   1   2
BRANCH   1  32
ATOM     32  O   UNL A   1      39.076  21.492  26.023  1.00  0.00    -0.374 OA
BRANCH  32  33
ATOM     33  C   UNL A   1      39.306  20.186  25.492  1.00  0.00     0.202 C 
BRANCH  33  34
ATOM     34  C   UNL A   1      40.443  19.382  26.126  1.00  0.00     0.261 C 
BRANCH  34  35
ATOM     35  O   UNL A   1      41.598  19.330  25.265  1.00  0.00    -0.460 OA
BRANCH  35  36
ATOM     36  C   UNL A   1      42.759  19.699  25.860  1.00  0.00     0.338 C 
ATOM     37  O   UNL A   1      43.757  18.998  25.996  1.00  0.00    -0.246 OA
BRANCH  36  38
ATOM     38  C   UNL A   1      42.722  21.123  26.231  1.00  0.00     0.060 A 
ATOM     39  C   UNL A   1      42.734  22.094  25.230  1.00  0.00     0.016 A 
ATOM     40  C   UNL A   1      42.823  21.505  27.565  1.00  0.00     0.016 A 
ATOM     41  C   UNL A   1      42.905  23.438  25.574  1.00  0.00     0.010 A 
ATOM     42  C   UNL A   1      42.951  22.846  27.917  1.00  0.00     0.010 A 
ATOM     43  C   UNL A   1      43.054  23.818  26.918  1.00  0.00    -0.014 A 
BRANCH  43  44
ATOM     44  C   UNL A   1      43.450  25.199  27.282  1.00  0.00     0.031 A 
ATOM     45  C   UNL A   1      44.897  25.610  27.182  1.00  0.00     0.074 A 
ATOM     46  C   UNL A   1      42.525  26.067  27.729  1.00  0.00     0.049 A 
ATOM     47  N   UNL A   1      45.447  26.774  27.417  1.00  0.00    -0.248 NA
ATOM     48  C   UNL A   1      45.854  24.566  26.779  1.00  0.00     0.031 C 
ATOM     49  C   UNL A   1      41.106  25.760  27.919  1.00  0.00     0.029 A 
ATOM     50  N   UNL A   1      42.640  27.377  28.114  1.00  0.00    -0.354 N 
ATOM     51  C   UNL A   1      46.810  26.604  27.189  1.00  0.00     0.074 A 
ATOM     52  C   UNL A   1      47.008  25.211  26.853  1.00  0.00     0.031 C 
ATOM     53  C   UNL A   1      40.482  26.857  28.382  1.00  0.00     0.029 A 
ATOM     54  C   UNL A   1      41.457  27.933  28.536  1.00  0.00     0.049 A 
ATOM     55  H   UNL A   1      43.491  27.872  28.090  1.00  0.00     0.167 HD
ATOM     56  C   UNL A   1      47.801  27.529  27.238  1.00  0.00     0.034 A 
ATOM     57  C   UNL A   1      41.192  29.172  28.996  1.00  0.00     0.034 A 
ATOM     58  C   UNL A   1      47.585  28.912  27.588  1.00  0.00     0.049 A 
ATOM     59  C   UNL A   1      42.307  30.184  29.048  1.00  0.00     0.074 A 
ATOM     60  C   UNL A   1      48.497  29.953  27.605  1.00  0.00     0.029 A 
ATOM     61  N   UNL A   1      46.369  29.445  28.001  1.00  0.00    -0.354 N 
ATOM     62  N   UNL A   1      43.575  30.033  28.744  1.00  0.00    -0.248 NA
ATOM     63  C   UNL A   1      41.948  31.538  29.485  1.00  0.00     0.031 C 
ATOM     64  C   UNL A   1      47.850  31.098  28.088  1.00  0.00     0.029 A 
ATOM     65  C   UNL A   1      46.516  30.789  28.307  1.00  0.00     0.049 A 
ATOM     66  H   UNL A   1      45.527  28.940  28.068  1.00  0.00     0.167 HD
ATOM     67  C   UNL A   1      44.161  31.281  28.929  1.00  0.00     0.074 A 
ATOM     68  C   UNL A   1      43.103  32.175  29.357  1.00  0.00     0.031 C 
ATOM     69  C   UNL A   1      45.453  31.660  28.754  1.00  0.00     0.034 A 
BRANCH  56  70
ATOM     70  C   UNL A   1      49.206  27.064  26.931  1.00  0.00     0.023 A 
ATOM     71  C   UNL A   1      50.194  26.982  27.930  1.00  0.00     0.031 A 
ATOM     72  C   UNL A   1      49.569  26.714  25.618  1.00  0.00     0.131 A 
ATOM     73  C   UNL A   1      51.509  26.626  27.590  1.00  0.00     0.055 A 
ATOM     74  C   UNL A   1      50.863  26.291  25.300  1.00  0.00     0.041 A 
ATOM     75  F   UNL A   1      48.678  26.788  24.618  1.00  0.00    -0.206 F 
ATOM     76  C   UNL A   1      51.844  26.258  26.286  1.00  0.00     0.022 A 
BRANCH  73  77
ATOM     77  S   UNL A   1      52.803  26.765  28.854  1.00  0.00     0.124 S 
ATOM     78  O   UNL A   1      52.063  26.449  30.073  1.00  0.00    -0.237 OA
ATOM     79  O   UNL A   1      53.778  25.771  28.420  1.00  0.00    -0.237 OA
ATOM     80  O   UNL A   1      53.241  28.156  28.744  1.00  0.00    -0.744 OA
ENDBRANCH  73  77
ENDBRANCH  56  70
BRANCH  57  81
ATOM     81  C   UNL A   1      39.815  29.524  29.435  1.00  0.00     0.023 A 
ATOM     82  C   UNL A   1      39.480  29.576  30.797  1.00  0.00     0.031 A 
ATOM     83  C   UNL A   1      38.808  29.799  28.494  1.00  0.00     0.131 A 
ATOM     84  C   UNL A   1      38.162  29.861  31.182  1.00  0.00     0.055 A 
ATOM     85  C   UNL A   1      37.506  30.121  28.882  1.00  0.00     0.041 A 
ATOM     86  F   UNL A   1      39.081  29.773  27.181  1.00  0.00    -0.206 F 
ATOM     87  C   UNL A   1      37.175  30.143  30.234  1.00  0.00     0.022 A 
BRANCH  84  88
ATOM     88  S   UNL A   1      37.738  29.800  32.945  1.00  0.00     0.124 S 
ATOM     89  O   UNL A   1      38.978  30.250  33.566  1.00  0.00    -0.237 OA
ATOM     90  O   UNL A   1      36.612  30.726  33.016  1.00  0.00    -0.237 OA
ATOM     91  O   UNL A   1      37.402  28.395  33.165  1.00  0.00    -0.744 OA
ENDBRANCH  84  88
ENDBRANCH  57  81
BRANCH  69  92
ATOM     92  C   UNL A   1      45.774  33.112  28.995  1.00  0.00     0.023 A 
ATOM     93  C   UNL A   1      45.676  34.069  27.971  1.00  0.00     0.031 A 
ATOM     94  C   UNL A   1      46.204  33.540  30.264  1.00  0.00     0.131 A 
ATOM     95  C   UNL A   1      46.058  35.397  28.218  1.00  0.00     0.055 A 
ATOM     96  C   UNL A   1      46.531  34.872  30.518  1.00  0.00     0.041 A 
ATOM     97  F   UNL A   1      46.316  32.666  31.278  1.00  0.00    -0.206 F 
ATOM     98  C   UNL A   1      46.471  35.807  29.488  1.00  0.00     0.022 A 
BRANCH  95  99
ATOM     99  S   UNL A   1      46.093  36.566  26.831  1.00  0.00     0.124 S 
ATOM    100  O   UNL A   1      47.250  37.393  27.160  1.00  0.00    -0.237 OA
ATOM    101  O   UNL A   1      46.249  35.682  25.680  1.00  0.00    -0.237 OA
ATOM    102  O   UNL A   1      44.801  37.243  26.921  1.00  0.00    -0.744 OA
ENDBRANCH  95  99
ENDBRANCH  69  92
ENDBRANCH  43  44
ENDBRANCH  36  38
ENDBRANCH  35  36
ENDBRANCH  34  35
ENDBRANCH  33  34
ENDBRANCH  32  33
ENDBRANCH   1  32
TORSDOF 21
ENDMDL
MODEL 2
REMARK VINA RESULT:     -10.5      1.820      2.103
REMARK SMILES COc1cccc(C(=O)N2CCC(C(=O)N3CC[N@H+](C)[C@@H](C(=O)OCCOCCOC(=O)c4ccc(-c5c6nc(c(-c7cc(S(=O)(=O)[O-])ccc7F)c7ccc([nH]7)c(-c7cc(S(=O)(=O)[O-])ccc7F)c7nc(c(-c8cc(S(=O)(=O)[O-])ccc8F)c8ccc5[nH]8)C=C7)C=C6)cc4)C3)CC2)c1
REMARK SMILES IDX 26 1 25 2 24 3 22 4 23 5 21 6 16 7 17 8 96 9 18 10 19 11
REMARK SMILES IDX 20 12 14 14 15 15 13 16 8 17 9 18 10 19 11 20 98 21 12 22
REMARK SMILES IDX 97 23 7 24 3 25 4 26 99 27 5 28 6 29 2 30 1 31 27 32 28 33
REMARK SMILES IDX 29 34 30 35 31 36 32 37 33 38 34 39 95 40 35 41 94 42 36 43
REMARK SMILES IDX 37 44 38 45 88 46 39 47 93 48 87 49 89 50 40 51 92 52 86 53
REMARK SMILES IDX 85 54 41 56 73 57 53 58 72 59 54 60 57 61 71 62 90 63 55 64
REMARK SMILES IDX 56 65 70 67 91 68 58 69 42 70 43 71 51 72 44 73 50 74 52 75
REMARK SMILES IDX 49 76 45 77 46 78 47 79 48 80 74 81 75 82 83 83 76 84 82 85
REMARK SMILES IDX 84 86 81 87 77 88 78 89 79 90 80 91 59 92 60 93 68 94 61 95
REMARK SMILES IDX 67 96 69 97 66 98 62 99 63 100 64 101 65 102
REMARK H PARENT 19 13 89 55 57 66
REMARK Flexibility Score: inf
ROOT
ATOM      1  C   UNL A   1      36.566  22.482  25.753  1.00  0.00     0.202 C 
ENDROOT
BRANCH   1   2
ATOM      2  C   UNL A   1      35.921  21.473  24.792  1.00  0.00     0.261 C 
BRANCH   2   3
ATOM      3  O   UNL A   1      34.633  21.842  24.265  1.00  0.00    -0.459 OA
BRANCH   3   4
ATOM      4  C   UNL A   1      33.627  21.818  25.185  1.00  0.00     0.366 C 
ATOM      5  O   UNL A   1      33.280  20.814  25.803  1.00  0.00    -0.245 OA
BRANCH   4   6
ATOM      6  C   UNL A   1      32.891  23.164  25.343  1.00  0.00     0.314 C 
ATOM      7  N   UNL A   1      32.686  24.727  23.276  1.00  0.00    -0.330 N 
ATOM      8  C   UNL A   1      31.305  24.251  23.143  1.00  0.00     0.181 C 
ATOM      9  C   UNL A   1      33.426  24.356  24.499  1.00  0.00     0.197 C 
ATOM     10  C   UNL A   1      31.004  22.932  23.859  1.00  0.00     0.284 C 
ATOM     11  N   UNL A   1      31.432  22.904  25.265  1.00  0.00    -0.323 N 
ATOM     12  C   UNL A   1      30.676  23.830  26.100  1.00  0.00     0.333 C 
ATOM     13  H   UNL A   1      31.238  21.973  25.636  1.00  0.00     0.348 HD
BRANCH   7  14
ATOM     14  C   UNL A   1      33.009  25.811  22.449  1.00  0.00     0.226 C 
ATOM     15  O   UNL A   1      33.655  25.633  21.413  1.00  0.00    -0.275 OA
BRANCH  14  16
ATOM     16  C   UNL A   1      32.547  27.230  22.824  1.00  0.00     0.082 C 
ATOM     17  C   UNL A   1      31.943  29.345  26.323  1.00  0.00     0.253 C 
ATOM     18  O   UNL A   1      31.400  28.515  27.046  1.00  0.00    -0.269 OA
ATOM     19  N   UNL A   1      32.021  29.185  24.941  1.00  0.00    -0.339 N 
ATOM     20  C   UNL A   1      30.934  28.516  24.261  1.00  0.00     0.120 C 
ATOM     21  C   UNL A   1      33.255  29.334  24.178  1.00  0.00     0.120 C 
ATOM     22  C   UNL A   1      31.355  27.142  23.772  1.00  0.00     0.035 C 
ATOM     23  C   UNL A   1      33.688  27.995  23.558  1.00  0.00     0.035 C 
BRANCH  17  24
ATOM     24  C   UNL A   1      32.347  30.648  26.919  1.00  0.00     0.043 A 
ATOM     25  C   UNL A   1      34.035  32.030  27.977  1.00  0.00     0.119 A 
ATOM     26  C   UNL A   1      33.276  33.167  27.698  1.00  0.00     0.046 A 
ATOM     27  C   UNL A   1      33.563  30.770  27.605  1.00  0.00     0.060 A 
ATOM     28  C   UNL A   1      32.069  33.055  27.006  1.00  0.00     0.005 A 
ATOM     29  C   UNL A   1      31.609  31.798  26.609  1.00  0.00     0.014 A 
BRANCH  25  30
ATOM     30  O   UNL A   1      35.225  32.246  28.620  1.00  0.00    -0.497 OA
ATOM     31  C   UNL A   1      35.885  33.455  28.252  1.00  0.00     0.278 C 
ENDBRANCH  25  30
ENDBRANCH  17  24
ENDBRANCH  14  16
ENDBRANCH   7  14
ENDBRANCH   4   6
ENDBRANCH   3   4
ENDBRANCH   2   3
ENDBRANCH   1   2
BRANCH   1  32
ATOM     32  O   UNL A   1      37.980  22.429  25.906  1.00  0.00    -0.374 OA
BRANCH  32  33
ATOM     33  C   UNL A   1      38.620  21.175  25.669  1.00  0.00     0.202 C 
BRANCH  33  34
ATOM     34  C   UNL A   1      39.957  20.947  26.378  1.00  0.00     0.261 C 
BRANCH  34  35
ATOM     35  O   UNL A   1      40.864  20.179  25.563  1.00  0.00    -0.460 OA
BRANCH  35  36
ATOM     36  C   UNL A   1      42.076  19.959  26.128  1.00  0.00     0.338 C 
ATOM     37  O   UNL A   1      42.604  18.865  26.305  1.00  0.00    -0.246 OA
BRANCH  36  38
ATOM     38  C   UNL A   1      42.759  21.233  26.405  1.00  0.00     0.060 A 
ATOM     39  C   UNL A   1      43.091  21.563  27.719  1.00  0.00     0.016 A 
ATOM     40  C   UNL A   1      42.944  22.168  25.390  1.00  0.00     0.016 A 
ATOM     41  C   UNL A   1      43.550  22.851  28.013  1.00  0.00     0.010 A 
ATOM     42  C   UNL A   1      43.442  23.438  25.670  1.00  0.00     0.010 A 
ATOM     43  C   UNL A   1      43.692  23.808  26.994  1.00  0.00    -0.014 A 
BRANCH  43  44
ATOM     44  C   UNL A   1      43.968  25.229  27.314  1.00  0.00     0.031 A 
ATOM     45  C   UNL A   1      45.377  25.755  27.206  1.00  0.00     0.074 A 
ATOM     46  C   UNL A   1      42.971  26.029  27.728  1.00  0.00     0.049 A 
ATOM     47  N   UNL A   1      45.826  26.968  27.404  1.00  0.00    -0.248 NA
ATOM     48  C   UNL A   1      46.420  24.783  26.842  1.00  0.00     0.031 C 
ATOM     49  C   UNL A   1      41.582  25.611  27.922  1.00  0.00     0.029 A 
ATOM     50  N   UNL A   1      42.973  27.356  28.070  1.00  0.00    -0.354 N 
ATOM     51  C   UNL A   1      47.199  26.906  27.188  1.00  0.00     0.074 A 
ATOM     52  C   UNL A   1      47.516  25.524  26.899  1.00  0.00     0.031 C 
ATOM     53  C   UNL A   1      40.865  26.666  28.346  1.00  0.00     0.029 A 
ATOM     54  C   UNL A   1      41.745  27.825  28.468  1.00  0.00     0.049 A 
ATOM     55  H   UNL A   1      43.780  27.921  28.033  1.00  0.00     0.167 HD
ATOM     56  C   UNL A   1      48.110  27.912  27.210  1.00  0.00     0.034 A 
ATOM     57  C   UNL A   1      41.375  29.052  28.885  1.00  0.00     0.034 A 
ATOM     58  C   UNL A   1      47.777  29.283  27.513  1.00  0.00     0.049 A 
ATOM     59  C   UNL A   1      42.401  30.155  28.909  1.00  0.00     0.074 A 
ATOM     60  C   UNL A   1      48.598  30.397  27.500  1.00  0.00     0.029 A 
ATOM     61  N   UNL A   1      46.517  29.725  27.904  1.00  0.00    -0.354 N 
ATOM     62  N   UNL A   1      43.679  30.101  28.616  1.00  0.00    -0.248 NA
ATOM     63  C   UNL A   1      41.926  31.488  29.299  1.00  0.00     0.031 C 
ATOM     64  C   UNL A   1      47.854  31.498  27.942  1.00  0.00     0.029 A 
ATOM     65  C   UNL A   1      46.549  31.086  28.165  1.00  0.00     0.049 A 
ATOM     66  H   UNL A   1      45.719  29.154  27.984  1.00  0.00     0.167 HD
ATOM     67  C   UNL A   1      44.157  31.399  28.761  1.00  0.00     0.074 A 
ATOM     68  C   UNL A   1      43.025  32.215  29.155  1.00  0.00     0.031 C 
ATOM     69  C   UNL A   1      45.414  31.879  28.579  1.00  0.00     0.034 A 
BRANCH  56  70
ATOM     70  C   UNL A   1      49.550  27.556  26.925  1.00  0.00     0.023 A 
ATOM     71  C   UNL A   1      50.101  27.677  25.635  1.00  0.00     0.031 A 
ATOM     72  C   UNL A   1      50.381  27.070  27.951  1.00  0.00     0.131 A 
ATOM     73  C   UNL A   1      51.419  27.257  25.392  1.00  0.00     0.055 A 
ATOM     74  C   UNL A   1      51.714  26.721  27.716  1.00  0.00     0.041 A 
ATOM     75  F   UNL A   1      49.910  26.915  29.197  1.00  0.00    -0.206 F 
ATOM     76  C   UNL A   1      52.236  26.801  26.428  1.00  0.00     0.022 A 
BRANCH  73  77
ATOM     77  S   UNL A   1      52.013  27.201  23.679  1.00  0.00     0.124 S 
ATOM     78  O   UNL A   1      52.828  28.410  23.608  1.00  0.00    -0.237 OA
ATOM     79  O   UNL A   1      52.738  25.936  23.636  1.00  0.00    -0.237 OA
ATOM     80  O   UNL A   1      50.784  27.241  22.889  1.00  0.00    -0.744 OA
ENDBRANCH  73  77
ENDBRANCH  56  70
BRANCH  57  81
ATOM     81  C   UNL A   1      39.970  29.302  29.308  1.00  0.00     0.023 A 
ATOM     82  C   UNL A   1      39.627  29.393  30.665  1.00  0.00     0.031 A 
ATOM     83  C   UNL A   1      38.945  29.436  28.354  1.00  0.00     0.131 A 
ATOM     84  C   UNL A   1      38.286  29.578  31.036  1.00  0.00     0.055 A 
ATOM     85  C   UNL A   1      37.619  29.661  28.726  1.00  0.00     0.041 A 
ATOM     86  F   UNL A   1      39.225  29.369  27.044  1.00  0.00    -0.206 F 
ATOM     87  C   UNL A   1      37.282  29.722  30.076  1.00  0.00     0.022 A 
BRANCH  84  88
ATOM     88  S   UNL A   1      37.863  29.569  32.799  1.00  0.00     0.124 S 
ATOM     89  O   UNL A   1      39.139  29.914  33.415  1.00  0.00    -0.237 OA
ATOM     90  O   UNL A   1      36.821  30.590  32.864  1.00  0.00    -0.237 OA
ATOM     91  O   UNL A   1      37.406  28.201  33.032  1.00  0.00    -0.744 OA
ENDBRANCH  84  88
ENDBRANCH  57  81
BRANCH  69  92
ATOM     92  C   UNL A   1      45.610  33.360  28.773  1.00  0.00     0.023 A 
ATOM     93  C   UNL A   1      45.979  33.898  30.018  1.00  0.00     0.031 A 
ATOM     94  C   UNL A   1      45.403  34.247  27.702  1.00  0.00     0.131 A 
ATOM     95  C   UNL A   1      46.075  35.289  30.176  1.00  0.00     0.055 A 
ATOM     96  C   UNL A   1      45.553  35.626  27.851  1.00  0.00     0.041 A 
ATOM     97  F   UNL A   1      45.049  33.786  26.492  1.00  0.00    -0.206 F 
ATOM     98  C   UNL A   1      45.879  36.156  29.098  1.00  0.00     0.022 A 
BRANCH  95  99
ATOM     99  S   UNL A   1      46.375  35.959  31.835  1.00  0.00     0.124 S 
ATOM    100  O   UNL A   1      45.325  35.314  32.617  1.00  0.00    -0.237 OA
ATOM    101  O   UNL A   1      47.738  35.516  32.111  1.00  0.00    -0.237 OA
ATOM    102  O   UNL A   1      46.217  37.401  31.656  1.00  0.00    -0.744 OA
ENDBRANCH  95  99
ENDBRANCH  69  92
ENDBRANCH  43  44
ENDBRANCH  36  38
ENDBRANCH  35  36
ENDBRANCH  34  35
ENDBRANCH  33  34
ENDBRANCH  32  33
ENDBRANCH   1  32
TORSDOF 21
ENDMDL
MODEL 3
REMARK VINA RESULT:     -10.5      1.075      7.207
REMARK SMILES COc1cccc(C(=O)N2CCC(C(=O)N3CC[N@H+](C)[C@@H](C(=O)OCCOCCOC(=O)c4ccc(-c5c6nc(c(-c7cc(S(=O)(=O)[O-])ccc7F)c7ccc([nH]7)c(-c7cc(S(=O)(=O)[O-])ccc7F)c7nc(c(-c8cc(S(=O)(=O)[O-])ccc8F)c8ccc5[nH]8)C=C7)C=C6)cc4)C3)CC2)c1
REMARK SMILES IDX 26 1 25 2 24 3 22 4 23 5 21 6 16 7 17 8 96 9 18 10 19 11
REMARK SMILES IDX 20 12 14 14 15 15 13 16 8 17 9 18 10 19 11 20 98 21 12 22
REMARK SMILES IDX 97 23 7 24 3 25 4 26 99 27 5 28 6 29 2 30 1 31 27 32 28 33
REMARK SMILES IDX 29 34 30 35 31 36 32 37 33 38 34 39 95 40 35 41 94 42 36 43
REMARK SMILES IDX 37 44 38 45 88 46 39 47 93 48 87 49 89 50 40 51 92 52 86 53
REMARK SMILES IDX 85 54 41 56 73 57 53 58 72 59 54 60 57 61 71 62 90 63 55 64
REMARK SMILES IDX 56 65 70 67 91 68 58 69 42 70 43 71 51 72 44 73 50 74 52 75
REMARK SMILES IDX 49 76 45 77 46 78 47 79 48 80 74 81 75 82 83 83 76 84 82 85
REMARK SMILES IDX 84 86 81 87 77 88 78 89 79 90 80 91 59 92 60 93 68 94 61 95
REMARK SMILES IDX 67 96 69 97 66 98 62 99 63 100 64 101 65 102
REMARK H PARENT 19 13 89 55 57 66
REMARK Flexibility Score: inf
ROOT
ATOM      1  C   UNL A   1      36.302  22.654  25.639  1.00  0.00     0.202 C 
ENDROOT
BRANCH   1   2
ATOM      2  C   UNL A   1      35.661  21.533  24.809  1.00  0.00     0.261 C 
BRANCH   2   3
ATOM      3  O   UNL A   1      34.447  21.881  24.117  1.00  0.00    -0.459 OA
BRANCH   3   4
ATOM      4  C   UNL A   1      33.334  21.870  24.904  1.00  0.00     0.366 C 
ATOM      5  O   UNL A   1      32.827  20.851  25.370  1.00  0.00    -0.245 OA
BRANCH   4   6
ATOM      6  C   UNL A   1      32.701  23.261  25.113  1.00  0.00     0.314 C 
ATOM      7  N   UNL A   1      32.543  24.880  23.086  1.00  0.00    -0.330 N 
ATOM      8  C   UNL A   1      31.128  24.505  22.989  1.00  0.00     0.181 C 
ATOM      9  C   UNL A   1      33.293  24.430  24.277  1.00  0.00     0.197 C 
ATOM     10  C   UNL A   1      30.756  23.195  23.688  1.00  0.00     0.284 C 
ATOM     11  N   UNL A   1      31.226  23.106  25.078  1.00  0.00    -0.323 N 
ATOM     12  C   UNL A   1      30.564  24.064  25.956  1.00  0.00     0.333 C 
ATOM     13  H   UNL A   1      30.978  22.183  25.437  1.00  0.00     0.348 HD
BRANCH   7  14
ATOM     14  C   UNL A   1      32.916  25.957  22.271  1.00  0.00     0.226 C 
ATOM     15  O   UNL A   1      33.535  25.758  21.221  1.00  0.00    -0.275 OA
BRANCH  14  16
ATOM     16  C   UNL A   1      32.543  27.393  22.675  1.00  0.00     0.082 C 
ATOM     17  C   UNL A   1      31.895  29.426  26.214  1.00  0.00     0.253 C 
ATOM     18  O   UNL A   1      31.248  28.617  26.872  1.00  0.00    -0.269 OA
ATOM     19  N   UNL A   1      32.044  29.308  24.833  1.00  0.00    -0.339 N 
ATOM     20  C   UNL A   1      30.951  28.753  24.067  1.00  0.00     0.120 C 
ATOM     21  C   UNL A   1      33.329  29.387  24.149  1.00  0.00     0.120 C 
ATOM     22  C   UNL A   1      31.293  27.367  23.549  1.00  0.00     0.035 C 
ATOM     23  C   UNL A   1      33.694  28.040  23.502  1.00  0.00     0.035 C 
BRANCH  17  24
ATOM     24  C   UNL A   1      32.362  30.671  26.884  1.00  0.00     0.043 A 
ATOM     25  C   UNL A   1      34.152  31.957  27.896  1.00  0.00     0.119 A 
ATOM     26  C   UNL A   1      33.376  33.112  27.793  1.00  0.00     0.046 A 
ATOM     27  C   UNL A   1      33.638  30.734  27.458  1.00  0.00     0.060 A 
ATOM     28  C   UNL A   1      32.108  33.060  27.212  1.00  0.00     0.005 A 
ATOM     29  C   UNL A   1      31.605  31.843  26.750  1.00  0.00     0.014 A 
BRANCH  25  30
ATOM     30  O   UNL A   1      35.399  32.118  28.438  1.00  0.00    -0.497 OA
ATOM     31  C   UNL A   1      35.402  32.492  29.814  1.00  0.00     0.278 C 
ENDBRANCH  25  30
ENDBRANCH  17  24
ENDBRANCH  14  16
ENDBRANCH   7  14
ENDBRANCH   4   6
ENDBRANCH   3   4
ENDBRANCH   2   3
ENDBRANCH   1   2
BRANCH   1  32
ATOM     32  O   UNL A   1      37.719  22.640  25.773  1.00  0.00    -0.374 OA
BRANCH  32  33
ATOM     33  C   UNL A   1      38.366  21.367  25.779  1.00  0.00     0.202 C 
BRANCH  33  34
ATOM     34  C   UNL A   1      39.712  21.288  26.502  1.00  0.00     0.261 C 
BRANCH  34  35
ATOM     35  O   UNL A   1      40.598  20.343  25.870  1.00  0.00    -0.460 OA
BRANCH  35  36
ATOM     36  C   UNL A   1      41.718  20.062  26.581  1.00  0.00     0.338 C 
ATOM     37  O   UNL A   1      42.072  18.951  26.965  1.00  0.00    -0.246 OA
BRANCH  36  38
ATOM     38  C   UNL A   1      42.547  21.268  26.743  1.00  0.00     0.060 A 
ATOM     39  C   UNL A   1      42.936  21.667  28.022  1.00  0.00     0.016 A 
ATOM     40  C   UNL A   1      42.819  22.086  25.651  1.00  0.00     0.016 A 
ATOM     41  C   UNL A   1      43.545  22.912  28.201  1.00  0.00     0.010 A 
ATOM     42  C   UNL A   1      43.464  23.309  25.817  1.00  0.00     0.010 A 
ATOM     43  C   UNL A   1      43.778  23.758  27.104  1.00  0.00    -0.014 A 
BRANCH  43  44
ATOM     44  C   UNL A   1      44.221  25.159  27.299  1.00  0.00     0.031 A 
ATOM     45  C   UNL A   1      43.253  26.174  27.854  1.00  0.00     0.074 A 
ATOM     46  C   UNL A   1      45.468  25.523  26.952  1.00  0.00     0.049 A 
ATOM     47  N   UNL A   1      43.448  27.438  28.134  1.00  0.00    -0.248 NA
ATOM     48  C   UNL A   1      41.881  25.709  28.111  1.00  0.00     0.031 C 
ATOM     49  C   UNL A   1      46.467  24.637  26.355  1.00  0.00     0.029 A 
ATOM     50  N   UNL A   1      46.102  26.734  27.042  1.00  0.00    -0.354 N 
ATOM     51  C   UNL A   1      42.228  27.917  28.602  1.00  0.00     0.074 A 
ATOM     52  C   UNL A   1      41.286  26.822  28.513  1.00  0.00     0.031 C 
ATOM     53  C   UNL A   1      47.594  25.337  26.135  1.00  0.00     0.029 A 
ATOM     54  C   UNL A   1      47.389  26.719  26.560  1.00  0.00     0.049 A 
ATOM     55  H   UNL A   1      45.676  27.540  27.416  1.00  0.00     0.167 HD
ATOM     56  C   UNL A   1      41.926  29.151  29.079  1.00  0.00     0.034 A 
ATOM     57  C   UNL A   1      48.297  27.710  26.471  1.00  0.00     0.034 A 
ATOM     58  C   UNL A   1      42.876  30.234  29.148  1.00  0.00     0.049 A 
ATOM     59  C   UNL A   1      47.941  29.076  27.000  1.00  0.00     0.074 A 
ATOM     60  C   UNL A   1      42.705  31.503  29.672  1.00  0.00     0.029 A 
ATOM     61  N   UNL A   1      44.176  30.181  28.658  1.00  0.00    -0.354 N 
ATOM     62  N   UNL A   1      46.810  29.490  27.522  1.00  0.00    -0.248 NA
ATOM     63  C   UNL A   1      48.993  30.098  26.947  1.00  0.00     0.031 C 
ATOM     64  C   UNL A   1      43.877  32.236  29.444  1.00  0.00     0.029 A 
ATOM     65  C   UNL A   1      44.805  31.403  28.839  1.00  0.00     0.049 A 
ATOM     66  H   UNL A   1      44.590  29.389  28.243  1.00  0.00     0.167 HD
ATOM     67  C   UNL A   1      47.023  30.816  27.884  1.00  0.00     0.074 A 
ATOM     68  C   UNL A   1      48.396  31.126  27.532  1.00  0.00     0.031 C 
ATOM     69  C   UNL A   1      46.168  31.699  28.462  1.00  0.00     0.034 A 
BRANCH  56  70
ATOM     70  C   UNL A   1      40.505  29.394  29.534  1.00  0.00     0.023 A 
ATOM     71  C   UNL A   1      40.163  29.439  30.899  1.00  0.00     0.031 A 
ATOM     72  C   UNL A   1      39.474  29.563  28.593  1.00  0.00     0.131 A 
ATOM     73  C   UNL A   1      38.820  29.583  31.282  1.00  0.00     0.055 A 
ATOM     74  C   UNL A   1      38.150  29.778  28.982  1.00  0.00     0.041 A 
ATOM     75  F   UNL A   1      39.733  29.513  27.278  1.00  0.00    -0.206 F 
ATOM     76  C   UNL A   1      37.814  29.775  30.333  1.00  0.00     0.022 A 
BRANCH  73  77
ATOM     77  S   UNL A   1      38.389  29.395  33.034  1.00  0.00     0.124 S 
ATOM     78  O   UNL A   1      39.639  28.888  33.594  1.00  0.00    -0.237 OA
ATOM     79  O   UNL A   1      38.019  30.753  33.417  1.00  0.00    -0.237 OA
ATOM     80  O   UNL A   1      37.289  28.432  33.015  1.00  0.00    -0.744 OA
ENDBRANCH  73  77
ENDBRANCH  56  70
BRANCH  57  81
ATOM     81  C   UNL A   1      49.629  27.447  25.863  1.00  0.00     0.023 A 
ATOM     82  C   UNL A   1      50.760  27.224  26.664  1.00  0.00     0.031 A 
ATOM     83  C   UNL A   1      49.793  27.432  24.467  1.00  0.00     0.131 A 
ATOM     84  C   UNL A   1      52.013  27.030  26.064  1.00  0.00     0.055 A 
ATOM     85  C   UNL A   1      51.034  27.198  23.874  1.00  0.00     0.041 A 
ATOM     86  F   UNL A   1      48.740  27.629  23.659  1.00  0.00    -0.206 F 
ATOM     87  C   UNL A   1      52.156  27.006  24.675  1.00  0.00     0.022 A 
BRANCH  84  88
ATOM     88  S   UNL A   1      53.471  26.866  27.131  1.00  0.00     0.124 S 
ATOM     89  O   UNL A   1      52.897  26.269  28.332  1.00  0.00    -0.237 OA
ATOM     90  O   UNL A   1      54.333  26.000  26.332  1.00  0.00    -0.237 OA
ATOM     91  O   UNL A   1      53.940  28.242  27.280  1.00  0.00    -0.744 OA
ENDBRANCH  84  88
ENDBRANCH  57  81
BRANCH  69  92
ATOM     92  C   UNL A   1      46.715  33.068  28.775  1.00  0.00     0.023 A 
ATOM     93  C   UNL A   1      46.611  34.131  27.862  1.00  0.00     0.031 A 
ATOM     94  C   UNL A   1      47.368  33.305  29.998  1.00  0.00     0.131 A 
ATOM     95  C   UNL A   1      47.201  35.368  28.161  1.00  0.00     0.055 A 
ATOM     96  C   UNL A   1      47.906  34.553  30.313  1.00  0.00     0.041 A 
ATOM     97  F   UNL A   1      47.496  32.324  30.906  1.00  0.00    -0.206 F 
ATOM     98  C   UNL A   1      47.836  35.590  29.386  1.00  0.00     0.022 A 
BRANCH  95  99
ATOM     99  S   UNL A   1      47.207  36.661  26.889  1.00  0.00     0.124 S 
ATOM    100  O   UNL A   1      46.529  35.998  25.779  1.00  0.00    -0.237 OA
ATOM    101  O   UNL A   1      46.466  37.740  27.535  1.00  0.00    -0.237 OA
ATOM    102  O   UNL A   1      48.629  36.927  26.677  1.00  0.00    -0.744 OA
ENDBRANCH  95  99
ENDBRANCH  69  92
ENDBRANCH  43  44
ENDBRANCH  36  38
ENDBRANCH  35  36
ENDBRANCH  34  35
ENDBRANCH  33  34
ENDBRANCH  32  33
ENDBRANCH   1  32
TORSDOF 21
ENDMDL
