MODEL 1
REMARK VINA RESULT:     -10.2      0.000      0.000
REMARK SMILES CC(C)C[C@H](NC(=O)Cc1ccccc1)C(=O)OCCOCCOC(=O)c1ccc(-c2c3nc(c(-c4cc(S(=O)(=O)[O-])ccc4F)c4ccc([nH]4)c(-c4cc(S(=O)(=O)[O-])ccc4F)c4nc(c(-c5cc(S(=O)(=O)[O-])ccc5F)c5ccc2[nH]5)C=C4)C=C3)cc1
REMARK SMILES IDX 21 1 20 2 19 3 18 4 16 5 17 6 5 7 4 8 2 9 1 10 3 11 6 12
REMARK SMILES IDX 7 13 8 15 9 16 10 17 11 18 15 19 12 20 14 21 13 22 22 23
REMARK SMILES IDX 23 24 24 25 25 26 26 27 27 28 28 29 89 30 29 31 88 32 30 33
REMARK SMILES IDX 31 34 32 35 82 36 33 37 87 38 81 39 83 40 34 41 86 42 80 43
REMARK SMILES IDX 79 44 35 46 67 47 47 48 66 49 48 50 51 51 65 52 84 53 49 54
REMARK SMILES IDX 50 55 64 57 85 58 52 59 36 60 37 61 45 62 38 63 44 64 46 65
REMARK SMILES IDX 43 66 39 67 40 68 41 69 42 70 68 71 69 72 77 73 70 74 76 75
REMARK SMILES IDX 78 76 75 77 71 78 72 79 73 80 74 81 53 82 54 83 62 84 55 85
REMARK SMILES IDX 61 86 63 87 60 88 56 89 57 90 58 91 59 92
REMARK H PARENT 6 14 83 45 51 56
REMARK Flexibility Score: inf
ROOT
ATOM      1  O   UNL A   1      31.707  30.008  26.165  1.00  0.00    -0.374 OA
ENDROOT
BRANCH   1   2
ATOM      2  C   UNL A   1      31.355  30.086  24.789  1.00  0.00     0.202 C 
BRANCH   2   3
ATOM      3  C   UNL A   1      30.616  28.902  24.155  1.00  0.00     0.261 C 
BRANCH   3   4
ATOM      4  O   UNL A   1      31.288  27.645  24.305  1.00  0.00    -0.462 OA
BRANCH   4   5
ATOM      5  C   UNL A   1      31.433  26.962  23.138  1.00  0.00     0.328 C 
ATOM      6  O   UNL A   1      30.801  27.190  22.110  1.00  0.00    -0.250 OA
BRANCH   5   7
ATOM      7  C   UNL A   1      32.411  25.789  23.247  1.00  0.00     0.192 C 
BRANCH   7   8
ATOM      8  C   UNL A   1      33.738  26.270  23.855  1.00  0.00     0.040 C 
BRANCH   8   9
ATOM      9  C   UNL A   1      33.924  25.971  25.356  1.00  0.00    -0.015 C 
ATOM     10  C   UNL A   1      33.828  27.223  26.223  1.00  0.00     0.007 C 
ATOM     11  C   UNL A   1      32.880  24.951  25.812  1.00  0.00     0.007 C 
ENDBRANCH   8   9
ENDBRANCH   7   8
BRANCH   7  12
ATOM     12  N   UNL A   1      32.702  25.069  22.000  1.00  0.00    -0.342 N 
ATOM     13  C   UNL A   1      33.128  23.780  21.832  1.00  0.00     0.225 C 
ATOM     14  H   UNL A   1      32.571  25.584  21.171  1.00  0.00     0.164 HD
ATOM     15  O   UNL A   1      33.462  23.417  20.702  1.00  0.00    -0.275 OA
BRANCH  13  16
ATOM     16  C   UNL A   1      33.088  22.779  22.980  1.00  0.00     0.135 C 
BRANCH  16  17
ATOM     17  C   UNL A   1      34.388  22.506  23.702  1.00  0.00    -0.039 A 
ATOM     18  C   UNL A   1      34.402  21.609  24.785  1.00  0.00     0.004 A 
ATOM     19  C   UNL A   1      35.587  23.117  23.317  1.00  0.00     0.004 A 
ATOM     20  C   UNL A   1      35.574  21.375  25.502  1.00  0.00     0.000 A 
ATOM     21  C   UNL A   1      36.763  22.875  24.034  1.00  0.00     0.000 A 
ATOM     22  C   UNL A   1      36.754  22.013  25.130  1.00  0.00     0.000 A 
ENDBRANCH  16  17
ENDBRANCH  13  16
ENDBRANCH   7  12
ENDBRANCH   5   7
ENDBRANCH   4   5
ENDBRANCH   3   4
ENDBRANCH   2   3
ENDBRANCH   1   2
BRANCH   1  23
ATOM     23  C   UNL A   1      31.947  31.214  26.887  1.00  0.00     0.202 C 
BRANCH  23  24
ATOM     24  C   UNL A   1      33.344  31.487  27.457  1.00  0.00     0.261 C 
BRANCH  24  25
ATOM     25  O   UNL A   1      33.760  32.855  27.307  1.00  0.00    -0.460 OA
BRANCH  25  26
ATOM     26  C   UNL A   1      33.547  33.630  28.401  1.00  0.00     0.338 C 
ATOM     27  O   UNL A   1      32.535  34.251  28.676  1.00  0.00    -0.246 OA
BRANCH  26  28
ATOM     28  C   UNL A   1      34.665  33.482  29.345  1.00  0.00     0.060 A 
ATOM     29  C   UNL A   1      35.902  34.047  29.001  1.00  0.00     0.016 A 
ATOM     30  C   UNL A   1      34.533  32.692  30.486  1.00  0.00     0.016 A 
ATOM     31  C   UNL A   1      37.027  33.783  29.778  1.00  0.00     0.010 A 
ATOM     32  C   UNL A   1      35.664  32.420  31.256  1.00  0.00     0.010 A 
ATOM     33  C   UNL A   1      36.921  32.932  30.885  1.00  0.00    -0.014 A 
BRANCH  33  34
ATOM     34  C   UNL A   1      38.139  32.421  31.556  1.00  0.00     0.031 A 
ATOM     35  C   UNL A   1      38.898  31.298  30.906  1.00  0.00     0.074 A 
ATOM     36  C   UNL A   1      38.541  32.923  32.735  1.00  0.00     0.049 A 
ATOM     37  N   UNL A   1      39.881  30.575  31.374  1.00  0.00    -0.248 NA
ATOM     38  C   UNL A   1      38.473  30.937  29.546  1.00  0.00     0.031 C 
ATOM     39  C   UNL A   1      37.916  34.049  33.427  1.00  0.00     0.029 A 
ATOM     40  N   UNL A   1      39.555  32.530  33.570  1.00  0.00    -0.354 N 
ATOM     41  C   UNL A   1      40.179  29.654  30.375  1.00  0.00     0.074 A 
ATOM     42  C   UNL A   1      39.250  29.897  29.290  1.00  0.00     0.031 C 
ATOM     43  C   UNL A   1      38.540  34.233  34.603  1.00  0.00     0.029 A 
ATOM     44  C   UNL A   1      39.571  33.208  34.765  1.00  0.00     0.049 A 
ATOM     45  H   UNL A   1      40.207  31.830  33.337  1.00  0.00     0.167 HD
ATOM     46  C   UNL A   1      41.139  28.696  30.368  1.00  0.00     0.034 A 
ATOM     47  C   UNL A   1      40.299  32.994  35.879  1.00  0.00     0.034 A 
ATOM     48  C   UNL A   1      42.039  28.466  31.472  1.00  0.00     0.049 A 
ATOM     49  C   UNL A   1      41.303  31.868  35.893  1.00  0.00     0.074 A 
ATOM     50  C   UNL A   1      43.059  27.536  31.576  1.00  0.00     0.029 A 
ATOM     51  N   UNL A   1      42.015  29.162  32.675  1.00  0.00    -0.354 N 
ATOM     52  N   UNL A   1      41.577  30.995  34.950  1.00  0.00    -0.248 NA
ATOM     53  C   UNL A   1      42.098  31.701  37.116  1.00  0.00     0.031 C 
ATOM     54  C   UNL A   1      43.598  27.619  32.865  1.00  0.00     0.029 A 
ATOM     55  C   UNL A   1      42.978  28.660  33.537  1.00  0.00     0.049 A 
ATOM     56  H   UNL A   1      41.404  29.904  32.884  1.00  0.00     0.167 HD
ATOM     57  C   UNL A   1      42.601  30.198  35.456  1.00  0.00     0.074 A 
ATOM     58  C   UNL A   1      42.893  30.692  36.786  1.00  0.00     0.031 C 
ATOM     59  C   UNL A   1      43.252  29.161  34.866  1.00  0.00     0.034 A 
BRANCH  46  60
ATOM     60  C   UNL A   1      41.200  27.792  29.159  1.00  0.00     0.023 A 
ATOM     61  C   UNL A   1      42.196  27.931  28.176  1.00  0.00     0.031 A 
ATOM     62  C   UNL A   1      40.206  26.818  28.950  1.00  0.00     0.131 A 
ATOM     63  C   UNL A   1      42.120  27.184  26.989  1.00  0.00     0.055 A 
ATOM     64  C   UNL A   1      40.189  26.014  27.810  1.00  0.00     0.041 A 
ATOM     65  F   UNL A   1      39.214  26.652  29.839  1.00  0.00    -0.206 F 
ATOM     66  C   UNL A   1      41.138  26.208  26.810  1.00  0.00     0.022 A 
BRANCH  63  67
ATOM     67  S   UNL A   1      43.209  27.639  25.611  1.00  0.00     0.124 S 
ATOM     68  O   UNL A   1      42.253  28.174  24.642  1.00  0.00    -0.237 OA
ATOM     69  O   UNL A   1      44.106  28.609  26.226  1.00  0.00    -0.237 OA
ATOM     70  O   UNL A   1      43.825  26.371  25.228  1.00  0.00    -0.744 OA
ENDBRANCH  63  67
ENDBRANCH  46  60
BRANCH  47  71
ATOM     71  C   UNL A   1      40.063  33.829  37.090  1.00  0.00     0.023 A 
ATOM     72  C   UNL A   1      39.294  33.356  38.164  1.00  0.00     0.031 A 
ATOM     73  C   UNL A   1      40.609  35.123  37.186  1.00  0.00     0.131 A 
ATOM     74  C   UNL A   1      39.071  34.182  39.277  1.00  0.00     0.055 A 
ATOM     75  C   UNL A   1      40.421  35.921  38.314  1.00  0.00     0.041 A 
ATOM     76  F   UNL A   1      41.357  35.619  36.187  1.00  0.00    -0.206 F 
ATOM     77  C   UNL A   1      39.640  35.454  39.366  1.00  0.00     0.022 A 
BRANCH  74  78
ATOM     78  S   UNL A   1      37.981  33.583  40.599  1.00  0.00     0.124 S 
ATOM     79  O   UNL A   1      36.882  33.002  39.836  1.00  0.00    -0.237 OA
ATOM     80  O   UNL A   1      38.845  32.640  41.300  1.00  0.00    -0.237 OA
ATOM     81  O   UNL A   1      37.653  34.797  41.344  1.00  0.00    -0.744 OA
ENDBRANCH  74  78
ENDBRANCH  47  71
BRANCH  59  82
ATOM     82  C   UNL A   1      44.394  28.533  35.631  1.00  0.00     0.023 A 
ATOM     83  C   UNL A   1      44.190  27.521  36.584  1.00  0.00     0.031 A 
ATOM     84  C   UNL A   1      45.714  28.948  35.375  1.00  0.00     0.131 A 
ATOM     85  C   UNL A   1      45.289  26.983  37.273  1.00  0.00     0.055 A 
ATOM     86  C   UNL A   1      46.805  28.371  36.023  1.00  0.00     0.041 A 
ATOM     87  F   UNL A   1      45.965  29.913  34.476  1.00  0.00    -0.206 F 
ATOM     88  C   UNL A   1      46.595  27.387  36.986  1.00  0.00     0.022 A 
BRANCH  85  89
ATOM     89  S   UNL A   1      44.986  25.789  38.606  1.00  0.00     0.124 S 
ATOM     90  O   UNL A   1      44.582  24.601  37.862  1.00  0.00    -0.237 OA
ATOM     91  O   UNL A   1      46.287  25.718  39.264  1.00  0.00    -0.237 OA
ATOM     92  O   UNL A   1      43.927  26.417  39.396  1.00  0.00    -0.744 OA
ENDBRANCH  85  89
ENDBRANCH  59  82
ENDBRANCH  33  34
ENDBRANCH  26  28
ENDBRANCH  25  26
ENDBRANCH  24  25
ENDBRANCH  23  24
ENDBRANCH   1  23
TORSDOF 22
ENDMDL
MODEL 2
REMARK VINA RESULT:     -10.1      5.616      9.082
REMARK SMILES CC(C)C[C@H](NC(=O)Cc1ccccc1)C(=O)OCCOCCOC(=O)c1ccc(-c2c3nc(c(-c4cc(S(=O)(=O)[O-])ccc4F)c4ccc([nH]4)c(-c4cc(S(=O)(=O)[O-])ccc4F)c4nc(c(-c5cc(S(=O)(=O)[O-])ccc5F)c5ccc2[nH]5)C=C4)C=C3)cc1
REMARK SMILES IDX 21 1 20 2 19 3 18 4 16 5 17 6 5 7 4 8 2 9 1 10 3 11 6 12
REMARK SMILES IDX 7 13 8 15 9 16 10 17 11 18 15 19 12 20 14 21 13 22 22 23
REMARK SMILES IDX 23 24 24 25 25 26 26 27 27 28 28 29 89 30 29 31 88 32 30 33
REMARK SMILES IDX 31 34 32 35 82 36 33 37 87 38 81 39 83 40 34 41 86 42 80 43
REMARK SMILES IDX 79 44 35 46 67 47 47 48 66 49 48 50 51 51 65 52 84 53 49 54
REMARK SMILES IDX 50 55 64 57 85 58 52 59 36 60 37 61 45 62 38 63 44 64 46 65
REMARK SMILES IDX 43 66 39 67 40 68 41 69 42 70 68 71 69 72 77 73 70 74 76 75
REMARK SMILES IDX 78 76 75 77 71 78 72 79 73 80 74 81 53 82 54 83 62 84 55 85
REMARK SMILES IDX 61 86 63 87 60 88 56 89 57 90 58 91 59 92
REMARK H PARENT 6 14 83 45 51 56
REMARK Flexibility Score: inf
ROOT
ATOM      1  O   UNL A   1      37.300  21.718  24.384  1.00  0.00    -0.374 OA
ENDROOT
BRANCH   1   2
ATOM      2  C   UNL A   1      36.111  22.496  24.442  1.00  0.00     0.202 C 
BRANCH   2   3
ATOM      3  C   UNL A   1      34.773  21.772  24.634  1.00  0.00     0.261 C 
BRANCH   3   4
ATOM      4  O   UNL A   1      33.739  22.210  23.744  1.00  0.00    -0.462 OA
BRANCH   4   5
ATOM      5  C   UNL A   1      32.486  22.076  24.257  1.00  0.00     0.328 C 
ATOM      6  O   UNL A   1      32.100  21.119  24.922  1.00  0.00    -0.250 OA
BRANCH   5   7
ATOM      7  C   UNL A   1      31.544  23.210  23.841  1.00  0.00     0.192 C 
BRANCH   7   8
ATOM      8  C   UNL A   1      32.360  24.402  23.320  1.00  0.00     0.040 C 
BRANCH   8   9
ATOM      9  C   UNL A   1      31.642  25.292  22.286  1.00  0.00    -0.015 C 
ATOM     10  C   UNL A   1      30.869  26.439  22.932  1.00  0.00     0.007 C 
ATOM     11  C   UNL A   1      32.661  25.856  21.295  1.00  0.00     0.007 C 
ENDBRANCH   8   9
ENDBRANCH   7   8
BRANCH   7  12
ATOM     12  N   UNL A   1      30.616  23.692  24.874  1.00  0.00    -0.342 N 
ATOM     13  C   UNL A   1      30.900  24.286  26.072  1.00  0.00     0.225 C 
ATOM     14  H   UNL A   1      29.659  23.572  24.675  1.00  0.00     0.164 HD
ATOM     15  O   UNL A   1      29.974  24.476  26.864  1.00  0.00    -0.275 OA
BRANCH  13  16
ATOM     16  C   UNL A   1      32.297  24.805  26.386  1.00  0.00     0.135 C 
BRANCH  16  17
ATOM     17  C   UNL A   1      32.527  26.293  26.245  1.00  0.00    -0.039 A 
ATOM     18  C   UNL A   1      31.622  27.190  26.838  1.00  0.00     0.004 A 
ATOM     19  C   UNL A   1      33.625  26.805  25.545  1.00  0.00     0.004 A 
ATOM     20  C   UNL A   1      31.778  28.568  26.683  1.00  0.00     0.000 A 
ATOM     21  C   UNL A   1      33.784  28.187  25.397  1.00  0.00     0.000 A 
ATOM     22  C   UNL A   1      32.857  29.065  25.957  1.00  0.00     0.000 A 
ENDBRANCH  16  17
ENDBRANCH  13  16
ENDBRANCH   7  12
ENDBRANCH   5   7
ENDBRANCH   4   5
ENDBRANCH   3   4
ENDBRANCH   2   3
ENDBRANCH   1   2
BRANCH   1  23
ATOM     23  C   UNL A   1      37.314  20.429  24.994  1.00  0.00     0.202 C 
BRANCH  23  24
ATOM     24  C   UNL A   1      38.636  19.659  25.101  1.00  0.00     0.261 C 
BRANCH  24  25
ATOM     25  O   UNL A   1      39.211  19.703  26.418  1.00  0.00    -0.460 OA
BRANCH  25  26
ATOM     26  C   UNL A   1      40.519  20.063  26.448  1.00  0.00     0.338 C 
ATOM     27  O   UNL A   1      41.467  19.429  26.017  1.00  0.00    -0.246 OA
BRANCH  26  28
ATOM     28  C   UNL A   1      40.646  21.450  26.920  1.00  0.00     0.060 A 
ATOM     29  C   UNL A   1      39.880  22.439  26.286  1.00  0.00     0.016 A 
ATOM     30  C   UNL A   1      41.596  21.789  27.884  1.00  0.00     0.016 A 
ATOM     31  C   UNL A   1      40.097  23.783  26.581  1.00  0.00     0.010 A 
ATOM     32  C   UNL A   1      41.819  23.137  28.169  1.00  0.00     0.010 A 
ATOM     33  C   UNL A   1      41.098  24.139  27.492  1.00  0.00    -0.014 A 
BRANCH  33  34
ATOM     34  C   UNL A   1      41.531  25.551  27.616  1.00  0.00     0.031 A 
ATOM     35  C   UNL A   1      42.897  25.928  27.115  1.00  0.00     0.074 A 
ATOM     36  C   UNL A   1      40.738  26.469  28.193  1.00  0.00     0.049 A 
ATOM     37  N   UNL A   1      43.561  27.044  27.263  1.00  0.00    -0.248 NA
ATOM     38  C   UNL A   1      43.612  24.892  26.356  1.00  0.00     0.031 C 
ATOM     39  C   UNL A   1      39.375  26.228  28.663  1.00  0.00     0.029 A 
ATOM     40  N   UNL A   1      40.981  27.782  28.506  1.00  0.00    -0.354 N 
ATOM     41  C   UNL A   1      44.786  26.839  26.635  1.00  0.00     0.074 A 
ATOM     42  C   UNL A   1      44.777  25.480  26.133  1.00  0.00     0.031 C 
ATOM     43  C   UNL A   1      38.913  27.351  29.238  1.00  0.00     0.029 A 
ATOM     44  C   UNL A   1      39.964  28.367  29.222  1.00  0.00     0.049 A 
ATOM     45  H   UNL A   1      41.801  28.258  28.245  1.00  0.00     0.167 HD
ATOM     46  C   UNL A   1      45.819  27.705  26.495  1.00  0.00     0.034 A 
ATOM     47  C   UNL A   1      39.909  29.566  29.836  1.00  0.00     0.034 A 
ATOM     48  C   UNL A   1      45.806  29.049  27.023  1.00  0.00     0.049 A 
ATOM     49  C   UNL A   1      41.099  30.489  29.749  1.00  0.00     0.074 A 
ATOM     50  C   UNL A   1      46.786  30.022  26.932  1.00  0.00     0.029 A 
ATOM     51  N   UNL A   1      44.764  29.603  27.758  1.00  0.00    -0.354 N 
ATOM     52  N   UNL A   1      42.258  30.290  29.162  1.00  0.00    -0.248 NA
ATOM     53  C   UNL A   1      40.974  31.799  30.401  1.00  0.00     0.031 C 
ATOM     54  C   UNL A   1      46.369  31.133  27.676  1.00  0.00     0.029 A 
ATOM     55  C   UNL A   1      45.093  30.890  28.156  1.00  0.00     0.049 A 
ATOM     56  H   UNL A   1      43.917  29.148  27.966  1.00  0.00     0.167 HD
ATOM     57  C   UNL A   1      42.985  31.463  29.346  1.00  0.00     0.074 A 
ATOM     58  C   UNL A   1      42.135  32.363  30.100  1.00  0.00     0.031 C 
ATOM     59  C   UNL A   1      44.235  31.774  28.915  1.00  0.00     0.034 A 
BRANCH  46  60
ATOM     60  C   UNL A   1      47.062  27.190  25.808  1.00  0.00     0.023 A 
ATOM     61  C   UNL A   1      48.052  26.473  26.504  1.00  0.00     0.031 A 
ATOM     62  C   UNL A   1      47.295  27.478  24.451  1.00  0.00     0.131 A 
ATOM     63  C   UNL A   1      49.266  26.159  25.871  1.00  0.00     0.055 A 
ATOM     64  C   UNL A   1      48.465  27.080  23.803  1.00  0.00     0.041 A 
ATOM     65  F   UNL A   1      46.399  28.179  23.738  1.00  0.00    -0.206 F 
ATOM     66  C   UNL A   1      49.469  26.434  24.518  1.00  0.00     0.022 A 
BRANCH  63  67
ATOM     67  S   UNL A   1      50.640  25.554  26.890  1.00  0.00     0.124 S 
ATOM     68  O   UNL A   1      51.604  25.140  25.872  1.00  0.00    -0.237 OA
ATOM     69  O   UNL A   1      50.999  26.734  27.667  1.00  0.00    -0.237 OA
ATOM     70  O   UNL A   1      50.045  24.459  27.654  1.00  0.00    -0.744 OA
ENDBRANCH  63  67
ENDBRANCH  46  60
BRANCH  47  71
ATOM     71  C   UNL A   1      38.706  29.935  30.633  1.00  0.00     0.023 A 
ATOM     72  C   UNL A   1      37.710  30.771  30.105  1.00  0.00     0.031 A 
ATOM     73  C   UNL A   1      38.538  29.452  31.944  1.00  0.00     0.131 A 
ATOM     74  C   UNL A   1      36.603  31.120  30.894  1.00  0.00     0.055 A 
ATOM     75  C   UNL A   1      37.414  29.766  32.708  1.00  0.00     0.041 A 
ATOM     76  F   UNL A   1      39.460  28.645  32.493  1.00  0.00    -0.206 F 
ATOM     77  C   UNL A   1      36.440  30.611  32.186  1.00  0.00     0.022 A 
BRANCH  74  78
ATOM     78  S   UNL A   1      35.390  32.290  30.223  1.00  0.00     0.124 S 
ATOM     79  O   UNL A   1      34.400  32.338  31.294  1.00  0.00    -0.237 OA
ATOM     80  O   UNL A   1      36.197  33.491  30.040  1.00  0.00    -0.237 OA
ATOM     81  O   UNL A   1      34.945  31.647  28.988  1.00  0.00    -0.744 OA
ENDBRANCH  74  78
ENDBRANCH  47  71
BRANCH  59  82
ATOM     82  C   UNL A   1      44.737  33.172  29.191  1.00  0.00     0.023 A 
ATOM     83  C   UNL A   1      44.504  34.239  28.307  1.00  0.00     0.031 A 
ATOM     84  C   UNL A   1      45.442  33.437  30.379  1.00  0.00     0.131 A 
ATOM     85  C   UNL A   1      45.006  35.516  28.609  1.00  0.00     0.055 A 
ATOM     86  C   UNL A   1      45.890  34.718  30.700  1.00  0.00     0.041 A 
ATOM     87  F   UNL A   1      45.694  32.452  31.258  1.00  0.00    -0.206 F 
ATOM     88  C   UNL A   1      45.680  35.765  29.808  1.00  0.00     0.022 A 
BRANCH  85  89
ATOM     89  S   UNL A   1      44.826  36.840  27.382  1.00  0.00     0.124 S 
ATOM     90  O   UNL A   1      44.880  38.036  28.217  1.00  0.00    -0.237 OA
ATOM     91  O   UNL A   1      45.975  36.618  26.511  1.00  0.00    -0.237 OA
ATOM     92  O   UNL A   1      43.525  36.569  26.771  1.00  0.00    -0.744 OA
ENDBRANCH  85  89
ENDBRANCH  59  82
ENDBRANCH  33  34
ENDBRANCH  26  28
ENDBRANCH  25  26
ENDBRANCH  24  25
ENDBRANCH  23  24
ENDBRANCH   1  23
TORSDOF 22
ENDMDL
MODEL 3
REMARK VINA RESULT:     -10.1      2.834      8.385
REMARK SMILES CC(C)C[C@H](NC(=O)Cc1ccccc1)C(=O)OCCOCCOC(=O)c1ccc(-c2c3nc(c(-c4cc(S(=O)(=O)[O-])ccc4F)c4ccc([nH]4)c(-c4cc(S(=O)(=O)[O-])ccc4F)c4nc(c(-c5cc(S(=O)(=O)[O-])ccc5F)c5ccc2[nH]5)C=C4)C=C3)cc1
REMARK SMILES IDX 21 1 20 2 19 3 18 4 16 5 17 6 5 7 4 8 2 9 1 10 3 11 6 12
REMARK SMILES IDX 7 13 8 15 9 16 10 17 11 18 15 19 12 20 14 21 13 22 22 23
REMARK SMILES IDX 23 24 24 25 25 26 26 27 27 28 28 29 89 30 29 31 88 32 30 33
REMARK SMILES IDX 31 34 32 35 82 36 33 37 87 38 81 39 83 40 34 41 86 42 80 43
REMARK SMILES IDX 79 44 35 46 67 47 47 48 66 49 48 50 51 51 65 52 84 53 49 54
REMARK SMILES IDX 50 55 64 57 85 58 52 59 36 60 37 61 45 62 38 63 44 64 46 65
REMARK SMILES IDX 43 66 39 67 40 68 41 69 42 70 68 71 69 72 77 73 70 74 76 75
REMARK SMILES IDX 78 76 75 77 71 78 72 79 73 80 74 81 53 82 54 83 62 84 55 85
REMARK SMILES IDX 61 86 63 87 60 88 56 89 57 90 58 91 59 92
REMARK H PARENT 6 14 83 45 51 56
REMARK Flexibility Score: inf
ROOT
ATOM      1  O   UNL A   1      32.411  29.160  25.533  1.00  0.00    -0.374 OA
ENDROOT
BRANCH   1   2
ATOM      2  C   UNL A   1      31.353  29.075  24.587  1.00  0.00     0.202 C 
BRANCH   2   3
ATOM      3  C   UNL A   1      30.779  27.692  24.255  1.00  0.00     0.261 C 
BRANCH   3   4
ATOM      4  O   UNL A   1      31.704  26.614  24.443  1.00  0.00    -0.462 OA
BRANCH   4   5
ATOM      5  C   UNL A   1      31.388  25.801  25.486  1.00  0.00     0.328 C 
ATOM      6  O   UNL A   1      30.797  26.161  26.500  1.00  0.00    -0.250 OA
BRANCH   5   7
ATOM      7  C   UNL A   1      31.934  24.379  25.324  1.00  0.00     0.192 C 
BRANCH   7   8
ATOM      8  C   UNL A   1      31.241  23.686  24.141  1.00  0.00     0.040 C 
BRANCH   8   9
ATOM      9  C   UNL A   1      32.187  23.076  23.087  1.00  0.00    -0.015 C 
ATOM     10  C   UNL A   1      33.503  23.840  22.965  1.00  0.00     0.007 C 
ATOM     11  C   UNL A   1      32.474  21.615  23.434  1.00  0.00     0.007 C 
ENDBRANCH   8   9
ENDBRANCH   7   8
BRANCH   7  12
ATOM     12  N   UNL A   1      31.832  23.508  26.503  1.00  0.00    -0.342 N 
ATOM     13  C   UNL A   1      32.834  22.987  27.274  1.00  0.00     0.225 C 
ATOM     14  H   UNL A   1      30.917  23.266  26.776  1.00  0.00     0.164 HD
ATOM     15  O   UNL A   1      32.538  22.150  28.130  1.00  0.00    -0.275 OA
BRANCH  13  16
ATOM     16  C   UNL A   1      34.263  23.502  27.166  1.00  0.00     0.135 C 
BRANCH  16  17
ATOM     17  C   UNL A   1      35.159  22.840  26.144  1.00  0.00    -0.039 A 
ATOM     18  C   UNL A   1      35.022  21.462  25.896  1.00  0.00     0.004 A 
ATOM     19  C   UNL A   1      36.120  23.563  25.428  1.00  0.00     0.004 A 
ATOM     20  C   UNL A   1      35.867  20.813  24.997  1.00  0.00     0.000 A 
ATOM     21  C   UNL A   1      36.961  22.910  24.522  1.00  0.00     0.000 A 
ATOM     22  C   UNL A   1      36.841  21.537  24.314  1.00  0.00     0.000 A 
ENDBRANCH  16  17
ENDBRANCH  13  16
ENDBRANCH   7  12
ENDBRANCH   5   7
ENDBRANCH   4   5
ENDBRANCH   3   4
ENDBRANCH   2   3
ENDBRANCH   1   2
BRANCH   1  23
ATOM     23  C   UNL A   1      32.183  29.840  26.767  1.00  0.00     0.202 C 
BRANCH  23  24
ATOM     24  C   UNL A   1      32.693  31.275  26.942  1.00  0.00     0.261 C 
BRANCH  24  25
ATOM     25  O   UNL A   1      33.511  31.447  28.111  1.00  0.00    -0.460 OA
BRANCH  25  26
ATOM     26  C   UNL A   1      34.594  32.245  27.926  1.00  0.00     0.338 C 
ATOM     27  O   UNL A   1      34.595  33.449  27.738  1.00  0.00    -0.246 OA
BRANCH  26  28
ATOM     28  C   UNL A   1      35.827  31.481  28.168  1.00  0.00     0.060 A 
ATOM     29  C   UNL A   1      35.724  30.091  28.330  1.00  0.00     0.016 A 
ATOM     30  C   UNL A   1      37.043  32.135  28.359  1.00  0.00     0.016 A 
ATOM     31  C   UNL A   1      36.836  29.354  28.733  1.00  0.00     0.010 A 
ATOM     32  C   UNL A   1      38.152  31.396  28.774  1.00  0.00     0.010 A 
ATOM     33  C   UNL A   1      38.043  30.011  28.999  1.00  0.00    -0.014 A 
BRANCH  33  34
ATOM     34  C   UNL A   1      39.147  29.299  29.684  1.00  0.00     0.031 A 
ATOM     35  C   UNL A   1      39.623  29.824  31.010  1.00  0.00     0.074 A 
ATOM     36  C   UNL A   1      39.736  28.231  29.122  1.00  0.00     0.049 A 
ATOM     37  N   UNL A   1      40.670  29.484  31.714  1.00  0.00    -0.248 NA
ATOM     38  C   UNL A   1      38.807  30.889  31.611  1.00  0.00     0.031 C 
ATOM     39  C   UNL A   1      39.320  27.604  27.869  1.00  0.00     0.029 A 
ATOM     40  N   UNL A   1      40.828  27.505  29.522  1.00  0.00    -0.354 N 
ATOM     41  C   UNL A   1      40.655  30.310  32.833  1.00  0.00     0.074 A 
ATOM     42  C   UNL A   1      39.509  31.185  32.693  1.00  0.00     0.031 C 
ATOM     43  C   UNL A   1      40.173  26.604  27.584  1.00  0.00     0.029 A 
ATOM     44  C   UNL A   1      41.218  26.558  28.605  1.00  0.00     0.049 A 
ATOM     45  H   UNL A   1      41.288  27.647  30.380  1.00  0.00     0.167 HD
ATOM     46  C   UNL A   1      41.520  30.335  33.877  1.00  0.00     0.034 A 
ATOM     47  C   UNL A   1      42.318  25.780  28.570  1.00  0.00     0.034 A 
ATOM     48  C   UNL A   1      42.665  29.463  33.981  1.00  0.00     0.049 A 
ATOM     49  C   UNL A   1      43.321  25.879  29.693  1.00  0.00     0.074 A 
ATOM     50  C   UNL A   1      43.604  29.385  34.995  1.00  0.00     0.029 A 
ATOM     51  N   UNL A   1      43.039  28.526  33.023  1.00  0.00    -0.354 N 
ATOM     52  N   UNL A   1      43.308  26.665  30.745  1.00  0.00    -0.248 NA
ATOM     53  C   UNL A   1      44.482  24.981  29.627  1.00  0.00     0.031 C 
ATOM     54  C   UNL A   1      44.583  28.459  34.615  1.00  0.00     0.029 A 
ATOM     55  C   UNL A   1      44.212  27.893  33.407  1.00  0.00     0.049 A 
ATOM     56  H   UNL A   1      42.544  28.340  32.194  1.00  0.00     0.167 HD
ATOM     57  C   UNL A   1      44.441  26.333  31.483  1.00  0.00     0.074 A 
ATOM     58  C   UNL A   1      45.115  25.277  30.755  1.00  0.00     0.031 C 
ATOM     59  C   UNL A   1      44.875  26.844  32.664  1.00  0.00     0.034 A 
BRANCH  46  60
ATOM     60  C   UNL A   1      41.290  31.387  34.938  1.00  0.00     0.023 A 
ATOM     61  C   UNL A   1      40.155  31.370  35.768  1.00  0.00     0.031 A 
ATOM     62  C   UNL A   1      42.186  32.463  35.075  1.00  0.00     0.131 A 
ATOM     63  C   UNL A   1      39.895  32.454  36.622  1.00  0.00     0.055 A 
ATOM     64  C   UNL A   1      41.969  33.491  35.994  1.00  0.00     0.041 A 
ATOM     65  F   UNL A   1      43.276  32.550  34.296  1.00  0.00    -0.206 F 
ATOM     66  C   UNL A   1      40.807  33.502  36.760  1.00  0.00     0.022 A 
BRANCH  63  67
ATOM     67  S   UNL A   1      38.263  32.562  37.407  1.00  0.00     0.124 S 
ATOM     68  O   UNL A   1      38.086  34.008  37.525  1.00  0.00    -0.237 OA
ATOM     69  O   UNL A   1      37.403  31.889  36.441  1.00  0.00    -0.237 OA
ATOM     70  O   UNL A   1      38.446  31.861  38.676  1.00  0.00    -0.744 OA
ENDBRANCH  63  67
ENDBRANCH  46  60
BRANCH  47  71
ATOM     71  C   UNL A   1      42.554  24.883  27.404  1.00  0.00     0.023 A 
ATOM     72  C   UNL A   1      42.112  23.552  27.406  1.00  0.00     0.031 A 
ATOM     73  C   UNL A   1      43.232  25.354  26.264  1.00  0.00     0.131 A 
ATOM     74  C   UNL A   1      42.376  22.728  26.301  1.00  0.00     0.055 A 
ATOM     75  C   UNL A   1      43.452  24.543  25.150  1.00  0.00     0.041 A 
ATOM     76  F   UNL A   1      43.671  26.621  26.210  1.00  0.00    -0.206 F 
ATOM     77  C   UNL A   1      43.029  23.218  25.167  1.00  0.00     0.022 A 
BRANCH  74  78
ATOM     78  S   UNL A   1      41.889  20.982  26.381  1.00  0.00     0.124 S 
ATOM     79  O   UNL A   1      42.770  20.383  25.385  1.00  0.00    -0.237 OA
ATOM     80  O   UNL A   1      42.174  20.652  27.774  1.00  0.00    -0.237 OA
ATOM     81  O   UNL A   1      40.471  21.008  26.028  1.00  0.00    -0.744 OA
ENDBRANCH  74  78
ENDBRANCH  47  71
BRANCH  59  82
ATOM     82  C   UNL A   1      46.105  26.219  33.281  1.00  0.00     0.023 A 
ATOM     83  C   UNL A   1      46.038  25.073  34.091  1.00  0.00     0.031 A 
ATOM     84  C   UNL A   1      47.372  26.776  33.025  1.00  0.00     0.131 A 
ATOM     85  C   UNL A   1      47.213  24.543  34.648  1.00  0.00     0.055 A 
ATOM     86  C   UNL A   1      48.541  26.213  33.536  1.00  0.00     0.041 A 
ATOM     87  F   UNL A   1      47.493  27.873  32.259  1.00  0.00    -0.206 F 
ATOM     88  C   UNL A   1      48.465  25.095  34.360  1.00  0.00     0.022 A 
BRANCH  85  89
ATOM     89  S   UNL A   1      47.083  23.159  35.814  1.00  0.00     0.124 S 
ATOM     90  O   UNL A   1      47.453  23.791  37.076  1.00  0.00    -0.237 OA
ATOM     91  O   UNL A   1      45.683  22.768  35.682  1.00  0.00    -0.237 OA
ATOM     92  O   UNL A   1      48.047  22.186  35.301  1.00  0.00    -0.744 OA
ENDBRANCH  85  89
ENDBRANCH  59  82
ENDBRANCH  33  34
ENDBRANCH  26  28
ENDBRANCH  25  26
ENDBRANCH  24  25
ENDBRANCH  23  24
ENDBRANCH   1  23
TORSDOF 22
ENDMDL
