MODEL 1
REMARK VINA RESULT:     -11.0      0.000      0.000
REMARK SMILES O=C(Cc1ccc(NC(=O)C2CCCC2)cc1)OCCOCCOC(=O)c1ccc(-c2c3nc(c(-c4cc(S(=O)(=O)[O-])ccc4F)c4ccc([nH]4)c(-c4cc(S(=O)(=O)[O-])ccc4F)c4nc(c(-c5cc(S(=O)(=O)[O-])ccc5F)c5ccc2[nH]5)C=C4)C=C3)cc1
REMARK SMILES IDX 21 1 20 2 19 3 18 4 2 5 1 6 3 7 4 8 5 9 17 10 6 11 16 12
REMARK SMILES IDX 7 13 8 14 9 15 10 17 11 18 12 19 15 20 13 21 14 22 22 23
REMARK SMILES IDX 23 24 24 25 25 26 26 27 27 28 28 29 89 30 29 31 88 32 30 33
REMARK SMILES IDX 31 34 32 35 82 36 33 37 87 38 81 39 83 40 34 41 86 42 80 43
REMARK SMILES IDX 79 44 35 46 67 47 47 48 66 49 48 50 51 51 65 52 84 53 49 54
REMARK SMILES IDX 50 55 64 57 85 58 52 59 36 60 37 61 45 62 38 63 44 64 46 65
REMARK SMILES IDX 43 66 39 67 40 68 41 69 42 70 68 71 69 72 77 73 70 74 76 75
REMARK SMILES IDX 78 76 75 77 71 78 72 79 73 80 74 81 53 82 54 83 62 84 55 85
REMARK SMILES IDX 61 86 63 87 60 88 56 89 57 90 58 91 59 92
REMARK H PARENT 8 16 83 45 51 56
REMARK Flexibility Score: inf
ROOT
ATOM      1  O   UNL A   1      34.391  33.292  30.403  1.00  0.00    -0.374 OA
ENDROOT
BRANCH   1   2
ATOM      2  C   UNL A   1      34.470  33.934  29.134  1.00  0.00     0.202 C 
BRANCH   2   3
ATOM      3  C   UNL A   1      33.682  33.328  27.966  1.00  0.00     0.261 C 
BRANCH   3   4
ATOM      4  O   UNL A   1      34.228  32.131  27.383  1.00  0.00    -0.463 OA
BRANCH   4   5
ATOM      5  C   UNL A   1      33.694  30.890  27.324  1.00  0.00     0.310 C 
ATOM      6  O   UNL A   1      34.463  29.927  27.273  1.00  0.00    -0.252 OA
BRANCH   5   7
ATOM      7  C   UNL A   1      32.206  30.652  27.158  1.00  0.00     0.158 C 
BRANCH   7   8
ATOM      8  C   UNL A   1      31.802  29.418  26.408  1.00  0.00    -0.037 A 
ATOM      9  C   UNL A   1      31.737  28.237  27.123  1.00  0.00     0.006 A 
ATOM     10  C   UNL A   1      31.582  29.366  25.028  1.00  0.00     0.006 A 
ATOM     11  C   UNL A   1      31.759  27.043  26.446  1.00  0.00     0.026 A 
ATOM     12  C   UNL A   1      31.258  28.139  24.418  1.00  0.00     0.026 A 
ATOM     13  C   UNL A   1      31.297  26.962  25.168  1.00  0.00     0.041 A 
BRANCH  13  14
ATOM     14  N   UNL A   1      30.853  25.739  24.669  1.00  0.00    -0.326 N 
ATOM     15  C   UNL A   1      31.463  24.538  24.454  1.00  0.00     0.227 C 
ATOM     16  H   UNL A   1      29.900  25.743  24.420  1.00  0.00     0.169 HD
ATOM     17  O   UNL A   1      30.686  23.670  24.014  1.00  0.00    -0.274 OA
BRANCH  15  18
ATOM     18  C   UNL A   1      32.964  24.123  24.642  1.00  0.00     0.079 C 
ATOM     19  C   UNL A   1      34.215  25.008  24.576  1.00  0.00     0.013 C 
ATOM     20  C   UNL A   1      33.104  23.600  26.093  1.00  0.00     0.013 C 
ATOM     21  C   UNL A   1      35.304  24.248  25.309  1.00  0.00     0.001 C 
ATOM     22  C   UNL A   1      34.591  23.548  26.438  1.00  0.00     0.001 C 
ENDBRANCH  15  18
ENDBRANCH  13  14
ENDBRANCH   7   8
ENDBRANCH   5   7
ENDBRANCH   4   5
ENDBRANCH   3   4
ENDBRANCH   2   3
ENDBRANCH   1   2
BRANCH   1  23
ATOM     23  C   UNL A   1      34.283  34.155  31.540  1.00  0.00     0.202 C 
BRANCH  23  24
ATOM     24  C   UNL A   1      34.513  33.528  32.921  1.00  0.00     0.261 C 
BRANCH  24  25
ATOM     25  O   UNL A   1      35.087  32.216  32.839  1.00  0.00    -0.460 OA
BRANCH  25  26
ATOM     26  C   UNL A   1      36.303  32.089  33.426  1.00  0.00     0.338 C 
ATOM     27  O   UNL A   1      36.588  32.361  34.584  1.00  0.00    -0.246 OA
BRANCH  26  28
ATOM     28  C   UNL A   1      37.199  31.335  32.526  1.00  0.00     0.060 A 
ATOM     29  C   UNL A   1      38.083  30.415  33.108  1.00  0.00     0.016 A 
ATOM     30  C   UNL A   1      37.167  31.508  31.140  1.00  0.00     0.016 A 
ATOM     31  C   UNL A   1      38.985  29.713  32.313  1.00  0.00     0.010 A 
ATOM     32  C   UNL A   1      38.076  30.809  30.344  1.00  0.00     0.010 A 
ATOM     33  C   UNL A   1      39.017  29.944  30.933  1.00  0.00    -0.014 A 
BRANCH  33  34
ATOM     34  C   UNL A   1      40.157  29.443  30.131  1.00  0.00     0.031 A 
ATOM     35  C   UNL A   1      41.353  30.340  29.967  1.00  0.00     0.074 A 
ATOM     36  C   UNL A   1      40.133  28.219  29.576  1.00  0.00     0.049 A 
ATOM     37  N   UNL A   1      42.433  30.167  29.251  1.00  0.00    -0.248 NA
ATOM     38  C   UNL A   1      41.318  31.613  30.707  1.00  0.00     0.031 C 
ATOM     39  C   UNL A   1      39.044  27.252  29.715  1.00  0.00     0.029 A 
ATOM     40  N   UNL A   1      41.048  27.585  28.776  1.00  0.00    -0.354 N 
ATOM     41  C   UNL A   1      43.197  31.313  29.441  1.00  0.00     0.074 A 
ATOM     42  C   UNL A   1      42.440  32.189  30.307  1.00  0.00     0.031 C 
ATOM     43  C   UNL A   1      39.352  26.149  29.011  1.00  0.00     0.029 A 
ATOM     44  C   UNL A   1      40.633  26.350  28.336  1.00  0.00     0.049 A 
ATOM     45  H   UNL A   1      41.920  27.977  28.539  1.00  0.00     0.167 HD
ATOM     46  C   UNL A   1      44.424  31.601  28.942  1.00  0.00     0.034 A 
ATOM     47  C   UNL A   1      41.209  25.499  27.463  1.00  0.00     0.034 A 
ATOM     48  C   UNL A   1      45.154  30.712  28.072  1.00  0.00     0.049 A 
ATOM     49  C   UNL A   1      42.537  25.878  26.850  1.00  0.00     0.074 A 
ATOM     50  C   UNL A   1      46.410  30.888  27.518  1.00  0.00     0.029 A 
ATOM     51  N   UNL A   1      44.687  29.486  27.616  1.00  0.00    -0.354 N 
ATOM     52  N   UNL A   1      43.258  26.961  27.041  1.00  0.00    -0.248 NA
ATOM     53  C   UNL A   1      43.132  24.918  25.913  1.00  0.00     0.031 C 
ATOM     54  C   UNL A   1      46.664  29.811  26.664  1.00  0.00     0.029 A 
ATOM     55  C   UNL A   1      45.612  28.913  26.757  1.00  0.00     0.049 A 
ATOM     56  H   UNL A   1      43.825  29.082  27.866  1.00  0.00     0.167 HD
ATOM     57  C   UNL A   1      44.408  26.793  26.272  1.00  0.00     0.074 A 
ATOM     58  C   UNL A   1      44.288  25.500  25.629  1.00  0.00     0.031 C 
ATOM     59  C   UNL A   1      45.470  27.625  26.117  1.00  0.00     0.034 A 
BRANCH  46  60
ATOM     60  C   UNL A   1      45.015  32.949  29.280  1.00  0.00     0.023 A 
ATOM     61  C   UNL A   1      44.842  34.069  28.447  1.00  0.00     0.031 A 
ATOM     62  C   UNL A   1      45.794  33.108  30.441  1.00  0.00     0.131 A 
ATOM     63  C   UNL A   1      45.496  35.274  28.747  1.00  0.00     0.055 A 
ATOM     64  C   UNL A   1      46.372  34.334  30.779  1.00  0.00     0.041 A 
ATOM     65  F   UNL A   1      46.021  32.070  31.260  1.00  0.00    -0.206 F 
ATOM     66  C   UNL A   1      46.236  35.422  29.923  1.00  0.00     0.022 A 
BRANCH  63  67
ATOM     67  S   UNL A   1      45.492  36.597  27.506  1.00  0.00     0.124 S 
ATOM     68  O   UNL A   1      46.705  36.295  26.749  1.00  0.00    -0.237 OA
ATOM     69  O   UNL A   1      44.231  36.370  26.808  1.00  0.00    -0.237 OA
ATOM     70  O   UNL A   1      45.553  37.818  28.306  1.00  0.00    -0.744 OA
ENDBRANCH  63  67
ENDBRANCH  46  60
BRANCH  47  71
ATOM     71  C   UNL A   1      40.526  24.228  27.082  1.00  0.00     0.023 A 
ATOM     72  C   UNL A   1      41.142  22.984  27.283  1.00  0.00     0.031 A 
ATOM     73  C   UNL A   1      39.262  24.245  26.464  1.00  0.00     0.131 A 
ATOM     74  C   UNL A   1      40.516  21.812  26.828  1.00  0.00     0.055 A 
ATOM     75  C   UNL A   1      38.618  23.072  26.067  1.00  0.00     0.041 A 
ATOM     76  F   UNL A   1      38.629  25.409  26.243  1.00  0.00    -0.206 F 
ATOM     77  C   UNL A   1      39.251  21.846  26.236  1.00  0.00     0.022 A 
BRANCH  74  78
ATOM     78  S   UNL A   1      41.424  20.245  26.936  1.00  0.00     0.124 S 
ATOM     79  O   UNL A   1      41.118  19.819  28.298  1.00  0.00    -0.237 OA
ATOM     80  O   UNL A   1      40.810  19.467  25.867  1.00  0.00    -0.237 OA
ATOM     81  O   UNL A   1      42.812  20.640  26.702  1.00  0.00    -0.744 OA
ENDBRANCH  74  78
ENDBRANCH  47  71
BRANCH  59  82
ATOM     82  C   UNL A   1      46.611  27.134  25.255  1.00  0.00     0.023 A 
ATOM     83  C   UNL A   1      46.922  27.731  24.021  1.00  0.00     0.031 A 
ATOM     84  C   UNL A   1      47.397  26.048  25.681  1.00  0.00     0.131 A 
ATOM     85  C   UNL A   1      47.949  27.198  23.228  1.00  0.00     0.055 A 
ATOM     86  C   UNL A   1      48.464  25.569  24.921  1.00  0.00     0.041 A 
ATOM     87  F   UNL A   1      47.144  25.437  26.849  1.00  0.00    -0.206 F 
ATOM     88  C   UNL A   1      48.736  26.135  23.679  1.00  0.00     0.022 A 
BRANCH  85  89
ATOM     89  S   UNL A   1      48.175  27.845  21.549  1.00  0.00     0.124 S 
ATOM     90  O   UNL A   1      46.901  28.514  21.309  1.00  0.00    -0.237 OA
ATOM     91  O   UNL A   1      49.335  28.717  21.704  1.00  0.00    -0.237 OA
ATOM     92  O   UNL A   1      48.406  26.645  20.747  1.00  0.00    -0.744 OA
ENDBRANCH  85  89
ENDBRANCH  59  82
ENDBRANCH  33  34
ENDBRANCH  26  28
ENDBRANCH  25  26
ENDBRANCH  24  25
ENDBRANCH  23  24
ENDBRANCH   1  23
TORSDOF 20
ENDMDL
MODEL 2
REMARK VINA RESULT:     -10.7      5.431      8.627
REMARK SMILES O=C(Cc1ccc(NC(=O)C2CCCC2)cc1)OCCOCCOC(=O)c1ccc(-c2c3nc(c(-c4cc(S(=O)(=O)[O-])ccc4F)c4ccc([nH]4)c(-c4cc(S(=O)(=O)[O-])ccc4F)c4nc(c(-c5cc(S(=O)(=O)[O-])ccc5F)c5ccc2[nH]5)C=C4)C=C3)cc1
REMARK SMILES IDX 21 1 20 2 19 3 18 4 2 5 1 6 3 7 4 8 5 9 17 10 6 11 16 12
REMARK SMILES IDX 7 13 8 14 9 15 10 17 11 18 12 19 15 20 13 21 14 22 22 23
REMARK SMILES IDX 23 24 24 25 25 26 26 27 27 28 28 29 89 30 29 31 88 32 30 33
REMARK SMILES IDX 31 34 32 35 82 36 33 37 87 38 81 39 83 40 34 41 86 42 80 43
REMARK SMILES IDX 79 44 35 46 67 47 47 48 66 49 48 50 51 51 65 52 84 53 49 54
REMARK SMILES IDX 50 55 64 57 85 58 52 59 36 60 37 61 45 62 38 63 44 64 46 65
REMARK SMILES IDX 43 66 39 67 40 68 41 69 42 70 68 71 69 72 77 73 70 74 76 75
REMARK SMILES IDX 78 76 75 77 71 78 72 79 73 80 74 81 53 82 54 83 62 84 55 85
REMARK SMILES IDX 61 86 63 87 60 88 56 89 57 90 58 91 59 92
REMARK H PARENT 8 16 83 45 51 56
REMARK Flexibility Score: inf
ROOT
ATOM      1  O   UNL A   1      34.394  35.335  28.268  1.00  0.00    -0.374 OA
ENDROOT
BRANCH   1   2
ATOM      2  C   UNL A   1      33.714  34.087  28.358  1.00  0.00     0.202 C 
BRANCH   2   3
ATOM      3  C   UNL A   1      34.502  32.868  28.855  1.00  0.00     0.261 C 
BRANCH   3   4
ATOM      4  O   UNL A   1      35.338  32.211  27.887  1.00  0.00    -0.463 OA
BRANCH   4   5
ATOM      5  C   UNL A   1      35.738  30.920  27.840  1.00  0.00     0.310 C 
ATOM      6  O   UNL A   1      36.897  30.682  27.491  1.00  0.00    -0.252 OA
BRANCH   5   7
ATOM      7  C   UNL A   1      34.778  29.764  28.042  1.00  0.00     0.158 C 
BRANCH   7   8
ATOM      8  C   UNL A   1      33.896  29.413  26.881  1.00  0.00    -0.037 A 
ATOM      9  C   UNL A   1      34.392  28.511  25.960  1.00  0.00     0.006 A 
ATOM     10  C   UNL A   1      32.655  30.003  26.622  1.00  0.00     0.006 A 
ATOM     11  C   UNL A   1      33.824  28.446  24.712  1.00  0.00     0.026 A 
ATOM     12  C   UNL A   1      31.933  29.635  25.471  1.00  0.00     0.026 A 
ATOM     13  C   UNL A   1      32.520  28.791  24.526  1.00  0.00     0.041 A 
BRANCH  13  14
ATOM     14  N   UNL A   1      31.816  28.274  23.441  1.00  0.00    -0.326 N 
ATOM     15  C   UNL A   1      30.567  28.503  22.941  1.00  0.00     0.227 C 
ATOM     16  H   UNL A   1      32.324  27.603  22.930  1.00  0.00     0.169 HD
ATOM     17  O   UNL A   1      30.326  27.842  21.913  1.00  0.00    -0.274 OA
BRANCH  15  18
ATOM     18  C   UNL A   1      29.419  29.425  23.481  1.00  0.00     0.079 C 
ATOM     19  C   UNL A   1      29.356  30.957  23.503  1.00  0.00     0.013 C 
ATOM     20  C   UNL A   1      28.168  29.135  22.614  1.00  0.00     0.013 C 
ATOM     21  C   UNL A   1      27.887  31.313  23.642  1.00  0.00     0.001 C 
ATOM     22  C   UNL A   1      27.160  30.259  22.845  1.00  0.00     0.001 C 
ENDBRANCH  15  18
ENDBRANCH  13  14
ENDBRANCH   7   8
ENDBRANCH   5   7
ENDBRANCH   4   5
ENDBRANCH   3   4
ENDBRANCH   2   3
ENDBRANCH   1   2
BRANCH   1  23
ATOM     23  C   UNL A   1      33.695  36.473  28.781  1.00  0.00     0.202 C 
BRANCH  23  24
ATOM     24  C   UNL A   1      32.619  36.215  29.845  1.00  0.00     0.261 C 
BRANCH  24  25
ATOM     25  O   UNL A   1      33.061  36.557  31.166  1.00  0.00    -0.460 OA
BRANCH  25  26
ATOM     26  C   UNL A   1      32.847  35.600  32.102  1.00  0.00     0.338 C 
ATOM     27  O   UNL A   1      31.785  35.337  32.649  1.00  0.00    -0.246 OA
BRANCH  26  28
ATOM     28  C   UNL A   1      34.044  34.740  32.199  1.00  0.00     0.060 A 
ATOM     29  C   UNL A   1      33.883  33.459  32.749  1.00  0.00     0.016 A 
ATOM     30  C   UNL A   1      35.296  35.166  31.748  1.00  0.00     0.016 A 
ATOM     31  C   UNL A   1      34.985  32.625  32.910  1.00  0.00     0.010 A 
ATOM     32  C   UNL A   1      36.401  34.331  31.916  1.00  0.00     0.010 A 
ATOM     33  C   UNL A   1      36.256  33.077  32.538  1.00  0.00    -0.014 A 
BRANCH  33  34
ATOM     34  C   UNL A   1      37.459  32.334  32.981  1.00  0.00     0.031 A 
ATOM     35  C   UNL A   1      38.092  32.727  34.287  1.00  0.00     0.074 A 
ATOM     36  C   UNL A   1      37.965  31.328  32.246  1.00  0.00     0.049 A 
ATOM     37  N   UNL A   1      39.188  32.289  34.848  1.00  0.00    -0.248 NA
ATOM     38  C   UNL A   1      37.393  33.766  35.061  1.00  0.00     0.031 C 
ATOM     39  C   UNL A   1      37.400  30.835  30.990  1.00  0.00     0.029 A 
ATOM     40  N   UNL A   1      39.075  30.548  32.446  1.00  0.00    -0.354 N 
ATOM     41  C   UNL A   1      39.319  33.010  36.031  1.00  0.00     0.074 A 
ATOM     42  C   UNL A   1      38.212  33.938  36.086  1.00  0.00     0.031 C 
ATOM     43  C   UNL A   1      38.177  29.840  30.527  1.00  0.00     0.029 A 
ATOM     44  C   UNL A   1      39.315  29.660  31.425  1.00  0.00     0.049 A 
ATOM     45  H   UNL A   1      39.645  30.618  33.246  1.00  0.00     0.167 HD
ATOM     46  C   UNL A   1      40.274  32.897  36.986  1.00  0.00     0.034 A 
ATOM     47  C   UNL A   1      40.354  28.823  31.227  1.00  0.00     0.034 A 
ATOM     48  C   UNL A   1      41.374  31.967  36.901  1.00  0.00     0.049 A 
ATOM     49  C   UNL A   1      41.454  28.776  32.262  1.00  0.00     0.074 A 
ATOM     50  C   UNL A   1      42.391  31.752  37.812  1.00  0.00     0.029 A 
ATOM     51  N   UNL A   1      41.608  31.109  35.834  1.00  0.00    -0.354 N 
ATOM     52  N   UNL A   1      41.566  29.455  33.382  1.00  0.00    -0.248 NA
ATOM     53  C   UNL A   1      42.560  27.844  32.011  1.00  0.00     0.031 C 
ATOM     54  C   UNL A   1      43.284  30.827  37.260  1.00  0.00     0.029 A 
ATOM     55  C   UNL A   1      42.774  30.391  36.046  1.00  0.00     0.049 A 
ATOM     56  H   UNL A   1      41.029  31.024  35.041  1.00  0.00     0.167 HD
ATOM     57  C   UNL A   1      42.740  29.004  33.983  1.00  0.00     0.074 A 
ATOM     58  C   UNL A   1      43.287  27.988  33.109  1.00  0.00     0.031 C 
ATOM     59  C   UNL A   1      43.310  29.388  35.156  1.00  0.00     0.034 A 
BRANCH  46  60
ATOM     60  C   UNL A   1      40.198  33.840  38.163  1.00  0.00     0.023 A 
ATOM     61  C   UNL A   1      39.447  33.538  39.313  1.00  0.00     0.031 A 
ATOM     62  C   UNL A   1      40.862  35.079  38.120  1.00  0.00     0.131 A 
ATOM     63  C   UNL A   1      39.320  34.488  40.337  1.00  0.00     0.055 A 
ATOM     64  C   UNL A   1      40.802  35.985  39.181  1.00  0.00     0.041 A 
ATOM     65  F   UNL A   1      41.571  35.438  37.038  1.00  0.00    -0.206 F 
ATOM     66  C   UNL A   1      40.016  35.698  40.292  1.00  0.00     0.022 A 
BRANCH  63  67
ATOM     67  S   UNL A   1      38.114  34.186  41.657  1.00  0.00     0.124 S 
ATOM     68  O   UNL A   1      38.862  33.294  42.541  1.00  0.00    -0.237 OA
ATOM     69  O   UNL A   1      37.864  35.528  42.169  1.00  0.00    -0.237 OA
ATOM     70  O   UNL A   1      36.991  33.563  40.961  1.00  0.00    -0.744 OA
ENDBRANCH  63  67
ENDBRANCH  46  60
BRANCH  47  71
ATOM     71  C   UNL A   1      40.432  27.993  29.990  1.00  0.00     0.023 A 
ATOM     72  C   UNL A   1      41.340  28.298  28.966  1.00  0.00     0.031 A 
ATOM     73  C   UNL A   1      39.560  26.906  29.794  1.00  0.00     0.131 A 
ATOM     74  C   UNL A   1      41.327  27.557  27.773  1.00  0.00     0.055 A 
ATOM     75  C   UNL A   1      39.590  26.135  28.630  1.00  0.00     0.041 A 
ATOM     76  F   UNL A   1      38.666  26.571  30.739  1.00  0.00    -0.206 F 
ATOM     77  C   UNL A   1      40.469  26.467  27.605  1.00  0.00     0.022 A 
BRANCH  74  78
ATOM     78  S   UNL A   1      42.384  28.098  26.403  1.00  0.00     0.124 S 
ATOM     79  O   UNL A   1      41.810  27.366  25.279  1.00  0.00    -0.237 OA
ATOM     80  O   UNL A   1      42.168  29.540  26.407  1.00  0.00    -0.237 OA
ATOM     81  O   UNL A   1      43.720  27.667  26.813  1.00  0.00    -0.744 OA
ENDBRANCH  74  78
ENDBRANCH  47  71
BRANCH  59  82
ATOM     82  C   UNL A   1      44.567  28.664  35.581  1.00  0.00     0.023 A 
ATOM     83  C   UNL A   1      44.527  27.510  36.382  1.00  0.00     0.031 A 
ATOM     84  C   UNL A   1      45.827  29.143  35.175  1.00  0.00     0.131 A 
ATOM     85  C   UNL A   1      45.724  26.911  36.803  1.00  0.00     0.055 A 
ATOM     86  C   UNL A   1      47.010  28.501  35.537  1.00  0.00     0.041 A 
ATOM     87  F   UNL A   1      45.926  30.242  34.411  1.00  0.00    -0.206 F 
ATOM     88  C   UNL A   1      46.964  27.385  36.369  1.00  0.00     0.022 A 
BRANCH  85  89
ATOM     89  S   UNL A   1      45.642  25.565  38.016  1.00  0.00     0.124 S 
ATOM     90  O   UNL A   1      45.494  24.394  37.159  1.00  0.00    -0.237 OA
ATOM     91  O   UNL A   1      46.920  25.691  38.709  1.00  0.00    -0.237 OA
ATOM     92  O   UNL A   1      44.466  25.898  38.819  1.00  0.00    -0.744 OA
ENDBRANCH  85  89
ENDBRANCH  59  82
ENDBRANCH  33  34
ENDBRANCH  26  28
ENDBRANCH  25  26
ENDBRANCH  24  25
ENDBRANCH  23  24
ENDBRANCH   1  23
TORSDOF 20
ENDMDL
MODEL 3
REMARK VINA RESULT:     -10.7      4.540      7.336
REMARK SMILES O=C(Cc1ccc(NC(=O)C2CCCC2)cc1)OCCOCCOC(=O)c1ccc(-c2c3nc(c(-c4cc(S(=O)(=O)[O-])ccc4F)c4ccc([nH]4)c(-c4cc(S(=O)(=O)[O-])ccc4F)c4nc(c(-c5cc(S(=O)(=O)[O-])ccc5F)c5ccc2[nH]5)C=C4)C=C3)cc1
REMARK SMILES IDX 21 1 20 2 19 3 18 4 2 5 1 6 3 7 4 8 5 9 17 10 6 11 16 12
REMARK SMILES IDX 7 13 8 14 9 15 10 17 11 18 12 19 15 20 13 21 14 22 22 23
REMARK SMILES IDX 23 24 24 25 25 26 26 27 27 28 28 29 89 30 29 31 88 32 30 33
REMARK SMILES IDX 31 34 32 35 82 36 33 37 87 38 81 39 83 40 34 41 86 42 80 43
REMARK SMILES IDX 79 44 35 46 67 47 47 48 66 49 48 50 51 51 65 52 84 53 49 54
REMARK SMILES IDX 50 55 64 57 85 58 52 59 36 60 37 61 45 62 38 63 44 64 46 65
REMARK SMILES IDX 43 66 39 67 40 68 41 69 42 70 68 71 69 72 77 73 70 74 76 75
REMARK SMILES IDX 78 76 75 77 71 78 72 79 73 80 74 81 53 82 54 83 62 84 55 85
REMARK SMILES IDX 61 86 63 87 60 88 56 89 57 90 58 91 59 92
REMARK H PARENT 8 16 83 45 51 56
REMARK Flexibility Score: inf
ROOT
ATOM      1  O   UNL A   1      32.150  29.618  25.945  1.00  0.00    -0.374 OA
ENDROOT
BRANCH   1   2
ATOM      2  C   UNL A   1      32.035  29.334  24.554  1.00  0.00     0.202 C 
BRANCH   2   3
ATOM      3  C   UNL A   1      30.634  29.092  23.979  1.00  0.00     0.261 C 
BRANCH   3   4
ATOM      4  O   UNL A   1      30.340  27.748  23.561  1.00  0.00    -0.463 OA
BRANCH   4   5
ATOM      5  C   UNL A   1      29.707  26.762  24.239  1.00  0.00     0.310 C 
ATOM      6  O   UNL A   1      28.585  26.420  23.855  1.00  0.00    -0.252 OA
BRANCH   5   7
ATOM      7  C   UNL A   1      30.251  26.184  25.530  1.00  0.00     0.158 C 
BRANCH   7   8
ATOM      8  C   UNL A   1      30.834  24.805  25.456  1.00  0.00    -0.037 A 
ATOM      9  C   UNL A   1      31.392  24.418  24.252  1.00  0.00     0.006 A 
ATOM     10  C   UNL A   1      30.766  23.859  26.484  1.00  0.00     0.006 A 
ATOM     11  C   UNL A   1      31.581  23.082  23.999  1.00  0.00     0.026 A 
ATOM     12  C   UNL A   1      31.301  22.572  26.285  1.00  0.00     0.026 A 
ATOM     13  C   UNL A   1      31.768  22.203  25.022  1.00  0.00     0.041 A 
BRANCH  13  14
ATOM     14  N   UNL A   1      32.438  21.004  24.790  1.00  0.00    -0.326 N 
ATOM     15  C   UNL A   1      33.755  20.682  24.641  1.00  0.00     0.227 C 
ATOM     16  H   UNL A   1      31.835  20.229  24.719  1.00  0.00     0.169 HD
ATOM     17  O   UNL A   1      33.941  19.461  24.476  1.00  0.00    -0.274 OA
BRANCH  15  18
ATOM     18  C   UNL A   1      35.021  21.606  24.612  1.00  0.00     0.079 C 
ATOM     19  C   UNL A   1      35.252  22.884  23.795  1.00  0.00     0.013 C 
ATOM     20  C   UNL A   1      35.182  22.188  26.038  1.00  0.00     0.013 C 
ATOM     21  C   UNL A   1      36.372  23.631  24.495  1.00  0.00     0.001 C 
ATOM     22  C   UNL A   1      36.150  23.367  25.963  1.00  0.00     0.001 C 
ENDBRANCH  15  18
ENDBRANCH  13  14
ENDBRANCH   7   8
ENDBRANCH   5   7
ENDBRANCH   4   5
ENDBRANCH   3   4
ENDBRANCH   2   3
ENDBRANCH   1   2
BRANCH   1  23
ATOM     23  C   UNL A   1      31.795  30.944  26.348  1.00  0.00     0.202 C 
BRANCH  23  24
ATOM     24  C   UNL A   1      32.893  31.800  26.994  1.00  0.00     0.261 C 
BRANCH  24  25
ATOM     25  O   UNL A   1      32.389  33.042  27.506  1.00  0.00    -0.460 OA
BRANCH  25  26
ATOM     26  C   UNL A   1      33.331  33.864  28.031  1.00  0.00     0.338 C 
ATOM     27  O   UNL A   1      33.183  35.034  28.355  1.00  0.00    -0.246 OA
BRANCH  26  28
ATOM     28  C   UNL A   1      34.523  33.068  28.391  1.00  0.00     0.060 A 
ATOM     29  C   UNL A   1      34.314  31.786  28.921  1.00  0.00     0.016 A 
ATOM     30  C   UNL A   1      35.819  33.555  28.201  1.00  0.00     0.016 A 
ATOM     31  C   UNL A   1      35.399  31.012  29.323  1.00  0.00     0.010 A 
ATOM     32  C   UNL A   1      36.905  32.780  28.611  1.00  0.00     0.010 A 
ATOM     33  C   UNL A   1      36.695  31.526  29.215  1.00  0.00    -0.014 A 
BRANCH  33  34
ATOM     34  C   UNL A   1      37.815  30.851  29.911  1.00  0.00     0.031 A 
ATOM     35  C   UNL A   1      38.107  31.251  31.332  1.00  0.00     0.074 A 
ATOM     36  C   UNL A   1      38.542  29.899  29.301  1.00  0.00     0.049 A 
ATOM     37  N   UNL A   1      39.075  30.870  32.122  1.00  0.00    -0.248 NA
ATOM     38  C   UNL A   1      37.181  32.223  31.937  1.00  0.00     0.031 C 
ATOM     39  C   UNL A   1      38.311  29.403  27.944  1.00  0.00     0.029 A 
ATOM     40  N   UNL A   1      39.628  29.188  29.740  1.00  0.00    -0.354 N 
ATOM     41  C   UNL A   1      38.885  31.567  33.312  1.00  0.00     0.074 A 
ATOM     42  C   UNL A   1      37.733  32.421  33.123  1.00  0.00     0.031 C 
ATOM     43  C   UNL A   1      39.239  28.473  27.660  1.00  0.00     0.029 A 
ATOM     44  C   UNL A   1      40.154  28.343  28.792  1.00  0.00     0.049 A 
ATOM     45  H   UNL A   1      39.996  29.273  30.650  1.00  0.00     0.167 HD
ATOM     46  C   UNL A   1      39.605  31.492  34.457  1.00  0.00     0.034 A 
ATOM     47  C   UNL A   1      41.265  27.580  28.826  1.00  0.00     0.034 A 
ATOM     48  C   UNL A   1      40.756  30.637  34.616  1.00  0.00     0.049 A 
ATOM     49  C   UNL A   1      42.103  27.577  30.084  1.00  0.00     0.074 A 
ATOM     50  C   UNL A   1      41.553  30.465  35.732  1.00  0.00     0.029 A 
ATOM     51  N   UNL A   1      41.284  29.824  33.621  1.00  0.00    -0.354 N 
ATOM     52  N   UNL A   1      41.912  28.233  31.208  1.00  0.00    -0.248 NA
ATOM     53  C   UNL A   1      43.298  26.726  30.082  1.00  0.00     0.031 C 
ATOM     54  C   UNL A   1      42.609  29.614  35.388  1.00  0.00     0.029 A 
ATOM     55  C   UNL A   1      42.419  29.177  34.086  1.00  0.00     0.049 A 
ATOM     56  H   UNL A   1      40.907  29.721  32.717  1.00  0.00     0.167 HD
ATOM     57  C   UNL A   1      42.947  27.844  32.055  1.00  0.00     0.074 A 
ATOM     58  C   UNL A   1      43.747  26.888  31.318  1.00  0.00     0.031 C 
ATOM     59  C   UNL A   1      43.210  28.233  33.330  1.00  0.00     0.034 A 
BRANCH  46  60
ATOM     60  C   UNL A   1      39.199  32.397  35.596  1.00  0.00     0.023 A 
ATOM     61  C   UNL A   1      39.643  33.729  35.684  1.00  0.00     0.031 A 
ATOM     62  C   UNL A   1      38.380  31.908  36.630  1.00  0.00     0.131 A 
ATOM     63  C   UNL A   1      39.325  34.501  36.813  1.00  0.00     0.055 A 
ATOM     64  C   UNL A   1      37.997  32.709  37.708  1.00  0.00     0.041 A 
ATOM     65  F   UNL A   1      37.949  30.637  36.619  1.00  0.00    -0.206 F 
ATOM     66  C   UNL A   1      38.482  34.009  37.811  1.00  0.00     0.022 A 
BRANCH  63  67
ATOM     67  S   UNL A   1      40.153  36.099  37.031  1.00  0.00     0.124 S 
ATOM     68  O   UNL A   1      39.386  36.680  38.132  1.00  0.00    -0.237 OA
ATOM     69  O   UNL A   1      41.522  35.705  37.345  1.00  0.00    -0.237 OA
ATOM     70  O   UNL A   1      39.973  36.759  35.741  1.00  0.00    -0.744 OA
ENDBRANCH  63  67
ENDBRANCH  46  60
BRANCH  47  71
ATOM     71  C   UNL A   1      41.678  26.789  27.631  1.00  0.00     0.023 A 
ATOM     72  C   UNL A   1      41.415  25.414  27.543  1.00  0.00     0.031 A 
ATOM     73  C   UNL A   1      42.389  27.392  26.576  1.00  0.00     0.131 A 
ATOM     74  C   UNL A   1      41.897  24.677  26.450  1.00  0.00     0.055 A 
ATOM     75  C   UNL A   1      42.816  26.666  25.463  1.00  0.00     0.041 A 
ATOM     76  F   UNL A   1      42.673  28.704  26.610  1.00  0.00    -0.206 F 
ATOM     77  C   UNL A   1      42.583  25.296  25.402  1.00  0.00     0.022 A 
BRANCH  74  78
ATOM     78  S   UNL A   1      41.700  22.874  26.464  1.00  0.00     0.124 S 
ATOM     79  O   UNL A   1      40.248  22.735  26.418  1.00  0.00    -0.237 OA
ATOM     80  O   UNL A   1      42.421  22.483  25.258  1.00  0.00    -0.237 OA
ATOM     81  O   UNL A   1      42.327  22.473  27.722  1.00  0.00    -0.744 OA
ENDBRANCH  74  78
ENDBRANCH  47  71
BRANCH  59  82
ATOM     82  C   UNL A   1      44.384  27.581  34.023  1.00  0.00     0.023 A 
ATOM     83  C   UNL A   1      44.278  26.327  34.647  1.00  0.00     0.031 A 
ATOM     84  C   UNL A   1      45.631  28.233  34.058  1.00  0.00     0.131 A 
ATOM     85  C   UNL A   1      45.379  25.793  35.332  1.00  0.00     0.055 A 
ATOM     86  C   UNL A   1      46.743  27.663  34.678  1.00  0.00     0.041 A 
ATOM     87  F   UNL A   1      45.791  29.435  33.480  1.00  0.00    -0.206 F 
ATOM     88  C   UNL A   1      46.617  26.442  35.333  1.00  0.00     0.022 A 
BRANCH  85  89
ATOM     89  S   UNL A   1      45.145  24.286  36.315  1.00  0.00     0.124 S 
ATOM     90  O   UNL A   1      46.299  23.486  35.920  1.00  0.00    -0.237 OA
ATOM     91  O   UNL A   1      45.161  24.799  37.681  1.00  0.00    -0.237 OA
ATOM     92  O   UNL A   1      43.853  23.777  35.859  1.00  0.00    -0.744 OA
ENDBRANCH  85  89
ENDBRANCH  59  82
ENDBRANCH  33  34
ENDBRANCH  26  28
ENDBRANCH  25  26
ENDBRANCH  24  25
ENDBRANCH  23  24
ENDBRANCH   1  23
TORSDOF 20
ENDMDL
