MODEL 1
REMARK VINA RESULT:     -11.8      0.000      0.000
REMARK SMILES Cc1cc(Cl)cc2c1O[C@H](C(F)(F)F)C(C(=O)OCCOCCOC(=O)c1ccc(-c3c4nc(c(-c5cc(S(=O)(=O)[O-])ccc5F)c5ccc([nH]5)c(-c5cc(S(=O)(=O)[O-])ccc5F)c5nc(c(-c6cc(S(=O)(=O)[O-])ccc6F)c6ccc3[nH]6)C=C5)C=C4)cc1)=C2
REMARK SMILES IDX 22 1 21 2 20 3 19 4 18 5 16 6 17 7 15 8 1 9 2 10 3 11 8 12
REMARK SMILES IDX 4 13 7 14 9 15 5 16 6 17 90 18 10 19 11 20 12 21 13 22 14 23
REMARK SMILES IDX 23 24 24 25 25 26 26 27 27 28 28 29 89 30 29 31 88 32 30 33
REMARK SMILES IDX 31 34 32 35 82 36 33 37 87 38 81 39 83 40 34 41 86 42 80 43
REMARK SMILES IDX 79 44 35 46 67 47 47 48 66 49 48 50 51 51 65 52 84 53 49 54
REMARK SMILES IDX 50 55 64 57 85 58 52 59 36 60 37 61 45 62 38 63 44 64 46 65
REMARK SMILES IDX 43 66 39 67 40 68 41 69 42 70 68 71 69 72 77 73 70 74 76 75
REMARK SMILES IDX 78 76 75 77 71 78 72 79 73 80 74 81 53 82 54 83 62 84 55 85
REMARK SMILES IDX 61 86 63 87 60 88 56 89 57 90 58 91 59 92
REMARK H PARENT 83 45 51 56
REMARK Flexibility Score: inf
ROOT
ATOM      1  C   UNL A   1      35.233  20.955  24.787  1.00  0.00     0.202 C 
ENDROOT
BRANCH   1   2
ATOM      2  O   UNL A   1      34.964  22.306  24.407  1.00  0.00    -0.374 OA
BRANCH   2   3
ATOM      3  C   UNL A   1      33.711  22.581  23.782  1.00  0.00     0.202 C 
BRANCH   3   4
ATOM      4  C   UNL A   1      33.691  23.732  22.772  1.00  0.00     0.261 C 
BRANCH   4   5
ATOM      5  O   UNL A   1      33.103  24.918  23.332  1.00  0.00    -0.460 OA
BRANCH   5   6
ATOM      6  C   UNL A   1      33.317  26.047  22.621  1.00  0.00     0.338 C 
ATOM      7  O   UNL A   1      33.523  26.131  21.417  1.00  0.00    -0.246 OA
BRANCH   6   8
ATOM      8  C   UNL A   1      33.141  27.229  23.486  1.00  0.00     0.087 C 
ATOM      9  C   UNL A   1      31.382  31.262  26.169  1.00  0.00     0.048 C 
ATOM     10  C   UNL A   1      32.547  30.314  26.244  1.00  0.00    -0.007 A 
ATOM     11  C   UNL A   1      33.416  30.410  27.344  1.00  0.00     0.027 A 
ATOM     12  C   UNL A   1      32.789  29.336  25.266  1.00  0.00     0.131 A 
ATOM     13  C   UNL A   1      34.502  29.545  27.464  1.00  0.00     0.042 A 
ATOM     14  C   UNL A   1      33.862  28.448  25.413  1.00  0.00     0.019 A 
ATOM     15  O   UNL A   1      31.953  29.307  24.183  1.00  0.00    -0.475 OA
ATOM     16  Cl  UNL A   1      35.556  29.674  28.818  1.00  0.00    -0.084 Cl
ATOM     17  C   UNL A   1      34.728  28.564  26.504  1.00  0.00     0.032 A 
ATOM     18  C   UNL A   1      34.047  27.369  24.462  1.00  0.00     0.027 C 
ATOM     19  C   UNL A   1      31.996  28.176  23.266  1.00  0.00     0.316 C 
BRANCH  19  20
ATOM     20  C   UNL A   1      30.633  27.471  23.309  1.00  0.00     0.430 C 
ATOM     21  F   UNL A   1      30.334  26.911  22.112  1.00  0.00    -0.167 F 
ATOM     22  F   UNL A   1      30.607  26.477  24.225  1.00  0.00    -0.167 F 
ATOM     23  F   UNL A   1      29.633  28.331  23.612  1.00  0.00    -0.167 F 
ENDBRANCH  19  20
ENDBRANCH   6   8
ENDBRANCH   5   6
ENDBRANCH   4   5
ENDBRANCH   3   4
ENDBRANCH   2   3
ENDBRANCH   1   2
BRANCH   1  24
ATOM     24  C   UNL A   1      36.702  20.553  24.971  1.00  0.00     0.261 C 
BRANCH  24  25
ATOM     25  O   UNL A   1      37.547  21.685  25.247  1.00  0.00    -0.460 OA
BRANCH  25  26
ATOM     26  C   UNL A   1      38.712  21.377  25.866  1.00  0.00     0.338 C 
ATOM     27  O   UNL A   1      39.323  20.317  25.797  1.00  0.00    -0.246 OA
BRANCH  26  28
ATOM     28  C   UNL A   1      39.279  22.572  26.512  1.00  0.00     0.060 A 
ATOM     29  C   UNL A   1      38.726  23.814  26.175  1.00  0.00     0.016 A 
ATOM     30  C   UNL A   1      40.393  22.493  27.352  1.00  0.00     0.016 A 
ATOM     31  C   UNL A   1      39.319  24.988  26.631  1.00  0.00     0.010 A 
ATOM     32  C   UNL A   1      40.996  23.675  27.797  1.00  0.00     0.010 A 
ATOM     33  C   UNL A   1      40.485  24.926  27.405  1.00  0.00    -0.014 A 
BRANCH  33  34
ATOM     34  C   UNL A   1      41.264  26.165  27.637  1.00  0.00     0.031 A 
ATOM     35  C   UNL A   1      40.658  27.248  28.491  1.00  0.00     0.074 A 
ATOM     36  C   UNL A   1      42.513  26.299  27.156  1.00  0.00     0.049 A 
ATOM     37  N   UNL A   1      41.139  28.422  28.806  1.00  0.00    -0.248 NA
ATOM     38  C   UNL A   1      39.337  26.961  29.072  1.00  0.00     0.031 C 
ATOM     39  C   UNL A   1      43.233  25.288  26.383  1.00  0.00     0.029 A 
ATOM     40  N   UNL A   1      43.402  27.340  27.259  1.00  0.00    -0.354 N 
ATOM     41  C   UNL A   1      40.183  29.013  29.625  1.00  0.00     0.074 A 
ATOM     42  C   UNL A   1      39.082  28.082  29.731  1.00  0.00     0.031 C 
ATOM     43  C   UNL A   1      44.456  25.757  26.086  1.00  0.00     0.029 A 
ATOM     44  C   UNL A   1      44.594  27.114  26.613  1.00  0.00     0.049 A 
ATOM     45  H   UNL A   1      43.204  28.170  27.749  1.00  0.00     0.167 HD
ATOM     46  C   UNL A   1      40.227  30.219  30.242  1.00  0.00     0.034 A 
ATOM     47  C   UNL A   1      45.663  27.919  26.449  1.00  0.00     0.034 A 
ATOM     48  C   UNL A   1      41.325  31.143  30.124  1.00  0.00     0.049 A 
ATOM     49  C   UNL A   1      45.638  29.304  27.047  1.00  0.00     0.074 A 
ATOM     50  C   UNL A   1      41.461  32.396  30.697  1.00  0.00     0.029 A 
ATOM     51  N   UNL A   1      42.475  30.917  29.380  1.00  0.00    -0.354 N 
ATOM     52  N   UNL A   1      44.707  29.870  27.779  1.00  0.00    -0.248 NA
ATOM     53  C   UNL A   1      46.806  30.159  26.791  1.00  0.00     0.031 C 
ATOM     54  C   UNL A   1      42.665  32.951  30.251  1.00  0.00     0.029 A 
ATOM     55  C   UNL A   1      43.312  32.019  29.455  1.00  0.00     0.049 A 
ATOM     56  H   UNL A   1      42.668  30.094  28.875  1.00  0.00     0.167 HD
ATOM     57  C   UNL A   1      45.184  31.143  28.082  1.00  0.00     0.074 A 
ATOM     58  C   UNL A   1      46.489  31.256  27.463  1.00  0.00     0.031 C 
ATOM     59  C   UNL A   1      44.599  32.126  28.811  1.00  0.00     0.034 A 
BRANCH  46  60
ATOM     60  C   UNL A   1      39.031  30.622  31.063  1.00  0.00     0.023 A 
ATOM     61  C   UNL A   1      38.019  31.440  30.535  1.00  0.00     0.031 A 
ATOM     62  C   UNL A   1      38.900  30.172  32.388  1.00  0.00     0.131 A 
ATOM     63  C   UNL A   1      36.936  31.818  31.343  1.00  0.00     0.055 A 
ATOM     64  C   UNL A   1      37.791  30.503  33.168  1.00  0.00     0.041 A 
ATOM     65  F   UNL A   1      39.850  29.406  32.946  1.00  0.00    -0.206 F 
ATOM     66  C   UNL A   1      36.804  31.335  32.648  1.00  0.00     0.022 A 
BRANCH  63  67
ATOM     67  S   UNL A   1      35.736  33.012  30.693  1.00  0.00     0.124 S 
ATOM     68  O   UNL A   1      36.047  32.992  29.266  1.00  0.00    -0.237 OA
ATOM     69  O   UNL A   1      34.460  32.421  31.076  1.00  0.00    -0.237 OA
ATOM     70  O   UNL A   1      36.080  34.253  31.383  1.00  0.00    -0.744 OA
ENDBRANCH  63  67
ENDBRANCH  46  60
BRANCH  47  71
ATOM     71  C   UNL A   1      46.831  27.459  25.649  1.00  0.00     0.023 A 
ATOM     72  C   UNL A   1      46.981  27.833  24.305  1.00  0.00     0.031 A 
ATOM     73  C   UNL A   1      47.804  26.617  26.215  1.00  0.00     0.131 A 
ATOM     74  C   UNL A   1      48.069  27.346  23.562  1.00  0.00     0.055 A 
ATOM     75  C   UNL A   1      48.904  26.167  25.485  1.00  0.00     0.041 A 
ATOM     76  F   UNL A   1      47.705  26.232  27.498  1.00  0.00    -0.206 F 
ATOM     77  C   UNL A   1      49.037  26.527  24.147  1.00  0.00     0.022 A 
BRANCH  74  78
ATOM     78  S   UNL A   1      48.185  27.774  21.803  1.00  0.00     0.124 S 
ATOM     79  O   UNL A   1      46.915  28.455  21.579  1.00  0.00    -0.237 OA
ATOM     80  O   UNL A   1      49.379  28.612  21.772  1.00  0.00    -0.237 OA
ATOM     81  O   UNL A   1      48.323  26.475  21.147  1.00  0.00    -0.744 OA
ENDBRANCH  74  78
ENDBRANCH  47  71
BRANCH  59  82
ATOM     82  C   UNL A   1      45.369  33.407  28.991  1.00  0.00     0.023 A 
ATOM     83  C   UNL A   1      45.153  34.515  28.156  1.00  0.00     0.031 A 
ATOM     84  C   UNL A   1      46.306  33.531  30.033  1.00  0.00     0.131 A 
ATOM     85  C   UNL A   1      45.889  35.692  28.356  1.00  0.00     0.055 A 
ATOM     86  C   UNL A   1      47.000  34.720  30.257  1.00  0.00     0.041 A 
ATOM     87  F   UNL A   1      46.546  32.501  30.861  1.00  0.00    -0.206 F 
ATOM     88  C   UNL A   1      46.797  35.808  29.412  1.00  0.00     0.022 A 
BRANCH  85  89
ATOM     89  S   UNL A   1      45.672  37.065  27.191  1.00  0.00     0.124 S 
ATOM     90  O   UNL A   1      46.557  36.675  26.097  1.00  0.00    -0.237 OA
ATOM     91  O   UNL A   1      44.242  37.012  26.904  1.00  0.00    -0.237 OA
ATOM     92  O   UNL A   1      46.105  38.234  27.953  1.00  0.00    -0.744 OA
ENDBRANCH  85  89
ENDBRANCH  59  82
ENDBRANCH  33  34
ENDBRANCH  26  28
ENDBRANCH  25  26
ENDBRANCH  24  25
ENDBRANCH   1  24
TORSDOF 18
ENDMDL
MODEL 2
REMARK VINA RESULT:     -11.5      1.366      7.673
REMARK SMILES Cc1cc(Cl)cc2c1O[C@H](C(F)(F)F)C(C(=O)OCCOCCOC(=O)c1ccc(-c3c4nc(c(-c5cc(S(=O)(=O)[O-])ccc5F)c5ccc([nH]5)c(-c5cc(S(=O)(=O)[O-])ccc5F)c5nc(c(-c6cc(S(=O)(=O)[O-])ccc6F)c6ccc3[nH]6)C=C5)C=C4)cc1)=C2
REMARK SMILES IDX 22 1 21 2 20 3 19 4 18 5 16 6 17 7 15 8 1 9 2 10 3 11 8 12
REMARK SMILES IDX 4 13 7 14 9 15 5 16 6 17 90 18 10 19 11 20 12 21 13 22 14 23
REMARK SMILES IDX 23 24 24 25 25 26 26 27 27 28 28 29 89 30 29 31 88 32 30 33
REMARK SMILES IDX 31 34 32 35 82 36 33 37 87 38 81 39 83 40 34 41 86 42 80 43
REMARK SMILES IDX 79 44 35 46 67 47 47 48 66 49 48 50 51 51 65 52 84 53 49 54
REMARK SMILES IDX 50 55 64 57 85 58 52 59 36 60 37 61 45 62 38 63 44 64 46 65
REMARK SMILES IDX 43 66 39 67 40 68 41 69 42 70 68 71 69 72 77 73 70 74 76 75
REMARK SMILES IDX 78 76 75 77 71 78 72 79 73 80 74 81 53 82 54 83 62 84 55 85
REMARK SMILES IDX 61 86 63 87 60 88 56 89 57 90 58 91 59 92
REMARK H PARENT 83 45 51 56
REMARK Flexibility Score: inf
ROOT
ATOM      1  C   UNL A   1      37.743  19.992  24.602  1.00  0.00     0.202 C 
ENDROOT
BRANCH   1   2
ATOM      2  O   UNL A   1      36.510  20.255  25.275  1.00  0.00    -0.374 OA
BRANCH   2   3
ATOM      3  C   UNL A   1      36.245  21.600  25.673  1.00  0.00     0.202 C 
BRANCH   3   4
ATOM      4  C   UNL A   1      34.860  22.154  25.324  1.00  0.00     0.261 C 
BRANCH   4   5
ATOM      5  O   UNL A   1      34.906  23.568  25.067  1.00  0.00    -0.460 OA
BRANCH   5   6
ATOM      6  C   UNL A   1      34.692  23.917  23.780  1.00  0.00     0.338 C 
ATOM      7  O   UNL A   1      35.155  23.376  22.783  1.00  0.00    -0.246 OA
BRANCH   6   8
ATOM      8  C   UNL A   1      33.691  24.997  23.711  1.00  0.00     0.087 C 
ATOM      9  C   UNL A   1      29.445  27.874  23.206  1.00  0.00     0.048 C 
ATOM     10  C   UNL A   1      30.767  27.980  23.912  1.00  0.00    -0.007 A 
ATOM     11  C   UNL A   1      30.989  29.082  24.754  1.00  0.00     0.027 A 
ATOM     12  C   UNL A   1      31.779  27.015  23.770  1.00  0.00     0.131 A 
ATOM     13  C   UNL A   1      32.193  29.217  25.441  1.00  0.00     0.042 A 
ATOM     14  C   UNL A   1      32.973  27.141  24.490  1.00  0.00     0.019 A 
ATOM     15  O   UNL A   1      31.549  25.984  22.901  1.00  0.00    -0.475 OA
ATOM     16  Cl  UNL A   1      32.449  30.572  26.470  1.00  0.00    -0.084 Cl
ATOM     17  C   UNL A   1      33.186  28.251  25.313  1.00  0.00     0.032 A 
ATOM     18  C   UNL A   1      33.972  26.091  24.430  1.00  0.00     0.027 C 
ATOM     19  C   UNL A   1      32.441  24.833  22.892  1.00  0.00     0.316 C 
BRANCH  19  20
ATOM     20  C   UNL A   1      31.631  23.594  23.297  1.00  0.00     0.430 C 
ATOM     21  F   UNL A   1      32.063  22.491  22.639  1.00  0.00    -0.167 F 
ATOM     22  F   UNL A   1      31.739  23.329  24.619  1.00  0.00    -0.167 F 
ATOM     23  F   UNL A   1      30.315  23.741  23.017  1.00  0.00    -0.167 F 
ENDBRANCH  19  20
ENDBRANCH   6   8
ENDBRANCH   5   6
ENDBRANCH   4   5
ENDBRANCH   3   4
ENDBRANCH   2   3
ENDBRANCH   1   2
BRANCH   1  24
ATOM     24  C   UNL A   1      38.816  19.213  25.373  1.00  0.00     0.261 C 
BRANCH  24  25
ATOM     25  O   UNL A   1      39.268  19.919  26.544  1.00  0.00    -0.460 OA
BRANCH  25  26
ATOM     26  C   UNL A   1      40.569  20.293  26.505  1.00  0.00     0.338 C 
ATOM     27  O   UNL A   1      41.490  19.693  25.964  1.00  0.00    -0.246 OA
BRANCH  26  28
ATOM     28  C   UNL A   1      40.728  21.649  27.054  1.00  0.00     0.060 A 
ATOM     29  C   UNL A   1      40.065  22.695  26.398  1.00  0.00     0.016 A 
ATOM     30  C   UNL A   1      41.585  21.911  28.125  1.00  0.00     0.016 A 
ATOM     31  C   UNL A   1      40.301  24.014  26.773  1.00  0.00     0.010 A 
ATOM     32  C   UNL A   1      41.832  23.239  28.491  1.00  0.00     0.010 A 
ATOM     33  C   UNL A   1      41.222  24.296  27.790  1.00  0.00    -0.014 A 
BRANCH  33  34
ATOM     34  C   UNL A   1      41.681  25.693  27.982  1.00  0.00     0.031 A 
ATOM     35  C   UNL A   1      43.006  26.102  27.396  1.00  0.00     0.074 A 
ATOM     36  C   UNL A   1      40.905  26.598  28.604  1.00  0.00     0.049 A 
ATOM     37  N   UNL A   1      43.621  27.254  27.461  1.00  0.00    -0.248 NA
ATOM     38  C   UNL A   1      43.730  25.075  26.630  1.00  0.00     0.031 C 
ATOM     39  C   UNL A   1      39.570  26.338  29.142  1.00  0.00     0.029 A 
ATOM     40  N   UNL A   1      41.125  27.925  28.876  1.00  0.00    -0.354 N 
ATOM     41  C   UNL A   1      44.800  27.093  26.741  1.00  0.00     0.074 A 
ATOM     42  C   UNL A   1      44.829  25.724  26.277  1.00  0.00     0.031 C 
ATOM     43  C   UNL A   1      39.088  27.473  29.677  1.00  0.00     0.029 A 
ATOM     44  C   UNL A   1      40.092  28.529  29.553  1.00  0.00     0.049 A 
ATOM     45  H   UNL A   1      41.945  28.399  28.612  1.00  0.00     0.167 HD
ATOM     46  C   UNL A   1      45.764  28.010  26.481  1.00  0.00     0.034 A 
ATOM     47  C   UNL A   1      39.980  29.783  30.035  1.00  0.00     0.034 A 
ATOM     48  C   UNL A   1      45.729  29.369  26.954  1.00  0.00     0.049 A 
ATOM     49  C   UNL A   1      41.120  30.751  29.835  1.00  0.00     0.074 A 
ATOM     50  C   UNL A   1      46.663  30.372  26.759  1.00  0.00     0.029 A 
ATOM     51  N   UNL A   1      44.710  29.916  27.721  1.00  0.00    -0.354 N 
ATOM     52  N   UNL A   1      42.251  30.571  29.194  1.00  0.00    -0.248 NA
ATOM     53  C   UNL A   1      40.970  32.086  30.429  1.00  0.00     0.031 C 
ATOM     54  C   UNL A   1      46.236  31.508  27.456  1.00  0.00     0.029 A 
ATOM     55  C   UNL A   1      45.005  31.234  28.031  1.00  0.00     0.049 A 
ATOM     56  H   UNL A   1      43.896  29.439  28.001  1.00  0.00     0.167 HD
ATOM     57  C   UNL A   1      42.941  31.777  29.296  1.00  0.00     0.074 A 
ATOM     58  C   UNL A   1      42.093  32.679  30.050  1.00  0.00     0.031 C 
ATOM     59  C   UNL A   1      44.161  32.111  28.806  1.00  0.00     0.034 A 
BRANCH  46  60
ATOM     60  C   UNL A   1      46.957  27.554  25.684  1.00  0.00     0.023 A 
ATOM     61  C   UNL A   1      47.101  27.881  24.326  1.00  0.00     0.031 A 
ATOM     62  C   UNL A   1      47.965  26.790  26.295  1.00  0.00     0.131 A 
ATOM     63  C   UNL A   1      48.213  27.411  23.610  1.00  0.00     0.055 A 
ATOM     64  C   UNL A   1      49.098  26.375  25.593  1.00  0.00     0.041 A 
ATOM     65  F   UNL A   1      47.864  26.433  27.585  1.00  0.00    -0.206 F 
ATOM     66  C   UNL A   1      49.224  26.680  24.242  1.00  0.00     0.022 A 
BRANCH  63  67
ATOM     67  S   UNL A   1      48.287  27.701  21.822  1.00  0.00     0.124 S 
ATOM     68  O   UNL A   1      46.933  28.175  21.546  1.00  0.00    -0.237 OA
ATOM     69  O   UNL A   1      49.347  28.695  21.705  1.00  0.00    -0.237 OA
ATOM     70  O   UNL A   1      48.605  26.384  21.274  1.00  0.00    -0.744 OA
ENDBRANCH  63  67
ENDBRANCH  46  60
BRANCH  47  71
ATOM     71  C   UNL A   1      38.766  30.188  30.794  1.00  0.00     0.023 A 
ATOM     72  C   UNL A   1      37.779  30.994  30.206  1.00  0.00     0.031 A 
ATOM     73  C   UNL A   1      38.588  29.791  32.132  1.00  0.00     0.131 A 
ATOM     74  C   UNL A   1      36.667  31.398  30.962  1.00  0.00     0.055 A 
ATOM     75  C   UNL A   1      37.463  30.164  32.867  1.00  0.00     0.041 A 
ATOM     76  F   UNL A   1      39.504  29.020  32.738  1.00  0.00    -0.206 F 
ATOM     77  C   UNL A   1      36.497  30.979  32.284  1.00  0.00     0.022 A 
BRANCH  74  78
ATOM     78  S   UNL A   1      35.455  32.514  30.202  1.00  0.00     0.124 S 
ATOM     79  O   UNL A   1      34.360  32.460  31.163  1.00  0.00    -0.237 OA
ATOM     80  O   UNL A   1      36.195  33.769  30.139  1.00  0.00    -0.237 OA
ATOM     81  O   UNL A   1      35.184  31.889  28.909  1.00  0.00    -0.744 OA
ENDBRANCH  74  78
ENDBRANCH  47  71
BRANCH  59  82
ATOM     82  C   UNL A   1      44.649  33.513  29.057  1.00  0.00     0.023 A 
ATOM     83  C   UNL A   1      44.204  34.594  28.277  1.00  0.00     0.031 A 
ATOM     84  C   UNL A   1      45.541  33.776  30.112  1.00  0.00     0.131 A 
ATOM     85  C   UNL A   1      44.679  35.886  28.543  1.00  0.00     0.055 A 
ATOM     86  C   UNL A   1      45.973  35.070  30.402  1.00  0.00     0.041 A 
ATOM     87  F   UNL A   1      45.993  32.777  30.888  1.00  0.00    -0.206 F 
ATOM     88  C   UNL A   1      45.546  36.134  29.611  1.00  0.00     0.022 A 
BRANCH  85  89
ATOM     89  S   UNL A   1      44.178  37.242  27.447  1.00  0.00     0.124 S 
ATOM     90  O   UNL A   1      43.161  36.600  26.619  1.00  0.00    -0.237 OA
ATOM     91  O   UNL A   1      43.694  38.246  28.388  1.00  0.00    -0.237 OA
ATOM     92  O   UNL A   1      45.414  37.594  26.750  1.00  0.00    -0.744 OA
ENDBRANCH  85  89
ENDBRANCH  59  82
ENDBRANCH  33  34
ENDBRANCH  26  28
ENDBRANCH  25  26
ENDBRANCH  24  25
ENDBRANCH   1  24
TORSDOF 18
ENDMDL
MODEL 3
REMARK VINA RESULT:     -11.3      1.931      2.383
REMARK SMILES Cc1cc(Cl)cc2c1O[C@H](C(F)(F)F)C(C(=O)OCCOCCOC(=O)c1ccc(-c3c4nc(c(-c5cc(S(=O)(=O)[O-])ccc5F)c5ccc([nH]5)c(-c5cc(S(=O)(=O)[O-])ccc5F)c5nc(c(-c6cc(S(=O)(=O)[O-])ccc6F)c6ccc3[nH]6)C=C5)C=C4)cc1)=C2
REMARK SMILES IDX 22 1 21 2 20 3 19 4 18 5 16 6 17 7 15 8 1 9 2 10 3 11 8 12
REMARK SMILES IDX 4 13 7 14 9 15 5 16 6 17 90 18 10 19 11 20 12 21 13 22 14 23
REMARK SMILES IDX 23 24 24 25 25 26 26 27 27 28 28 29 89 30 29 31 88 32 30 33
REMARK SMILES IDX 31 34 32 35 82 36 33 37 87 38 81 39 83 40 34 41 86 42 80 43
REMARK SMILES IDX 79 44 35 46 67 47 47 48 66 49 48 50 51 51 65 52 84 53 49 54
REMARK SMILES IDX 50 55 64 57 85 58 52 59 36 60 37 61 45 62 38 63 44 64 46 65
REMARK SMILES IDX 43 66 39 67 40 68 41 69 42 70 68 71 69 72 77 73 70 74 76 75
REMARK SMILES IDX 78 76 75 77 71 78 72 79 73 80 74 81 53 82 54 83 62 84 55 85
REMARK SMILES IDX 61 86 63 87 60 88 56 89 57 90 58 91 59 92
REMARK H PARENT 83 45 51 56
REMARK Flexibility Score: inf
ROOT
ATOM      1  C   UNL A   1      35.408  21.344  24.741  1.00  0.00     0.202 C 
ENDROOT
BRANCH   1   2
ATOM      2  O   UNL A   1      34.241  21.028  25.502  1.00  0.00    -0.374 OA
BRANCH   2   3
ATOM      3  C   UNL A   1      33.003  21.605  25.088  1.00  0.00     0.202 C 
BRANCH   3   4
ATOM      4  C   UNL A   1      32.077  22.104  26.201  1.00  0.00     0.261 C 
BRANCH   4   5
ATOM      5  O   UNL A   1      30.918  22.766  25.668  1.00  0.00    -0.460 OA
BRANCH   5   6
ATOM      6  C   UNL A   1      30.591  23.922  26.286  1.00  0.00     0.338 C 
ATOM      7  O   UNL A   1      29.817  24.062  27.225  1.00  0.00    -0.246 OA
BRANCH   6   8
ATOM      8  C   UNL A   1      31.410  25.027  25.753  1.00  0.00     0.087 C 
ATOM      9  C   UNL A   1      33.775  28.567  22.848  1.00  0.00     0.048 C 
ATOM     10  C   UNL A   1      33.399  28.403  24.295  1.00  0.00    -0.007 A 
ATOM     11  C   UNL A   1      33.641  29.472  25.173  1.00  0.00     0.027 A 
ATOM     12  C   UNL A   1      32.810  27.229  24.794  1.00  0.00     0.131 A 
ATOM     13  C   UNL A   1      33.298  29.373  26.519  1.00  0.00     0.042 A 
ATOM     14  C   UNL A   1      32.437  27.151  26.141  1.00  0.00     0.019 A 
ATOM     15  O   UNL A   1      32.639  26.190  23.922  1.00  0.00    -0.475 OA
ATOM     16  Cl  UNL A   1      33.599  30.692  27.582  1.00  0.00    -0.084 Cl
ATOM     17  C   UNL A   1      32.697  28.218  27.007  1.00  0.00     0.032 A 
ATOM     18  C   UNL A   1      31.729  25.984  26.632  1.00  0.00     0.027 C 
ATOM     19  C   UNL A   1      31.820  25.049  24.307  1.00  0.00     0.316 C 
BRANCH  19  20
ATOM     20  C   UNL A   1      30.618  24.976  23.354  1.00  0.00     0.430 C 
ATOM     21  F   UNL A   1      30.892  25.586  22.175  1.00  0.00    -0.167 F 
ATOM     22  F   UNL A   1      30.279  23.700  23.065  1.00  0.00    -0.167 F 
ATOM     23  F   UNL A   1      29.526  25.580  23.877  1.00  0.00    -0.167 F 
ENDBRANCH  19  20
ENDBRANCH   6   8
ENDBRANCH   5   6
ENDBRANCH   4   5
ENDBRANCH   3   4
ENDBRANCH   2   3
ENDBRANCH   1   2
BRANCH   1  24
ATOM     24  C   UNL A   1      36.715  20.639  25.126  1.00  0.00     0.261 C 
BRANCH  24  25
ATOM     25  O   UNL A   1      37.855  21.512  25.032  1.00  0.00    -0.460 OA
BRANCH  25  26
ATOM     26  C   UNL A   1      38.875  21.196  25.865  1.00  0.00     0.338 C 
ATOM     27  O   UNL A   1      39.413  20.101  25.985  1.00  0.00    -0.246 OA
BRANCH  26  28
ATOM     28  C   UNL A   1      39.406  22.408  26.508  1.00  0.00     0.060 A 
ATOM     29  C   UNL A   1      38.895  23.642  26.085  1.00  0.00     0.016 A 
ATOM     30  C   UNL A   1      40.453  22.351  27.431  1.00  0.00     0.016 A 
ATOM     31  C   UNL A   1      39.466  24.827  26.540  1.00  0.00     0.010 A 
ATOM     32  C   UNL A   1      41.036  23.543  27.876  1.00  0.00     0.010 A 
ATOM     33  C   UNL A   1      40.571  24.783  27.401  1.00  0.00    -0.014 A 
BRANCH  33  34
ATOM     34  C   UNL A   1      41.345  26.023  27.644  1.00  0.00     0.031 A 
ATOM     35  C   UNL A   1      40.701  27.132  28.434  1.00  0.00     0.074 A 
ATOM     36  C   UNL A   1      42.621  26.136  27.232  1.00  0.00     0.049 A 
ATOM     37  N   UNL A   1      41.172  28.311  28.744  1.00  0.00    -0.248 NA
ATOM     38  C   UNL A   1      39.346  26.870  28.945  1.00  0.00     0.031 C 
ATOM     39  C   UNL A   1      43.375  25.099  26.529  1.00  0.00     0.029 A 
ATOM     40  N   UNL A   1      43.511  27.173  27.358  1.00  0.00    -0.354 N 
ATOM     41  C   UNL A   1      40.176  28.930  29.492  1.00  0.00     0.074 A 
ATOM     42  C   UNL A   1      39.063  28.009  29.559  1.00  0.00     0.031 C 
ATOM     43  C   UNL A   1      44.618  25.553  26.289  1.00  0.00     0.029 A 
ATOM     44  C   UNL A   1      44.736  26.923  26.788  1.00  0.00     0.049 A 
ATOM     45  H   UNL A   1      43.292  28.017  27.814  1.00  0.00     0.167 HD
ATOM     46  C   UNL A   1      40.195  30.151  30.078  1.00  0.00     0.034 A 
ATOM     47  C   UNL A   1      45.819  27.715  26.664  1.00  0.00     0.034 A 
ATOM     48  C   UNL A   1      41.305  31.065  29.999  1.00  0.00     0.049 A 
ATOM     49  C   UNL A   1      45.772  29.116  27.223  1.00  0.00     0.074 A 
ATOM     50  C   UNL A   1      41.418  32.331  30.546  1.00  0.00     0.029 A 
ATOM     51  N   UNL A   1      42.493  30.812  29.328  1.00  0.00    -0.354 N 
ATOM     52  N   UNL A   1      44.805  29.707  27.886  1.00  0.00    -0.248 NA
ATOM     53  C   UNL A   1      46.958  29.956  27.012  1.00  0.00     0.031 C 
ATOM     54  C   UNL A   1      42.651  32.866  30.156  1.00  0.00     0.029 A 
ATOM     55  C   UNL A   1      43.333  31.909  29.422  1.00  0.00     0.049 A 
ATOM     56  H   UNL A   1      42.709  29.975  28.857  1.00  0.00     0.167 HD
ATOM     57  C   UNL A   1      45.274  30.985  28.182  1.00  0.00     0.074 A 
ATOM     58  C   UNL A   1      46.613  31.073  27.636  1.00  0.00     0.031 C 
ATOM     59  C   UNL A   1      44.656  31.990  28.850  1.00  0.00     0.034 A 
BRANCH  46  60
ATOM     60  C   UNL A   1      38.957  30.584  30.819  1.00  0.00     0.023 A 
ATOM     61  C   UNL A   1      37.975  31.379  30.206  1.00  0.00     0.031 A 
ATOM     62  C   UNL A   1      38.756  30.186  32.151  1.00  0.00     0.131 A 
ATOM     63  C   UNL A   1      36.851  31.786  30.941  1.00  0.00     0.055 A 
ATOM     64  C   UNL A   1      37.607  30.545  32.859  1.00  0.00     0.041 A 
ATOM     65  F   UNL A   1      39.675  29.444  32.788  1.00  0.00    -0.206 F 
ATOM     66  C   UNL A   1      36.649  31.354  32.255  1.00  0.00     0.022 A 
BRANCH  63  67
ATOM     67  S   UNL A   1      35.687  32.952  30.182  1.00  0.00     0.124 S 
ATOM     68  O   UNL A   1      34.403  32.328  30.492  1.00  0.00    -0.237 OA
ATOM     69  O   UNL A   1      35.979  34.195  30.886  1.00  0.00    -0.237 OA
ATOM     70  O   UNL A   1      36.059  32.935  28.769  1.00  0.00    -0.744 OA
ENDBRANCH  63  67
ENDBRANCH  46  60
BRANCH  47  71
ATOM     71  C   UNL A   1      47.027  27.227  25.944  1.00  0.00     0.023 A 
ATOM     72  C   UNL A   1      48.094  26.637  26.637  1.00  0.00     0.031 A 
ATOM     73  C   UNL A   1      47.138  27.367  24.549  1.00  0.00     0.131 A 
ATOM     74  C   UNL A   1      49.240  26.228  25.936  1.00  0.00     0.055 A 
ATOM     75  C   UNL A   1      48.262  26.924  23.852  1.00  0.00     0.041 A 
ATOM     76  F   UNL A   1      46.142  27.925  23.842  1.00  0.00    -0.206 F 
ATOM     77  C   UNL A   1      49.325  26.356  24.547  1.00  0.00     0.022 A 
BRANCH  74  78
ATOM     78  S   UNL A   1      50.640  25.552  26.871  1.00  0.00     0.124 S 
ATOM     79  O   UNL A   1      51.546  25.153  25.800  1.00  0.00    -0.237 OA
ATOM     80  O   UNL A   1      51.054  26.699  27.671  1.00  0.00    -0.237 OA
ATOM     81  O   UNL A   1      50.043  24.453  27.627  1.00  0.00    -0.744 OA
ENDBRANCH  74  78
ENDBRANCH  47  71
BRANCH  59  82
ATOM     82  C   UNL A   1      45.426  33.271  29.041  1.00  0.00     0.023 A 
ATOM     83  C   UNL A   1      45.334  34.325  28.117  1.00  0.00     0.031 A 
ATOM     84  C   UNL A   1      46.232  33.451  30.178  1.00  0.00     0.131 A 
ATOM     85  C   UNL A   1      46.064  35.503  28.329  1.00  0.00     0.055 A 
ATOM     86  C   UNL A   1      46.919  34.643  30.409  1.00  0.00     0.041 A 
ATOM     87  F   UNL A   1      46.350  32.475  31.093  1.00  0.00    -0.206 F 
ATOM     88  C   UNL A   1      46.841  35.676  29.478  1.00  0.00     0.022 A 
BRANCH  85  89
ATOM     89  S   UNL A   1      46.017  36.799  27.061  1.00  0.00     0.124 S 
ATOM     90  O   UNL A   1      44.598  37.140  27.031  1.00  0.00    -0.237 OA
ATOM     91  O   UNL A   1      46.906  37.815  27.616  1.00  0.00    -0.237 OA
ATOM     92  O   UNL A   1      46.520  36.127  25.865  1.00  0.00    -0.744 OA
ENDBRANCH  85  89
ENDBRANCH  59  82
ENDBRANCH  33  34
ENDBRANCH  26  28
ENDBRANCH  25  26
ENDBRANCH  24  25
ENDBRANCH   1  24
TORSDOF 18
ENDMDL
