MODEL 1
REMARK VINA RESULT:     -11.4      0.000      0.000
REMARK SMILES O=C(CC1(CC(=O)OCCOCCOC(=O)c2ccc(-c3c4nc(c(-c5cc(S(=O)(=O)[O-])ccc5F)c5ccc([nH]5)c(-c5cc(S(=O)(=O)[O-])ccc5F)c5nc(c(-c6cc(S(=O)(=O)[O-])ccc6F)c6ccc3[nH]6)C=C5)C=C4)cc2)CCCCC1)Nc1ccc2ccccc2n1
REMARK SMILES IDX 10 1 9 2 8 3 6 4 7 5 5 6 4 7 80 8 84 9 81 10 83 11 82 12
REMARK SMILES IDX 3 13 2 14 1 15 85 16 86 18 87 19 95 20 88 21 94 22 89 23
REMARK SMILES IDX 93 24 90 25 92 26 91 27 11 28 12 29 13 30 14 31 15 32 16 33
REMARK SMILES IDX 17 34 18 35 79 36 19 37 78 38 20 39 21 40 22 41 72 42 23 43
REMARK SMILES IDX 77 44 71 45 73 46 24 47 76 48 70 49 69 50 25 52 57 53 37 54
REMARK SMILES IDX 56 55 38 56 41 57 55 58 74 59 39 60 40 61 54 63 75 64 42 65
REMARK SMILES IDX 26 66 27 67 35 68 28 69 34 70 36 71 33 72 29 73 30 74 31 75
REMARK SMILES IDX 32 76 58 77 59 78 67 79 60 80 66 81 68 82 65 83 61 84 62 85
REMARK SMILES IDX 63 86 64 87 43 88 44 89 52 90 45 91 51 92 53 93 50 94 46 95
REMARK SMILES IDX 47 96 48 97 49 98
REMARK H PARENT 85 17 73 51 41 62
REMARK Flexibility Score: inf
ROOT
ATOM      1  C   UNL A   1      37.782  22.770  25.005  1.00  0.00     0.202 C 
ENDROOT
BRANCH   1   2
ATOM      2  C   UNL A   1      36.424  23.298  24.515  1.00  0.00     0.261 C 
BRANCH   2   3
ATOM      3  O   UNL A   1      35.847  24.268  25.417  1.00  0.00    -0.463 OA
BRANCH   3   4
ATOM      4  C   UNL A   1      34.499  24.368  25.420  1.00  0.00     0.306 C 
ATOM      5  O   UNL A   1      33.792  24.416  26.419  1.00  0.00    -0.252 OA
BRANCH   4   6
ATOM      6  C   UNL A   1      33.892  24.418  24.038  1.00  0.00     0.130 C 
BRANCH   6   7
ATOM      7  C   UNL A   1      32.494  25.051  23.861  1.00  0.00    -0.010 C 
ATOM      8  C   UNL A   1      32.248  25.302  22.329  1.00  0.00     0.008 C 
ATOM      9  C   UNL A   1      32.403  26.489  24.490  1.00  0.00     0.008 C 
ATOM     10  C   UNL A   1      33.192  26.322  21.680  1.00  0.00     0.001 C 
ATOM     11  C   UNL A   1      33.409  27.489  23.915  1.00  0.00     0.001 C 
ATOM     12  C   UNL A   1      33.224  27.657  22.416  1.00  0.00     0.000 C 
BRANCH   7  13
ATOM     13  C   UNL A   1      31.296  24.169  24.378  1.00  0.00     0.108 C 
BRANCH  13  14
ATOM     14  C   UNL A   1      31.235  22.729  24.985  1.00  0.00     0.226 C 
ATOM     15  O   UNL A   1      30.704  22.637  26.100  1.00  0.00    -0.275 OA
ATOM     16  N   UNL A   1      31.948  21.685  24.427  1.00  0.00    -0.311 N 
ATOM     17  H   UNL A   1      31.904  21.564  23.452  1.00  0.00     0.171 HD
BRANCH  16  18
ATOM     18  C   UNL A   1      32.749  20.768  25.183  1.00  0.00     0.133 A 
ATOM     19  C   UNL A   1      34.124  20.878  25.174  1.00  0.00     0.048 A 
ATOM     20  N   UNL A   1      32.148  19.574  25.404  1.00  0.00    -0.231 NA
ATOM     21  C   UNL A   1      34.837  19.753  24.793  1.00  0.00     0.014 A 
ATOM     22  C   UNL A   1      32.854  18.451  25.123  1.00  0.00     0.073 A 
ATOM     23  C   UNL A   1      34.179  18.529  24.657  1.00  0.00     0.000 A 
ATOM     24  C   UNL A   1      32.265  17.187  25.154  1.00  0.00     0.029 A 
ATOM     25  C   UNL A   1      34.793  17.426  24.039  1.00  0.00     0.010 A 
ATOM     26  C   UNL A   1      32.895  16.067  24.596  1.00  0.00     0.002 A 
ATOM     27  C   UNL A   1      34.135  16.202  23.982  1.00  0.00     0.001 A 
ENDBRANCH  16  18
ENDBRANCH  13  14
ENDBRANCH   7  13
ENDBRANCH   6   7
ENDBRANCH   4   6
ENDBRANCH   3   4
ENDBRANCH   2   3
ENDBRANCH   1   2
BRANCH   1  28
ATOM     28  O   UNL A   1      37.747  21.549  25.747  1.00  0.00    -0.374 OA
BRANCH  28  29
ATOM     29  C   UNL A   1      38.319  20.429  25.091  1.00  0.00     0.202 C 
BRANCH  29  30
ATOM     30  C   UNL A   1      39.582  19.840  25.706  1.00  0.00     0.261 C 
BRANCH  30  31
ATOM     31  O   UNL A   1      39.979  20.679  26.780  1.00  0.00    -0.460 OA
BRANCH  31  32
ATOM     32  C   UNL A   1      41.163  21.275  26.530  1.00  0.00     0.338 C 
ATOM     33  O   UNL A   1      42.021  20.927  25.730  1.00  0.00    -0.246 OA
BRANCH  32  34
ATOM     34  C   UNL A   1      41.176  22.557  27.234  1.00  0.00     0.060 A 
ATOM     35  C   UNL A   1      40.479  23.606  26.629  1.00  0.00     0.016 A 
ATOM     36  C   UNL A   1      41.855  22.729  28.447  1.00  0.00     0.016 A 
ATOM     37  C   UNL A   1      40.578  24.874  27.161  1.00  0.00     0.010 A 
ATOM     38  C   UNL A   1      41.939  24.000  28.994  1.00  0.00     0.010 A 
ATOM     39  C   UNL A   1      41.370  25.078  28.298  1.00  0.00    -0.014 A 
BRANCH  39  40
ATOM     40  C   UNL A   1      41.816  26.449  28.583  1.00  0.00     0.031 A 
ATOM     41  C   UNL A   1      43.183  26.852  28.111  1.00  0.00     0.074 A 
ATOM     42  C   UNL A   1      40.967  27.316  29.149  1.00  0.00     0.049 A 
ATOM     43  N   UNL A   1      43.780  28.010  28.185  1.00  0.00    -0.248 NA
ATOM     44  C   UNL A   1      43.991  25.798  27.475  1.00  0.00     0.031 C 
ATOM     45  C   UNL A   1      39.602  26.999  29.571  1.00  0.00     0.029 A 
ATOM     46  N   UNL A   1      41.117  28.641  29.438  1.00  0.00    -0.354 N 
ATOM     47  C   UNL A   1      45.032  27.822  27.609  1.00  0.00     0.074 A 
ATOM     48  C   UNL A   1      45.133  26.425  27.254  1.00  0.00     0.031 C 
ATOM     49  C   UNL A   1      39.028  28.116  30.044  1.00  0.00     0.029 A 
ATOM     50  C   UNL A   1      39.999  29.206  29.994  1.00  0.00     0.049 A 
ATOM     51  H   UNL A   1      41.947  29.141  29.264  1.00  0.00     0.167 HD
ATOM     52  C   UNL A   1      45.998  28.745  27.380  1.00  0.00     0.034 A 
ATOM     53  C   UNL A   1      39.799  30.466  30.417  1.00  0.00     0.034 A 
ATOM     54  C   UNL A   1      45.857  30.125  27.771  1.00  0.00     0.049 A 
ATOM     55  C   UNL A   1      40.919  31.457  30.241  1.00  0.00     0.074 A 
ATOM     56  C   UNL A   1      46.756  31.165  27.622  1.00  0.00     0.029 A 
ATOM     57  N   UNL A   1      44.738  30.655  28.408  1.00  0.00    -0.354 N 
ATOM     58  N   UNL A   1      42.108  31.276  29.707  1.00  0.00    -0.248 NA
ATOM     59  C   UNL A   1      40.667  32.820  30.710  1.00  0.00     0.031 C 
ATOM     60  C   UNL A   1      46.216  32.297  28.243  1.00  0.00     0.029 A 
ATOM     61  C   UNL A   1      44.937  31.995  28.691  1.00  0.00     0.049 A 
ATOM     62  H   UNL A   1      43.922  30.148  28.627  1.00  0.00     0.167 HD
ATOM     63  C   UNL A   1      42.733  32.520  29.740  1.00  0.00     0.074 A 
ATOM     64  C   UNL A   1      41.779  33.436  30.340  1.00  0.00     0.031 C 
ATOM     65  C   UNL A   1      43.971  32.879  29.308  1.00  0.00     0.034 A 
BRANCH  52  66
ATOM     66  C   UNL A   1      47.285  28.254  26.754  1.00  0.00     0.023 A 
ATOM     67  C   UNL A   1      47.466  28.214  25.357  1.00  0.00     0.031 A 
ATOM     68  C   UNL A   1      48.308  27.724  27.558  1.00  0.00     0.131 A 
ATOM     69  C   UNL A   1      48.582  27.558  24.812  1.00  0.00     0.055 A 
ATOM     70  C   UNL A   1      49.467  27.166  27.010  1.00  0.00     0.041 A 
ATOM     71  F   UNL A   1      48.186  27.702  28.895  1.00  0.00    -0.206 F 
ATOM     72  C   UNL A   1      49.598  27.060  25.628  1.00  0.00     0.022 A 
BRANCH  69  73
ATOM     73  S   UNL A   1      48.580  27.179  23.036  1.00  0.00     0.124 S 
ATOM     74  O   UNL A   1      47.547  28.087  22.542  1.00  0.00    -0.237 OA
ATOM     75  O   UNL A   1      49.948  27.493  22.644  1.00  0.00    -0.237 OA
ATOM     76  O   UNL A   1      48.224  25.762  22.989  1.00  0.00    -0.744 OA
ENDBRANCH  69  73
ENDBRANCH  52  66
BRANCH  53  77
ATOM     77  C   UNL A   1      38.498  30.846  31.030  1.00  0.00     0.023 A 
ATOM     78  C   UNL A   1      37.494  31.463  30.270  1.00  0.00     0.031 A 
ATOM     79  C   UNL A   1      38.236  30.591  32.388  1.00  0.00     0.131 A 
ATOM     80  C   UNL A   1      36.286  31.833  30.879  1.00  0.00     0.055 A 
ATOM     81  C   UNL A   1      37.014  30.914  32.978  1.00  0.00     0.041 A 
ATOM     82  F   UNL A   1      39.161  29.994  33.158  1.00  0.00    -0.206 F 
ATOM     83  C   UNL A   1      36.034  31.550  32.223  1.00  0.00     0.022 A 
BRANCH  80  84
ATOM     84  S   UNL A   1      35.069  32.753  29.900  1.00  0.00     0.124 S 
ATOM     85  O   UNL A   1      34.108  33.151  30.922  1.00  0.00    -0.237 OA
ATOM     86  O   UNL A   1      35.884  33.822  29.332  1.00  0.00    -0.237 OA
ATOM     87  O   UNL A   1      34.587  31.763  28.940  1.00  0.00    -0.744 OA
ENDBRANCH  80  84
ENDBRANCH  53  77
BRANCH  65  88
ATOM     88  C   UNL A   1      44.331  34.340  29.425  1.00  0.00     0.023 A 
ATOM     89  C   UNL A   1      43.800  35.307  28.555  1.00  0.00     0.031 A 
ATOM     90  C   UNL A   1      45.239  34.764  30.411  1.00  0.00     0.131 A 
ATOM     91  C   UNL A   1      44.244  36.635  28.636  1.00  0.00     0.055 A 
ATOM     92  C   UNL A   1      45.614  36.101  30.540  1.00  0.00     0.041 A 
ATOM     93  F   UNL A   1      45.781  33.881  31.267  1.00  0.00    -0.206 F 
ATOM     94  C   UNL A   1      45.131  37.042  29.637  1.00  0.00     0.022 A 
BRANCH  91  95
ATOM     95  S   UNL A   1      43.754  37.793  27.331  1.00  0.00     0.124 S 
ATOM     96  O   UNL A   1      42.909  36.956  26.486  1.00  0.00    -0.237 OA
ATOM     97  O   UNL A   1      43.065  38.838  28.084  1.00  0.00    -0.237 OA
ATOM     98  O   UNL A   1      45.026  38.195  26.733  1.00  0.00    -0.744 OA
ENDBRANCH  91  95
ENDBRANCH  65  88
ENDBRANCH  39  40
ENDBRANCH  32  34
ENDBRANCH  31  32
ENDBRANCH  30  31
ENDBRANCH  29  30
ENDBRANCH  28  29
ENDBRANCH   1  28
TORSDOF 21
ENDMDL
MODEL 2
REMARK VINA RESULT:     -11.4      5.711      8.783
REMARK SMILES O=C(CC1(CC(=O)OCCOCCOC(=O)c2ccc(-c3c4nc(c(-c5cc(S(=O)(=O)[O-])ccc5F)c5ccc([nH]5)c(-c5cc(S(=O)(=O)[O-])ccc5F)c5nc(c(-c6cc(S(=O)(=O)[O-])ccc6F)c6ccc3[nH]6)C=C5)C=C4)cc2)CCCCC1)Nc1ccc2ccccc2n1
REMARK SMILES IDX 10 1 9 2 8 3 6 4 7 5 5 6 4 7 80 8 84 9 81 10 83 11 82 12
REMARK SMILES IDX 3 13 2 14 1 15 85 16 86 18 87 19 95 20 88 21 94 22 89 23
REMARK SMILES IDX 93 24 90 25 92 26 91 27 11 28 12 29 13 30 14 31 15 32 16 33
REMARK SMILES IDX 17 34 18 35 79 36 19 37 78 38 20 39 21 40 22 41 72 42 23 43
REMARK SMILES IDX 77 44 71 45 73 46 24 47 76 48 70 49 69 50 25 52 57 53 37 54
REMARK SMILES IDX 56 55 38 56 41 57 55 58 74 59 39 60 40 61 54 63 75 64 42 65
REMARK SMILES IDX 26 66 27 67 35 68 28 69 34 70 36 71 33 72 29 73 30 74 31 75
REMARK SMILES IDX 32 76 58 77 59 78 67 79 60 80 66 81 68 82 65 83 61 84 62 85
REMARK SMILES IDX 63 86 64 87 43 88 44 89 52 90 45 91 51 92 53 93 50 94 46 95
REMARK SMILES IDX 47 96 48 97 49 98
REMARK H PARENT 85 17 73 51 41 62
REMARK Flexibility Score: inf
ROOT
ATOM      1  C   UNL A   1      35.057  29.291  27.207  1.00  0.00     0.202 C 
ENDROOT
BRANCH   1   2
ATOM      2  C   UNL A   1      34.033  28.557  26.326  1.00  0.00     0.261 C 
BRANCH   2   3
ATOM      3  O   UNL A   1      33.227  27.619  27.076  1.00  0.00    -0.463 OA
BRANCH   3   4
ATOM      4  C   UNL A   1      31.891  27.825  27.067  1.00  0.00     0.306 C 
ATOM      5  O   UNL A   1      31.188  27.972  28.059  1.00  0.00    -0.252 OA
BRANCH   4   6
ATOM      6  C   UNL A   1      31.292  27.860  25.681  1.00  0.00     0.130 C 
BRANCH   6   7
ATOM      7  C   UNL A   1      30.914  26.527  24.998  1.00  0.00    -0.010 C 
ATOM      8  C   UNL A   1      32.041  26.155  23.969  1.00  0.00     0.008 C 
ATOM      9  C   UNL A   1      29.626  26.655  24.107  1.00  0.00     0.008 C 
ATOM     10  C   UNL A   1      32.196  27.131  22.796  1.00  0.00     0.001 C 
ATOM     11  C   UNL A   1      29.737  27.697  22.992  1.00  0.00     0.001 C 
ATOM     12  C   UNL A   1      30.888  27.380  22.051  1.00  0.00     0.000 C 
BRANCH   7  13
ATOM     13  C   UNL A   1      30.763  25.301  25.976  1.00  0.00     0.108 C 
BRANCH  13  14
ATOM     14  C   UNL A   1      31.542  23.950  26.097  1.00  0.00     0.226 C 
ATOM     15  O   UNL A   1      32.663  24.020  26.619  1.00  0.00    -0.275 OA
ATOM     16  N   UNL A   1      31.113  22.813  25.440  1.00  0.00    -0.311 N 
ATOM     17  H   UNL A   1      30.159  22.577  25.501  1.00  0.00     0.171 HD
BRANCH  16  18
ATOM     18  C   UNL A   1      31.970  21.958  24.674  1.00  0.00     0.133 A 
ATOM     19  C   UNL A   1      32.322  20.716  25.159  1.00  0.00     0.048 A 
ATOM     20  N   UNL A   1      32.778  22.624  23.816  1.00  0.00    -0.231 NA
ATOM     21  C   UNL A   1      33.677  20.447  25.259  1.00  0.00     0.014 A 
ATOM     22  C   UNL A   1      34.100  22.320  23.829  1.00  0.00     0.073 A 
ATOM     23  C   UNL A   1      34.602  21.317  24.678  1.00  0.00     0.000 A 
ATOM     24  C   UNL A   1      35.032  23.068  23.110  1.00  0.00     0.029 A 
ATOM     25  C   UNL A   1      35.975  21.230  24.959  1.00  0.00     0.010 A 
ATOM     26  C   UNL A   1      36.409  22.945  23.338  1.00  0.00     0.002 A 
ATOM     27  C   UNL A   1      36.875  22.068  24.310  1.00  0.00     0.001 A 
ENDBRANCH  16  18
ENDBRANCH  13  14
ENDBRANCH   7  13
ENDBRANCH   6   7
ENDBRANCH   4   6
ENDBRANCH   3   4
ENDBRANCH   2   3
ENDBRANCH   1   2
BRANCH   1  28
ATOM     28  O   UNL A   1      34.520  30.238  28.133  1.00  0.00    -0.374 OA
BRANCH  28  29
ATOM     29  C   UNL A   1      34.212  31.509  27.584  1.00  0.00     0.202 C 
BRANCH  29  30
ATOM     30  C   UNL A   1      35.269  32.596  27.729  1.00  0.00     0.261 C 
BRANCH  30  31
ATOM     31  O   UNL A   1      34.625  33.855  27.606  1.00  0.00    -0.460 OA
BRANCH  31  32
ATOM     32  C   UNL A   1      33.996  34.202  28.747  1.00  0.00     0.338 C 
ATOM     33  O   UNL A   1      32.829  34.543  28.883  1.00  0.00    -0.246 OA
BRANCH  32  34
ATOM     34  C   UNL A   1      34.894  33.902  29.862  1.00  0.00     0.060 A 
ATOM     35  C   UNL A   1      36.192  34.409  29.769  1.00  0.00     0.016 A 
ATOM     36  C   UNL A   1      34.480  33.138  30.961  1.00  0.00     0.016 A 
ATOM     37  C   UNL A   1      37.129  34.036  30.710  1.00  0.00     0.010 A 
ATOM     38  C   UNL A   1      35.417  32.778  31.918  1.00  0.00     0.010 A 
ATOM     39  C   UNL A   1      36.755  33.160  31.736  1.00  0.00    -0.014 A 
BRANCH  39  40
ATOM     40  C   UNL A   1      37.823  32.439  32.443  1.00  0.00     0.031 A 
ATOM     41  C   UNL A   1      38.490  31.300  31.727  1.00  0.00     0.074 A 
ATOM     42  C   UNL A   1      38.236  32.877  33.639  1.00  0.00     0.049 A 
ATOM     43  N   UNL A   1      39.488  30.551  32.106  1.00  0.00    -0.248 NA
ATOM     44  C   UNL A   1      37.947  30.954  30.402  1.00  0.00     0.031 C 
ATOM     45  C   UNL A   1      37.669  34.018  34.356  1.00  0.00     0.029 A 
ATOM     46  N   UNL A   1      39.245  32.432  34.443  1.00  0.00    -0.354 N 
ATOM     47  C   UNL A   1      39.691  29.646  31.069  1.00  0.00     0.074 A 
ATOM     48  C   UNL A   1      38.668  29.895  30.079  1.00  0.00     0.031 C 
ATOM     49  C   UNL A   1      38.362  34.201  35.491  1.00  0.00     0.029 A 
ATOM     50  C   UNL A   1      39.386  33.166  35.593  1.00  0.00     0.049 A 
ATOM     51  H   UNL A   1      39.814  31.661  34.219  1.00  0.00     0.167 HD
ATOM     52  C   UNL A   1      40.661  28.707  30.953  1.00  0.00     0.034 A 
ATOM     53  C   UNL A   1      40.250  33.002  36.609  1.00  0.00     0.034 A 
ATOM     54  C   UNL A   1      41.648  28.482  31.979  1.00  0.00     0.049 A 
ATOM     55  C   UNL A   1      41.262  31.891  36.505  1.00  0.00     0.074 A 
ATOM     56  C   UNL A   1      42.675  27.557  32.007  1.00  0.00     0.029 A 
ATOM     57  N   UNL A   1      41.719  29.192  33.175  1.00  0.00    -0.354 N 
ATOM     58  N   UNL A   1      41.446  31.028  35.530  1.00  0.00    -0.248 NA
ATOM     59  C   UNL A   1      42.189  31.743  37.628  1.00  0.00     0.031 C 
ATOM     60  C   UNL A   1      43.308  27.651  33.252  1.00  0.00     0.029 A 
ATOM     61  C   UNL A   1      42.746  28.702  33.962  1.00  0.00     0.049 A 
ATOM     62  H   UNL A   1      41.122  29.935  33.425  1.00  0.00     0.167 HD
ATOM     63  C   UNL A   1      42.541  30.255  35.908  1.00  0.00     0.074 A 
ATOM     64  C   UNL A   1      42.974  30.768  37.195  1.00  0.00     0.031 C 
ATOM     65  C   UNL A   1      43.142  29.227  35.253  1.00  0.00     0.034 A 
BRANCH  52  66
ATOM     66  C   UNL A   1      40.628  27.833  29.718  1.00  0.00     0.023 A 
ATOM     67  C   UNL A   1      41.530  28.017  28.651  1.00  0.00     0.031 A 
ATOM     68  C   UNL A   1      39.620  26.868  29.557  1.00  0.00     0.131 A 
ATOM     69  C   UNL A   1      41.335  27.334  27.440  1.00  0.00     0.055 A 
ATOM     70  C   UNL A   1      39.495  26.115  28.387  1.00  0.00     0.041 A 
ATOM     71  F   UNL A   1      38.708  26.664  30.522  1.00  0.00    -0.206 F 
ATOM     72  C   UNL A   1      40.342  26.362  27.310  1.00  0.00     0.022 A 
BRANCH  69  73
ATOM     73  S   UNL A   1      42.259  27.885  25.977  1.00  0.00     0.124 S 
ATOM     74  O   UNL A   1      43.568  28.186  26.552  1.00  0.00    -0.237 OA
ATOM     75  O   UNL A   1      42.196  26.719  25.105  1.00  0.00    -0.237 OA
ATOM     76  O   UNL A   1      41.507  29.052  25.518  1.00  0.00    -0.744 OA
ENDBRANCH  69  73
ENDBRANCH  52  66
BRANCH  53  77
ATOM     77  C   UNL A   1      40.193  33.910  37.786  1.00  0.00     0.023 A 
ATOM     78  C   UNL A   1      39.369  33.622  38.882  1.00  0.00     0.031 A 
ATOM     79  C   UNL A   1      40.973  35.080  37.834  1.00  0.00     0.131 A 
ATOM     80  C   UNL A   1      39.318  34.508  39.968  1.00  0.00     0.055 A 
ATOM     81  C   UNL A   1      40.956  35.933  38.939  1.00  0.00     0.041 A 
ATOM     82  F   UNL A   1      41.786  35.398  36.813  1.00  0.00    -0.206 F 
ATOM     83  C   UNL A   1      40.116  35.653  40.010  1.00  0.00     0.022 A 
BRANCH  80  84
ATOM     84  S   UNL A   1      38.137  34.174  41.303  1.00  0.00     0.124 S 
ATOM     85  O   UNL A   1      38.964  33.436  42.251  1.00  0.00    -0.237 OA
ATOM     86  O   UNL A   1      37.746  35.522  41.703  1.00  0.00    -0.237 OA
ATOM     87  O   UNL A   1      37.092  33.394  40.645  1.00  0.00    -0.744 OA
ENDBRANCH  80  84
ENDBRANCH  53  77
BRANCH  65  88
ATOM     88  C   UNL A   1      44.367  28.633  35.905  1.00  0.00     0.023 A 
ATOM     89  C   UNL A   1      44.277  27.596  36.849  1.00  0.00     0.031 A 
ATOM     90  C   UNL A   1      45.643  29.133  35.592  1.00  0.00     0.131 A 
ATOM     91  C   UNL A   1      45.433  27.149  37.504  1.00  0.00     0.055 A 
ATOM     92  C   UNL A   1      46.798  28.627  36.186  1.00  0.00     0.041 A 
ATOM     93  F   UNL A   1      45.788  30.128  34.700  1.00  0.00    -0.206 F 
ATOM     94  C   UNL A   1      46.696  27.642  37.163  1.00  0.00     0.022 A 
BRANCH  91  95
ATOM     95  S   UNL A   1      45.250  26.013  38.905  1.00  0.00     0.124 S 
ATOM     96  O   UNL A   1      44.915  24.760  38.236  1.00  0.00    -0.237 OA
ATOM     97  O   UNL A   1      46.569  26.070  39.527  1.00  0.00    -0.237 OA
ATOM     98  O   UNL A   1      44.168  26.606  39.688  1.00  0.00    -0.744 OA
ENDBRANCH  91  95
ENDBRANCH  65  88
ENDBRANCH  39  40
ENDBRANCH  32  34
ENDBRANCH  31  32
ENDBRANCH  30  31
ENDBRANCH  29  30
ENDBRANCH  28  29
ENDBRANCH   1  28
TORSDOF 21
ENDMDL
MODEL 3
REMARK VINA RESULT:     -11.3      2.226      8.397
REMARK SMILES O=C(CC1(CC(=O)OCCOCCOC(=O)c2ccc(-c3c4nc(c(-c5cc(S(=O)(=O)[O-])ccc5F)c5ccc([nH]5)c(-c5cc(S(=O)(=O)[O-])ccc5F)c5nc(c(-c6cc(S(=O)(=O)[O-])ccc6F)c6ccc3[nH]6)C=C5)C=C4)cc2)CCCCC1)Nc1ccc2ccccc2n1
REMARK SMILES IDX 10 1 9 2 8 3 6 4 7 5 5 6 4 7 80 8 84 9 81 10 83 11 82 12
REMARK SMILES IDX 3 13 2 14 1 15 85 16 86 18 87 19 95 20 88 21 94 22 89 23
REMARK SMILES IDX 93 24 90 25 92 26 91 27 11 28 12 29 13 30 14 31 15 32 16 33
REMARK SMILES IDX 17 34 18 35 79 36 19 37 78 38 20 39 21 40 22 41 72 42 23 43
REMARK SMILES IDX 77 44 71 45 73 46 24 47 76 48 70 49 69 50 25 52 57 53 37 54
REMARK SMILES IDX 56 55 38 56 41 57 55 58 74 59 39 60 40 61 54 63 75 64 42 65
REMARK SMILES IDX 26 66 27 67 35 68 28 69 34 70 36 71 33 72 29 73 30 74 31 75
REMARK SMILES IDX 32 76 58 77 59 78 67 79 60 80 66 81 68 82 65 83 61 84 62 85
REMARK SMILES IDX 63 86 64 87 43 88 44 89 52 90 45 91 51 92 53 93 50 94 46 95
REMARK SMILES IDX 47 96 48 97 49 98
REMARK H PARENT 85 17 73 51 41 62
REMARK Flexibility Score: inf
ROOT
ATOM      1  C   UNL A   1      37.769  21.593  25.391  1.00  0.00     0.202 C 
ENDROOT
BRANCH   1   2
ATOM      2  C   UNL A   1      37.560  23.107  25.551  1.00  0.00     0.261 C 
BRANCH   2   3
ATOM      3  O   UNL A   1      36.294  23.552  25.015  1.00  0.00    -0.463 OA
BRANCH   3   4
ATOM      4  C   UNL A   1      36.011  23.187  23.744  1.00  0.00     0.306 C 
ATOM      5  O   UNL A   1      36.682  23.466  22.758  1.00  0.00    -0.252 OA
BRANCH   4   6
ATOM      6  C   UNL A   1      34.746  22.372  23.615  1.00  0.00     0.130 C 
BRANCH   6   7
ATOM      7  C   UNL A   1      33.397  23.108  23.465  1.00  0.00    -0.010 C 
ATOM      8  C   UNL A   1      33.059  23.817  24.827  1.00  0.00     0.008 C 
ATOM      9  C   UNL A   1      32.194  22.119  23.255  1.00  0.00     0.008 C 
ATOM     10  C   UNL A   1      32.825  22.870  26.009  1.00  0.00     0.001 C 
ATOM     11  C   UNL A   1      32.012  21.106  24.387  1.00  0.00     0.001 C 
ATOM     12  C   UNL A   1      31.777  21.801  25.718  1.00  0.00     0.000 C 
BRANCH   7  13
ATOM     13  C   UNL A   1      33.369  24.221  22.351  1.00  0.00     0.108 C 
BRANCH  13  14
ATOM     14  C   UNL A   1      32.784  25.671  22.326  1.00  0.00     0.226 C 
ATOM     15  O   UNL A   1      33.568  26.574  22.649  1.00  0.00    -0.275 OA
ATOM     16  N   UNL A   1      31.426  25.894  22.198  1.00  0.00    -0.311 N 
ATOM     17  H   UNL A   1      30.940  25.399  21.499  1.00  0.00     0.171 HD
BRANCH  16  18
ATOM     18  C   UNL A   1      30.682  26.801  23.020  1.00  0.00     0.133 A 
ATOM     19  C   UNL A   1      30.489  28.105  22.615  1.00  0.00     0.048 A 
ATOM     20  N   UNL A   1      30.688  26.474  24.335  1.00  0.00    -0.231 NA
ATOM     21  C   UNL A   1      30.899  29.097  23.492  1.00  0.00     0.014 A 
ATOM     22  C   UNL A   1      31.001  27.448  25.225  1.00  0.00     0.073 A 
ATOM     23  C   UNL A   1      31.268  28.761  24.796  1.00  0.00     0.000 A 
ATOM     24  C   UNL A   1      31.201  27.170  26.577  1.00  0.00     0.029 A 
ATOM     25  C   UNL A   1      31.922  29.677  25.637  1.00  0.00     0.010 A 
ATOM     26  C   UNL A   1      31.796  28.099  27.441  1.00  0.00     0.002 A 
ATOM     27  C   UNL A   1      32.213  29.332  26.952  1.00  0.00     0.001 A 
ENDBRANCH  16  18
ENDBRANCH  13  14
ENDBRANCH   7  13
ENDBRANCH   6   7
ENDBRANCH   4   6
ENDBRANCH   3   4
ENDBRANCH   2   3
ENDBRANCH   1   2
BRANCH   1  28
ATOM     28  O   UNL A   1      39.042  21.090  25.804  1.00  0.00    -0.374 OA
BRANCH  28  29
ATOM     29  C   UNL A   1      39.268  19.718  25.523  1.00  0.00     0.202 C 
BRANCH  29  30
ATOM     30  C   UNL A   1      40.485  19.073  26.174  1.00  0.00     0.261 C 
BRANCH  30  31
ATOM     31  O   UNL A   1      41.607  19.306  25.337  1.00  0.00    -0.460 OA
BRANCH  31  32
ATOM     32  C   UNL A   1      42.704  19.621  26.056  1.00  0.00     0.338 C 
ATOM     33  O   UNL A   1      43.708  18.942  26.222  1.00  0.00    -0.246 OA
BRANCH  32  34
ATOM     34  C   UNL A   1      42.594  21.026  26.448  1.00  0.00     0.060 A 
ATOM     35  C   UNL A   1      42.361  21.941  25.420  1.00  0.00     0.016 A 
ATOM     36  C   UNL A   1      42.724  21.435  27.782  1.00  0.00     0.016 A 
ATOM     37  C   UNL A   1      42.397  23.291  25.700  1.00  0.00     0.010 A 
ATOM     38  C   UNL A   1      42.742  22.791  28.068  1.00  0.00     0.010 A 
ATOM     39  C   UNL A   1      42.665  23.709  27.010  1.00  0.00    -0.014 A 
BRANCH  39  40
ATOM     40  C   UNL A   1      43.131  25.090  27.204  1.00  0.00     0.031 A 
ATOM     41  C   UNL A   1      42.185  26.063  27.845  1.00  0.00     0.074 A 
ATOM     42  C   UNL A   1      44.398  25.407  26.909  1.00  0.00     0.049 A 
ATOM     43  N   UNL A   1      42.374  27.311  28.176  1.00  0.00    -0.248 NA
ATOM     44  C   UNL A   1      40.833  25.560  28.144  1.00  0.00     0.031 C 
ATOM     45  C   UNL A   1      45.384  24.486  26.343  1.00  0.00     0.029 A 
ATOM     46  N   UNL A   1      45.076  26.580  27.070  1.00  0.00    -0.354 N 
ATOM     47  C   UNL A   1      41.168  27.741  28.719  1.00  0.00     0.074 A 
ATOM     48  C   UNL A   1      40.235  26.643  28.609  1.00  0.00     0.031 C 
ATOM     49  C   UNL A   1      46.557  25.127  26.229  1.00  0.00     0.029 A 
ATOM     50  C   UNL A   1      46.387  26.508  26.674  1.00  0.00     0.049 A 
ATOM     51  H   UNL A   1      44.665  27.396  27.435  1.00  0.00     0.167 HD
ATOM     52  C   UNL A   1      40.880  28.941  29.279  1.00  0.00     0.034 A 
ATOM     53  C   UNL A   1      47.332  27.463  26.671  1.00  0.00     0.034 A 
ATOM     54  C   UNL A   1      41.840  30.013  29.348  1.00  0.00     0.049 A 
ATOM     55  C   UNL A   1      46.966  28.821  27.210  1.00  0.00     0.074 A 
ATOM     56  C   UNL A   1      41.685  31.285  29.867  1.00  0.00     0.029 A 
ATOM     57  N   UNL A   1      43.144  29.938  28.864  1.00  0.00    -0.354 N 
ATOM     58  N   UNL A   1      45.822  29.231  27.713  1.00  0.00    -0.248 NA
ATOM     59  C   UNL A   1      48.019  29.838  27.195  1.00  0.00     0.031 C 
ATOM     60  C   UNL A   1      42.862  32.001  29.619  1.00  0.00     0.029 A 
ATOM     61  C   UNL A   1      43.791  31.149  29.038  1.00  0.00     0.049 A 
ATOM     62  H   UNL A   1      43.548  29.137  28.455  1.00  0.00     0.167 HD
ATOM     63  C   UNL A   1      46.031  30.548  28.112  1.00  0.00     0.074 A 
ATOM     64  C   UNL A   1      47.416  30.852  27.795  1.00  0.00     0.031 C 
ATOM     65  C   UNL A   1      45.170  31.424  28.695  1.00  0.00     0.034 A 
BRANCH  52  66
ATOM     66  C   UNL A   1      39.465  29.148  29.773  1.00  0.00     0.023 A 
ATOM     67  C   UNL A   1      38.526  29.907  29.047  1.00  0.00     0.031 A 
ATOM     68  C   UNL A   1      39.075  28.665  31.034  1.00  0.00     0.131 A 
ATOM     69  C   UNL A   1      37.298  30.254  29.634  1.00  0.00     0.055 A 
ATOM     70  C   UNL A   1      37.810  28.926  31.568  1.00  0.00     0.041 A 
ATOM     71  F   UNL A   1      39.931  27.961  31.792  1.00  0.00    -0.206 F 
ATOM     72  C   UNL A   1      36.921  29.744  30.877  1.00  0.00     0.022 A 
BRANCH  69  73
ATOM     73  S   UNL A   1      36.297  31.546  28.844  1.00  0.00     0.124 S 
ATOM     74  O   UNL A   1      35.169  31.650  29.767  1.00  0.00    -0.237 OA
ATOM     75  O   UNL A   1      37.210  32.683  28.819  1.00  0.00    -0.237 OA
ATOM     76  O   UNL A   1      35.970  30.977  27.538  1.00  0.00    -0.744 OA
ENDBRANCH  69  73
ENDBRANCH  52  66
BRANCH  53  77
ATOM     77  C   UNL A   1      48.693  27.161  26.154  1.00  0.00     0.023 A 
ATOM     78  C   UNL A   1      49.047  27.462  24.831  1.00  0.00     0.031 A 
ATOM     79  C   UNL A   1      49.666  26.571  26.981  1.00  0.00     0.131 A 
ATOM     80  C   UNL A   1      50.331  27.144  24.363  1.00  0.00     0.055 A 
ATOM     81  C   UNL A   1      50.958  26.303  26.526  1.00  0.00     0.041 A 
ATOM     82  F   UNL A   1      49.381  26.271  28.259  1.00  0.00    -0.206 F 
ATOM     83  C   UNL A   1      51.292  26.580  25.205  1.00  0.00     0.022 A 
BRANCH  80  84
ATOM     84  S   UNL A   1      50.707  27.419  22.611  1.00  0.00     0.124 S 
ATOM     85  O   UNL A   1      50.616  28.871  22.513  1.00  0.00    -0.237 OA
ATOM     86  O   UNL A   1      52.045  26.849  22.497  1.00  0.00    -0.237 OA
ATOM     87  O   UNL A   1      49.656  26.678  21.918  1.00  0.00    -0.744 OA
ENDBRANCH  80  84
ENDBRANCH  53  77
BRANCH  65  88
ATOM     88  C   UNL A   1      45.731  32.774  29.072  1.00  0.00     0.023 A 
ATOM     89  C   UNL A   1      45.680  33.871  28.197  1.00  0.00     0.031 A 
ATOM     90  C   UNL A   1      46.347  32.954  30.324  1.00  0.00     0.131 A 
ATOM     91  C   UNL A   1      46.306  35.075  28.551  1.00  0.00     0.055 A 
ATOM     92  C   UNL A   1      46.895  34.179  30.703  1.00  0.00     0.041 A 
ATOM     93  F   UNL A   1      46.429  31.938  31.199  1.00  0.00    -0.206 F 
ATOM     94  C   UNL A   1      46.894  35.243  29.807  1.00  0.00     0.022 A 
BRANCH  91  95
ATOM     95  S   UNL A   1      46.461  36.372  27.294  1.00  0.00     0.124 S 
ATOM     96  O   UNL A   1      45.118  36.942  27.281  1.00  0.00    -0.237 OA
ATOM     97  O   UNL A   1      47.509  37.222  27.852  1.00  0.00    -0.237 OA
ATOM     98  O   UNL A   1      46.835  35.638  26.087  1.00  0.00    -0.744 OA
ENDBRANCH  91  95
ENDBRANCH  65  88
ENDBRANCH  39  40
ENDBRANCH  32  34
ENDBRANCH  31  32
ENDBRANCH  30  31
ENDBRANCH  29  30
ENDBRANCH  28  29
ENDBRANCH   1  28
TORSDOF 21
ENDMDL
