MODEL 1
REMARK VINA RESULT:     -11.3      0.000      0.000
REMARK SMILES Cc1[nH]cnc1C[NH+]1CCC(Oc2cccc(F)c2)(C(=O)OCCOCCOC(=O)c2ccc(-c3c4nc(c(-c5cc(S(=O)(=O)[O-])ccc5F)c5ccc([nH]5)c(-c5cc(S(=O)(=O)[O-])ccc5F)c5nc(c(-c6cc(S(=O)(=O)[O-])ccc6F)c6ccc3[nH]6)C=C5)C=C4)cc2)CC1
REMARK SMILES IDX 26 1 25 2 24 3 23 4 22 5 20 6 21 7 11 8 8 9 9 10 95 11 10 13
REMARK SMILES IDX 94 14 7 15 6 16 1 17 2 18 3 19 4 20 5 22 12 23 13 24 14 25
REMARK SMILES IDX 19 26 15 27 17 28 16 29 18 30 27 31 28 32 29 33 30 34 31 35
REMARK SMILES IDX 32 36 93 37 33 38 92 39 34 40 35 41 36 42 86 43 37 44 91 45
REMARK SMILES IDX 85 46 87 47 38 48 90 49 84 50 83 51 39 53 71 54 51 55 70 56
REMARK SMILES IDX 52 57 55 58 69 59 88 60 53 61 54 62 68 64 89 65 56 66 40 67
REMARK SMILES IDX 41 68 49 69 42 70 48 71 50 72 47 73 43 74 44 75 45 76 46 77
REMARK SMILES IDX 72 78 73 79 81 80 74 81 80 82 82 83 79 84 75 85 76 86 77 87
REMARK SMILES IDX 78 88 57 89 58 90 66 91 59 92 65 93 67 94 64 95 60 96 61 97
REMARK SMILES IDX 62 98 63 99
REMARK H PARENT 8 12 3 21 87 52 55 63
REMARK Flexibility Score: inf
ROOT
ATOM      1  C   UNL A   1      31.523  28.279  25.368  1.00  0.00     0.202 C 
ENDROOT
BRANCH   1   2
ATOM      2  O   UNL A   1      32.653  27.464  25.097  1.00  0.00    -0.374 OA
BRANCH   2   3
ATOM      3  C   UNL A   1      32.876  26.342  25.953  1.00  0.00     0.202 C 
BRANCH   3   4
ATOM      4  C   UNL A   1      31.743  25.322  26.105  1.00  0.00     0.261 C 
BRANCH   4   5
ATOM      5  O   UNL A   1      32.208  23.964  26.296  1.00  0.00    -0.460 OA
BRANCH   5   6
ATOM      6  C   UNL A   1      32.008  23.117  25.245  1.00  0.00     0.351 C 
ATOM      7  O   UNL A   1      31.025  23.184  24.509  1.00  0.00    -0.247 OA
BRANCH   6   8
ATOM      8  C   UNL A   1      33.073  22.002  25.107  1.00  0.00     0.216 C 
ATOM      9  N   UNL A   1      35.881  22.904  24.850  1.00  0.00    -0.330 N 
ATOM     10  C   UNL A   1      35.442  22.484  26.172  1.00  0.00     0.267 C 
ATOM     11  C   UNL A   1      34.834  23.390  23.968  1.00  0.00     0.267 C 
ATOM     12  H   UNL A   1      36.166  22.024  24.421  1.00  0.00     0.348 HD
ATOM     13  C   UNL A   1      34.048  21.839  26.291  1.00  0.00     0.122 C 
ATOM     14  C   UNL A   1      33.825  22.262  23.787  1.00  0.00     0.122 C 
BRANCH   9  15
ATOM     15  C   UNL A   1      37.100  23.737  24.844  1.00  0.00     0.321 C 
BRANCH  15  16
ATOM     16  C   UNL A   1      38.109  23.417  25.916  1.00  0.00     0.115 A 
ATOM     17  C   UNL A   1      38.780  20.903  25.518  1.00  0.00     0.066 C 
ATOM     18  C   UNL A   1      38.806  22.240  26.151  1.00  0.00     0.040 A 
ATOM     19  N   UNL A   1      39.633  22.517  27.213  1.00  0.00    -0.348 N 
ATOM     20  C   UNL A   1      39.427  23.817  27.572  1.00  0.00     0.197 A 
ATOM     21  H   UNL A   1      40.262  21.891  27.637  1.00  0.00     0.167 HD
ATOM     22  N   UNL A   1      38.516  24.385  26.819  1.00  0.00    -0.236 NA
ENDBRANCH  15  16
ENDBRANCH   9  15
BRANCH   8  23
ATOM     23  O   UNL A   1      32.140  20.872  25.099  1.00  0.00    -0.475 OA
BRANCH  23  24
ATOM     24  C   UNL A   1      32.546  19.733  24.470  1.00  0.00     0.123 A 
ATOM     25  C   UNL A   1      33.230  18.747  25.181  1.00  0.00     0.047 A 
ATOM     26  C   UNL A   1      32.154  19.507  23.154  1.00  0.00     0.085 A 
ATOM     27  C   UNL A   1      33.595  17.557  24.551  1.00  0.00     0.007 A 
ATOM     28  C   UNL A   1      32.518  18.317  22.537  1.00  0.00     0.126 A 
ATOM     29  C   UNL A   1      33.244  17.345  23.220  1.00  0.00     0.039 A 
ATOM     30  F   UNL A   1      32.161  18.094  21.265  1.00  0.00    -0.207 F 
ENDBRANCH  23  24
ENDBRANCH   8  23
ENDBRANCH   6   8
ENDBRANCH   5   6
ENDBRANCH   4   5
ENDBRANCH   3   4
ENDBRANCH   2   3
ENDBRANCH   1   2
BRANCH   1  31
ATOM     31  C   UNL A   1      31.791  29.725  25.789  1.00  0.00     0.261 C 
BRANCH  31  32
ATOM     32  O   UNL A   1      33.171  30.078  25.894  1.00  0.00    -0.460 OA
BRANCH  32  33
ATOM     33  C   UNL A   1      33.434  30.974  26.877  1.00  0.00     0.338 C 
ATOM     34  O   UNL A   1      32.691  31.831  27.319  1.00  0.00    -0.246 OA
BRANCH  33  35
ATOM     35  C   UNL A   1      34.752  30.683  27.458  1.00  0.00     0.060 A 
ATOM     36  C   UNL A   1      35.076  29.342  27.689  1.00  0.00     0.016 A 
ATOM     37  C   UNL A   1      35.602  31.712  27.867  1.00  0.00     0.016 A 
ATOM     38  C   UNL A   1      36.239  29.028  28.385  1.00  0.00     0.010 A 
ATOM     39  C   UNL A   1      36.770  31.392  28.568  1.00  0.00     0.010 A 
ATOM     40  C   UNL A   1      37.070  30.051  28.865  1.00  0.00    -0.014 A 
BRANCH  40  41
ATOM     41  C   UNL A   1      38.150  29.699  29.817  1.00  0.00     0.031 A 
ATOM     42  C   UNL A   1      39.304  28.866  29.327  1.00  0.00     0.074 A 
ATOM     43  C   UNL A   1      38.149  30.200  31.065  1.00  0.00     0.049 A 
ATOM     44  N   UNL A   1      40.393  28.510  29.956  1.00  0.00    -0.248 NA
ATOM     45  C   UNL A   1      39.221  28.376  27.941  1.00  0.00     0.031 C 
ATOM     46  C   UNL A   1      37.108  31.061  31.624  1.00  0.00     0.029 A 
ATOM     47  N   UNL A   1      39.067  30.080  32.077  1.00  0.00    -0.354 N 
ATOM     48  C   UNL A   1      41.133  27.771  29.039  1.00  0.00     0.074 A 
ATOM     49  C   UNL A   1      40.347  27.689  27.828  1.00  0.00     0.031 C 
ATOM     50  C   UNL A   1      37.459  31.417  32.872  1.00  0.00     0.029 A 
ATOM     51  C   UNL A   1      38.734  30.786  33.209  1.00  0.00     0.049 A 
ATOM     52  H   UNL A   1      39.885  29.540  32.000  1.00  0.00     0.167 HD
ATOM     53  C   UNL A   1      42.367  27.231  29.188  1.00  0.00     0.034 A 
ATOM     54  C   UNL A   1      39.384  30.906  34.384  1.00  0.00     0.034 A 
ATOM     55  C   UNL A   1      43.135  27.315  30.401  1.00  0.00     0.049 A 
ATOM     56  C   UNL A   1      40.703  30.201  34.566  1.00  0.00     0.074 A 
ATOM     57  C   UNL A   1      44.396  26.805  30.660  1.00  0.00     0.029 A 
ATOM     58  N   UNL A   1      42.711  27.941  31.566  1.00  0.00    -0.354 N 
ATOM     59  N   UNL A   1      41.383  29.491  33.697  1.00  0.00    -0.248 NA
ATOM     60  C   UNL A   1      41.340  30.307  35.887  1.00  0.00     0.031 C 
ATOM     61  C   UNL A   1      44.707  27.070  31.997  1.00  0.00     0.029 A 
ATOM     62  C   UNL A   1      43.667  27.798  32.556  1.00  0.00     0.049 A 
ATOM     63  H   UNL A   1      41.855  28.417  31.671  1.00  0.00     0.167 HD
ATOM     64  C   UNL A   1      42.532  29.074  34.360  1.00  0.00     0.074 A 
ATOM     65  C   UNL A   1      42.458  29.614  35.703  1.00  0.00     0.031 C 
ATOM     66  C   UNL A   1      43.560  28.321  33.897  1.00  0.00     0.034 A 
BRANCH  53  67
ATOM     67  C   UNL A   1      42.937  26.474  28.018  1.00  0.00     0.023 A 
ATOM     68  C   UNL A   1      42.722  25.095  27.859  1.00  0.00     0.031 A 
ATOM     69  C   UNL A   1      43.712  27.140  27.052  1.00  0.00     0.131 A 
ATOM     70  C   UNL A   1      43.317  24.415  26.785  1.00  0.00     0.055 A 
ATOM     71  C   UNL A   1      44.247  26.470  25.951  1.00  0.00     0.041 A 
ATOM     72  F   UNL A   1      43.966  28.453  27.168  1.00  0.00    -0.206 F 
ATOM     73  C   UNL A   1      44.058  25.098  25.818  1.00  0.00     0.022 A 
BRANCH  70  74
ATOM     74  S   UNL A   1      43.185  22.608  26.719  1.00  0.00     0.124 S 
ATOM     75  O   UNL A   1      44.577  22.219  26.505  1.00  0.00    -0.237 OA
ATOM     76  O   UNL A   1      42.623  22.281  28.024  1.00  0.00    -0.237 OA
ATOM     77  O   UNL A   1      42.298  22.371  25.583  1.00  0.00    -0.744 OA
ENDBRANCH  70  74
ENDBRANCH  53  67
BRANCH  54  78
ATOM     78  C   UNL A   1      38.781  31.708  35.484  1.00  0.00     0.023 A 
ATOM     79  C   UNL A   1      38.176  31.090  36.588  1.00  0.00     0.031 A 
ATOM     80  C   UNL A   1      38.823  33.113  35.448  1.00  0.00     0.131 A 
ATOM     81  C   UNL A   1      37.627  31.878  37.613  1.00  0.00     0.055 A 
ATOM     82  C   UNL A   1      38.303  33.892  36.484  1.00  0.00     0.041 A 
ATOM     83  F   UNL A   1      39.396  33.748  34.415  1.00  0.00    -0.206 F 
ATOM     84  C   UNL A   1      37.699  33.274  37.573  1.00  0.00     0.022 A 
BRANCH  81  85
ATOM     85  S   UNL A   1      36.807  31.055  39.006  1.00  0.00     0.124 S 
ATOM     86  O   UNL A   1      35.594  31.852  39.149  1.00  0.00    -0.237 OA
ATOM     87  O   UNL A   1      36.629  29.698  38.498  1.00  0.00    -0.237 OA
ATOM     88  O   UNL A   1      37.773  31.186  40.095  1.00  0.00    -0.744 OA
ENDBRANCH  81  85
ENDBRANCH  54  78
BRANCH  66  89
ATOM     89  C   UNL A   1      44.694  28.033  34.840  1.00  0.00     0.023 A 
ATOM     90  C   UNL A   1      44.706  26.873  35.632  1.00  0.00     0.031 A 
ATOM     91  C   UNL A   1      45.812  28.885  34.884  1.00  0.00     0.131 A 
ATOM     92  C   UNL A   1      45.813  26.599  36.447  1.00  0.00     0.055 A 
ATOM     93  C   UNL A   1      46.926  28.589  35.668  1.00  0.00     0.041 A 
ATOM     94  F   UNL A   1      45.848  30.000  34.138  1.00  0.00    -0.206 F 
ATOM     95  C   UNL A   1      46.931  27.441  36.456  1.00  0.00     0.022 A 
BRANCH  92  96
ATOM     96  S   UNL A   1      45.783  25.124  37.499  1.00  0.00     0.124 S 
ATOM     97  O   UNL A   1      46.170  24.077  36.559  1.00  0.00    -0.237 OA
ATOM     98  O   UNL A   1      46.764  25.446  38.531  1.00  0.00    -0.237 OA
ATOM     99  O   UNL A   1      44.399  25.061  37.963  1.00  0.00    -0.744 OA
ENDBRANCH  92  96
ENDBRANCH  66  89
ENDBRANCH  40  41
ENDBRANCH  33  35
ENDBRANCH  32  33
ENDBRANCH  31  32
ENDBRANCH   1  31
TORSDOF 21
ENDMDL
MODEL 2
REMARK VINA RESULT:     -11.2      4.897     10.289
REMARK SMILES Cc1[nH]cnc1C[NH+]1CCC(Oc2cccc(F)c2)(C(=O)OCCOCCOC(=O)c2ccc(-c3c4nc(c(-c5cc(S(=O)(=O)[O-])ccc5F)c5ccc([nH]5)c(-c5cc(S(=O)(=O)[O-])ccc5F)c5nc(c(-c6cc(S(=O)(=O)[O-])ccc6F)c6ccc3[nH]6)C=C5)C=C4)cc2)CC1
REMARK SMILES IDX 26 1 25 2 24 3 23 4 22 5 20 6 21 7 11 8 8 9 9 10 95 11 10 13
REMARK SMILES IDX 94 14 7 15 6 16 1 17 2 18 3 19 4 20 5 22 12 23 13 24 14 25
REMARK SMILES IDX 19 26 15 27 17 28 16 29 18 30 27 31 28 32 29 33 30 34 31 35
REMARK SMILES IDX 32 36 93 37 33 38 92 39 34 40 35 41 36 42 86 43 37 44 91 45
REMARK SMILES IDX 85 46 87 47 38 48 90 49 84 50 83 51 39 53 71 54 51 55 70 56
REMARK SMILES IDX 52 57 55 58 69 59 88 60 53 61 54 62 68 64 89 65 56 66 40 67
REMARK SMILES IDX 41 68 49 69 42 70 48 71 50 72 47 73 43 74 44 75 45 76 46 77
REMARK SMILES IDX 72 78 73 79 81 80 74 81 80 82 82 83 79 84 75 85 76 86 77 87
REMARK SMILES IDX 78 88 57 89 58 90 66 91 59 92 65 93 67 94 64 95 60 96 61 97
REMARK SMILES IDX 62 98 63 99
REMARK H PARENT 8 12 3 21 87 52 55 63
REMARK Flexibility Score: inf
ROOT
ATOM      1  C   UNL A   1      35.292  22.896  24.280  1.00  0.00     0.202 C 
ENDROOT
BRANCH   1   2
ATOM      2  O   UNL A   1      35.000  23.436  23.002  1.00  0.00    -0.374 OA
BRANCH   2   3
ATOM      3  C   UNL A   1      33.812  22.981  22.350  1.00  0.00     0.202 C 
BRANCH   3   4
ATOM      4  C   UNL A   1      32.653  23.972  22.201  1.00  0.00     0.261 C 
BRANCH   4   5
ATOM      5  O   UNL A   1      32.771  25.133  23.058  1.00  0.00    -0.460 OA
BRANCH   5   6
ATOM      6  C   UNL A   1      31.594  25.687  23.469  1.00  0.00     0.351 C 
ATOM      7  O   UNL A   1      30.584  25.023  23.697  1.00  0.00    -0.247 OA
BRANCH   6   8
ATOM      8  C   UNL A   1      31.603  27.234  23.540  1.00  0.00     0.216 C 
ATOM      9  N   UNL A   1      33.276  28.435  25.666  1.00  0.00    -0.330 N 
ATOM     10  C   UNL A   1      33.849  28.375  24.331  1.00  0.00     0.267 C 
ATOM     11  C   UNL A   1      32.263  27.435  25.957  1.00  0.00     0.267 C 
ATOM     12  H   UNL A   1      32.749  29.308  25.642  1.00  0.00     0.348 HD
ATOM     13  C   UNL A   1      32.933  27.926  23.177  1.00  0.00     0.122 C 
ATOM     14  C   UNL A   1      31.130  27.621  24.955  1.00  0.00     0.122 C 
BRANCH   9  15
ATOM     15  C   UNL A   1      34.260  28.620  26.750  1.00  0.00     0.321 C 
BRANCH  15  16
ATOM     16  C   UNL A   1      34.410  30.031  27.256  1.00  0.00     0.115 A 
ATOM     17  C   UNL A   1      36.982  30.337  27.725  1.00  0.00     0.066 C 
ATOM     18  C   UNL A   1      35.556  30.720  27.627  1.00  0.00     0.040 A 
ATOM     19  N   UNL A   1      35.128  31.985  27.951  1.00  0.00    -0.348 N 
ATOM     20  C   UNL A   1      33.777  32.027  27.763  1.00  0.00     0.197 A 
ATOM     21  H   UNL A   1      35.694  32.727  28.263  1.00  0.00     0.167 HD
ATOM     22  N   UNL A   1      33.313  30.871  27.352  1.00  0.00    -0.236 NA
ENDBRANCH  15  16
ENDBRANCH   9  15
BRANCH   8  23
ATOM     23  O   UNL A   1      30.637  27.461  22.459  1.00  0.00    -0.475 OA
BRANCH  23  24
ATOM     24  C   UNL A   1      29.610  28.319  22.713  1.00  0.00     0.123 A 
ATOM     25  C   UNL A   1      29.749  29.678  22.430  1.00  0.00     0.047 A 
ATOM     26  C   UNL A   1      28.383  27.809  23.126  1.00  0.00     0.085 A 
ATOM     27  C   UNL A   1      28.677  30.548  22.636  1.00  0.00     0.007 A 
ATOM     28  C   UNL A   1      27.321  28.682  23.323  1.00  0.00     0.126 A 
ATOM     29  C   UNL A   1      27.460  30.048  23.093  1.00  0.00     0.039 A 
ATOM     30  F   UNL A   1      26.139  28.205  23.736  1.00  0.00    -0.207 F 
ENDBRANCH  23  24
ENDBRANCH   8  23
ENDBRANCH   6   8
ENDBRANCH   5   6
ENDBRANCH   4   5
ENDBRANCH   3   4
ENDBRANCH   2   3
ENDBRANCH   1   2
BRANCH   1  31
ATOM     31  C   UNL A   1      36.591  22.100  24.421  1.00  0.00     0.261 C 
BRANCH  31  32
ATOM     32  O   UNL A   1      37.029  21.891  25.765  1.00  0.00    -0.460 OA
BRANCH  32  33
ATOM     33  C   UNL A   1      38.352  21.616  25.873  1.00  0.00     0.338 C 
ATOM     34  O   UNL A   1      38.944  20.639  25.453  1.00  0.00    -0.246 OA
BRANCH  33  35
ATOM     35  C   UNL A   1      39.037  22.763  26.484  1.00  0.00     0.060 A 
ATOM     36  C   UNL A   1      38.398  24.005  26.426  1.00  0.00     0.016 A 
ATOM     37  C   UNL A   1      40.327  22.639  27.003  1.00  0.00     0.016 A 
ATOM     38  C   UNL A   1      39.076  25.147  26.842  1.00  0.00     0.010 A 
ATOM     39  C   UNL A   1      41.007  23.789  27.419  1.00  0.00     0.010 A 
ATOM     40  C   UNL A   1      40.398  25.051  27.301  1.00  0.00    -0.014 A 
BRANCH  40  41
ATOM     41  C   UNL A   1      41.176  26.298  27.488  1.00  0.00     0.031 A 
ATOM     42  C   UNL A   1      40.622  27.368  28.390  1.00  0.00     0.074 A 
ATOM     43  C   UNL A   1      42.398  26.428  26.943  1.00  0.00     0.049 A 
ATOM     44  N   UNL A   1      41.165  28.497  28.765  1.00  0.00    -0.248 NA
ATOM     45  C   UNL A   1      39.283  27.128  28.952  1.00  0.00     0.031 C 
ATOM     46  C   UNL A   1      43.052  25.430  26.097  1.00  0.00     0.029 A 
ATOM     47  N   UNL A   1      43.320  27.439  27.044  1.00  0.00    -0.354 N 
ATOM     48  C   UNL A   1      40.243  29.093  29.618  1.00  0.00     0.074 A 
ATOM     49  C   UNL A   1      39.088  28.224  29.667  1.00  0.00     0.031 C 
ATOM     50  C   UNL A   1      44.282  25.867  25.778  1.00  0.00     0.029 A 
ATOM     51  C   UNL A   1      44.492  27.186  26.372  1.00  0.00     0.049 A 
ATOM     52  H   UNL A   1      43.156  28.268  27.548  1.00  0.00     0.167 HD
ATOM     53  C   UNL A   1      40.360  30.250  30.315  1.00  0.00     0.034 A 
ATOM     54  C   UNL A   1      45.606  27.934  26.250  1.00  0.00     0.034 A 
ATOM     55  C   UNL A   1      41.513  31.108  30.251  1.00  0.00     0.049 A 
ATOM     56  C   UNL A   1      45.670  29.271  26.943  1.00  0.00     0.074 A 
ATOM     57  C   UNL A   1      41.738  32.300  30.917  1.00  0.00     0.029 A 
ATOM     58  N   UNL A   1      42.634  30.871  29.467  1.00  0.00    -0.354 N 
ATOM     59  N   UNL A   1      44.783  29.831  27.733  1.00  0.00    -0.248 NA
ATOM     60  C   UNL A   1      46.877  30.079  26.725  1.00  0.00     0.031 C 
ATOM     61  C   UNL A   1      42.965  32.814  30.488  1.00  0.00     0.029 A 
ATOM     62  C   UNL A   1      43.536  31.912  29.602  1.00  0.00     0.049 A 
ATOM     63  H   UNL A   1      42.768  30.078  28.897  1.00  0.00     0.167 HD
ATOM     64  C   UNL A   1      45.329  31.051  28.114  1.00  0.00     0.074 A 
ATOM     65  C   UNL A   1      46.625  31.148  27.472  1.00  0.00     0.031 C 
ATOM     66  C   UNL A   1      44.810  32.002  28.930  1.00  0.00     0.034 A 
BRANCH  53  67
ATOM     67  C   UNL A   1      39.194  30.662  31.174  1.00  0.00     0.023 A 
ATOM     68  C   UNL A   1      38.246  31.598  30.728  1.00  0.00     0.031 A 
ATOM     69  C   UNL A   1      39.033  30.116  32.460  1.00  0.00     0.131 A 
ATOM     70  C   UNL A   1      37.206  31.997  31.580  1.00  0.00     0.055 A 
ATOM     71  C   UNL A   1      37.959  30.470  33.278  1.00  0.00     0.041 A 
ATOM     72  F   UNL A   1      39.923  29.234  32.943  1.00  0.00    -0.206 F 
ATOM     73  C   UNL A   1      37.043  31.422  32.842  1.00  0.00     0.022 A 
BRANCH  70  74
ATOM     74  S   UNL A   1      36.118  33.349  31.051  1.00  0.00     0.124 S 
ATOM     75  O   UNL A   1      36.704  33.709  29.762  1.00  0.00    -0.237 OA
ATOM     76  O   UNL A   1      34.811  32.705  31.001  1.00  0.00    -0.237 OA
ATOM     77  O   UNL A   1      36.279  34.349  32.103  1.00  0.00    -0.744 OA
ENDBRANCH  70  74
ENDBRANCH  53  67
BRANCH  54  78
ATOM     78  C   UNL A   1      46.740  27.443  25.419  1.00  0.00     0.023 A 
ATOM     79  C   UNL A   1      46.881  27.831  24.079  1.00  0.00     0.031 A 
ATOM     80  C   UNL A   1      47.711  26.589  25.970  1.00  0.00     0.131 A 
ATOM     81  C   UNL A   1      47.969  27.357  23.328  1.00  0.00     0.055 A 
ATOM     82  C   UNL A   1      48.807  26.145  25.229  1.00  0.00     0.041 A 
ATOM     83  F   UNL A   1      47.620  26.195  27.250  1.00  0.00    -0.206 F 
ATOM     84  C   UNL A   1      48.939  26.528  23.898  1.00  0.00     0.022 A 
BRANCH  81  85
ATOM     85  S   UNL A   1      48.102  27.835  21.583  1.00  0.00     0.124 S 
ATOM     86  O   UNL A   1      49.181  28.816  21.625  1.00  0.00    -0.237 OA
ATOM     87  O   UNL A   1      48.416  26.563  20.941  1.00  0.00    -0.237 OA
ATOM     88  O   UNL A   1      46.779  28.374  21.276  1.00  0.00    -0.744 OA
ENDBRANCH  81  85
ENDBRANCH  54  78
BRANCH  66  89
ATOM     89  C   UNL A   1      45.636  33.231  29.184  1.00  0.00     0.023 A 
ATOM     90  C   UNL A   1      46.599  33.263  30.206  1.00  0.00     0.031 A 
ATOM     91  C   UNL A   1      45.517  34.350  28.341  1.00  0.00     0.131 A 
ATOM     92  C   UNL A   1      47.403  34.400  30.368  1.00  0.00     0.055 A 
ATOM     93  C   UNL A   1      46.345  35.464  28.483  1.00  0.00     0.041 A 
ATOM     94  F   UNL A   1      44.617  34.360  27.345  1.00  0.00    -0.206 F 
ATOM     95  C   UNL A   1      47.294  35.493  29.501  1.00  0.00     0.022 A 
BRANCH  92  96
ATOM     96  S   UNL A   1      48.602  34.439  31.726  1.00  0.00     0.124 S 
ATOM     97  O   UNL A   1      48.015  33.497  32.673  1.00  0.00    -0.237 OA
ATOM     98  O   UNL A   1      49.835  34.002  31.076  1.00  0.00    -0.237 OA
ATOM     99  O   UNL A   1      48.593  35.836  32.153  1.00  0.00    -0.744 OA
ENDBRANCH  92  96
ENDBRANCH  66  89
ENDBRANCH  40  41
ENDBRANCH  33  35
ENDBRANCH  32  33
ENDBRANCH  31  32
ENDBRANCH   1  31
TORSDOF 21
ENDMDL
MODEL 3
REMARK VINA RESULT:     -11.1      1.925      7.827
REMARK SMILES Cc1[nH]cnc1C[NH+]1CCC(Oc2cccc(F)c2)(C(=O)OCCOCCOC(=O)c2ccc(-c3c4nc(c(-c5cc(S(=O)(=O)[O-])ccc5F)c5ccc([nH]5)c(-c5cc(S(=O)(=O)[O-])ccc5F)c5nc(c(-c6cc(S(=O)(=O)[O-])ccc6F)c6ccc3[nH]6)C=C5)C=C4)cc2)CC1
REMARK SMILES IDX 26 1 25 2 24 3 23 4 22 5 20 6 21 7 11 8 8 9 9 10 95 11 10 13
REMARK SMILES IDX 94 14 7 15 6 16 1 17 2 18 3 19 4 20 5 22 12 23 13 24 14 25
REMARK SMILES IDX 19 26 15 27 17 28 16 29 18 30 27 31 28 32 29 33 30 34 31 35
REMARK SMILES IDX 32 36 93 37 33 38 92 39 34 40 35 41 36 42 86 43 37 44 91 45
REMARK SMILES IDX 85 46 87 47 38 48 90 49 84 50 83 51 39 53 71 54 51 55 70 56
REMARK SMILES IDX 52 57 55 58 69 59 88 60 53 61 54 62 68 64 89 65 56 66 40 67
REMARK SMILES IDX 41 68 49 69 42 70 48 71 50 72 47 73 43 74 44 75 45 76 46 77
REMARK SMILES IDX 72 78 73 79 81 80 74 81 80 82 82 83 79 84 75 85 76 86 77 87
REMARK SMILES IDX 78 88 57 89 58 90 66 91 59 92 65 93 67 94 64 95 60 96 61 97
REMARK SMILES IDX 62 98 63 99
REMARK H PARENT 8 12 3 21 87 52 55 63
REMARK Flexibility Score: inf
ROOT
ATOM      1  C   UNL A   1      33.479  29.011  25.919  1.00  0.00     0.202 C 
ENDROOT
BRANCH   1   2
ATOM      2  O   UNL A   1      32.595  27.967  25.543  1.00  0.00    -0.374 OA
BRANCH   2   3
ATOM      3  C   UNL A   1      31.489  27.698  26.407  1.00  0.00     0.202 C 
BRANCH   3   4
ATOM      4  C   UNL A   1      30.818  26.324  26.304  1.00  0.00     0.261 C 
BRANCH   4   5
ATOM      5  O   UNL A   1      31.581  25.260  26.921  1.00  0.00    -0.460 OA
BRANCH   5   6
ATOM      6  C   UNL A   1      31.259  23.994  26.526  1.00  0.00     0.351 C 
ATOM      7  O   UNL A   1      30.317  23.363  27.003  1.00  0.00    -0.247 OA
BRANCH   6   8
ATOM      8  C   UNL A   1      32.230  23.379  25.490  1.00  0.00     0.216 C 
ATOM      9  N   UNL A   1      32.319  24.694  22.839  1.00  0.00    -0.330 N 
ATOM     10  C   UNL A   1      33.365  25.047  23.786  1.00  0.00     0.267 C 
ATOM     11  C   UNL A   1      31.073  24.233  23.427  1.00  0.00     0.267 C 
ATOM     12  H   UNL A   1      32.696  23.858  22.393  1.00  0.00     0.348 HD
ATOM     13  C   UNL A   1      33.446  24.242  25.097  1.00  0.00     0.122 C 
ATOM     14  C   UNL A   1      31.387  22.994  24.258  1.00  0.00     0.122 C 
BRANCH   9  15
ATOM     15  C   UNL A   1      32.137  25.658  21.737  1.00  0.00     0.321 C 
BRANCH  15  16
ATOM     16  C   UNL A   1      31.803  27.067  22.157  1.00  0.00     0.115 A 
ATOM     17  C   UNL A   1      34.109  28.329  22.272  1.00  0.00     0.066 C 
ATOM     18  C   UNL A   1      32.642  28.156  22.344  1.00  0.00     0.040 A 
ATOM     19  N   UNL A   1      31.810  29.201  22.666  1.00  0.00    -0.348 N 
ATOM     20  C   UNL A   1      30.529  28.731  22.654  1.00  0.00     0.197 A 
ATOM     21  H   UNL A   1      32.088  30.123  22.867  1.00  0.00     0.167 HD
ATOM     22  N   UNL A   1      30.488  27.454  22.357  1.00  0.00    -0.236 NA
ENDBRANCH  15  16
ENDBRANCH   9  15
BRANCH   8  23
ATOM     23  O   UNL A   1      32.688  22.263  26.325  1.00  0.00    -0.475 OA
BRANCH  23  24
ATOM     24  C   UNL A   1      33.184  21.168  25.683  1.00  0.00     0.123 A 
ATOM     25  C   UNL A   1      34.559  21.034  25.491  1.00  0.00     0.047 A 
ATOM     26  C   UNL A   1      32.322  20.129  25.345  1.00  0.00     0.085 A 
ATOM     27  C   UNL A   1      35.072  19.886  24.885  1.00  0.00     0.007 A 
ATOM     28  C   UNL A   1      32.843  18.988  24.747  1.00  0.00     0.126 A 
ATOM     29  C   UNL A   1      34.208  18.862  24.505  1.00  0.00     0.039 A 
ATOM     30  F   UNL A   1      32.022  17.988  24.403  1.00  0.00    -0.207 F 
ENDBRANCH  23  24
ENDBRANCH   8  23
ENDBRANCH   6   8
ENDBRANCH   5   6
ENDBRANCH   4   5
ENDBRANCH   3   4
ENDBRANCH   2   3
ENDBRANCH   1   2
BRANCH   1  31
ATOM     31  C   UNL A   1      32.853  30.356  26.290  1.00  0.00     0.261 C 
BRANCH  31  32
ATOM     32  O   UNL A   1      33.010  30.738  27.658  1.00  0.00    -0.460 OA
BRANCH  32  33
ATOM     33  C   UNL A   1      33.839  31.795  27.839  1.00  0.00     0.338 C 
ATOM     34  O   UNL A   1      33.540  32.974  27.892  1.00  0.00    -0.246 OA
BRANCH  33  35
ATOM     35  C   UNL A   1      35.198  31.304  28.104  1.00  0.00     0.060 A 
ATOM     36  C   UNL A   1      35.333  29.998  28.584  1.00  0.00     0.016 A 
ATOM     37  C   UNL A   1      36.305  32.147  27.987  1.00  0.00     0.016 A 
ATOM     38  C   UNL A   1      36.581  29.545  29.003  1.00  0.00     0.010 A 
ATOM     39  C   UNL A   1      37.558  31.690  28.411  1.00  0.00     0.010 A 
ATOM     40  C   UNL A   1      37.690  30.402  28.959  1.00  0.00    -0.014 A 
BRANCH  40  41
ATOM     41  C   UNL A   1      38.935  29.986  29.647  1.00  0.00     0.031 A 
ATOM     42  C   UNL A   1      39.215  30.522  31.025  1.00  0.00     0.074 A 
ATOM     43  C   UNL A   1      39.746  29.067  29.093  1.00  0.00     0.049 A 
ATOM     44  N   UNL A   1      40.192  30.231  31.843  1.00  0.00    -0.248 NA
ATOM     45  C   UNL A   1      38.260  31.511  31.553  1.00  0.00     0.031 C 
ATOM     46  C   UNL A   1      39.540  28.443  27.786  1.00  0.00     0.029 A 
ATOM     47  N   UNL A   1      40.890  28.479  29.570  1.00  0.00    -0.354 N 
ATOM     48  C   UNL A   1      39.961  30.986  32.989  1.00  0.00     0.074 A 
ATOM     49  C   UNL A   1      38.780  31.783  32.740  1.00  0.00     0.031 C 
ATOM     50  C   UNL A   1      40.511  27.537  27.578  1.00  0.00     0.029 A 
ATOM     51  C   UNL A   1      41.421  27.538  28.722  1.00  0.00     0.049 A 
ATOM     52  H   UNL A   1      41.291  28.711  30.438  1.00  0.00     0.167 HD
ATOM     53  C   UNL A   1      40.659  30.996  34.150  1.00  0.00     0.034 A 
ATOM     54  C   UNL A   1      42.519  26.766  28.853  1.00  0.00     0.034 A 
ATOM     55  C   UNL A   1      41.837  30.202  34.381  1.00  0.00     0.049 A 
ATOM     56  C   UNL A   1      43.345  26.876  30.109  1.00  0.00     0.074 A 
ATOM     57  C   UNL A   1      42.619  30.133  35.521  1.00  0.00     0.029 A 
ATOM     58  N   UNL A   1      42.410  29.346  33.451  1.00  0.00    -0.354 N 
ATOM     59  N   UNL A   1      43.125  27.608  31.176  1.00  0.00    -0.248 NA
ATOM     60  C   UNL A   1      44.569  26.065  30.176  1.00  0.00     0.031 C 
ATOM     61  C   UNL A   1      43.698  29.284  35.258  1.00  0.00     0.029 A 
ATOM     62  C   UNL A   1      43.556  28.774  33.975  1.00  0.00     0.049 A 
ATOM     63  H   UNL A   1      42.053  29.171  32.549  1.00  0.00     0.167 HD
ATOM     64  C   UNL A   1      44.176  27.337  32.046  1.00  0.00     0.074 A 
ATOM     65  C   UNL A   1      45.030  26.373  31.382  1.00  0.00     0.031 C 
ATOM     66  C   UNL A   1      44.408  27.835  33.286  1.00  0.00     0.034 A 
BRANCH  53  67
ATOM     67  C   UNL A   1      40.181  31.920  35.238  1.00  0.00     0.023 A 
ATOM     68  C   UNL A   1      39.280  31.489  36.226  1.00  0.00     0.031 A 
ATOM     69  C   UNL A   1      40.629  33.253  35.284  1.00  0.00     0.131 A 
ATOM     70  C   UNL A   1      38.815  32.397  37.190  1.00  0.00     0.055 A 
ATOM     71  C   UNL A   1      40.211  34.132  36.284  1.00  0.00     0.041 A 
ATOM     72  F   UNL A   1      41.473  33.721  34.352  1.00  0.00    -0.206 F 
ATOM     73  C   UNL A   1      39.293  33.708  37.239  1.00  0.00     0.022 A 
BRANCH  70  74
ATOM     74  S   UNL A   1      37.505  31.864  38.325  1.00  0.00     0.124 S 
ATOM     75  O   UNL A   1      38.176  31.972  39.619  1.00  0.00    -0.237 OA
ATOM     76  O   UNL A   1      36.448  32.837  38.071  1.00  0.00    -0.237 OA
ATOM     77  O   UNL A   1      37.212  30.500  37.894  1.00  0.00    -0.744 OA
ENDBRANCH  70  74
ENDBRANCH  53  67
BRANCH  54  78
ATOM     78  C   UNL A   1      42.908  25.840  27.754  1.00  0.00     0.023 A 
ATOM     79  C   UNL A   1      42.379  24.544  27.674  1.00  0.00     0.031 A 
ATOM     80  C   UNL A   1      43.807  26.255  26.755  1.00  0.00     0.131 A 
ATOM     81  C   UNL A   1      42.760  23.701  26.617  1.00  0.00     0.055 A 
ATOM     82  C   UNL A   1      44.159  25.424  25.691  1.00  0.00     0.041 A 
ATOM     83  F   UNL A   1      44.335  27.489  26.788  1.00  0.00    -0.206 F 
ATOM     84  C   UNL A   1      43.636  24.137  25.619  1.00  0.00     0.022 A 
BRANCH  81  85
ATOM     85  S   UNL A   1      42.099  22.013  26.563  1.00  0.00     0.124 S 
ATOM     86  O   UNL A   1      42.786  21.462  25.399  1.00  0.00    -0.237 OA
ATOM     87  O   UNL A   1      42.506  21.483  27.860  1.00  0.00    -0.237 OA
ATOM     88  O   UNL A   1      40.661  22.215  26.401  1.00  0.00    -0.744 OA
ENDBRANCH  81  85
ENDBRANCH  54  78
BRANCH  66  89
ATOM     89  C   UNL A   1      45.628  27.349  34.016  1.00  0.00     0.023 A 
ATOM     90  C   UNL A   1      45.595  26.178  34.791  1.00  0.00     0.031 A 
ATOM     91  C   UNL A   1      46.856  28.018  33.865  1.00  0.00     0.131 A 
ATOM     92  C   UNL A   1      46.770  25.714  35.399  1.00  0.00     0.055 A 
ATOM     93  C   UNL A   1      48.029  27.532  34.442  1.00  0.00     0.041 A 
ATOM     94  F   UNL A   1      46.937  29.136  33.126  1.00  0.00    -0.206 F 
ATOM     95  C   UNL A   1      47.990  26.374  35.214  1.00  0.00     0.022 A 
BRANCH  92  96
ATOM     96  S   UNL A   1      46.692  24.231  36.437  1.00  0.00     0.124 S 
ATOM     97  O   UNL A   1      45.494  24.481  37.231  1.00  0.00    -0.237 OA
ATOM     98  O   UNL A   1      46.590  23.157  35.453  1.00  0.00    -0.237 OA
ATOM     99  O   UNL A   1      47.949  24.265  37.181  1.00  0.00    -0.744 OA
ENDBRANCH  92  96
ENDBRANCH  66  89
ENDBRANCH  40  41
ENDBRANCH  33  35
ENDBRANCH  32  33
ENDBRANCH  31  32
ENDBRANCH   1  31
TORSDOF 21
ENDMDL
