MODEL 1
REMARK VINA RESULT:     -10.5      0.000      0.000
REMARK SMILES O=C1CN(S(=O)(=O)c2ccc(CC(=O)OCCOCCOC(=O)c3ccc(-c4c5nc(c(-c6cc(S(=O)(=O)[O-])ccc6F)c6ccc([nH]6)c(-c6cc(S(=O)(=O)[O-])ccc6F)c6nc(c(-c7cc(S(=O)(=O)[O-])ccc7F)c7ccc4[nH]7)C=C6)C=C5)cc3)cc2)CCN1
REMARK SMILES IDX 18 1 17 2 16 3 15 4 13 5 14 6 12 7 11 8 8 9 9 10 88 11 10 12
REMARK SMILES IDX 87 13 5 14 6 15 7 16 4 17 1 18 2 19 3 20 91 21 90 22 89 24
REMARK SMILES IDX 19 25 20 26 21 27 22 28 23 29 24 30 25 31 86 32 26 33 85 34
REMARK SMILES IDX 27 35 28 36 29 37 79 38 30 39 84 40 78 41 80 42 31 43 83 44
REMARK SMILES IDX 77 45 76 46 32 48 64 49 44 50 63 51 45 52 48 53 62 54 81 55
REMARK SMILES IDX 46 56 47 57 61 59 82 60 49 61 33 62 34 63 42 64 35 65 41 66
REMARK SMILES IDX 43 67 40 68 36 69 37 70 38 71 39 72 65 73 66 74 74 75 67 76
REMARK SMILES IDX 73 77 75 78 72 79 68 80 69 81 70 82 71 83 50 84 51 85 59 86
REMARK SMILES IDX 52 87 58 88 60 89 57 90 53 91 54 92 55 93 56 94
REMARK H PARENT 91 23 80 47 48 58
REMARK Flexibility Score: inf
ROOT
ATOM      1  O   UNL A   1      32.674  30.710  26.146  1.00  0.00    -0.374 OA
ENDROOT
BRANCH   1   2
ATOM      2  C   UNL A   1      32.433  29.305  26.143  1.00  0.00     0.202 C 
BRANCH   2   3
ATOM      3  C   UNL A   1      31.209  28.798  25.373  1.00  0.00     0.261 C 
BRANCH   3   4
ATOM      4  O   UNL A   1      31.075  29.390  24.067  1.00  0.00    -0.463 OA
BRANCH   4   5
ATOM      5  C   UNL A   1      30.189  28.785  23.235  1.00  0.00     0.310 C 
ATOM      6  O   UNL A   1      28.968  28.827  23.367  1.00  0.00    -0.252 OA
BRANCH   5   7
ATOM      7  C   UNL A   1      30.819  27.998  22.108  1.00  0.00     0.158 C 
BRANCH   7   8
ATOM      8  C   UNL A   1      31.304  26.588  22.371  1.00  0.00    -0.037 A 
ATOM      9  C   UNL A   1      32.294  24.018  22.934  1.00  0.00     0.082 A 
ATOM     10  C   UNL A   1      31.169  24.491  23.614  1.00  0.00     0.022 A 
ATOM     11  C   UNL A   1      32.904  24.807  21.954  1.00  0.00     0.022 A 
ATOM     12  C   UNL A   1      30.681  25.775  23.334  1.00  0.00     0.006 A 
ATOM     13  C   UNL A   1      32.418  26.089  21.684  1.00  0.00     0.006 A 
BRANCH   9  14
ATOM     14  S   UNL A   1      32.828  22.335  23.154  1.00  0.00     0.243 S 
ATOM     15  O   UNL A   1      34.277  22.335  23.075  1.00  0.00    -0.207 OA
ATOM     16  O   UNL A   1      32.046  21.505  22.269  1.00  0.00    -0.207 OA
BRANCH  14  17
ATOM     17  N   UNL A   1      32.380  21.904  24.752  1.00  0.00    -0.187 NA
ATOM     18  O   UNL A   1      35.536  22.238  26.569  1.00  0.00    -0.274 OA
ATOM     19  C   UNL A   1      34.573  21.702  26.026  1.00  0.00     0.235 C 
ATOM     20  C   UNL A   1      33.247  22.423  25.846  1.00  0.00     0.202 C 
ATOM     21  N   UNL A   1      34.618  20.375  25.679  1.00  0.00    -0.354 N 
ATOM     22  C   UNL A   1      33.590  19.705  24.900  1.00  0.00     0.132 C 
ATOM     23  H   UNL A   1      35.392  19.846  25.976  1.00  0.00     0.163 HD
ATOM     24  C   UNL A   1      32.229  20.416  24.934  1.00  0.00     0.124 C 
ENDBRANCH  14  17
ENDBRANCH   9  14
ENDBRANCH   7   8
ENDBRANCH   5   7
ENDBRANCH   4   5
ENDBRANCH   3   4
ENDBRANCH   2   3
ENDBRANCH   1   2
BRANCH   1  25
ATOM     25  C   UNL A   1      31.587  31.569  26.478  1.00  0.00     0.202 C 
BRANCH  25  26
ATOM     26  C   UNL A   1      31.901  33.000  26.942  1.00  0.00     0.261 C 
BRANCH  26  27
ATOM     27  O   UNL A   1      32.720  33.052  28.119  1.00  0.00    -0.460 OA
BRANCH  27  28
ATOM     28  C   UNL A   1      33.835  33.814  27.982  1.00  0.00     0.338 C 
ATOM     29  O   UNL A   1      33.874  35.015  27.763  1.00  0.00    -0.246 OA
BRANCH  28  30
ATOM     30  C   UNL A   1      35.042  33.038  28.328  1.00  0.00     0.060 A 
ATOM     31  C   UNL A   1      34.843  31.781  28.914  1.00  0.00     0.016 A 
ATOM     32  C   UNL A   1      36.330  33.554  28.174  1.00  0.00     0.016 A 
ATOM     33  C   UNL A   1      35.925  31.066  29.418  1.00  0.00     0.010 A 
ATOM     34  C   UNL A   1      37.417  32.835  28.686  1.00  0.00     0.010 A 
ATOM     35  C   UNL A   1      37.213  31.612  29.352  1.00  0.00    -0.014 A 
BRANCH  35  36
ATOM     36  C   UNL A   1      38.302  30.983  30.142  1.00  0.00     0.031 A 
ATOM     37  C   UNL A   1      39.158  29.933  29.484  1.00  0.00     0.074 A 
ATOM     38  C   UNL A   1      38.563  31.384  31.400  1.00  0.00     0.049 A 
ATOM     39  N   UNL A   1      40.154  29.241  29.976  1.00  0.00    -0.248 NA
ATOM     40  C   UNL A   1      38.845  29.621  28.081  1.00  0.00     0.031 C 
ATOM     41  C   UNL A   1      37.835  32.430  32.117  1.00  0.00     0.029 A 
ATOM     42  N   UNL A   1      39.514  30.961  32.294  1.00  0.00    -0.354 N 
ATOM     43  C   UNL A   1      40.581  28.408  28.947  1.00  0.00     0.074 A 
ATOM     44  C   UNL A   1      39.709  28.652  27.818  1.00  0.00     0.031 C 
ATOM     45  C   UNL A   1      38.365  32.564  33.345  1.00  0.00     0.029 A 
ATOM     46  C   UNL A   1      39.440  31.589  33.515  1.00  0.00     0.049 A 
ATOM     47  H   UNL A   1      40.184  30.273  32.082  1.00  0.00     0.167 HD
ATOM     48  C   UNL A   1      41.613  27.527  28.941  1.00  0.00     0.034 A 
ATOM     49  C   UNL A   1      40.146  31.383  34.646  1.00  0.00     0.034 A 
ATOM     50  C   UNL A   1      42.466  27.292  30.082  1.00  0.00     0.049 A 
ATOM     51  C   UNL A   1      41.237  30.338  34.643  1.00  0.00     0.074 A 
ATOM     52  C   UNL A   1      43.542  26.428  30.189  1.00  0.00     0.029 A 
ATOM     53  N   UNL A   1      42.333  27.913  31.318  1.00  0.00    -0.354 N 
ATOM     54  N   UNL A   1      41.631  29.556  33.665  1.00  0.00    -0.248 NA
ATOM     55  C   UNL A   1      41.985  30.160  35.895  1.00  0.00     0.031 C 
ATOM     56  C   UNL A   1      44.008  26.470  31.509  1.00  0.00     0.029 A 
ATOM     57  C   UNL A   1      43.285  27.428  32.201  1.00  0.00     0.049 A 
ATOM     58  H   UNL A   1      41.660  28.598  31.534  1.00  0.00     0.167 HD
ATOM     59  C   UNL A   1      42.701  28.822  34.173  1.00  0.00     0.074 A 
ATOM     60  C   UNL A   1      42.894  29.263  35.539  1.00  0.00     0.031 C 
ATOM     61  C   UNL A   1      43.463  27.876  33.564  1.00  0.00     0.034 A 
BRANCH  48  62
ATOM     62  C   UNL A   1      41.831  26.718  27.684  1.00  0.00     0.023 A 
ATOM     63  C   UNL A   1      41.476  25.358  27.601  1.00  0.00     0.031 A 
ATOM     64  C   UNL A   1      42.434  27.307  26.558  1.00  0.00     0.131 A 
ATOM     65  C   UNL A   1      41.793  24.621  26.450  1.00  0.00     0.055 A 
ATOM     66  C   UNL A   1      42.670  26.588  25.385  1.00  0.00     0.041 A 
ATOM     67  F   UNL A   1      42.819  28.593  26.584  1.00  0.00    -0.206 F 
ATOM     68  C   UNL A   1      42.363  25.232  25.331  1.00  0.00     0.022 A 
BRANCH  65  69
ATOM     69  S   UNL A   1      41.585  22.818  26.488  1.00  0.00     0.124 S 
ATOM     70  O   UNL A   1      42.092  22.491  27.819  1.00  0.00    -0.237 OA
ATOM     71  O   UNL A   1      40.149  22.662  26.295  1.00  0.00    -0.237 OA
ATOM     72  O   UNL A   1      42.419  22.353  25.381  1.00  0.00    -0.744 OA
ENDBRANCH  65  69
ENDBRANCH  48  62
BRANCH  49  73
ATOM     73  C   UNL A   1      39.827  32.150  35.886  1.00  0.00     0.023 A 
ATOM     74  C   UNL A   1      38.833  31.716  36.777  1.00  0.00     0.031 A 
ATOM     75  C   UNL A   1      40.479  33.364  36.169  1.00  0.00     0.131 A 
ATOM     76  C   UNL A   1      38.486  32.513  37.881  1.00  0.00     0.055 A 
ATOM     77  C   UNL A   1      40.172  34.123  37.299  1.00  0.00     0.041 A 
ATOM     78  F   UNL A   1      41.436  33.829  35.350  1.00  0.00    -0.206 F 
ATOM     79  C   UNL A   1      39.158  33.705  38.156  1.00  0.00     0.022 A 
BRANCH  76  80
ATOM     80  S   UNL A   1      37.072  32.014  38.902  1.00  0.00     0.124 S 
ATOM     81  O   UNL A   1      37.505  32.430  40.232  1.00  0.00    -0.237 OA
ATOM     82  O   UNL A   1      35.984  32.787  38.311  1.00  0.00    -0.237 OA
ATOM     83  O   UNL A   1      36.993  30.571  38.692  1.00  0.00    -0.744 OA
ENDBRANCH  76  80
ENDBRANCH  49  73
BRANCH  61  84
ATOM     84  C   UNL A   1      44.616  27.303  34.355  1.00  0.00     0.023 A 
ATOM     85  C   UNL A   1      44.499  26.111  35.092  1.00  0.00     0.031 A 
ATOM     86  C   UNL A   1      45.853  27.974  34.379  1.00  0.00     0.131 A 
ATOM     87  C   UNL A   1      45.577  25.661  35.870  1.00  0.00     0.055 A 
ATOM     88  C   UNL A   1      46.943  27.484  35.099  1.00  0.00     0.041 A 
ATOM     89  F   UNL A   1      46.024  29.118  33.698  1.00  0.00    -0.206 F 
ATOM     90  C   UNL A   1      46.804  26.330  35.864  1.00  0.00     0.022 A 
BRANCH  87  91
ATOM     91  S   UNL A   1      45.322  24.249  36.980  1.00  0.00     0.124 S 
ATOM     92  O   UNL A   1      44.414  24.807  37.978  1.00  0.00    -0.237 OA
ATOM     93  O   UNL A   1      44.749  23.249  36.085  1.00  0.00    -0.237 OA
ATOM     94  O   UNL A   1      46.667  23.947  37.466  1.00  0.00    -0.744 OA
ENDBRANCH  87  91
ENDBRANCH  61  84
ENDBRANCH  35  36
ENDBRANCH  28  30
ENDBRANCH  27  28
ENDBRANCH  26  27
ENDBRANCH  25  26
ENDBRANCH   1  25
TORSDOF 20
ENDMDL
MODEL 2
REMARK VINA RESULT:     -10.4      4.911      8.423
REMARK SMILES O=C1CN(S(=O)(=O)c2ccc(CC(=O)OCCOCCOC(=O)c3ccc(-c4c5nc(c(-c6cc(S(=O)(=O)[O-])ccc6F)c6ccc([nH]6)c(-c6cc(S(=O)(=O)[O-])ccc6F)c6nc(c(-c7cc(S(=O)(=O)[O-])ccc7F)c7ccc4[nH]7)C=C6)C=C5)cc3)cc2)CCN1
REMARK SMILES IDX 18 1 17 2 16 3 15 4 13 5 14 6 12 7 11 8 8 9 9 10 88 11 10 12
REMARK SMILES IDX 87 13 5 14 6 15 7 16 4 17 1 18 2 19 3 20 91 21 90 22 89 24
REMARK SMILES IDX 19 25 20 26 21 27 22 28 23 29 24 30 25 31 86 32 26 33 85 34
REMARK SMILES IDX 27 35 28 36 29 37 79 38 30 39 84 40 78 41 80 42 31 43 83 44
REMARK SMILES IDX 77 45 76 46 32 48 64 49 44 50 63 51 45 52 48 53 62 54 81 55
REMARK SMILES IDX 46 56 47 57 61 59 82 60 49 61 33 62 34 63 42 64 35 65 41 66
REMARK SMILES IDX 43 67 40 68 36 69 37 70 38 71 39 72 65 73 66 74 74 75 67 76
REMARK SMILES IDX 73 77 75 78 72 79 68 80 69 81 70 82 71 83 50 84 51 85 59 86
REMARK SMILES IDX 52 87 58 88 60 89 57 90 53 91 54 92 55 93 56 94
REMARK H PARENT 91 23 80 47 48 58
REMARK Flexibility Score: inf
ROOT
ATOM      1  O   UNL A   1      36.439  21.088  24.829  1.00  0.00    -0.374 OA
ENDROOT
BRANCH   1   2
ATOM      2  C   UNL A   1      36.274  19.675  24.717  1.00  0.00     0.202 C 
BRANCH   2   3
ATOM      3  C   UNL A   1      34.844  19.126  24.738  1.00  0.00     0.261 C 
BRANCH   3   4
ATOM      4  O   UNL A   1      33.853  20.109  24.384  1.00  0.00    -0.463 OA
BRANCH   4   5
ATOM      5  C   UNL A   1      32.923  20.376  25.338  1.00  0.00     0.310 C 
ATOM      6  O   UNL A   1      31.789  19.904  25.356  1.00  0.00    -0.252 OA
BRANCH   5   7
ATOM      7  C   UNL A   1      33.373  21.351  26.402  1.00  0.00     0.158 C 
BRANCH   7   8
ATOM      8  C   UNL A   1      33.173  22.835  26.179  1.00  0.00    -0.037 A 
ATOM      9  C   UNL A   1      32.783  25.566  25.642  1.00  0.00     0.082 A 
ATOM     10  C   UNL A   1      31.730  24.804  26.152  1.00  0.00     0.022 A 
ATOM     11  C   UNL A   1      34.034  24.980  25.430  1.00  0.00     0.022 A 
ATOM     12  C   UNL A   1      31.927  23.441  26.415  1.00  0.00     0.006 A 
ATOM     13  C   UNL A   1      34.223  23.619  25.686  1.00  0.00     0.006 A 
BRANCH   9  14
ATOM     14  S   UNL A   1      32.604  27.327  25.458  1.00  0.00     0.243 S 
ATOM     15  O   UNL A   1      33.931  27.868  25.233  1.00  0.00    -0.207 OA
ATOM     16  O   UNL A   1      31.795  27.804  26.555  1.00  0.00    -0.207 OA
BRANCH  14  17
ATOM     17  N   UNL A   1      31.681  27.561  24.033  1.00  0.00    -0.187 NA
ATOM     18  O   UNL A   1      33.646  25.768  21.523  1.00  0.00    -0.274 OA
ATOM     19  C   UNL A   1      33.153  26.709  22.140  1.00  0.00     0.235 C 
ATOM     20  C   UNL A   1      31.873  26.559  22.947  1.00  0.00     0.202 C 
ATOM     21  N   UNL A   1      33.671  27.973  22.015  1.00  0.00    -0.354 N 
ATOM     22  C   UNL A   1      33.251  29.106  22.820  1.00  0.00     0.132 C 
ATOM     23  H   UNL A   1      34.369  28.121  21.337  1.00  0.00     0.163 HD
ATOM     24  C   UNL A   1      31.857  28.936  23.444  1.00  0.00     0.124 C 
ENDBRANCH  14  17
ENDBRANCH   9  14
ENDBRANCH   7   8
ENDBRANCH   5   7
ENDBRANCH   4   5
ENDBRANCH   3   4
ENDBRANCH   2   3
ENDBRANCH   1   2
BRANCH   1  25
ATOM     25  C   UNL A   1      37.754  21.586  25.061  1.00  0.00     0.202 C 
BRANCH  25  26
ATOM     26  C   UNL A   1      38.848  20.593  25.481  1.00  0.00     0.261 C 
BRANCH  26  27
ATOM     27  O   UNL A   1      40.114  21.215  25.746  1.00  0.00    -0.460 OA
BRANCH  27  28
ATOM     28  C   UNL A   1      40.535  21.083  27.029  1.00  0.00     0.338 C 
ATOM     29  O   UNL A   1      40.859  20.046  27.587  1.00  0.00    -0.246 OA
BRANCH  28  30
ATOM     30  C   UNL A   1      40.750  22.407  27.645  1.00  0.00     0.060 A 
ATOM     31  C   UNL A   1      39.882  23.436  27.259  1.00  0.00     0.016 A 
ATOM     32  C   UNL A   1      41.822  22.666  28.501  1.00  0.00     0.016 A 
ATOM     33  C   UNL A   1      40.124  24.744  27.666  1.00  0.00     0.010 A 
ATOM     34  C   UNL A   1      42.066  23.984  28.907  1.00  0.00     0.010 A 
ATOM     35  C   UNL A   1      41.247  25.034  28.452  1.00  0.00    -0.014 A 
BRANCH  35  36
ATOM     36  C   UNL A   1      41.652  26.451  28.634  1.00  0.00     0.031 A 
ATOM     37  C   UNL A   1      43.025  26.874  28.179  1.00  0.00     0.074 A 
ATOM     38  C   UNL A   1      40.793  27.356  29.137  1.00  0.00     0.049 A 
ATOM     39  N   UNL A   1      43.600  28.047  28.245  1.00  0.00    -0.248 NA
ATOM     40  C   UNL A   1      43.860  25.828  27.567  1.00  0.00     0.031 C 
ATOM     41  C   UNL A   1      39.422  27.071  29.558  1.00  0.00     0.029 A 
ATOM     42  N   UNL A   1      40.946  28.699  29.374  1.00  0.00    -0.354 N 
ATOM     43  C   UNL A   1      44.866  27.880  27.693  1.00  0.00     0.074 A 
ATOM     44  C   UNL A   1      44.988  26.483  27.335  1.00  0.00     0.031 C 
ATOM     45  C   UNL A   1      38.861  28.206  30.007  1.00  0.00     0.029 A 
ATOM     46  C   UNL A   1      39.841  29.287  29.943  1.00  0.00     0.049 A 
ATOM     47  H   UNL A   1      41.769  29.193  29.158  1.00  0.00     0.167 HD
ATOM     48  C   UNL A   1      45.834  28.810  27.492  1.00  0.00     0.034 A 
ATOM     49  C   UNL A   1      39.654  30.549  30.381  1.00  0.00     0.034 A 
ATOM     50  C   UNL A   1      45.695  30.197  27.865  1.00  0.00     0.049 A 
ATOM     51  C   UNL A   1      40.775  31.549  30.225  1.00  0.00     0.074 A 
ATOM     52  C   UNL A   1      46.606  31.227  27.707  1.00  0.00     0.029 A 
ATOM     53  N   UNL A   1      44.578  30.748  28.482  1.00  0.00    -0.354 N 
ATOM     54  N   UNL A   1      41.968  31.380  29.701  1.00  0.00    -0.248 NA
ATOM     55  C   UNL A   1      40.518  32.913  30.706  1.00  0.00     0.031 C 
ATOM     56  C   UNL A   1      46.073  32.379  28.297  1.00  0.00     0.029 A 
ATOM     57  C   UNL A   1      44.791  32.094  28.739  1.00  0.00     0.049 A 
ATOM     58  H   UNL A   1      43.756  30.255  28.703  1.00  0.00     0.167 HD
ATOM     59  C   UNL A   1      42.587  32.627  29.755  1.00  0.00     0.074 A 
ATOM     60  C   UNL A   1      41.632  33.537  30.351  1.00  0.00     0.031 C 
ATOM     61  C   UNL A   1      43.829  32.991  29.339  1.00  0.00     0.034 A 
BRANCH  48  62
ATOM     62  C   UNL A   1      47.140  28.337  26.899  1.00  0.00     0.023 A 
ATOM     63  C   UNL A   1      47.298  28.124  25.517  1.00  0.00     0.031 A 
ATOM     64  C   UNL A   1      48.240  28.065  27.733  1.00  0.00     0.131 A 
ATOM     65  C   UNL A   1      48.497  27.586  25.023  1.00  0.00     0.055 A 
ATOM     66  C   UNL A   1      49.457  27.609  27.225  1.00  0.00     0.041 A 
ATOM     67  F   UNL A   1      48.144  28.223  29.063  1.00  0.00    -0.206 F 
ATOM     68  C   UNL A   1      49.587  27.352  25.864  1.00  0.00     0.022 A 
BRANCH  65  69
ATOM     69  S   UNL A   1      48.562  27.057  23.288  1.00  0.00     0.124 S 
ATOM     70  O   UNL A   1      48.171  25.653  23.394  1.00  0.00    -0.237 OA
ATOM     71  O   UNL A   1      47.597  27.943  22.651  1.00  0.00    -0.237 OA
ATOM     72  O   UNL A   1      49.958  27.279  22.915  1.00  0.00    -0.744 OA
ENDBRANCH  65  69
ENDBRANCH  48  62
BRANCH  49  73
ATOM     73  C   UNL A   1      38.373  30.937  31.042  1.00  0.00     0.023 A 
ATOM     74  C   UNL A   1      37.338  31.557  30.323  1.00  0.00     0.031 A 
ATOM     75  C   UNL A   1      38.188  30.743  32.424  1.00  0.00     0.131 A 
ATOM     76  C   UNL A   1      36.188  32.003  30.995  1.00  0.00     0.055 A 
ATOM     77  C   UNL A   1      37.018  31.134  33.075  1.00  0.00     0.041 A 
ATOM     78  F   UNL A   1      39.146  30.158  33.162  1.00  0.00    -0.206 F 
ATOM     79  C   UNL A   1      36.015  31.783  32.362  1.00  0.00     0.022 A 
BRANCH  76  80
ATOM     80  S   UNL A   1      34.959  32.964  30.069  1.00  0.00     0.124 S 
ATOM     81  O   UNL A   1      34.050  33.383  31.130  1.00  0.00    -0.237 OA
ATOM     82  O   UNL A   1      35.781  34.013  29.475  1.00  0.00    -0.237 OA
ATOM     83  O   UNL A   1      34.412  31.994  29.123  1.00  0.00    -0.744 OA
ENDBRANCH  76  80
ENDBRANCH  49  73
BRANCH  61  84
ATOM     84  C   UNL A   1      44.197  34.451  29.459  1.00  0.00     0.023 A 
ATOM     85  C   UNL A   1      44.681  35.006  30.657  1.00  0.00     0.031 A 
ATOM     86  C   UNL A   1      44.047  35.306  28.351  1.00  0.00     0.131 A 
ATOM     87  C   UNL A   1      44.937  36.383  30.738  1.00  0.00     0.055 A 
ATOM     88  C   UNL A   1      44.369  36.662  28.417  1.00  0.00     0.041 A 
ATOM     89  F   UNL A   1      43.586  34.835  27.181  1.00  0.00    -0.206 F 
ATOM     90  C   UNL A   1      44.803  37.211  29.620  1.00  0.00     0.022 A 
BRANCH  87  91
ATOM     91  S   UNL A   1      45.346  37.102  32.352  1.00  0.00     0.124 S 
ATOM     92  O   UNL A   1      46.754  36.745  32.495  1.00  0.00    -0.237 OA
ATOM     93  O   UNL A   1      45.065  38.518  32.143  1.00  0.00    -0.237 OA
ATOM     94  O   UNL A   1      44.438  36.419  33.272  1.00  0.00    -0.744 OA
ENDBRANCH  87  91
ENDBRANCH  61  84
ENDBRANCH  35  36
ENDBRANCH  28  30
ENDBRANCH  27  28
ENDBRANCH  26  27
ENDBRANCH  25  26
ENDBRANCH   1  25
TORSDOF 20
ENDMDL
MODEL 3
REMARK VINA RESULT:     -10.3      5.809      9.709
REMARK SMILES O=C1CN(S(=O)(=O)c2ccc(CC(=O)OCCOCCOC(=O)c3ccc(-c4c5nc(c(-c6cc(S(=O)(=O)[O-])ccc6F)c6ccc([nH]6)c(-c6cc(S(=O)(=O)[O-])ccc6F)c6nc(c(-c7cc(S(=O)(=O)[O-])ccc7F)c7ccc4[nH]7)C=C6)C=C5)cc3)cc2)CCN1
REMARK SMILES IDX 18 1 17 2 16 3 15 4 13 5 14 6 12 7 11 8 8 9 9 10 88 11 10 12
REMARK SMILES IDX 87 13 5 14 6 15 7 16 4 17 1 18 2 19 3 20 91 21 90 22 89 24
REMARK SMILES IDX 19 25 20 26 21 27 22 28 23 29 24 30 25 31 86 32 26 33 85 34
REMARK SMILES IDX 27 35 28 36 29 37 79 38 30 39 84 40 78 41 80 42 31 43 83 44
REMARK SMILES IDX 77 45 76 46 32 48 64 49 44 50 63 51 45 52 48 53 62 54 81 55
REMARK SMILES IDX 46 56 47 57 61 59 82 60 49 61 33 62 34 63 42 64 35 65 41 66
REMARK SMILES IDX 43 67 40 68 36 69 37 70 38 71 39 72 65 73 66 74 74 75 67 76
REMARK SMILES IDX 73 77 75 78 72 79 68 80 69 81 70 82 71 83 50 84 51 85 59 86
REMARK SMILES IDX 52 87 58 88 60 89 57 90 53 91 54 92 55 93 56 94
REMARK H PARENT 91 23 80 47 48 58
REMARK Flexibility Score: inf
ROOT
ATOM      1  O   UNL A   1      40.092  20.722  26.876  1.00  0.00    -0.374 OA
ENDROOT
BRANCH   1   2
ATOM      2  C   UNL A   1      39.938  21.947  26.161  1.00  0.00     0.202 C 
BRANCH   2   3
ATOM      3  C   UNL A   1      38.538  22.567  26.110  1.00  0.00     0.261 C 
BRANCH   3   4
ATOM      4  O   UNL A   1      37.740  22.076  25.016  1.00  0.00    -0.463 OA
BRANCH   4   5
ATOM      5  C   UNL A   1      36.625  21.384  25.366  1.00  0.00     0.310 C 
ATOM      6  O   UNL A   1      36.240  20.357  24.812  1.00  0.00    -0.252 OA
BRANCH   5   7
ATOM      7  C   UNL A   1      35.836  21.994  26.502  1.00  0.00     0.158 C 
BRANCH   7   8
ATOM      8  C   UNL A   1      34.835  23.090  26.204  1.00  0.00    -0.037 A 
ATOM      9  C   UNL A   1      32.988  25.164  25.769  1.00  0.00     0.082 A 
ATOM     10  C   UNL A   1      34.313  25.317  25.352  1.00  0.00     0.022 A 
ATOM     11  C   UNL A   1      32.576  23.972  26.370  1.00  0.00     0.022 A 
ATOM     12  C   UNL A   1      35.232  24.282  25.574  1.00  0.00     0.006 A 
ATOM     13  C   UNL A   1      33.498  22.946  26.597  1.00  0.00     0.006 A 
BRANCH   9  14
ATOM     14  S   UNL A   1      31.773  26.393  25.349  1.00  0.00     0.243 S 
ATOM     15  O   UNL A   1      32.494  27.567  24.893  1.00  0.00    -0.207 OA
ATOM     16  O   UNL A   1      30.842  26.487  26.449  1.00  0.00    -0.207 OA
BRANCH  14  17
ATOM     17  N   UNL A   1      30.895  25.755  24.021  1.00  0.00    -0.187 NA
ATOM     18  O   UNL A   1      33.314  26.005  21.289  1.00  0.00    -0.274 OA
ATOM     19  C   UNL A   1      32.327  26.253  21.977  1.00  0.00     0.235 C 
ATOM     20  C   UNL A   1      31.703  25.212  22.893  1.00  0.00     0.202 C 
ATOM     21  N   UNL A   1      31.665  27.447  21.842  1.00  0.00    -0.354 N 
ATOM     22  C   UNL A   1      30.589  27.882  22.717  1.00  0.00     0.132 C 
ATOM     23  H   UNL A   1      31.935  28.044  21.108  1.00  0.00     0.163 HD
ATOM     24  C   UNL A   1      29.895  26.731  23.460  1.00  0.00     0.124 C 
ENDBRANCH  14  17
ENDBRANCH   9  14
ENDBRANCH   7   8
ENDBRANCH   5   7
ENDBRANCH   4   5
ENDBRANCH   3   4
ENDBRANCH   2   3
ENDBRANCH   1   2
BRANCH   1  25
ATOM     25  C   UNL A   1      40.419  19.555  26.127  1.00  0.00     0.202 C 
BRANCH  25  26
ATOM     26  C   UNL A   1      41.860  19.024  26.193  1.00  0.00     0.261 C 
BRANCH  26  27
ATOM     27  O   UNL A   1      42.625  19.299  25.011  1.00  0.00    -0.460 OA
BRANCH  27  28
ATOM     28  C   UNL A   1      43.818  19.899  25.254  1.00  0.00     0.338 C 
ATOM     29  O   UNL A   1      44.923  19.467  24.966  1.00  0.00    -0.246 OA
BRANCH  28  30
ATOM     30  C   UNL A   1      43.618  21.273  25.755  1.00  0.00     0.060 A 
ATOM     31  C   UNL A   1      43.556  22.295  24.799  1.00  0.00     0.016 A 
ATOM     32  C   UNL A   1      43.585  21.573  27.118  1.00  0.00     0.016 A 
ATOM     33  C   UNL A   1      43.536  23.627  25.200  1.00  0.00     0.010 A 
ATOM     34  C   UNL A   1      43.568  22.914  27.520  1.00  0.00     0.010 A 
ATOM     35  C   UNL A   1      43.593  23.946  26.563  1.00  0.00    -0.014 A 
BRANCH  35  36
ATOM     36  C   UNL A   1      43.864  25.350  26.963  1.00  0.00     0.031 A 
ATOM     37  C   UNL A   1      45.257  25.895  26.788  1.00  0.00     0.074 A 
ATOM     38  C   UNL A   1      42.875  26.143  27.414  1.00  0.00     0.049 A 
ATOM     39  N   UNL A   1      45.731  27.081  27.076  1.00  0.00    -0.248 NA
ATOM     40  C   UNL A   1      46.250  24.975  26.212  1.00  0.00     0.031 C 
ATOM     41  C   UNL A   1      41.478  25.738  27.571  1.00  0.00     0.029 A 
ATOM     42  N   UNL A   1      42.893  27.454  27.819  1.00  0.00    -0.354 N 
ATOM     43  C   UNL A   1      47.077  27.047  26.724  1.00  0.00     0.074 A 
ATOM     44  C   UNL A   1      47.351  25.711  26.241  1.00  0.00     0.031 C 
ATOM     45  C   UNL A   1      40.774  26.781  28.043  1.00  0.00     0.029 A 
ATOM     46  C   UNL A   1      41.674  27.911  28.260  1.00  0.00     0.049 A 
ATOM     47  H   UNL A   1      43.703  28.013  27.796  1.00  0.00     0.167 HD
ATOM     48  C   UNL A   1      47.996  28.043  26.788  1.00  0.00     0.034 A 
ATOM     49  C   UNL A   1      41.331  29.101  28.796  1.00  0.00     0.034 A 
ATOM     50  C   UNL A   1      47.702  29.367  27.283  1.00  0.00     0.049 A 
ATOM     51  C   UNL A   1      42.390  30.169  28.937  1.00  0.00     0.074 A 
ATOM     52  C   UNL A   1      48.552  30.454  27.390  1.00  0.00     0.029 A 
ATOM     53  N   UNL A   1      46.466  29.782  27.765  1.00  0.00    -0.354 N 
ATOM     54  N   UNL A   1      43.659  30.126  28.601  1.00  0.00    -0.248 NA
ATOM     55  C   UNL A   1      41.965  31.450  29.516  1.00  0.00     0.031 C 
ATOM     56  C   UNL A   1      47.852  31.498  28.007  1.00  0.00     0.029 A 
ATOM     57  C   UNL A   1      46.540  31.096  28.199  1.00  0.00     0.049 A 
ATOM     58  H   UNL A   1      45.657  29.223  27.793  1.00  0.00     0.167 HD
ATOM     59  C   UNL A   1      44.172  31.389  28.891  1.00  0.00     0.074 A 
ATOM     60  C   UNL A   1      43.073  32.170  29.419  1.00  0.00     0.031 C 
ATOM     61  C   UNL A   1      45.435  31.863  28.728  1.00  0.00     0.034 A 
BRANCH  48  62
ATOM     62  C   UNL A   1      49.409  27.714  26.369  1.00  0.00     0.023 A 
ATOM     63  C   UNL A   1      49.938  28.131  25.134  1.00  0.00     0.031 A 
ATOM     64  C   UNL A   1      50.234  26.941  27.207  1.00  0.00     0.131 A 
ATOM     65  C   UNL A   1      51.219  27.714  24.743  1.00  0.00     0.055 A 
ATOM     66  C   UNL A   1      51.539  26.599  26.847  1.00  0.00     0.041 A 
ATOM     67  F   UNL A   1      49.780  26.490  28.387  1.00  0.00    -0.206 F 
ATOM     68  C   UNL A   1      52.034  26.973  25.602  1.00  0.00     0.022 A 
BRANCH  65  69
ATOM     69  S   UNL A   1      51.752  28.026  23.036  1.00  0.00     0.124 S 
ATOM     70  O   UNL A   1      52.939  28.851  23.244  1.00  0.00    -0.237 OA
ATOM     71  O   UNL A   1      51.988  26.681  22.528  1.00  0.00    -0.237 OA
ATOM     72  O   UNL A   1      50.613  28.727  22.445  1.00  0.00    -0.744 OA
ENDBRANCH  65  69
ENDBRANCH  48  62
BRANCH  49  73
ATOM     73  C   UNL A   1      39.938  29.340  29.277  1.00  0.00     0.023 A 
ATOM     74  C   UNL A   1      39.611  29.254  30.639  1.00  0.00     0.031 A 
ATOM     75  C   UNL A   1      38.898  29.605  28.367  1.00  0.00     0.131 A 
ATOM     76  C   UNL A   1      38.273  29.383  31.048  1.00  0.00     0.055 A 
ATOM     77  C   UNL A   1      37.580  29.791  28.784  1.00  0.00     0.041 A 
ATOM     78  F   UNL A   1      39.154  29.695  27.051  1.00  0.00    -0.206 F 
ATOM     79  C   UNL A   1      37.259  29.665  30.132  1.00  0.00     0.022 A 
BRANCH  76  80
ATOM     80  S   UNL A   1      37.863  29.079  32.789  1.00  0.00     0.124 S 
ATOM     81  O   UNL A   1      36.602  29.800  32.926  1.00  0.00    -0.237 OA
ATOM     82  O   UNL A   1      37.778  27.623  32.830  1.00  0.00    -0.237 OA
ATOM     83  O   UNL A   1      38.996  29.656  33.510  1.00  0.00    -0.744 OA
ENDBRANCH  76  80
ENDBRANCH  49  73
BRANCH  61  84
ATOM     84  C   UNL A   1      45.676  33.316  29.065  1.00  0.00     0.023 A 
ATOM     85  C   UNL A   1      45.641  34.327  28.089  1.00  0.00     0.031 A 
ATOM     86  C   UNL A   1      45.959  33.691  30.392  1.00  0.00     0.131 A 
ATOM     87  C   UNL A   1      45.946  35.651  28.441  1.00  0.00     0.055 A 
ATOM     88  C   UNL A   1      46.193  35.020  30.749  1.00  0.00     0.041 A 
ATOM     89  F   UNL A   1      46.010  32.770  31.367  1.00  0.00    -0.206 F 
ATOM     90  C   UNL A   1      46.203  36.007  29.768  1.00  0.00     0.022 A 
BRANCH  87  91
ATOM     91  S   UNL A   1      46.110  36.889  27.125  1.00  0.00     0.124 S 
ATOM     92  O   UNL A   1      47.185  37.734  27.636  1.00  0.00    -0.237 OA
ATOM     93  O   UNL A   1      46.441  36.068  25.965  1.00  0.00    -0.237 OA
ATOM     94  O   UNL A   1      44.793  37.521  27.081  1.00  0.00    -0.744 OA
ENDBRANCH  87  91
ENDBRANCH  61  84
ENDBRANCH  35  36
ENDBRANCH  28  30
ENDBRANCH  27  28
ENDBRANCH  26  27
ENDBRANCH  25  26
ENDBRANCH   1  25
TORSDOF 20
ENDMDL
