MODEL 1
REMARK VINA RESULT:     -10.4      0.000      0.000
REMARK SMILES C[C@H](Cc1ccco1)[NH2+]Cc1cc(C(=O)OCCOCCOC(=O)c2ccc(-c3c4nc(c(-c5cc(S(=O)(=O)[O-])ccc5F)c5ccc([nH]5)c(-c5cc(S(=O)(=O)[O-])ccc5F)c5nc(c(-c6cc(S(=O)(=O)[O-])ccc6F)c6ccc3[nH]6)C=C5)C=C4)cc2)cs1
REMARK SMILES IDX 18 1 17 2 16 3 14 4 15 5 13 6 11 7 12 8 89 9 88 10 10 11
REMARK SMILES IDX 9 12 2 15 1 16 3 17 4 18 5 19 8 20 6 21 7 22 19 23 20 24
REMARK SMILES IDX 21 25 22 26 23 27 24 28 25 29 26 30 87 31 27 32 86 33 28 34
REMARK SMILES IDX 29 35 30 36 80 37 31 38 85 39 79 40 81 41 32 42 84 43 78 44
REMARK SMILES IDX 77 45 33 47 65 48 45 49 64 50 46 51 49 52 63 53 82 54 47 55
REMARK SMILES IDX 48 56 62 58 83 59 50 60 34 61 35 62 43 63 36 64 42 65 44 66
REMARK SMILES IDX 41 67 37 68 38 69 39 70 40 71 66 72 67 73 75 74 68 75 74 76
REMARK SMILES IDX 76 77 73 78 69 79 70 80 71 81 72 82 51 83 52 84 60 85 53 86
REMARK SMILES IDX 59 87 61 88 58 89 54 90 55 91 56 92 57 93
REMARK H PARENT 9 13 9 14 81 46 49 57
REMARK Flexibility Score: inf
ROOT
ATOM      1  C   UNL A   1      36.893  22.234  25.345  1.00  0.00     0.202 C 
ENDROOT
BRANCH   1   2
ATOM      2  C   UNL A   1      35.702  22.788  24.561  1.00  0.00     0.261 C 
BRANCH   2   3
ATOM      3  O   UNL A   1      34.644  21.816  24.512  1.00  0.00    -0.460 OA
BRANCH   3   4
ATOM      4  C   UNL A   1      33.480  22.179  25.119  1.00  0.00     0.339 C 
ATOM      5  O   UNL A   1      33.001  21.630  26.105  1.00  0.00    -0.246 OA
BRANCH   4   6
ATOM      6  C   UNL A   1      32.880  23.368  24.513  1.00  0.00     0.071 A 
ATOM      7  C   UNL A   1      31.982  25.534  24.278  1.00  0.00     0.060 A 
ATOM      8  C   UNL A   1      32.565  24.622  25.142  1.00  0.00     0.037 A 
ATOM      9  S   UNL A   1      31.825  24.876  22.702  1.00  0.00    -0.142 S 
ATOM     10  C   UNL A   1      32.502  23.389  23.183  1.00  0.00     0.081 A 
BRANCH   7  11
ATOM     11  C   UNL A   1      31.559  26.950  24.562  1.00  0.00     0.308 C 
BRANCH  11  12
ATOM     12  N   UNL A   1      30.146  27.219  24.292  1.00  0.00    -0.339 N 
ATOM     13  H   UNL A   1      29.642  26.334  24.345  1.00  0.00     0.346 HD
ATOM     14  H   UNL A   1      29.854  27.904  24.991  1.00  0.00     0.346 HD
BRANCH  12  15
ATOM     15  C   UNL A   1      29.853  27.829  22.987  1.00  0.00     0.187 C 
ATOM     16  C   UNL A   1      30.907  28.832  22.503  1.00  0.00     0.075 C 
BRANCH  15  17
ATOM     17  C   UNL A   1      28.430  28.445  22.985  1.00  0.00     0.140 C 
BRANCH  17  18
ATOM     18  C   UNL A   1      28.300  29.853  22.502  1.00  0.00     0.109 A 
ATOM     19  C   UNL A   1      28.216  31.058  23.173  1.00  0.00     0.046 A 
ATOM     20  O   UNL A   1      28.212  30.069  21.160  1.00  0.00    -0.469 OA
ATOM     21  C   UNL A   1      28.081  32.061  22.184  1.00  0.00     0.042 A 
ATOM     22  C   UNL A   1      28.090  31.408  20.975  1.00  0.00     0.195 A 
ENDBRANCH  17  18
ENDBRANCH  15  17
ENDBRANCH  12  15
ENDBRANCH  11  12
ENDBRANCH   7  11
ENDBRANCH   4   6
ENDBRANCH   3   4
ENDBRANCH   2   3
ENDBRANCH   1   2
BRANCH   1  23
ATOM     23  O   UNL A   1      37.729  21.367  24.576  1.00  0.00    -0.374 OA
BRANCH  23  24
ATOM     24  C   UNL A   1      37.694  19.984  24.944  1.00  0.00     0.202 C 
BRANCH  24  25
ATOM     25  C   UNL A   1      39.041  19.417  25.404  1.00  0.00     0.261 C 
BRANCH  25  26
ATOM     26  O   UNL A   1      39.474  20.055  26.620  1.00  0.00    -0.460 OA
BRANCH  26  27
ATOM     27  C   UNL A   1      40.794  20.357  26.673  1.00  0.00     0.338 C 
ATOM     28  O   UNL A   1      41.716  19.676  26.257  1.00  0.00    -0.246 OA
BRANCH  27  29
ATOM     29  C   UNL A   1      40.968  21.747  27.149  1.00  0.00     0.060 A 
ATOM     30  C   UNL A   1      40.318  22.759  26.430  1.00  0.00     0.016 A 
ATOM     31  C   UNL A   1      41.770  22.068  28.247  1.00  0.00     0.016 A 
ATOM     32  C   UNL A   1      40.509  24.096  26.773  1.00  0.00     0.010 A 
ATOM     33  C   UNL A   1      41.965  23.412  28.588  1.00  0.00     0.010 A 
ATOM     34  C   UNL A   1      41.364  24.433  27.831  1.00  0.00    -0.014 A 
BRANCH  34  35
ATOM     35  C   UNL A   1      41.762  25.848  28.030  1.00  0.00     0.031 A 
ATOM     36  C   UNL A   1      43.103  26.298  27.513  1.00  0.00     0.074 A 
ATOM     37  C   UNL A   1      40.940  26.724  28.636  1.00  0.00     0.049 A 
ATOM     38  N   UNL A   1      43.687  27.463  27.617  1.00  0.00    -0.248 NA
ATOM     39  C   UNL A   1      43.888  25.290  26.786  1.00  0.00     0.031 C 
ATOM     40  C   UNL A   1      39.600  26.418  29.134  1.00  0.00     0.029 A 
ATOM     41  N   UNL A   1      41.118  28.051  28.939  1.00  0.00    -0.354 N 
ATOM     42  C   UNL A   1      44.912  27.330  26.971  1.00  0.00     0.074 A 
ATOM     43  C   UNL A   1      44.998  25.960  26.514  1.00  0.00     0.031 C 
ATOM     44  C   UNL A   1      39.082  27.525  29.696  1.00  0.00     0.029 A 
ATOM     45  C   UNL A   1      40.065  28.604  29.629  1.00  0.00     0.049 A 
ATOM     46  H   UNL A   1      41.923  28.557  28.688  1.00  0.00     0.167 HD
ATOM     47  C   UNL A   1      45.871  28.266  26.770  1.00  0.00     0.034 A 
ATOM     48  C   UNL A   1      39.924  29.834  30.166  1.00  0.00     0.034 A 
ATOM     49  C   UNL A   1      45.777  29.626  27.244  1.00  0.00     0.049 A 
ATOM     50  C   UNL A   1      41.043  30.836  30.006  1.00  0.00     0.074 A 
ATOM     51  C   UNL A   1      46.687  30.658  27.093  1.00  0.00     0.029 A 
ATOM     52  N   UNL A   1      44.713  30.140  27.973  1.00  0.00    -0.354 N 
ATOM     53  N   UNL A   1      42.196  30.699  29.394  1.00  0.00    -0.248 NA
ATOM     54  C   UNL A   1      40.835  32.163  30.605  1.00  0.00     0.031 C 
ATOM     55  C   UNL A   1      46.203  31.774  27.784  1.00  0.00     0.029 A 
ATOM     56  C   UNL A   1      44.957  31.464  28.305  1.00  0.00     0.049 A 
ATOM     57  H   UNL A   1      43.901  29.638  28.218  1.00  0.00     0.167 HD
ATOM     58  C   UNL A   1      42.836  31.931  29.508  1.00  0.00     0.074 A 
ATOM     59  C   UNL A   1      41.937  32.800  30.240  1.00  0.00     0.031 C 
ATOM     60  C   UNL A   1      44.053  32.314  29.043  1.00  0.00     0.034 A 
BRANCH  47  61
ATOM     61  C   UNL A   1      47.125  27.825  26.055  1.00  0.00     0.023 A 
ATOM     62  C   UNL A   1      47.303  28.039  24.677  1.00  0.00     0.031 A 
ATOM     63  C   UNL A   1      48.136  27.143  26.752  1.00  0.00     0.131 A 
ATOM     64  C   UNL A   1      48.431  27.511  24.028  1.00  0.00     0.055 A 
ATOM     65  C   UNL A   1      49.292  26.687  26.116  1.00  0.00     0.041 A 
ATOM     66  F   UNL A   1      48.008  26.889  28.065  1.00  0.00    -0.206 F 
ATOM     67  C   UNL A   1      49.437  26.857  24.742  1.00  0.00     0.022 A 
BRANCH  64  68
ATOM     68  S   UNL A   1      48.491  27.564  22.215  1.00  0.00     0.124 S 
ATOM     69  O   UNL A   1      48.663  26.152  21.884  1.00  0.00    -0.237 OA
ATOM     70  O   UNL A   1      47.200  28.150  21.873  1.00  0.00    -0.237 OA
ATOM     71  O   UNL A   1      49.653  28.407  21.937  1.00  0.00    -0.744 OA
ENDBRANCH  64  68
ENDBRANCH  47  61
BRANCH  48  72
ATOM     72  C   UNL A   1      38.704  30.182  30.947  1.00  0.00     0.023 A 
ATOM     73  C   UNL A   1      37.668  30.942  30.382  1.00  0.00     0.031 A 
ATOM     74  C   UNL A   1      38.582  29.802  32.296  1.00  0.00     0.131 A 
ATOM     75  C   UNL A   1      36.578  31.337  31.173  1.00  0.00     0.055 A 
ATOM     76  C   UNL A   1      37.473  30.158  33.066  1.00  0.00     0.041 A 
ATOM     77  F   UNL A   1      39.545  29.075  32.886  1.00  0.00    -0.206 F 
ATOM     78  C   UNL A   1      36.468  30.940  32.508  1.00  0.00     0.022 A 
BRANCH  75  79
ATOM     79  S   UNL A   1      35.338  32.449  30.452  1.00  0.00     0.124 S 
ATOM     80  O   UNL A   1      34.950  31.721  29.250  1.00  0.00    -0.237 OA
ATOM     81  O   UNL A   1      34.340  32.516  31.515  1.00  0.00    -0.237 OA
ATOM     82  O   UNL A   1      36.084  33.685  30.222  1.00  0.00    -0.744 OA
ENDBRANCH  75  79
ENDBRANCH  48  72
BRANCH  60  83
ATOM     83  C   UNL A   1      44.456  33.751  29.271  1.00  0.00     0.023 A 
ATOM     84  C   UNL A   1      44.080  34.777  28.388  1.00  0.00     0.031 A 
ATOM     85  C   UNL A   1      45.234  34.093  30.392  1.00  0.00     0.131 A 
ATOM     86  C   UNL A   1      44.524  36.090  28.613  1.00  0.00     0.055 A 
ATOM     87  C   UNL A   1      45.628  35.408  30.640  1.00  0.00     0.041 A 
ATOM     88  F   UNL A   1      45.621  33.151  31.267  1.00  0.00    -0.206 F 
ATOM     89  C   UNL A   1      45.282  36.413  29.741  1.00  0.00     0.022 A 
BRANCH  86  90
ATOM     90  S   UNL A   1      44.164  37.359  27.367  1.00  0.00     0.124 S 
ATOM     91  O   UNL A   1      43.071  36.746  26.618  1.00  0.00    -0.237 OA
ATOM     92  O   UNL A   1      43.806  38.510  28.189  1.00  0.00    -0.237 OA
ATOM     93  O   UNL A   1      45.422  37.487  26.635  1.00  0.00    -0.744 OA
ENDBRANCH  86  90
ENDBRANCH  60  83
ENDBRANCH  34  35
ENDBRANCH  27  29
ENDBRANCH  26  27
ENDBRANCH  25  26
ENDBRANCH  24  25
ENDBRANCH  23  24
ENDBRANCH   1  23
TORSDOF 22
ENDMDL
MODEL 2
REMARK VINA RESULT:      -9.7      5.501     11.474
REMARK SMILES C[C@H](Cc1ccco1)[NH2+]Cc1cc(C(=O)OCCOCCOC(=O)c2ccc(-c3c4nc(c(-c5cc(S(=O)(=O)[O-])ccc5F)c5ccc([nH]5)c(-c5cc(S(=O)(=O)[O-])ccc5F)c5nc(c(-c6cc(S(=O)(=O)[O-])ccc6F)c6ccc3[nH]6)C=C5)C=C4)cc2)cs1
REMARK SMILES IDX 18 1 17 2 16 3 14 4 15 5 13 6 11 7 12 8 89 9 88 10 10 11
REMARK SMILES IDX 9 12 2 15 1 16 3 17 4 18 5 19 8 20 6 21 7 22 19 23 20 24
REMARK SMILES IDX 21 25 22 26 23 27 24 28 25 29 26 30 87 31 27 32 86 33 28 34
REMARK SMILES IDX 29 35 30 36 80 37 31 38 85 39 79 40 81 41 32 42 84 43 78 44
REMARK SMILES IDX 77 45 33 47 65 48 45 49 64 50 46 51 49 52 63 53 82 54 47 55
REMARK SMILES IDX 48 56 62 58 83 59 50 60 34 61 35 62 43 63 36 64 42 65 44 66
REMARK SMILES IDX 41 67 37 68 38 69 39 70 40 71 66 72 67 73 75 74 68 75 74 76
REMARK SMILES IDX 76 77 73 78 69 79 70 80 71 81 72 82 51 83 52 84 60 85 53 86
REMARK SMILES IDX 59 87 61 88 58 89 54 90 55 91 56 92 57 93
REMARK H PARENT 9 13 9 14 81 46 49 57
REMARK Flexibility Score: inf
ROOT
ATOM      1  C   UNL A   1      33.399  29.905  26.718  1.00  0.00     0.202 C 
ENDROOT
BRANCH   1   2
ATOM      2  C   UNL A   1      32.650  29.565  25.428  1.00  0.00     0.261 C 
BRANCH   2   3
ATOM      3  O   UNL A   1      31.405  28.914  25.734  1.00  0.00    -0.460 OA
BRANCH   3   4
ATOM      4  C   UNL A   1      31.489  27.845  26.574  1.00  0.00     0.339 C 
ATOM      5  O   UNL A   1      31.504  27.913  27.798  1.00  0.00    -0.246 OA
BRANCH   4   6
ATOM      6  C   UNL A   1      31.480  26.569  25.858  1.00  0.00     0.071 A 
ATOM      7  C   UNL A   1      32.184  24.482  25.022  1.00  0.00     0.060 A 
ATOM      8  C   UNL A   1      32.510  25.567  25.818  1.00  0.00     0.037 A 
ATOM      9  S   UNL A   1      30.625  24.670  24.332  1.00  0.00    -0.142 S 
ATOM     10  C   UNL A   1      30.410  26.191  25.068  1.00  0.00     0.081 A 
BRANCH   7  11
ATOM     11  C   UNL A   1      32.985  23.232  24.773  1.00  0.00     0.308 C 
BRANCH  11  12
ATOM     12  N   UNL A   1      32.183  22.010  24.703  1.00  0.00    -0.339 N 
ATOM     13  H   UNL A   1      31.451  22.074  25.410  1.00  0.00     0.346 HD
ATOM     14  H   UNL A   1      31.832  21.962  23.746  1.00  0.00     0.346 HD
BRANCH  12  15
ATOM     15  C   UNL A   1      32.916  20.755  24.924  1.00  0.00     0.187 C 
ATOM     16  C   UNL A   1      34.438  20.918  25.030  1.00  0.00     0.075 C 
BRANCH  15  17
ATOM     17  C   UNL A   1      32.524  19.703  23.854  1.00  0.00     0.140 C 
BRANCH  17  18
ATOM     18  C   UNL A   1      32.884  18.280  24.136  1.00  0.00     0.109 A 
ATOM     19  C   UNL A   1      33.845  17.445  23.599  1.00  0.00     0.046 A 
ATOM     20  O   UNL A   1      32.154  17.602  25.064  1.00  0.00    -0.469 OA
ATOM     21  C   UNL A   1      33.697  16.194  24.246  1.00  0.00     0.042 A 
ATOM     22  C   UNL A   1      32.658  16.344  25.132  1.00  0.00     0.195 A 
ENDBRANCH  17  18
ENDBRANCH  15  17
ENDBRANCH  12  15
ENDBRANCH  11  12
ENDBRANCH   7  11
ENDBRANCH   4   6
ENDBRANCH   3   4
ENDBRANCH   2   3
ENDBRANCH   1   2
BRANCH   1  23
ATOM     23  O   UNL A   1      32.780  30.943  27.481  1.00  0.00    -0.374 OA
BRANCH  23  24
ATOM     24  C   UNL A   1      31.863  31.776  26.764  1.00  0.00     0.202 C 
BRANCH  24  25
ATOM     25  C   UNL A   1      32.099  33.279  26.945  1.00  0.00     0.261 C 
BRANCH  25  26
ATOM     26  O   UNL A   1      32.611  33.560  28.260  1.00  0.00    -0.460 OA
BRANCH  26  27
ATOM     27  C   UNL A   1      33.723  34.335  28.293  1.00  0.00     0.338 C 
ATOM     28  O   UNL A   1      33.854  35.443  27.800  1.00  0.00    -0.246 OA
BRANCH  27  29
ATOM     29  C   UNL A   1      34.730  33.726  29.189  1.00  0.00     0.060 A 
ATOM     30  C   UNL A   1      36.026  34.258  29.156  1.00  0.00     0.016 A 
ATOM     31  C   UNL A   1      34.435  32.641  30.018  1.00  0.00     0.016 A 
ATOM     32  C   UNL A   1      37.042  33.676  29.912  1.00  0.00     0.010 A 
ATOM     33  C   UNL A   1      35.457  32.053  30.773  1.00  0.00     0.010 A 
ATOM     34  C   UNL A   1      36.772  32.546  30.696  1.00  0.00    -0.014 A 
BRANCH  34  35
ATOM     35  C   UNL A   1      37.896  31.782  31.292  1.00  0.00     0.031 A 
ATOM     36  C   UNL A   1      38.359  32.148  32.677  1.00  0.00     0.074 A 
ATOM     37  C   UNL A   1      38.477  30.767  30.628  1.00  0.00     0.049 A 
ATOM     38  N   UNL A   1      39.349  31.662  33.379  1.00  0.00    -0.248 NA
ATOM     39  C   UNL A   1      37.601  33.210  33.355  1.00  0.00     0.031 C 
ATOM     40  C   UNL A   1      38.084  30.289  29.304  1.00  0.00     0.029 A 
ATOM     41  N   UNL A   1      39.529  29.958  30.980  1.00  0.00    -0.354 N 
ATOM     42  C   UNL A   1      39.338  32.361  34.582  1.00  0.00     0.074 A 
ATOM     43  C   UNL A   1      38.265  33.328  34.495  1.00  0.00     0.031 C 
ATOM     44  C   UNL A   1      38.895  29.278  28.947  1.00  0.00     0.029 A 
ATOM     45  C   UNL A   1      39.885  29.061  30.001  1.00  0.00     0.049 A 
ATOM     46  H   UNL A   1      39.985  30.015  31.850  1.00  0.00     0.167 HD
ATOM     47  C   UNL A   1      40.142  32.204  35.662  1.00  0.00     0.034 A 
ATOM     48  C   UNL A   1      40.911  28.185  29.952  1.00  0.00     0.034 A 
ATOM     49  C   UNL A   1      41.218  31.245  35.729  1.00  0.00     0.049 A 
ATOM     50  C   UNL A   1      41.848  28.087  31.131  1.00  0.00     0.074 A 
ATOM     51  C   UNL A   1      42.091  30.997  36.774  1.00  0.00     0.029 A 
ATOM     52  N   UNL A   1      41.574  30.380  34.703  1.00  0.00    -0.354 N 
ATOM     53  N   UNL A   1      41.828  28.753  32.262  1.00  0.00    -0.248 NA
ATOM     54  C   UNL A   1      42.944  27.112  31.028  1.00  0.00     0.031 C 
ATOM     55  C   UNL A   1      43.013  30.031  36.357  1.00  0.00     0.029 A 
ATOM     56  C   UNL A   1      42.672  29.621  35.078  1.00  0.00     0.049 A 
ATOM     57  H   UNL A   1      41.114  30.314  33.835  1.00  0.00     0.167 HD
ATOM     58  C   UNL A   1      42.888  28.255  33.016  1.00  0.00     0.074 A 
ATOM     59  C   UNL A   1      43.521  27.227  32.214  1.00  0.00     0.031 C 
ATOM     60  C   UNL A   1      43.297  28.606  34.263  1.00  0.00     0.034 A 
BRANCH  47  61
ATOM     61  C   UNL A   1      39.917  33.135  36.829  1.00  0.00     0.023 A 
ATOM     62  C   UNL A   1      39.261  32.709  37.997  1.00  0.00     0.031 A 
ATOM     63  C   UNL A   1      40.327  34.477  36.755  1.00  0.00     0.131 A 
ATOM     64  C   UNL A   1      38.967  33.635  39.011  1.00  0.00     0.055 A 
ATOM     65  C   UNL A   1      40.101  35.375  37.800  1.00  0.00     0.041 A 
ATOM     66  F   UNL A   1      40.937  34.945  35.653  1.00  0.00    -0.206 F 
ATOM     67  C   UNL A   1      39.404  34.959  38.930  1.00  0.00     0.022 A 
BRANCH  64  68
ATOM     68  S   UNL A   1      37.882  33.118  40.370  1.00  0.00     0.124 S 
ATOM     69  O   UNL A   1      37.958  34.270  41.263  1.00  0.00    -0.237 OA
ATOM     70  O   UNL A   1      36.606  32.914  39.694  1.00  0.00    -0.237 OA
ATOM     71  O   UNL A   1      38.521  31.904  40.875  1.00  0.00    -0.744 OA
ENDBRANCH  64  68
ENDBRANCH  47  61
BRANCH  48  72
ATOM     72  C   UNL A   1      41.142  27.361  28.731  1.00  0.00     0.023 A 
ATOM     73  C   UNL A   1      42.156  27.682  27.816  1.00  0.00     0.031 A 
ATOM     74  C   UNL A   1      40.309  26.267  28.436  1.00  0.00     0.131 A 
ATOM     75  C   UNL A   1      42.285  26.946  26.628  1.00  0.00     0.055 A 
ATOM     76  C   UNL A   1      40.470  25.508  27.275  1.00  0.00     0.041 A 
ATOM     77  F   UNL A   1      39.322  25.917  29.277  1.00  0.00    -0.206 F 
ATOM     78  C   UNL A   1      41.455  25.854  26.356  1.00  0.00     0.022 A 
BRANCH  75  79
ATOM     79  S   UNL A   1      43.504  27.486  25.398  1.00  0.00     0.124 S 
ATOM     80  O   UNL A   1      44.344  26.301  25.272  1.00  0.00    -0.237 OA
ATOM     81  O   UNL A   1      42.657  27.799  24.251  1.00  0.00    -0.237 OA
ATOM     82  O   UNL A   1      44.139  28.639  26.034  1.00  0.00    -0.744 OA
ENDBRANCH  75  79
ENDBRANCH  48  72
BRANCH  60  83
ATOM     83  C   UNL A   1      44.454  27.836  34.850  1.00  0.00     0.023 A 
ATOM     84  C   UNL A   1      44.264  26.651  35.581  1.00  0.00     0.031 A 
ATOM     85  C   UNL A   1      45.770  28.303  34.676  1.00  0.00     0.131 A 
ATOM     86  C   UNL A   1      45.367  25.999  36.154  1.00  0.00     0.055 A 
ATOM     87  C   UNL A   1      46.868  27.621  35.202  1.00  0.00     0.041 A 
ATOM     88  F   UNL A   1      46.009  29.430  33.986  1.00  0.00    -0.206 F 
ATOM     89  C   UNL A   1      46.668  26.468  35.956  1.00  0.00     0.022 A 
BRANCH  86  90
ATOM     90  S   UNL A   1      45.072  24.568  37.231  1.00  0.00     0.124 S 
ATOM     91  O   UNL A   1      44.597  23.566  36.282  1.00  0.00    -0.237 OA
ATOM     92  O   UNL A   1      46.394  24.330  37.801  1.00  0.00    -0.237 OA
ATOM     93  O   UNL A   1      44.068  25.052  38.176  1.00  0.00    -0.744 OA
ENDBRANCH  86  90
ENDBRANCH  60  83
ENDBRANCH  34  35
ENDBRANCH  27  29
ENDBRANCH  26  27
ENDBRANCH  25  26
ENDBRANCH  24  25
ENDBRANCH  23  24
ENDBRANCH   1  23
TORSDOF 22
ENDMDL
MODEL 3
REMARK VINA RESULT:      -9.7      2.026      2.363
REMARK SMILES C[C@H](Cc1ccco1)[NH2+]Cc1cc(C(=O)OCCOCCOC(=O)c2ccc(-c3c4nc(c(-c5cc(S(=O)(=O)[O-])ccc5F)c5ccc([nH]5)c(-c5cc(S(=O)(=O)[O-])ccc5F)c5nc(c(-c6cc(S(=O)(=O)[O-])ccc6F)c6ccc3[nH]6)C=C5)C=C4)cc2)cs1
REMARK SMILES IDX 18 1 17 2 16 3 14 4 15 5 13 6 11 7 12 8 89 9 88 10 10 11
REMARK SMILES IDX 9 12 2 15 1 16 3 17 4 18 5 19 8 20 6 21 7 22 19 23 20 24
REMARK SMILES IDX 21 25 22 26 23 27 24 28 25 29 26 30 87 31 27 32 86 33 28 34
REMARK SMILES IDX 29 35 30 36 80 37 31 38 85 39 79 40 81 41 32 42 84 43 78 44
REMARK SMILES IDX 77 45 33 47 65 48 45 49 64 50 46 51 49 52 63 53 82 54 47 55
REMARK SMILES IDX 48 56 62 58 83 59 50 60 34 61 35 62 43 63 36 64 42 65 44 66
REMARK SMILES IDX 41 67 37 68 38 69 39 70 40 71 66 72 67 73 75 74 68 75 74 76
REMARK SMILES IDX 76 77 73 78 69 79 70 80 71 81 72 82 51 83 52 84 60 85 53 86
REMARK SMILES IDX 59 87 61 88 58 89 54 90 55 91 56 92 57 93
REMARK H PARENT 9 13 9 14 81 46 49 57
REMARK Flexibility Score: inf
ROOT
ATOM      1  C   UNL A   1      35.935  21.621  24.967  1.00  0.00     0.202 C 
ENDROOT
BRANCH   1   2
ATOM      2  C   UNL A   1      34.779  20.623  25.058  1.00  0.00     0.261 C 
BRANCH   2   3
ATOM      3  O   UNL A   1      33.697  21.037  24.207  1.00  0.00    -0.460 OA
BRANCH   3   4
ATOM      4  C   UNL A   1      32.469  21.085  24.795  1.00  0.00     0.339 C 
ATOM      5  O   UNL A   1      31.883  20.122  25.277  1.00  0.00    -0.246 OA
BRANCH   4   6
ATOM      6  C   UNL A   1      31.937  22.446  24.868  1.00  0.00     0.071 A 
ATOM      7  C   UNL A   1      31.502  24.697  24.325  1.00  0.00     0.060 A 
ATOM      8  C   UNL A   1      32.136  23.528  23.942  1.00  0.00     0.037 A 
ATOM      9  S   UNL A   1      30.655  24.484  25.801  1.00  0.00    -0.142 S 
ATOM     10  C   UNL A   1      31.156  22.861  25.931  1.00  0.00     0.081 A 
BRANCH   7  11
ATOM     11  C   UNL A   1      31.449  26.013  23.596  1.00  0.00     0.308 C 
BRANCH  11  12
ATOM     12  N   UNL A   1      30.116  26.612  23.536  1.00  0.00    -0.339 N 
ATOM     13  H   UNL A   1      29.479  25.920  23.141  1.00  0.00     0.346 HD
ATOM     14  H   UNL A   1      29.889  26.884  24.493  1.00  0.00     0.346 HD
BRANCH  12  15
ATOM     15  C   UNL A   1      30.005  27.838  22.733  1.00  0.00     0.187 C 
ATOM     16  C   UNL A   1      31.127  28.856  22.970  1.00  0.00     0.075 C 
BRANCH  15  17
ATOM     17  C   UNL A   1      28.603  28.477  22.911  1.00  0.00     0.140 C 
BRANCH  17  18
ATOM     18  C   UNL A   1      28.453  29.909  22.510  1.00  0.00     0.109 A 
ATOM     19  C   UNL A   1      28.368  31.073  23.249  1.00  0.00     0.046 A 
ATOM     20  O   UNL A   1      28.344  30.200  21.184  1.00  0.00    -0.469 OA
ATOM     21  C   UNL A   1      28.210  32.129  22.320  1.00  0.00     0.042 A 
ATOM     22  C   UNL A   1      28.208  31.545  21.076  1.00  0.00     0.195 A 
ENDBRANCH  17  18
ENDBRANCH  15  17
ENDBRANCH  12  15
ENDBRANCH  11  12
ENDBRANCH   7  11
ENDBRANCH   4   6
ENDBRANCH   3   4
ENDBRANCH   2   3
ENDBRANCH   1   2
BRANCH   1  23
ATOM     23  O   UNL A   1      36.984  21.366  25.904  1.00  0.00    -0.374 OA
BRANCH  23  24
ATOM     24  C   UNL A   1      38.307  21.334  25.359  1.00  0.00     0.202 C 
BRANCH  24  25
ATOM     25  C   UNL A   1      38.987  19.962  25.427  1.00  0.00     0.261 C 
BRANCH  25  26
ATOM     26  O   UNL A   1      39.818  19.863  26.598  1.00  0.00    -0.460 OA
BRANCH  26  27
ATOM     27  C   UNL A   1      41.151  19.818  26.356  1.00  0.00     0.338 C 
ATOM     28  O   UNL A   1      41.773  18.890  25.866  1.00  0.00    -0.246 OA
BRANCH  27  29
ATOM     29  C   UNL A   1      41.747  21.150  26.600  1.00  0.00     0.060 A 
ATOM     30  C   UNL A   1      41.932  21.537  27.933  1.00  0.00     0.016 A 
ATOM     31  C   UNL A   1      42.088  22.019  25.560  1.00  0.00     0.016 A 
ATOM     32  C   UNL A   1      42.410  22.812  28.234  1.00  0.00     0.010 A 
ATOM     33  C   UNL A   1      42.561  23.301  25.863  1.00  0.00     0.010 A 
ATOM     34  C   UNL A   1      42.691  23.716  27.201  1.00  0.00    -0.014 A 
BRANCH  34  35
ATOM     35  C   UNL A   1      42.951  25.140  27.523  1.00  0.00     0.031 A 
ATOM     36  C   UNL A   1      44.333  25.690  27.287  1.00  0.00     0.074 A 
ATOM     37  C   UNL A   1      41.975  25.937  27.992  1.00  0.00     0.049 A 
ATOM     38  N   UNL A   1      44.809  26.880  27.541  1.00  0.00    -0.248 NA
ATOM     39  C   UNL A   1      45.305  24.765  26.687  1.00  0.00     0.031 C 
ATOM     40  C   UNL A   1      40.588  25.532  28.215  1.00  0.00     0.029 A 
ATOM     41  N   UNL A   1      42.005  27.257  28.371  1.00  0.00    -0.354 N 
ATOM     42  C   UNL A   1      46.140  26.850  27.136  1.00  0.00     0.074 A 
ATOM     43  C   UNL A   1      46.400  25.509  26.655  1.00  0.00     0.031 C 
ATOM     44  C   UNL A   1      39.902  26.579  28.707  1.00  0.00     0.029 A 
ATOM     45  C   UNL A   1      40.808  27.716  28.866  1.00  0.00     0.049 A 
ATOM     46  H   UNL A   1      42.809  27.820  28.295  1.00  0.00     0.167 HD
ATOM     47  C   UNL A   1      47.057  27.848  27.155  1.00  0.00     0.034 A 
ATOM     48  C   UNL A   1      40.488  28.909  29.410  1.00  0.00     0.034 A 
ATOM     49  C   UNL A   1      46.787  29.176  27.650  1.00  0.00     0.049 A 
ATOM     50  C   UNL A   1      41.549  29.980  29.502  1.00  0.00     0.074 A 
ATOM     51  C   UNL A   1      47.639  30.265  27.712  1.00  0.00     0.029 A 
ATOM     52  N   UNL A   1      45.573  29.593  28.181  1.00  0.00    -0.354 N 
ATOM     53  N   UNL A   1      42.803  29.938  29.117  1.00  0.00    -0.248 NA
ATOM     54  C   UNL A   1      41.146  31.262  30.098  1.00  0.00     0.031 C 
ATOM     55  C   UNL A   1      46.962  31.317  28.338  1.00  0.00     0.029 A 
ATOM     56  C   UNL A   1      45.663  30.911  28.600  1.00  0.00     0.049 A 
ATOM     57  H   UNL A   1      44.765  29.034  28.249  1.00  0.00     0.167 HD
ATOM     58  C   UNL A   1      43.329  31.198  29.394  1.00  0.00     0.074 A 
ATOM     59  C   UNL A   1      42.253  31.978  29.972  1.00  0.00     0.031 C 
ATOM     60  C   UNL A   1      44.583  31.672  29.183  1.00  0.00     0.034 A 
BRANCH  47  61
ATOM     61  C   UNL A   1      48.449  27.514  26.676  1.00  0.00     0.023 A 
ATOM     62  C   UNL A   1      49.472  27.157  27.571  1.00  0.00     0.031 A 
ATOM     63  C   UNL A   1      48.767  27.595  25.309  1.00  0.00     0.131 A 
ATOM     64  C   UNL A   1      50.780  26.968  27.098  1.00  0.00     0.055 A 
ATOM     65  C   UNL A   1      50.053  27.330  24.835  1.00  0.00     0.041 A 
ATOM     66  F   UNL A   1      47.835  27.955  24.411  1.00  0.00    -0.206 F 
ATOM     67  C   UNL A   1      51.072  27.028  25.734  1.00  0.00     0.022 A 
BRANCH  64  68
ATOM     68  S   UNL A   1      52.121  26.784  28.306  1.00  0.00     0.124 S 
ATOM     69  O   UNL A   1      52.599  28.159  28.428  1.00  0.00    -0.237 OA
ATOM     70  O   UNL A   1      51.426  26.242  29.468  1.00  0.00    -0.237 OA
ATOM     71  O   UNL A   1      53.049  25.866  27.649  1.00  0.00    -0.744 OA
ENDBRANCH  64  68
ENDBRANCH  47  61
BRANCH  48  72
ATOM     72  C   UNL A   1      39.123  29.148  29.957  1.00  0.00     0.023 A 
ATOM     73  C   UNL A   1      38.151  29.836  29.214  1.00  0.00     0.031 A 
ATOM     74  C   UNL A   1      38.789  28.738  31.260  1.00  0.00     0.131 A 
ATOM     75  C   UNL A   1      36.907  30.132  29.794  1.00  0.00     0.055 A 
ATOM     76  C   UNL A   1      37.534  28.993  31.816  1.00  0.00     0.041 A 
ATOM     77  F   UNL A   1      39.682  28.077  32.014  1.00  0.00    -0.206 F 
ATOM     78  C   UNL A   1      36.589  29.706  31.087  1.00  0.00     0.022 A 
BRANCH  75  79
ATOM     79  S   UNL A   1      35.735  31.157  28.863  1.00  0.00     0.124 S 
ATOM     80  O   UNL A   1      34.971  31.783  29.935  1.00  0.00    -0.237 OA
ATOM     81  O   UNL A   1      36.630  32.033  28.115  1.00  0.00    -0.237 OA
ATOM     82  O   UNL A   1      35.001  30.184  28.056  1.00  0.00    -0.744 OA
ENDBRANCH  75  79
ENDBRANCH  48  72
BRANCH  60  83
ATOM     83  C   UNL A   1      44.841  33.117  29.534  1.00  0.00     0.023 A 
ATOM     84  C   UNL A   1      44.718  34.146  28.585  1.00  0.00     0.031 A 
ATOM     85  C   UNL A   1      45.222  33.465  30.843  1.00  0.00     0.131 A 
ATOM     86  C   UNL A   1      45.021  35.469  28.946  1.00  0.00     0.055 A 
ATOM     87  C   UNL A   1      45.470  34.788  31.210  1.00  0.00     0.041 A 
ATOM     88  F   UNL A   1      45.355  32.521  31.789  1.00  0.00    -0.206 F 
ATOM     89  C   UNL A   1      45.381  35.797  30.256  1.00  0.00     0.022 A 
BRANCH  86  90
ATOM     90  S   UNL A   1      45.015  36.747  27.659  1.00  0.00     0.124 S 
ATOM     91  O   UNL A   1      43.731  37.403  27.888  1.00  0.00    -0.237 OA
ATOM     92  O   UNL A   1      46.199  37.531  27.993  1.00  0.00    -0.237 OA
ATOM     93  O   UNL A   1      45.108  35.984  26.417  1.00  0.00    -0.744 OA
ENDBRANCH  86  90
ENDBRANCH  60  83
ENDBRANCH  34  35
ENDBRANCH  27  29
ENDBRANCH  26  27
ENDBRANCH  25  26
ENDBRANCH  24  25
ENDBRANCH  23  24
ENDBRANCH   1  23
TORSDOF 22
ENDMDL
