MODEL 1
REMARK VINA RESULT:     -10.7      0.000      0.000
REMARK SMILES CCSc1nc(CC(=O)N[C@@H](C(=O)OCCOCCOC(=O)c2ccc(-c3c4nc(c(-c5cc(S(=O)(=O)[O-])ccc5F)c5ccc([nH]5)c(-c5cc(S(=O)(=O)[O-])ccc5F)c5nc(c(-c6cc(S(=O)(=O)[O-])ccc6F)c6ccc3[nH]6)C=C5)C=C4)cc2)C2=C(C)N=N[C@@H]2C)cs1
REMARK SMILES IDX 16 1 15 2 14 3 12 4 13 5 11 6 10 7 8 8 9 9 7 11 6 12 4 13
REMARK SMILES IDX 5 14 94 15 93 16 3 17 2 18 1 19 86 20 87 21 91 22 88 23
REMARK SMILES IDX 89 24 90 25 92 26 17 27 18 28 19 29 20 30 21 31 22 32 23 33
REMARK SMILES IDX 24 34 85 35 25 36 84 37 26 38 27 39 28 40 78 41 29 42 83 43
REMARK SMILES IDX 77 44 79 45 30 46 82 47 76 48 75 49 31 51 63 52 43 53 62 54
REMARK SMILES IDX 44 55 47 56 61 57 80 58 45 59 46 60 60 62 81 63 48 64 32 65
REMARK SMILES IDX 33 66 41 67 34 68 40 69 42 70 39 71 35 72 36 73 37 74 38 75
REMARK SMILES IDX 64 76 65 77 73 78 66 79 72 80 74 81 71 82 67 83 68 84 69 85
REMARK SMILES IDX 70 86 49 87 50 88 58 89 51 90 57 91 59 92 56 93 52 94 53 95
REMARK SMILES IDX 54 96 55 97
REMARK H PARENT 10 10 79 50 47 61
REMARK Flexibility Score: inf
ROOT
ATOM      1  C   UNL A   1      33.222  27.300  26.181  1.00  0.00     0.202 C 
ENDROOT
BRANCH   1   2
ATOM      2  C   UNL A   1      33.636  25.872  25.815  1.00  0.00     0.261 C 
BRANCH   2   3
ATOM      3  O   UNL A   1      32.524  24.970  25.990  1.00  0.00    -0.461 OA
BRANCH   3   4
ATOM      4  C   UNL A   1      32.281  24.103  24.967  1.00  0.00     0.333 C 
ATOM      5  O   UNL A   1      31.208  23.539  24.773  1.00  0.00    -0.249 OA
BRANCH   4   6
ATOM      6  C   UNL A   1      33.523  23.917  24.048  1.00  0.00     0.223 C 
BRANCH   6   7
ATOM      7  N   UNL A   1      33.309  24.031  22.608  1.00  0.00    -0.339 N 
ATOM      8  C   UNL A   1      33.072  25.156  21.869  1.00  0.00     0.226 C 
ATOM      9  O   UNL A   1      32.902  25.028  20.655  1.00  0.00    -0.275 OA
ATOM     10  H   UNL A   1      33.339  23.187  22.103  1.00  0.00     0.164 HD
BRANCH   8  11
ATOM     11  C   UNL A   1      33.059  26.526  22.521  1.00  0.00     0.157 C 
BRANCH  11  12
ATOM     12  C   UNL A   1      31.673  27.062  22.616  1.00  0.00     0.062 A 
ATOM     13  C   UNL A   1      30.170  28.668  22.354  1.00  0.00     0.150 A 
ATOM     14  N   UNL A   1      31.418  28.332  22.117  1.00  0.00    -0.234 NA
ATOM     15  S   UNL A   1      29.217  27.474  23.132  1.00  0.00    -0.116 S 
ATOM     16  C   UNL A   1      30.580  26.437  23.186  1.00  0.00     0.092 A 
BRANCH  13  17
ATOM     17  S   UNL A   1      29.563  30.268  22.003  1.00  0.00    -0.096 SA
BRANCH  17  18
ATOM     18  C   UNL A   1      27.963  30.262  22.856  1.00  0.00     0.074 C 
ATOM     19  C   UNL A   1      27.637  31.576  23.545  1.00  0.00     0.016 C 
ENDBRANCH  17  18
ENDBRANCH  13  17
ENDBRANCH  11  12
ENDBRANCH   8  11
ENDBRANCH   6   7
BRANCH   6  20
ATOM     20  C   UNL A   1      34.244  22.628  24.304  1.00  0.00     0.012 C 
ATOM     21  C   UNL A   1      35.556  22.379  24.203  1.00  0.00     0.064 C 
ATOM     22  C   UNL A   1      33.669  21.382  24.896  1.00  0.00     0.156 C 
ATOM     23  C   UNL A   1      36.622  23.240  23.626  1.00  0.00     0.069 C 
ATOM     24  N   UNL A   1      35.907  21.169  24.748  1.00  0.00    -0.160 NA
ATOM     25  N   UNL A   1      34.893  20.604  25.241  1.00  0.00    -0.181 NA
ATOM     26  C   UNL A   1      32.878  20.519  23.914  1.00  0.00     0.040 C 
ENDBRANCH   6  20
ENDBRANCH   4   6
ENDBRANCH   3   4
ENDBRANCH   2   3
ENDBRANCH   1   2
BRANCH   1  27
ATOM     27  O   UNL A   1      31.818  27.579  26.126  1.00  0.00    -0.374 OA
BRANCH  27  28
ATOM     28  C   UNL A   1      31.432  28.901  25.776  1.00  0.00     0.202 C 
BRANCH  28  29
ATOM     29  C   UNL A   1      32.458  30.027  25.956  1.00  0.00     0.261 C 
BRANCH  29  30
ATOM     30  O   UNL A   1      32.413  30.630  27.250  1.00  0.00    -0.460 OA
BRANCH  30  31
ATOM     31  C   UNL A   1      33.206  31.723  27.348  1.00  0.00     0.338 C 
ATOM     32  O   UNL A   1      32.856  32.894  27.249  1.00  0.00    -0.246 OA
BRANCH  31  33
ATOM     33  C   UNL A   1      34.557  31.337  27.778  1.00  0.00     0.060 A 
ATOM     34  C   UNL A   1      34.776  29.975  28.004  1.00  0.00     0.016 A 
ATOM     35  C   UNL A   1      35.561  32.278  28.027  1.00  0.00     0.016 A 
ATOM     36  C   UNL A   1      35.972  29.551  28.567  1.00  0.00     0.010 A 
ATOM     37  C   UNL A   1      36.764  31.849  28.597  1.00  0.00     0.010 A 
ATOM     38  C   UNL A   1      36.948  30.493  28.919  1.00  0.00    -0.014 A 
BRANCH  38  39
ATOM     39  C   UNL A   1      38.045  30.052  29.813  1.00  0.00     0.031 A 
ATOM     40  C   UNL A   1      39.060  29.078  29.276  1.00  0.00     0.074 A 
ATOM     41  C   UNL A   1      38.194  30.599  31.033  1.00  0.00     0.049 A 
ATOM     42  N   UNL A   1      40.148  28.619  29.834  1.00  0.00    -0.248 NA
ATOM     43  C   UNL A   1      38.810  28.555  27.922  1.00  0.00     0.031 C 
ATOM     44  C   UNL A   1      37.295  31.590  31.627  1.00  0.00     0.029 A 
ATOM     45  N   UNL A   1      39.168  30.417  31.979  1.00  0.00    -0.354 N 
ATOM     46  C   UNL A   1      40.718  27.760  28.899  1.00  0.00     0.074 A 
ATOM     47  C   UNL A   1      39.826  27.723  27.761  1.00  0.00     0.031 C 
ATOM     48  C   UNL A   1      37.767  31.934  32.837  1.00  0.00     0.029 A 
ATOM     49  C   UNL A   1      38.984  31.172  33.113  1.00  0.00     0.049 A 
ATOM     50  H   UNL A   1      39.928  29.802  31.859  1.00  0.00     0.167 HD
ATOM     51  C   UNL A   1      41.887  27.076  28.978  1.00  0.00     0.034 A 
ATOM     52  C   UNL A   1      39.712  31.230  34.246  1.00  0.00     0.034 A 
ATOM     53  C   UNL A   1      42.757  27.117  30.127  1.00  0.00     0.049 A 
ATOM     54  C   UNL A   1      40.972  30.404  34.340  1.00  0.00     0.074 A 
ATOM     55  C   UNL A   1      43.961  26.465  30.325  1.00  0.00     0.029 A 
ATOM     56  N   UNL A   1      42.507  27.847  31.285  1.00  0.00    -0.354 N 
ATOM     57  N   UNL A   1      41.505  29.600  33.446  1.00  0.00    -0.248 NA
ATOM     58  C   UNL A   1      41.737  30.507  35.587  1.00  0.00     0.031 C 
ATOM     59  C   UNL A   1      44.402  26.743  31.623  1.00  0.00     0.029 A 
ATOM     60  C   UNL A   1      43.518  27.635  32.211  1.00  0.00     0.049 A 
ATOM     61  H   UNL A   1      41.726  28.429  31.427  1.00  0.00     0.167 HD
ATOM     62  C   UNL A   1      42.685  29.127  34.015  1.00  0.00     0.074 A 
ATOM     63  C   UNL A   1      42.793  29.753  35.318  1.00  0.00     0.031 C 
ATOM     64  C   UNL A   1      43.599  28.257  33.512  1.00  0.00     0.034 A 
BRANCH  51  65
ATOM     65  C   UNL A   1      42.250  26.190  27.809  1.00  0.00     0.023 A 
ATOM     66  C   UNL A   1      41.735  24.888  27.674  1.00  0.00     0.031 A 
ATOM     67  C   UNL A   1      43.161  26.640  26.836  1.00  0.00     0.131 A 
ATOM     68  C   UNL A   1      42.189  24.058  26.637  1.00  0.00     0.055 A 
ATOM     69  C   UNL A   1      43.547  25.837  25.761  1.00  0.00     0.041 A 
ATOM     70  F   UNL A   1      43.706  27.863  26.925  1.00  0.00    -0.206 F 
ATOM     71  C   UNL A   1      43.073  24.533  25.665  1.00  0.00     0.022 A 
BRANCH  68  72
ATOM     72  S   UNL A   1      41.724  22.304  26.658  1.00  0.00     0.124 S 
ATOM     73  O   UNL A   1      42.313  21.829  25.408  1.00  0.00    -0.237 OA
ATOM     74  O   UNL A   1      42.352  21.826  27.884  1.00  0.00    -0.237 OA
ATOM     75  O   UNL A   1      40.263  22.337  26.676  1.00  0.00    -0.744 OA
ENDBRANCH  68  72
ENDBRANCH  51  65
BRANCH  52  76
ATOM     76  C   UNL A   1      39.264  32.075  35.391  1.00  0.00     0.023 A 
ATOM     77  C   UNL A   1      39.684  33.408  35.527  1.00  0.00     0.031 A 
ATOM     78  C   UNL A   1      38.449  31.536  36.403  1.00  0.00     0.131 A 
ATOM     79  C   UNL A   1      39.329  34.140  36.672  1.00  0.00     0.055 A 
ATOM     80  C   UNL A   1      38.053  32.285  37.511  1.00  0.00     0.041 A 
ATOM     81  F   UNL A   1      38.018  30.266  36.323  1.00  0.00    -0.206 F 
ATOM     82  C   UNL A   1      38.506  33.592  37.658  1.00  0.00     0.022 A 
BRANCH  79  83
ATOM     83  S   UNL A   1      40.033  35.796  36.899  1.00  0.00     0.124 S 
ATOM     84  O   UNL A   1      39.655  36.454  35.653  1.00  0.00    -0.237 OA
ATOM     85  O   UNL A   1      39.345  36.254  38.101  1.00  0.00    -0.237 OA
ATOM     86  O   UNL A   1      41.462  35.538  37.061  1.00  0.00    -0.744 OA
ENDBRANCH  79  83
ENDBRANCH  52  76
BRANCH  64  87
ATOM     87  C   UNL A   1      44.812  27.973  34.365  1.00  0.00     0.023 A 
ATOM     88  C   UNL A   1      44.810  26.960  35.341  1.00  0.00     0.031 A 
ATOM     89  C   UNL A   1      45.978  28.745  34.218  1.00  0.00     0.131 A 
ATOM     90  C   UNL A   1      45.922  26.796  36.180  1.00  0.00     0.055 A 
ATOM     91  C   UNL A   1      47.108  28.530  35.009  1.00  0.00     0.041 A 
ATOM     92  F   UNL A   1      46.038  29.726  33.303  1.00  0.00    -0.206 F 
ATOM     93  C   UNL A   1      47.077  27.562  36.009  1.00  0.00     0.022 A 
BRANCH  90  94
ATOM     94  S   UNL A   1      45.793  25.647  37.577  1.00  0.00     0.124 S 
ATOM     95  O   UNL A   1      44.559  24.931  37.268  1.00  0.00    -0.237 OA
ATOM     96  O   UNL A   1      47.024  24.874  37.460  1.00  0.00    -0.237 OA
ATOM     97  O   UNL A   1      45.722  26.529  38.741  1.00  0.00    -0.744 OA
ENDBRANCH  90  94
ENDBRANCH  64  87
ENDBRANCH  38  39
ENDBRANCH  31  33
ENDBRANCH  30  31
ENDBRANCH  29  30
ENDBRANCH  28  29
ENDBRANCH  27  28
ENDBRANCH   1  27
TORSDOF 23
ENDMDL
MODEL 2
REMARK VINA RESULT:     -10.3      1.887      2.327
REMARK SMILES CCSc1nc(CC(=O)N[C@@H](C(=O)OCCOCCOC(=O)c2ccc(-c3c4nc(c(-c5cc(S(=O)(=O)[O-])ccc5F)c5ccc([nH]5)c(-c5cc(S(=O)(=O)[O-])ccc5F)c5nc(c(-c6cc(S(=O)(=O)[O-])ccc6F)c6ccc3[nH]6)C=C5)C=C4)cc2)C2=C(C)N=N[C@@H]2C)cs1
REMARK SMILES IDX 16 1 15 2 14 3 12 4 13 5 11 6 10 7 8 8 9 9 7 11 6 12 4 13
REMARK SMILES IDX 5 14 94 15 93 16 3 17 2 18 1 19 86 20 87 21 91 22 88 23
REMARK SMILES IDX 89 24 90 25 92 26 17 27 18 28 19 29 20 30 21 31 22 32 23 33
REMARK SMILES IDX 24 34 85 35 25 36 84 37 26 38 27 39 28 40 78 41 29 42 83 43
REMARK SMILES IDX 77 44 79 45 30 46 82 47 76 48 75 49 31 51 63 52 43 53 62 54
REMARK SMILES IDX 44 55 47 56 61 57 80 58 45 59 46 60 60 62 81 63 48 64 32 65
REMARK SMILES IDX 33 66 41 67 34 68 40 69 42 70 39 71 35 72 36 73 37 74 38 75
REMARK SMILES IDX 64 76 65 77 73 78 66 79 72 80 74 81 71 82 67 83 68 84 69 85
REMARK SMILES IDX 70 86 49 87 50 88 58 89 51 90 57 91 59 92 56 93 52 94 53 95
REMARK SMILES IDX 54 96 55 97
REMARK H PARENT 10 10 79 50 47 61
REMARK Flexibility Score: inf
ROOT
ATOM      1  C   UNL A   1      33.761  27.905  25.630  1.00  0.00     0.202 C 
ENDROOT
BRANCH   1   2
ATOM      2  C   UNL A   1      34.392  26.517  25.491  1.00  0.00     0.261 C 
BRANCH   2   3
ATOM      3  O   UNL A   1      33.567  25.526  26.135  1.00  0.00    -0.461 OA
BRANCH   3   4
ATOM      4  C   UNL A   1      33.298  24.400  25.416  1.00  0.00     0.333 C 
ATOM      5  O   UNL A   1      32.354  23.645  25.629  1.00  0.00    -0.249 OA
BRANCH   4   6
ATOM      6  C   UNL A   1      34.324  24.180  24.266  1.00  0.00     0.223 C 
BRANCH   6   7
ATOM      7  N   UNL A   1      33.787  23.888  22.941  1.00  0.00    -0.339 N 
ATOM      8  C   UNL A   1      33.326  24.761  21.997  1.00  0.00     0.226 C 
ATOM      9  O   UNL A   1      32.897  24.299  20.938  1.00  0.00    -0.275 OA
ATOM     10  H   UNL A   1      33.752  22.935  22.695  1.00  0.00     0.164 HD
BRANCH   8  11
ATOM     11  C   UNL A   1      33.382  26.260  22.232  1.00  0.00     0.157 C 
BRANCH  11  12
ATOM     12  C   UNL A   1      32.025  26.810  22.508  1.00  0.00     0.062 A 
ATOM     13  C   UNL A   1      30.492  28.402  22.376  1.00  0.00     0.150 A 
ATOM     14  N   UNL A   1      31.688  28.043  21.967  1.00  0.00    -0.234 NA
ATOM     15  S   UNL A   1      29.681  27.273  23.378  1.00  0.00    -0.116 S 
ATOM     16  C   UNL A   1      31.040  26.233  23.287  1.00  0.00     0.092 A 
BRANCH  13  17
ATOM     17  S   UNL A   1      29.829  29.977  22.014  1.00  0.00    -0.096 SA
BRANCH  17  18
ATOM     18  C   UNL A   1      28.760  30.277  23.447  1.00  0.00     0.074 C 
ATOM     19  C   UNL A   1      27.282  30.082  23.154  1.00  0.00     0.016 C 
ENDBRANCH  17  18
ENDBRANCH  13  17
ENDBRANCH  11  12
ENDBRANCH   8  11
ENDBRANCH   6   7
BRANCH   6  20
ATOM     20  C   UNL A   1      35.342  23.129  24.592  1.00  0.00     0.012 C 
ATOM     21  C   UNL A   1      35.173  21.802  24.646  1.00  0.00     0.064 C 
ATOM     22  C   UNL A   1      36.814  23.329  24.762  1.00  0.00     0.156 C 
ATOM     23  C   UNL A   1      33.907  21.024  24.595  1.00  0.00     0.069 C 
ATOM     24  N   UNL A   1      36.363  21.122  24.729  1.00  0.00    -0.160 NA
ATOM     25  N   UNL A   1      37.329  21.931  24.701  1.00  0.00    -0.181 NA
ATOM     26  C   UNL A   1      37.227  23.876  26.127  1.00  0.00     0.040 C 
ENDBRANCH   6  20
ENDBRANCH   4   6
ENDBRANCH   3   4
ENDBRANCH   2   3
ENDBRANCH   1   2
BRANCH   1  27
ATOM     27  O   UNL A   1      32.381  27.929  26.018  1.00  0.00    -0.374 OA
BRANCH  27  28
ATOM     28  C   UNL A   1      31.676  29.148  25.831  1.00  0.00     0.202 C 
BRANCH  28  29
ATOM     29  C   UNL A   1      32.446  30.464  26.000  1.00  0.00     0.261 C 
BRANCH  29  30
ATOM     30  O   UNL A   1      32.480  30.928  27.351  1.00  0.00    -0.460 OA
BRANCH  30  31
ATOM     31  C   UNL A   1      33.310  31.983  27.523  1.00  0.00     0.338 C 
ATOM     32  O   UNL A   1      32.997  33.169  27.531  1.00  0.00    -0.246 OA
BRANCH  31  33
ATOM     33  C   UNL A   1      34.656  31.521  27.889  1.00  0.00     0.060 A 
ATOM     34  C   UNL A   1      34.789  30.164  28.199  1.00  0.00     0.016 A 
ATOM     35  C   UNL A   1      35.743  32.394  28.003  1.00  0.00     0.016 A 
ATOM     36  C   UNL A   1      35.987  29.685  28.710  1.00  0.00     0.010 A 
ATOM     37  C   UNL A   1      36.949  31.910  28.521  1.00  0.00     0.010 A 
ATOM     38  C   UNL A   1      37.053  30.568  28.927  1.00  0.00    -0.014 A 
BRANCH  38  39
ATOM     39  C   UNL A   1      38.175  30.102  29.776  1.00  0.00     0.031 A 
ATOM     40  C   UNL A   1      39.149  29.111  29.196  1.00  0.00     0.074 A 
ATOM     41  C   UNL A   1      38.383  30.642  30.990  1.00  0.00     0.049 A 
ATOM     42  N   UNL A   1      40.250  28.628  29.709  1.00  0.00    -0.248 NA
ATOM     43  C   UNL A   1      38.836  28.598  27.852  1.00  0.00     0.031 C 
ATOM     44  C   UNL A   1      37.528  31.647  31.623  1.00  0.00     0.029 A 
ATOM     45  N   UNL A   1      39.389  30.437  31.897  1.00  0.00    -0.354 N 
ATOM     46  C   UNL A   1      40.765  27.762  28.750  1.00  0.00     0.074 A 
ATOM     47  C   UNL A   1      39.829  27.747  27.649  1.00  0.00     0.031 C 
ATOM     48  C   UNL A   1      38.054  31.978  32.814  1.00  0.00     0.029 A 
ATOM     49  C   UNL A   1      39.265  31.191  33.040  1.00  0.00     0.049 A 
ATOM     50  H   UNL A   1      40.132  29.808  31.745  1.00  0.00     0.167 HD
ATOM     51  C   UNL A   1      41.923  27.055  28.781  1.00  0.00     0.034 A 
ATOM     52  C   UNL A   1      40.039  31.231  34.143  1.00  0.00     0.034 A 
ATOM     53  C   UNL A   1      42.837  27.075  29.896  1.00  0.00     0.049 A 
ATOM     54  C   UNL A   1      41.285  30.379  34.185  1.00  0.00     0.074 A 
ATOM     55  C   UNL A   1      44.035  26.398  30.044  1.00  0.00     0.029 A 
ATOM     56  N   UNL A   1      42.648  27.805  31.064  1.00  0.00    -0.354 N 
ATOM     57  N   UNL A   1      41.767  29.569  33.268  1.00  0.00    -0.248 NA
ATOM     58  C   UNL A   1      42.100  30.463  35.402  1.00  0.00     0.031 C 
ATOM     59  C   UNL A   1      44.532  26.663  31.324  1.00  0.00     0.029 A 
ATOM     60  C   UNL A   1      43.690  27.570  31.949  1.00  0.00     0.049 A 
ATOM     61  H   UNL A   1      41.885  28.401  31.239  1.00  0.00     0.167 HD
ATOM     62  C   UNL A   1      42.958  29.071  33.790  1.00  0.00     0.074 A 
ATOM     63  C   UNL A   1      43.129  29.689  35.089  1.00  0.00     0.031 C 
ATOM     64  C   UNL A   1      43.835  28.185  33.247  1.00  0.00     0.034 A 
BRANCH  51  65
ATOM     65  C   UNL A   1      42.221  26.167  27.596  1.00  0.00     0.023 A 
ATOM     66  C   UNL A   1      41.771  24.836  27.531  1.00  0.00     0.031 A 
ATOM     67  C   UNL A   1      43.008  26.646  26.533  1.00  0.00     0.131 A 
ATOM     68  C   UNL A   1      42.171  24.011  26.468  1.00  0.00     0.055 A 
ATOM     69  C   UNL A   1      43.334  25.844  25.437  1.00  0.00     0.041 A 
ATOM     70  F   UNL A   1      43.488  27.899  26.550  1.00  0.00    -0.206 F 
ATOM     71  C   UNL A   1      42.929  24.514  25.407  1.00  0.00     0.022 A 
BRANCH  68  72
ATOM     72  S   UNL A   1      41.811  22.235  26.561  1.00  0.00     0.124 S 
ATOM     73  O   UNL A   1      40.350  22.228  26.535  1.00  0.00    -0.237 OA
ATOM     74  O   UNL A   1      42.475  21.716  25.372  1.00  0.00    -0.237 OA
ATOM     75  O   UNL A   1      42.405  21.831  27.835  1.00  0.00    -0.744 OA
ENDBRANCH  68  72
ENDBRANCH  51  65
BRANCH  52  76
ATOM     76  C   UNL A   1      39.653  32.080  35.308  1.00  0.00     0.023 A 
ATOM     77  C   UNL A   1      38.873  31.572  36.359  1.00  0.00     0.031 A 
ATOM     78  C   UNL A   1      40.017  33.439  35.355  1.00  0.00     0.131 A 
ATOM     79  C   UNL A   1      38.441  32.427  37.386  1.00  0.00     0.055 A 
ATOM     80  C   UNL A   1      39.631  34.271  36.406  1.00  0.00     0.041 A 
ATOM     81  F   UNL A   1      40.763  33.976  34.376  1.00  0.00    -0.206 F 
ATOM     82  C   UNL A   1      38.824  33.770  37.422  1.00  0.00     0.022 A 
BRANCH  79  83
ATOM     83  S   UNL A   1      37.289  31.781  38.630  1.00  0.00     0.124 S 
ATOM     84  O   UNL A   1      38.080  31.891  39.852  1.00  0.00    -0.237 OA
ATOM     85  O   UNL A   1      36.165  32.703  38.508  1.00  0.00    -0.237 OA
ATOM     86  O   UNL A   1      37.028  30.418  38.175  1.00  0.00    -0.744 OA
ENDBRANCH  79  83
ENDBRANCH  52  76
BRANCH  64  87
ATOM     87  C   UNL A   1      45.075  27.874  34.051  1.00  0.00     0.023 A 
ATOM     88  C   UNL A   1      46.255  28.627  33.912  1.00  0.00     0.031 A 
ATOM     89  C   UNL A   1      45.084  26.791  34.948  1.00  0.00     0.131 A 
ATOM     90  C   UNL A   1      47.414  28.242  34.603  1.00  0.00     0.055 A 
ATOM     91  C   UNL A   1      46.221  26.456  35.685  1.00  0.00     0.041 A 
ATOM     92  F   UNL A   1      43.987  26.037  35.121  1.00  0.00    -0.206 F 
ATOM     93  C   UNL A   1      47.399  27.173  35.502  1.00  0.00     0.022 A 
BRANCH  90  94
ATOM     94  S   UNL A   1      48.973  29.086  34.219  1.00  0.00     0.124 S 
ATOM     95  O   UNL A   1      48.510  30.258  33.483  1.00  0.00    -0.237 OA
ATOM     96  O   UNL A   1      49.523  29.343  35.545  1.00  0.00    -0.237 OA
ATOM     97  O   UNL A   1      49.707  28.104  33.423  1.00  0.00    -0.744 OA
ENDBRANCH  90  94
ENDBRANCH  64  87
ENDBRANCH  38  39
ENDBRANCH  31  33
ENDBRANCH  30  31
ENDBRANCH  29  30
ENDBRANCH  28  29
ENDBRANCH  27  28
ENDBRANCH   1  27
TORSDOF 23
ENDMDL
MODEL 3
REMARK VINA RESULT:      -9.9      2.864      4.545
REMARK SMILES CCSc1nc(CC(=O)N[C@@H](C(=O)OCCOCCOC(=O)c2ccc(-c3c4nc(c(-c5cc(S(=O)(=O)[O-])ccc5F)c5ccc([nH]5)c(-c5cc(S(=O)(=O)[O-])ccc5F)c5nc(c(-c6cc(S(=O)(=O)[O-])ccc6F)c6ccc3[nH]6)C=C5)C=C4)cc2)C2=C(C)N=N[C@@H]2C)cs1
REMARK SMILES IDX 16 1 15 2 14 3 12 4 13 5 11 6 10 7 8 8 9 9 7 11 6 12 4 13
REMARK SMILES IDX 5 14 94 15 93 16 3 17 2 18 1 19 86 20 87 21 91 22 88 23
REMARK SMILES IDX 89 24 90 25 92 26 17 27 18 28 19 29 20 30 21 31 22 32 23 33
REMARK SMILES IDX 24 34 85 35 25 36 84 37 26 38 27 39 28 40 78 41 29 42 83 43
REMARK SMILES IDX 77 44 79 45 30 46 82 47 76 48 75 49 31 51 63 52 43 53 62 54
REMARK SMILES IDX 44 55 47 56 61 57 80 58 45 59 46 60 60 62 81 63 48 64 32 65
REMARK SMILES IDX 33 66 41 67 34 68 40 69 42 70 39 71 35 72 36 73 37 74 38 75
REMARK SMILES IDX 64 76 65 77 73 78 66 79 72 80 74 81 71 82 67 83 68 84 69 85
REMARK SMILES IDX 70 86 49 87 50 88 58 89 51 90 57 91 59 92 56 93 52 94 53 95
REMARK SMILES IDX 54 96 55 97
REMARK H PARENT 10 10 79 50 47 61
REMARK Flexibility Score: inf
ROOT
ATOM      1  C   UNL A   1      30.332  31.353  24.722  1.00  0.00     0.202 C 
ENDROOT
BRANCH   1   2
ATOM      2  C   UNL A   1      29.612  30.557  23.631  1.00  0.00     0.261 C 
BRANCH   2   3
ATOM      3  O   UNL A   1      29.566  29.158  23.982  1.00  0.00    -0.461 OA
BRANCH   3   4
ATOM      4  C   UNL A   1      30.133  28.292  23.095  1.00  0.00     0.333 C 
ATOM      5  O   UNL A   1      29.967  28.331  21.880  1.00  0.00    -0.249 OA
BRANCH   4   6
ATOM      6  C   UNL A   1      31.042  27.244  23.800  1.00  0.00     0.223 C 
BRANCH   6   7
ATOM      7  N   UNL A   1      31.828  27.704  24.941  1.00  0.00    -0.339 N 
ATOM      8  C   UNL A   1      32.036  27.080  26.139  1.00  0.00     0.226 C 
ATOM      9  O   UNL A   1      32.728  27.655  26.981  1.00  0.00    -0.275 OA
ATOM     10  H   UNL A   1      32.265  28.579  24.834  1.00  0.00     0.164 HD
BRANCH   8  11
ATOM     11  C   UNL A   1      31.466  25.698  26.405  1.00  0.00     0.157 C 
BRANCH  11  12
ATOM     12  C   UNL A   1      32.517  24.651  26.279  1.00  0.00     0.062 A 
ATOM     13  C   UNL A   1      34.323  23.791  25.327  1.00  0.00     0.150 A 
ATOM     14  N   UNL A   1      33.535  24.842  25.355  1.00  0.00    -0.234 NA
ATOM     15  S   UNL A   1      33.931  22.543  26.435  1.00  0.00    -0.116 S 
ATOM     16  C   UNL A   1      32.588  23.460  26.976  1.00  0.00     0.092 A 
BRANCH  13  17
ATOM     17  S   UNL A   1      35.609  23.633  24.156  1.00  0.00    -0.096 SA
BRANCH  17  18
ATOM     18  C   UNL A   1      36.934  22.889  25.146  1.00  0.00     0.074 C 
ATOM     19  C   UNL A   1      37.541  23.842  26.162  1.00  0.00     0.016 C 
ENDBRANCH  17  18
ENDBRANCH  13  17
ENDBRANCH  11  12
ENDBRANCH   8  11
ENDBRANCH   6   7
BRANCH   6  20
ATOM     20  C   UNL A   1      31.974  26.554  22.849  1.00  0.00     0.012 C 
ATOM     21  C   UNL A   1      31.949  25.277  22.445  1.00  0.00     0.064 C 
ATOM     22  C   UNL A   1      33.035  27.193  22.012  1.00  0.00     0.156 C 
ATOM     23  C   UNL A   1      31.127  24.154  22.970  1.00  0.00     0.069 C 
ATOM     24  N   UNL A   1      32.790  25.042  21.387  1.00  0.00    -0.160 NA
ATOM     25  N   UNL A   1      33.359  26.112  21.037  1.00  0.00    -0.181 NA
ATOM     26  C   UNL A   1      34.333  27.498  22.757  1.00  0.00     0.040 C 
ENDBRANCH   6  20
ENDBRANCH   4   6
ENDBRANCH   3   4
ENDBRANCH   2   3
ENDBRANCH   1   2
BRANCH   1  27
ATOM     27  O   UNL A   1      30.979  30.579  25.739  1.00  0.00    -0.374 OA
BRANCH  27  28
ATOM     28  C   UNL A   1      32.197  31.088  26.266  1.00  0.00     0.202 C 
BRANCH  28  29
ATOM     29  C   UNL A   1      32.129  32.287  27.220  1.00  0.00     0.261 C 
BRANCH  29  30
ATOM     30  O   UNL A   1      33.381  32.957  27.375  1.00  0.00    -0.460 OA
BRANCH  30  31
ATOM     31  C   UNL A   1      33.333  33.956  28.287  1.00  0.00     0.338 C 
ATOM     32  O   UNL A   1      32.490  34.844  28.359  1.00  0.00    -0.246 OA
BRANCH  31  33
ATOM     33  C   UNL A   1      34.347  33.744  29.330  1.00  0.00     0.060 A 
ATOM     34  C   UNL A   1      35.678  33.962  28.962  1.00  0.00     0.016 A 
ATOM     35  C   UNL A   1      34.021  33.276  30.607  1.00  0.00     0.016 A 
ATOM     36  C   UNL A   1      36.701  33.627  29.838  1.00  0.00     0.010 A 
ATOM     37  C   UNL A   1      35.054  32.936  31.488  1.00  0.00     0.010 A 
ATOM     38  C   UNL A   1      36.394  33.060  31.082  1.00  0.00    -0.014 A 
BRANCH  38  39
ATOM     39  C   UNL A   1      37.493  32.410  31.836  1.00  0.00     0.031 A 
ATOM     40  C   UNL A   1      38.249  31.288  31.175  1.00  0.00     0.074 A 
ATOM     41  C   UNL A   1      37.878  32.890  33.031  1.00  0.00     0.049 A 
ATOM     42  N   UNL A   1      39.297  30.631  31.595  1.00  0.00    -0.248 NA
ATOM     43  C   UNL A   1      37.754  30.853  29.858  1.00  0.00     0.031 C 
ATOM     44  C   UNL A   1      37.245  34.006  33.735  1.00  0.00     0.029 A 
ATOM     45  N   UNL A   1      38.909  32.514  33.853  1.00  0.00    -0.354 N 
ATOM     46  C   UNL A   1      39.592  29.710  30.594  1.00  0.00     0.074 A 
ATOM     47  C   UNL A   1      38.581  29.861  29.572  1.00  0.00     0.031 C 
ATOM     48  C   UNL A   1      37.909  34.230  34.881  1.00  0.00     0.029 A 
ATOM     49  C   UNL A   1      38.995  33.259  35.005  1.00  0.00     0.049 A 
ATOM     50  H   UNL A   1      39.529  31.779  33.639  1.00  0.00     0.167 HD
ATOM     51  C   UNL A   1      40.623  28.831  30.528  1.00  0.00     0.034 A 
ATOM     52  C   UNL A   1      39.851  33.159  36.043  1.00  0.00     0.034 A 
ATOM     53  C   UNL A   1      41.614  28.688  31.565  1.00  0.00     0.049 A 
ATOM     54  C   UNL A   1      40.947  32.122  35.980  1.00  0.00     0.074 A 
ATOM     55  C   UNL A   1      42.699  27.830  31.613  1.00  0.00     0.029 A 
ATOM     56  N   UNL A   1      41.635  29.419  32.748  1.00  0.00    -0.354 N 
ATOM     57  N   UNL A   1      41.220  31.262  35.024  1.00  0.00    -0.248 NA
ATOM     58  C   UNL A   1      41.858  32.056  37.127  1.00  0.00     0.031 C 
ATOM     59  C   UNL A   1      43.331  27.991  32.850  1.00  0.00     0.029 A 
ATOM     60  C   UNL A   1      42.694  29.009  33.545  1.00  0.00     0.049 A 
ATOM     61  H   UNL A   1      40.992  30.124  32.986  1.00  0.00     0.167 HD
ATOM     62  C   UNL A   1      42.356  30.574  35.445  1.00  0.00     0.074 A 
ATOM     63  C   UNL A   1      42.725  31.136  36.729  1.00  0.00     0.031 C 
ATOM     64  C   UNL A   1      43.037  29.572  34.830  1.00  0.00     0.034 A 
BRANCH  51  65
ATOM     65  C   UNL A   1      40.683  27.927  29.319  1.00  0.00     0.023 A 
ATOM     66  C   UNL A   1      41.590  28.149  28.267  1.00  0.00     0.031 A 
ATOM     67  C   UNL A   1      39.789  26.848  29.197  1.00  0.00     0.131 A 
ATOM     68  C   UNL A   1      41.533  27.356  27.111  1.00  0.00     0.055 A 
ATOM     69  C   UNL A   1      39.790  26.012  28.079  1.00  0.00     0.041 A 
ATOM     70  F   UNL A   1      38.882  26.600  30.156  1.00  0.00    -0.206 F 
ATOM     71  C   UNL A   1      40.655  26.272  27.020  1.00  0.00     0.022 A 
BRANCH  68  72
ATOM     72  S   UNL A   1      42.515  27.847  25.667  1.00  0.00     0.124 S 
ATOM     73  O   UNL A   1      43.815  28.123  26.276  1.00  0.00    -0.237 OA
ATOM     74  O   UNL A   1      42.444  26.664  24.819  1.00  0.00    -0.237 OA
ATOM     75  O   UNL A   1      41.813  29.024  25.158  1.00  0.00    -0.744 OA
ENDBRANCH  68  72
ENDBRANCH  51  65
BRANCH  52  76
ATOM     76  C   UNL A   1      39.697  34.038  37.238  1.00  0.00     0.023 A 
ATOM     77  C   UNL A   1      39.092  33.573  38.417  1.00  0.00     0.031 A 
ATOM     78  C   UNL A   1      40.106  35.384  37.195  1.00  0.00     0.131 A 
ATOM     79  C   UNL A   1      38.869  34.458  39.485  1.00  0.00     0.055 A 
ATOM     80  C   UNL A   1      39.932  36.245  38.279  1.00  0.00     0.041 A 
ATOM     81  F   UNL A   1      40.690  35.880  36.092  1.00  0.00    -0.206 F 
ATOM     82  C   UNL A   1      39.296  35.787  39.428  1.00  0.00     0.022 A 
BRANCH  79  83
ATOM     83  S   UNL A   1      37.928  33.871  40.920  1.00  0.00     0.124 S 
ATOM     84  O   UNL A   1      38.937  33.103  41.643  1.00  0.00    -0.237 OA
ATOM     85  O   UNL A   1      37.510  35.124  41.539  1.00  0.00    -0.237 OA
ATOM     86  O   UNL A   1      36.853  33.083  40.322  1.00  0.00    -0.744 OA
ENDBRANCH  79  83
ENDBRANCH  52  76
BRANCH  64  87
ATOM     87  C   UNL A   1      44.272  29.057  35.530  1.00  0.00     0.023 A 
ATOM     88  C   UNL A   1      44.200  28.054  36.514  1.00  0.00     0.031 A 
ATOM     89  C   UNL A   1      45.534  29.596  35.227  1.00  0.00     0.131 A 
ATOM     90  C   UNL A   1      45.358  27.676  37.211  1.00  0.00     0.055 A 
ATOM     91  C   UNL A   1      46.693  29.165  35.874  1.00  0.00     0.041 A 
ATOM     92  F   UNL A   1      45.662  30.556  34.297  1.00  0.00    -0.206 F 
ATOM     93  C   UNL A   1      46.606  28.212  36.885  1.00  0.00     0.022 A 
BRANCH  90  94
ATOM     94  S   UNL A   1      45.191  26.560  38.631  1.00  0.00     0.124 S 
ATOM     95  O   UNL A   1      45.748  25.317  38.106  1.00  0.00    -0.237 OA
ATOM     96  O   UNL A   1      45.985  27.234  39.652  1.00  0.00    -0.237 OA
ATOM     97  O   UNL A   1      43.751  26.537  38.880  1.00  0.00    -0.744 OA
ENDBRANCH  90  94
ENDBRANCH  64  87
ENDBRANCH  38  39
ENDBRANCH  31  33
ENDBRANCH  30  31
ENDBRANCH  29  30
ENDBRANCH  28  29
ENDBRANCH  27  28
ENDBRANCH   1  27
TORSDOF 23
ENDMDL
