MODEL 1
REMARK VINA RESULT:     -11.2      0.000      0.000
REMARK SMILES CO[C@@H]1C[C@H](C(=O)OCCOCCOC(=O)c2ccc(-c3c4nc(c(-c5cc(S(=O)(=O)[O-])ccc5F)c5ccc([nH]5)c(-c5cc(S(=O)(=O)[O-])ccc5F)c5nc(c(-c6cc(S(=O)(=O)[O-])ccc6F)c6ccc3[nH]6)C=C5)C=C4)cc2)N(C(=O)c2ccn(C)c(=O)c2)C1
REMARK SMILES IDX 12 1 11 2 10 3 9 4 8 5 6 6 7 7 5 8 3 9 4 10 91 11 80 12 2 13
REMARK SMILES IDX 1 14 81 15 82 16 83 17 84 18 90 19 85 20 88 21 86 22 89 23
REMARK SMILES IDX 87 24 13 25 14 26 15 27 16 28 17 29 18 30 79 31 19 32 78 33
REMARK SMILES IDX 20 34 21 35 22 36 72 37 23 38 77 39 71 40 73 41 24 42 76 43
REMARK SMILES IDX 70 44 69 45 25 47 57 48 37 49 56 50 38 51 41 52 55 53 74 54
REMARK SMILES IDX 39 55 40 56 54 58 75 59 42 60 26 61 27 62 35 63 28 64 34 65
REMARK SMILES IDX 36 66 33 67 29 68 30 69 31 70 32 71 58 72 59 73 67 74 60 75
REMARK SMILES IDX 66 76 68 77 65 78 61 79 62 80 63 81 64 82 43 83 44 84 52 85
REMARK SMILES IDX 45 86 51 87 53 88 50 89 46 90 47 91 48 92 49 93
REMARK H PARENT 73 46 41 57
REMARK Flexibility Score: inf
ROOT
ATOM      1  C   UNL A   1      37.246  19.841  24.991  1.00  0.00     0.202 C 
ENDROOT
BRANCH   1   2
ATOM      2  O   UNL A   1      36.715  21.118  25.329  1.00  0.00    -0.374 OA
BRANCH   2   3
ATOM      3  C   UNL A   1      37.019  22.212  24.460  1.00  0.00     0.202 C 
BRANCH   3   4
ATOM      4  C   UNL A   1      35.999  23.350  24.462  1.00  0.00     0.261 C 
BRANCH   4   5
ATOM      5  O   UNL A   1      35.373  23.426  25.758  1.00  0.00    -0.462 OA
BRANCH   5   6
ATOM      6  C   UNL A   1      34.155  24.015  25.801  1.00  0.00     0.329 C 
ATOM      7  O   UNL A   1      33.964  25.223  25.708  1.00  0.00    -0.250 OA
BRANCH   6   8
ATOM      8  C   UNL A   1      33.018  23.004  26.009  1.00  0.00     0.198 C 
ATOM      9  C   UNL A   1      30.681  23.683  26.316  1.00  0.00     0.140 C 
ATOM     10  C   UNL A   1      31.971  23.351  27.071  1.00  0.00     0.071 C 
ATOM     11  C   UNL A   1      30.979  23.460  24.829  1.00  0.00     0.152 C 
ATOM     12  N   UNL A   1      32.270  22.792  24.777  1.00  0.00    -0.322 N 
BRANCH   9  13
ATOM     13  O   UNL A   1      30.090  24.930  26.659  1.00  0.00    -0.380 OA
ATOM     14  C   UNL A   1      30.592  26.098  26.027  1.00  0.00     0.195 C 
ENDBRANCH   9  13
BRANCH  12  15
ATOM     15  C   UNL A   1      32.675  22.106  23.653  1.00  0.00     0.254 C 
ATOM     16  O   UNL A   1      32.953  22.662  22.593  1.00  0.00    -0.269 OA
BRANCH  15  17
ATOM     17  C   UNL A   1      32.813  20.627  23.761  1.00  0.00     0.046 A 
ATOM     18  C   UNL A   1      33.407  20.037  24.937  1.00  0.00     0.032 A 
ATOM     19  C   UNL A   1      32.396  19.860  22.744  1.00  0.00     0.085 A 
ATOM     20  C   UNL A   1      33.499  18.706  25.036  1.00  0.00     0.089 A 
ATOM     21  C   UNL A   1      32.469  18.381  22.857  1.00  0.00     0.251 A 
ATOM     22  N   UNL A   1      33.042  17.880  24.024  1.00  0.00    -0.319 N 
ATOM     23  O   UNL A   1      32.025  17.698  21.938  1.00  0.00    -0.269 OA
ATOM     24  C   UNL A   1      33.167  16.442  24.193  1.00  0.00     0.153 C 
ENDBRANCH  15  17
ENDBRANCH  12  15
ENDBRANCH   6   8
ENDBRANCH   5   6
ENDBRANCH   4   5
ENDBRANCH   3   4
ENDBRANCH   2   3
ENDBRANCH   1   2
BRANCH   1  25
ATOM     25  C   UNL A   1      38.756  19.642  25.181  1.00  0.00     0.261 C 
BRANCH  25  26
ATOM     26  O   UNL A   1      39.214  20.074  26.473  1.00  0.00    -0.460 OA
BRANCH  26  27
ATOM     27  C   UNL A   1      40.536  20.371  26.519  1.00  0.00     0.338 C 
ATOM     28  O   UNL A   1      41.446  19.710  26.036  1.00  0.00    -0.246 OA
BRANCH  27  29
ATOM     29  C   UNL A   1      40.749  21.723  27.070  1.00  0.00     0.060 A 
ATOM     30  C   UNL A   1      40.123  22.787  26.408  1.00  0.00     0.016 A 
ATOM     31  C   UNL A   1      41.592  21.966  28.158  1.00  0.00     0.016 A 
ATOM     32  C   UNL A   1      40.389  24.100  26.787  1.00  0.00     0.010 A 
ATOM     33  C   UNL A   1      41.858  23.288  28.537  1.00  0.00     0.010 A 
ATOM     34  C   UNL A   1      41.290  24.363  27.828  1.00  0.00    -0.014 A 
BRANCH  34  35
ATOM     35  C   UNL A   1      41.739  25.759  28.064  1.00  0.00     0.031 A 
ATOM     36  C   UNL A   1      43.102  26.183  27.584  1.00  0.00     0.074 A 
ATOM     37  C   UNL A   1      40.920  26.659  28.638  1.00  0.00     0.049 A 
ATOM     38  N   UNL A   1      43.703  27.340  27.704  1.00  0.00    -0.248 NA
ATOM     39  C   UNL A   1      43.889  25.166  26.871  1.00  0.00     0.031 C 
ATOM     40  C   UNL A   1      39.555  26.388  29.088  1.00  0.00     0.029 A 
ATOM     41  N   UNL A   1      41.114  27.986  28.932  1.00  0.00    -0.354 N 
ATOM     42  C   UNL A   1      44.938  27.192  27.080  1.00  0.00     0.074 A 
ATOM     43  C   UNL A   1      45.016  25.819  26.626  1.00  0.00     0.031 C 
ATOM     44  C   UNL A   1      39.035  27.515  29.602  1.00  0.00     0.029 A 
ATOM     45  C   UNL A   1      40.041  28.575  29.558  1.00  0.00     0.049 A 
ATOM     46  H   UNL A   1      41.944  28.469  28.716  1.00  0.00     0.167 HD
ATOM     47  C   UNL A   1      45.910  28.118  26.890  1.00  0.00     0.034 A 
ATOM     48  C   UNL A   1      39.893  29.818  30.060  1.00  0.00     0.034 A 
ATOM     49  C   UNL A   1      45.828  29.480  27.360  1.00  0.00     0.049 A 
ATOM     50  C   UNL A   1      41.029  30.804  29.932  1.00  0.00     0.074 A 
ATOM     51  C   UNL A   1      46.764  30.493  27.235  1.00  0.00     0.029 A 
ATOM     52  N   UNL A   1      44.751  30.022  28.052  1.00  0.00    -0.354 N 
ATOM     53  N   UNL A   1      42.205  30.642  29.371  1.00  0.00    -0.248 NA
ATOM     54  C   UNL A   1      40.813  32.141  30.499  1.00  0.00     0.031 C 
ATOM     55  C   UNL A   1      46.286  31.620  27.912  1.00  0.00     0.029 A 
ATOM     56  C   UNL A   1      45.013  31.343  28.384  1.00  0.00     0.049 A 
ATOM     57  H   UNL A   1      43.923  29.538  28.275  1.00  0.00     0.167 HD
ATOM     58  C   UNL A   1      42.857  31.868  29.492  1.00  0.00     0.074 A 
ATOM     59  C   UNL A   1      41.937  32.760  30.169  1.00  0.00     0.031 C 
ATOM     60  C   UNL A   1      44.098  32.224  29.074  1.00  0.00     0.034 A 
BRANCH  47  61
ATOM     61  C   UNL A   1      47.166  27.671  26.179  1.00  0.00     0.023 A 
ATOM     62  C   UNL A   1      47.367  27.919  24.810  1.00  0.00     0.031 A 
ATOM     63  C   UNL A   1      48.168  26.973  26.875  1.00  0.00     0.131 A 
ATOM     64  C   UNL A   1      48.511  27.420  24.169  1.00  0.00     0.055 A 
ATOM     65  C   UNL A   1      49.342  26.548  26.250  1.00  0.00     0.041 A 
ATOM     66  F   UNL A   1      48.021  26.684  28.179  1.00  0.00    -0.206 F 
ATOM     67  C   UNL A   1      49.513  26.759  24.885  1.00  0.00     0.022 A 
BRANCH  64  68
ATOM     68  S   UNL A   1      48.609  27.527  22.361  1.00  0.00     0.124 S 
ATOM     69  O   UNL A   1      49.858  28.261  22.177  1.00  0.00    -0.237 OA
ATOM     70  O   UNL A   1      48.627  26.124  21.962  1.00  0.00    -0.237 OA
ATOM     71  O   UNL A   1      47.402  28.264  21.995  1.00  0.00    -0.744 OA
ENDBRANCH  64  68
ENDBRANCH  47  61
BRANCH  48  72
ATOM     72  C   UNL A   1      38.636  30.193  30.768  1.00  0.00     0.023 A 
ATOM     73  C   UNL A   1      37.620  30.911  30.119  1.00  0.00     0.031 A 
ATOM     74  C   UNL A   1      38.447  29.857  32.121  1.00  0.00     0.131 A 
ATOM     75  C   UNL A   1      36.474  31.297  30.832  1.00  0.00     0.055 A 
ATOM     76  C   UNL A   1      37.284  30.200  32.812  1.00  0.00     0.041 A 
ATOM     77  F   UNL A   1      39.390  29.172  32.788  1.00  0.00    -0.206 F 
ATOM     78  C   UNL A   1      36.293  30.934  32.169  1.00  0.00     0.022 A 
BRANCH  75  79
ATOM     79  S   UNL A   1      35.243  32.341  30.002  1.00  0.00     0.124 S 
ATOM     80  O   UNL A   1      34.307  32.615  31.086  1.00  0.00    -0.237 OA
ATOM     81  O   UNL A   1      36.055  33.467  29.554  1.00  0.00    -0.237 OA
ATOM     82  O   UNL A   1      34.732  31.482  28.936  1.00  0.00    -0.744 OA
ENDBRANCH  75  79
ENDBRANCH  48  72
BRANCH  60  83
ATOM     83  C   UNL A   1      44.521  33.658  29.296  1.00  0.00     0.023 A 
ATOM     84  C   UNL A   1      44.089  34.700  28.458  1.00  0.00     0.031 A 
ATOM     85  C   UNL A   1      45.373  33.984  30.368  1.00  0.00     0.131 A 
ATOM     86  C   UNL A   1      44.553  36.008  28.671  1.00  0.00     0.055 A 
ATOM     87  C   UNL A   1      45.779  35.297  30.614  1.00  0.00     0.041 A 
ATOM     88  F   UNL A   1      45.820  33.030  31.201  1.00  0.00    -0.206 F 
ATOM     89  C   UNL A   1      45.380  36.316  29.754  1.00  0.00     0.022 A 
BRANCH  86  90
ATOM     90  S   UNL A   1      44.142  37.288  27.453  1.00  0.00     0.124 S 
ATOM     91  O   UNL A   1      45.447  37.584  26.872  1.00  0.00    -0.237 OA
ATOM     92  O   UNL A   1      43.197  36.596  26.581  1.00  0.00    -0.237 OA
ATOM     93  O   UNL A   1      43.566  38.360  28.263  1.00  0.00    -0.744 OA
ENDBRANCH  86  90
ENDBRANCH  60  83
ENDBRANCH  34  35
ENDBRANCH  27  29
ENDBRANCH  26  27
ENDBRANCH  25  26
ENDBRANCH   1  25
TORSDOF 20
ENDMDL
MODEL 2
REMARK VINA RESULT:     -10.9      5.005     10.309
REMARK SMILES CO[C@@H]1C[C@H](C(=O)OCCOCCOC(=O)c2ccc(-c3c4nc(c(-c5cc(S(=O)(=O)[O-])ccc5F)c5ccc([nH]5)c(-c5cc(S(=O)(=O)[O-])ccc5F)c5nc(c(-c6cc(S(=O)(=O)[O-])ccc6F)c6ccc3[nH]6)C=C5)C=C4)cc2)N(C(=O)c2ccn(C)c(=O)c2)C1
REMARK SMILES IDX 12 1 11 2 10 3 9 4 8 5 6 6 7 7 5 8 3 9 4 10 91 11 80 12 2 13
REMARK SMILES IDX 1 14 81 15 82 16 83 17 84 18 90 19 85 20 88 21 86 22 89 23
REMARK SMILES IDX 87 24 13 25 14 26 15 27 16 28 17 29 18 30 79 31 19 32 78 33
REMARK SMILES IDX 20 34 21 35 22 36 72 37 23 38 77 39 71 40 73 41 24 42 76 43
REMARK SMILES IDX 70 44 69 45 25 47 57 48 37 49 56 50 38 51 41 52 55 53 74 54
REMARK SMILES IDX 39 55 40 56 54 58 75 59 42 60 26 61 27 62 35 63 28 64 34 65
REMARK SMILES IDX 36 66 33 67 29 68 30 69 31 70 32 71 58 72 59 73 67 74 60 75
REMARK SMILES IDX 66 76 68 77 65 78 61 79 62 80 63 81 64 82 43 83 44 84 52 85
REMARK SMILES IDX 45 86 51 87 53 88 50 89 46 90 47 91 48 92 49 93
REMARK H PARENT 73 46 41 57
REMARK Flexibility Score: inf
ROOT
ATOM      1  C   UNL A   1      31.816  31.169  26.899  1.00  0.00     0.202 C 
ENDROOT
BRANCH   1   2
ATOM      2  O   UNL A   1      32.144  30.471  25.702  1.00  0.00    -0.374 OA
BRANCH   2   3
ATOM      3  C   UNL A   1      33.208  29.518  25.763  1.00  0.00     0.202 C 
BRANCH   3   4
ATOM      4  C   UNL A   1      32.942  28.196  25.043  1.00  0.00     0.261 C 
BRANCH   4   5
ATOM      5  O   UNL A   1      31.537  27.884  25.123  1.00  0.00    -0.462 OA
BRANCH   5   6
ATOM      6  C   UNL A   1      31.182  26.955  26.041  1.00  0.00     0.329 C 
ATOM      7  O   UNL A   1      31.359  27.068  27.249  1.00  0.00    -0.250 OA
BRANCH   6   8
ATOM      8  C   UNL A   1      30.546  25.710  25.403  1.00  0.00     0.198 C 
ATOM      9  C   UNL A   1      30.888  25.107  23.051  1.00  0.00     0.140 C 
ATOM     10  C   UNL A   1      29.963  25.877  23.998  1.00  0.00     0.071 C 
ATOM     11  C   UNL A   1      31.957  24.449  23.929  1.00  0.00     0.152 C 
ATOM     12  N   UNL A   1      31.508  24.622  25.302  1.00  0.00    -0.322 N 
BRANCH   9  13
ATOM     13  O   UNL A   1      31.360  25.853  21.936  1.00  0.00    -0.380 OA
ATOM     14  C   UNL A   1      32.664  26.409  22.015  1.00  0.00     0.195 C 
ENDBRANCH   9  13
BRANCH  12  15
ATOM     15  C   UNL A   1      32.010  23.843  26.321  1.00  0.00     0.254 C 
ATOM     16  O   UNL A   1      31.468  23.748  27.420  1.00  0.00    -0.269 OA
BRANCH  15  17
ATOM     17  C   UNL A   1      33.245  23.058  26.045  1.00  0.00     0.046 A 
ATOM     18  C   UNL A   1      33.151  21.724  25.501  1.00  0.00     0.032 A 
ATOM     19  C   UNL A   1      34.436  23.602  26.327  1.00  0.00     0.085 A 
ATOM     20  C   UNL A   1      34.268  21.039  25.229  1.00  0.00     0.089 A 
ATOM     21  C   UNL A   1      35.682  22.860  26.002  1.00  0.00     0.251 A 
ATOM     22  N   UNL A   1      35.517  21.584  25.468  1.00  0.00    -0.319 N 
ATOM     23  O   UNL A   1      36.763  23.404  26.214  1.00  0.00    -0.269 OA
ATOM     24  C   UNL A   1      36.693  20.791  25.148  1.00  0.00     0.153 C 
ENDBRANCH  15  17
ENDBRANCH  12  15
ENDBRANCH   6   8
ENDBRANCH   5   6
ENDBRANCH   4   5
ENDBRANCH   3   4
ENDBRANCH   2   3
ENDBRANCH   1   2
BRANCH   1  25
ATOM     25  C   UNL A   1      31.588  32.681  26.783  1.00  0.00     0.261 C 
BRANCH  25  26
ATOM     26  O   UNL A   1      32.817  33.427  26.738  1.00  0.00    -0.460 OA
BRANCH  26  27
ATOM     27  C   UNL A   1      33.279  33.803  27.955  1.00  0.00     0.338 C 
ATOM     28  O   UNL A   1      32.693  34.505  28.769  1.00  0.00    -0.246 OA
BRANCH  27  29
ATOM     29  C   UNL A   1      34.530  33.093  28.282  1.00  0.00     0.060 A 
ATOM     30  C   UNL A   1      34.412  31.789  28.780  1.00  0.00     0.016 A 
ATOM     31  C   UNL A   1      35.785  33.698  28.177  1.00  0.00     0.016 A 
ATOM     32  C   UNL A   1      35.538  31.110  29.237  1.00  0.00     0.010 A 
ATOM     33  C   UNL A   1      36.917  33.012  28.639  1.00  0.00     0.010 A 
ATOM     34  C   UNL A   1      36.794  31.732  29.208  1.00  0.00    -0.014 A 
BRANCH  34  35
ATOM     35  C   UNL A   1      37.937  31.091  29.909  1.00  0.00     0.031 A 
ATOM     36  C   UNL A   1      38.239  31.483  31.331  1.00  0.00     0.074 A 
ATOM     37  C   UNL A   1      38.657  30.124  29.312  1.00  0.00     0.049 A 
ATOM     38  N   UNL A   1      39.198  31.072  32.121  1.00  0.00    -0.248 NA
ATOM     39  C   UNL A   1      37.336  32.470  31.943  1.00  0.00     0.031 C 
ATOM     40  C   UNL A   1      38.423  29.612  27.962  1.00  0.00     0.029 A 
ATOM     41  N   UNL A   1      39.726  29.393  29.769  1.00  0.00    -0.354 N 
ATOM     42  C   UNL A   1      39.013  31.746  33.325  1.00  0.00     0.074 A 
ATOM     43  C   UNL A   1      37.879  32.627  33.141  1.00  0.00     0.031 C 
ATOM     44  C   UNL A   1      39.324  28.649  27.701  1.00  0.00     0.029 A 
ATOM     45  C   UNL A   1      40.223  28.506  28.844  1.00  0.00     0.049 A 
ATOM     46  H   UNL A   1      40.101  29.496  30.673  1.00  0.00     0.167 HD
ATOM     47  C   UNL A   1      39.714  31.630  34.480  1.00  0.00     0.034 A 
ATOM     48  C   UNL A   1      41.295  27.689  28.901  1.00  0.00     0.034 A 
ATOM     49  C   UNL A   1      40.853  30.758  34.646  1.00  0.00     0.049 A 
ATOM     50  C   UNL A   1      42.127  27.653  30.160  1.00  0.00     0.074 A 
ATOM     51  C   UNL A   1      41.643  30.578  35.770  1.00  0.00     0.029 A 
ATOM     52  N   UNL A   1      41.370  29.924  33.663  1.00  0.00    -0.354 N 
ATOM     53  N   UNL A   1      41.963  28.320  31.279  1.00  0.00    -0.248 NA
ATOM     54  C   UNL A   1      43.282  26.746  30.165  1.00  0.00     0.031 C 
ATOM     55  C   UNL A   1      42.677  29.695  35.443  1.00  0.00     0.029 A 
ATOM     56  C   UNL A   1      42.484  29.251  34.145  1.00  0.00     0.049 A 
ATOM     57  H   UNL A   1      41.000  29.825  32.756  1.00  0.00     0.167 HD
ATOM     58  C   UNL A   1      42.978  27.890  32.131  1.00  0.00     0.074 A 
ATOM     59  C   UNL A   1      43.740  26.899  31.398  1.00  0.00     0.031 C 
ATOM     60  C   UNL A   1      43.250  28.275  33.404  1.00  0.00     0.034 A 
BRANCH  47  61
ATOM     61  C   UNL A   1      39.292  32.502  35.638  1.00  0.00     0.023 A 
ATOM     62  C   UNL A   1      39.729  33.833  35.758  1.00  0.00     0.031 A 
ATOM     63  C   UNL A   1      38.456  31.991  36.646  1.00  0.00     0.131 A 
ATOM     64  C   UNL A   1      39.379  34.586  36.889  1.00  0.00     0.055 A 
ATOM     65  C   UNL A   1      38.045  32.771  37.730  1.00  0.00     0.041 A 
ATOM     66  F   UNL A   1      38.027  30.719  36.600  1.00  0.00    -0.206 F 
ATOM     67  C   UNL A   1      38.518  34.073  37.863  1.00  0.00     0.022 A 
BRANCH  64  68
ATOM     68  S   UNL A   1      40.173  36.198  37.138  1.00  0.00     0.124 S 
ATOM     69  O   UNL A   1      39.351  36.769  38.202  1.00  0.00    -0.237 OA
ATOM     70  O   UNL A   1      41.533  35.826  37.510  1.00  0.00    -0.237 OA
ATOM     71  O   UNL A   1      40.037  36.852  35.838  1.00  0.00    -0.744 OA
ENDBRANCH  64  68
ENDBRANCH  47  61
BRANCH  48  72
ATOM     72  C   UNL A   1      41.670  26.866  27.716  1.00  0.00     0.023 A 
ATOM     73  C   UNL A   1      41.382  25.494  27.659  1.00  0.00     0.031 A 
ATOM     74  C   UNL A   1      42.353  27.443  26.630  1.00  0.00     0.131 A 
ATOM     75  C   UNL A   1      41.800  24.738  26.553  1.00  0.00     0.055 A 
ATOM     76  C   UNL A   1      42.724  26.697  25.510  1.00  0.00     0.041 A 
ATOM     77  F   UNL A   1      42.655  28.751  26.636  1.00  0.00    -0.206 F 
ATOM     78  C   UNL A   1      42.456  25.333  25.473  1.00  0.00     0.022 A 
BRANCH  75  79
ATOM     79  S   UNL A   1      41.532  22.944  26.573  1.00  0.00     0.124 S 
ATOM     80  O   UNL A   1      42.458  22.494  25.541  1.00  0.00    -0.237 OA
ATOM     81  O   UNL A   1      41.884  22.601  27.947  1.00  0.00    -0.237 OA
ATOM     82  O   UNL A   1      40.114  22.809  26.245  1.00  0.00    -0.744 OA
ENDBRANCH  75  79
ENDBRANCH  48  72
BRANCH  60  83
ATOM     83  C   UNL A   1      44.398  27.587  34.107  1.00  0.00     0.023 A 
ATOM     84  C   UNL A   1      44.208  26.438  34.893  1.00  0.00     0.031 A 
ATOM     85  C   UNL A   1      45.705  28.096  33.988  1.00  0.00     0.131 A 
ATOM     86  C   UNL A   1      45.295  25.866  35.573  1.00  0.00     0.055 A 
ATOM     87  C   UNL A   1      46.793  27.485  34.614  1.00  0.00     0.041 A 
ATOM     88  F   UNL A   1      45.947  29.193  33.253  1.00  0.00    -0.206 F 
ATOM     89  C   UNL A   1      46.589  26.372  35.423  1.00  0.00     0.022 A 
BRANCH  86  90
ATOM     90  S   UNL A   1      44.981  24.512  36.738  1.00  0.00     0.124 S 
ATOM     91  O   UNL A   1      46.188  24.528  37.555  1.00  0.00    -0.237 OA
ATOM     92  O   UNL A   1      43.755  24.948  37.400  1.00  0.00    -0.237 OA
ATOM     93  O   UNL A   1      44.834  23.342  35.872  1.00  0.00    -0.744 OA
ENDBRANCH  86  90
ENDBRANCH  60  83
ENDBRANCH  34  35
ENDBRANCH  27  29
ENDBRANCH  26  27
ENDBRANCH  25  26
ENDBRANCH   1  25
TORSDOF 20
ENDMDL
MODEL 3
REMARK VINA RESULT:     -10.8      1.463      7.573
REMARK SMILES CO[C@@H]1C[C@H](C(=O)OCCOCCOC(=O)c2ccc(-c3c4nc(c(-c5cc(S(=O)(=O)[O-])ccc5F)c5ccc([nH]5)c(-c5cc(S(=O)(=O)[O-])ccc5F)c5nc(c(-c6cc(S(=O)(=O)[O-])ccc6F)c6ccc3[nH]6)C=C5)C=C4)cc2)N(C(=O)c2ccn(C)c(=O)c2)C1
REMARK SMILES IDX 12 1 11 2 10 3 9 4 8 5 6 6 7 7 5 8 3 9 4 10 91 11 80 12 2 13
REMARK SMILES IDX 1 14 81 15 82 16 83 17 84 18 90 19 85 20 88 21 86 22 89 23
REMARK SMILES IDX 87 24 13 25 14 26 15 27 16 28 17 29 18 30 79 31 19 32 78 33
REMARK SMILES IDX 20 34 21 35 22 36 72 37 23 38 77 39 71 40 73 41 24 42 76 43
REMARK SMILES IDX 70 44 69 45 25 47 57 48 37 49 56 50 38 51 41 52 55 53 74 54
REMARK SMILES IDX 39 55 40 56 54 58 75 59 42 60 26 61 27 62 35 63 28 64 34 65
REMARK SMILES IDX 36 66 33 67 29 68 30 69 31 70 32 71 58 72 59 73 67 74 60 75
REMARK SMILES IDX 66 76 68 77 65 78 61 79 62 80 63 81 64 82 43 83 44 84 52 85
REMARK SMILES IDX 45 86 51 87 53 88 50 89 46 90 47 91 48 92 49 93
REMARK H PARENT 73 46 41 57
REMARK Flexibility Score: inf
ROOT
ATOM      1  C   UNL A   1      37.574  19.943  24.606  1.00  0.00     0.202 C 
ENDROOT
BRANCH   1   2
ATOM      2  O   UNL A   1      36.865  21.026  25.201  1.00  0.00    -0.374 OA
BRANCH   2   3
ATOM      3  C   UNL A   1      37.268  22.352  24.851  1.00  0.00     0.202 C 
BRANCH   3   4
ATOM      4  C   UNL A   1      36.555  22.953  23.640  1.00  0.00     0.261 C 
BRANCH   4   5
ATOM      5  O   UNL A   1      35.173  22.544  23.651  1.00  0.00    -0.462 OA
BRANCH   5   6
ATOM      6  C   UNL A   1      34.366  23.182  24.531  1.00  0.00     0.329 C 
ATOM      7  O   UNL A   1      34.194  24.396  24.562  1.00  0.00    -0.250 OA
BRANCH   6   8
ATOM      8  C   UNL A   1      33.697  22.219  25.523  1.00  0.00     0.198 C 
ATOM      9  C   UNL A   1      31.769  22.861  26.896  1.00  0.00     0.140 C 
ATOM     10  C   UNL A   1      33.298  22.797  26.884  1.00  0.00     0.071 C 
ATOM     11  C   UNL A   1      31.299  22.257  25.567  1.00  0.00     0.152 C 
ATOM     12  N   UNL A   1      32.477  21.653  24.965  1.00  0.00    -0.322 N 
BRANCH   9  13
ATOM     13  O   UNL A   1      31.224  24.129  27.238  1.00  0.00    -0.380 OA
ATOM     14  C   UNL A   1      31.489  25.221  26.371  1.00  0.00     0.195 C 
ENDBRANCH   9  13
BRANCH  12  15
ATOM     15  C   UNL A   1      32.365  20.706  23.970  1.00  0.00     0.254 C 
ATOM     16  O   UNL A   1      32.005  20.976  22.827  1.00  0.00    -0.269 OA
BRANCH  15  17
ATOM     17  C   UNL A   1      32.740  19.305  24.308  1.00  0.00     0.046 A 
ATOM     18  C   UNL A   1      32.555  18.807  25.651  1.00  0.00     0.032 A 
ATOM     19  C   UNL A   1      33.268  18.526  23.354  1.00  0.00     0.085 A 
ATOM     20  C   UNL A   1      32.869  17.538  25.935  1.00  0.00     0.089 A 
ATOM     21  C   UNL A   1      33.592  17.108  23.654  1.00  0.00     0.251 A 
ATOM     22  N   UNL A   1      33.377  16.691  24.966  1.00  0.00    -0.319 N 
ATOM     23  O   UNL A   1      34.017  16.397  22.747  1.00  0.00    -0.269 OA
ATOM     24  C   UNL A   1      33.694  15.322  25.337  1.00  0.00     0.153 C 
ENDBRANCH  15  17
ENDBRANCH  12  15
ENDBRANCH   6   8
ENDBRANCH   5   6
ENDBRANCH   4   5
ENDBRANCH   3   4
ENDBRANCH   2   3
ENDBRANCH   1   2
BRANCH   1  25
ATOM     25  C   UNL A   1      38.898  19.533  25.263  1.00  0.00     0.261 C 
BRANCH  25  26
ATOM     26  O   UNL A   1      39.163  20.256  26.477  1.00  0.00    -0.460 OA
BRANCH  26  27
ATOM     27  C   UNL A   1      40.481  20.398  26.759  1.00  0.00     0.338 C 
ATOM     28  O   UNL A   1      41.363  19.578  26.539  1.00  0.00    -0.246 OA
BRANCH  27  29
ATOM     29  C   UNL A   1      40.776  21.774  27.201  1.00  0.00     0.060 A 
ATOM     30  C   UNL A   1      40.207  22.818  26.460  1.00  0.00     0.016 A 
ATOM     31  C   UNL A   1      41.639  22.052  28.264  1.00  0.00     0.016 A 
ATOM     32  C   UNL A   1      40.550  24.138  26.734  1.00  0.00     0.010 A 
ATOM     33  C   UNL A   1      41.984  23.383  28.537  1.00  0.00     0.010 A 
ATOM     34  C   UNL A   1      41.473  24.429  27.747  1.00  0.00    -0.014 A 
BRANCH  34  35
ATOM     35  C   UNL A   1      42.003  25.812  27.872  1.00  0.00     0.031 A 
ATOM     36  C   UNL A   1      41.185  26.849  28.595  1.00  0.00     0.074 A 
ATOM     37  C   UNL A   1      43.226  26.126  27.408  1.00  0.00     0.049 A 
ATOM     38  N   UNL A   1      41.442  28.116  28.799  1.00  0.00    -0.248 NA
ATOM     39  C   UNL A   1      39.909  26.394  29.165  1.00  0.00     0.031 C 
ATOM     40  C   UNL A   1      44.140  25.195  26.745  1.00  0.00     0.029 A 
ATOM     41  N   UNL A   1      43.914  27.314  27.429  1.00  0.00    -0.354 N 
ATOM     42  C   UNL A   1      40.362  28.610  29.524  1.00  0.00     0.074 A 
ATOM     43  C   UNL A   1      39.427  27.516  29.681  1.00  0.00     0.031 C 
ATOM     44  C   UNL A   1      45.269  25.849  26.424  1.00  0.00     0.029 A 
ATOM     45  C   UNL A   1      45.143  27.251  26.816  1.00  0.00     0.049 A 
ATOM     46  H   UNL A   1      43.559  28.134  27.843  1.00  0.00     0.167 HD
ATOM     47  C   UNL A   1      40.173  29.856  30.025  1.00  0.00     0.034 A 
ATOM     48  C   UNL A   1      46.054  28.218  26.577  1.00  0.00     0.034 A 
ATOM     49  C   UNL A   1      41.106  30.944  29.850  1.00  0.00     0.049 A 
ATOM     50  C   UNL A   1      45.776  29.624  27.051  1.00  0.00     0.074 A 
ATOM     51  C   UNL A   1      41.002  32.249  30.303  1.00  0.00     0.029 A 
ATOM     52  N   UNL A   1      42.311  30.860  29.163  1.00  0.00    -0.354 N 
ATOM     53  N   UNL A   1      44.736  30.087  27.705  1.00  0.00    -0.248 NA
ATOM     54  C   UNL A   1      46.802  30.634  26.761  1.00  0.00     0.031 C 
ATOM     55  C   UNL A   1      42.104  32.968  29.828  1.00  0.00     0.029 A 
ATOM     56  C   UNL A   1      42.944  32.094  29.156  1.00  0.00     0.049 A 
ATOM     57  H   UNL A   1      42.664  30.043  28.742  1.00  0.00     0.167 HD
ATOM     58  C   UNL A   1      44.997  31.436  27.929  1.00  0.00     0.074 A 
ATOM     59  C   UNL A   1      46.297  31.708  27.351  1.00  0.00     0.031 C 
ATOM     60  C   UNL A   1      44.234  32.363  28.563  1.00  0.00     0.034 A 
BRANCH  47  61
ATOM     61  C   UNL A   1      38.887  30.117  30.773  1.00  0.00     0.023 A 
ATOM     62  C   UNL A   1      37.819  30.815  30.183  1.00  0.00     0.031 A 
ATOM     63  C   UNL A   1      38.732  29.676  32.098  1.00  0.00     0.131 A 
ATOM     64  C   UNL A   1      36.671  31.105  30.936  1.00  0.00     0.055 A 
ATOM     65  C   UNL A   1      37.555  29.897  32.817  1.00  0.00     0.041 A 
ATOM     66  F   UNL A   1      39.727  29.025  32.724  1.00  0.00    -0.206 F 
ATOM     67  C   UNL A   1      36.521  30.628  32.241  1.00  0.00     0.022 A 
BRANCH  64  68
ATOM     68  S   UNL A   1      35.434  32.230  30.234  1.00  0.00     0.124 S 
ATOM     69  O   UNL A   1      34.488  32.355  31.340  1.00  0.00    -0.237 OA
ATOM     70  O   UNL A   1      36.223  33.418  29.931  1.00  0.00    -0.237 OA
ATOM     71  O   UNL A   1      34.929  31.503  29.072  1.00  0.00    -0.744 OA
ENDBRANCH  64  68
ENDBRANCH  47  61
BRANCH  48  72
ATOM     72  C   UNL A   1      47.296  27.900  25.817  1.00  0.00     0.023 A 
ATOM     73  C   UNL A   1      47.338  27.990  24.417  1.00  0.00     0.031 A 
ATOM     74  C   UNL A   1      48.456  27.472  26.486  1.00  0.00     0.131 A 
ATOM     75  C   UNL A   1      48.507  27.629  23.730  1.00  0.00     0.055 A 
ATOM     76  C   UNL A   1      49.632  27.161  25.802  1.00  0.00     0.041 A 
ATOM     77  F   UNL A   1      48.468  27.367  27.825  1.00  0.00    -0.206 F 
ATOM     78  C   UNL A   1      49.658  27.229  24.413  1.00  0.00     0.022 A 
BRANCH  75  79
ATOM     79  S   UNL A   1      48.484  27.627  21.915  1.00  0.00     0.124 S 
ATOM     80  O   UNL A   1      47.176  28.205  21.634  1.00  0.00    -0.237 OA
ATOM     81  O   UNL A   1      49.638  28.462  21.598  1.00  0.00    -0.237 OA
ATOM     82  O   UNL A   1      48.630  26.213  21.575  1.00  0.00    -0.744 OA
ENDBRANCH  75  79
ENDBRANCH  48  72
BRANCH  60  83
ATOM     83  C   UNL A   1      44.807  33.755  28.705  1.00  0.00     0.023 A 
ATOM     84  C   UNL A   1      45.558  34.140  29.829  1.00  0.00     0.031 A 
ATOM     85  C   UNL A   1      44.595  34.712  27.695  1.00  0.00     0.131 A 
ATOM     86  C   UNL A   1      46.022  35.459  29.943  1.00  0.00     0.055 A 
ATOM     87  C   UNL A   1      45.115  36.004  27.784  1.00  0.00     0.041 A 
ATOM     88  F   UNL A   1      43.884  34.403  26.599  1.00  0.00    -0.206 F 
ATOM     89  C   UNL A   1      45.822  36.389  28.919  1.00  0.00     0.022 A 
BRANCH  86  90
ATOM     90  S   UNL A   1      46.807  35.976  31.495  1.00  0.00     0.124 S 
ATOM     91  O   UNL A   1      47.558  37.155  31.077  1.00  0.00    -0.237 OA
ATOM     92  O   UNL A   1      45.657  36.225  32.358  1.00  0.00    -0.237 OA
ATOM     93  O   UNL A   1      47.623  34.821  31.868  1.00  0.00    -0.744 OA
ENDBRANCH  86  90
ENDBRANCH  60  83
ENDBRANCH  34  35
ENDBRANCH  27  29
ENDBRANCH  26  27
ENDBRANCH  25  26
ENDBRANCH   1  25
TORSDOF 20
ENDMDL
