MODEL 1
REMARK VINA RESULT:      -9.8      0.000      0.000
REMARK SMILES C[C@@H](NC(=O)CCCN1C(=O)/C(=C/c2c3ccccc3cc3ccccc23)SC1=S)C(=O)OCCOCCOC(=O)c1ccc(-c2c3nc(c(-c4cc(S(=O)(=O)[O-])ccc4F)c4ccc([nH]4)c(-c4cc(S(=O)(=O)[O-])ccc4F)c4nc(c(-c5cc(S(=O)(=O)[O-])ccc5F)c5ccc2[nH]5)C=C4)C=C3)cc1
REMARK SMILES IDX 34 1 33 2 31 3 32 4 2 5 1 6 3 7 4 8 5 10 6 11 7 12 8 13 9 14
REMARK SMILES IDX 10 15 29 16 11 17 12 18 28 19 30 20 13 21 14 22 15 23 27 24
REMARK SMILES IDX 16 25 20 26 22 27 26 28 17 29 19 30 21 31 23 32 25 33 18 34
REMARK SMILES IDX 24 35 35 36 36 37 37 38 38 39 39 40 40 41 41 42 42 43 43 44
REMARK SMILES IDX 104 45 44 46 103 47 45 48 46 49 47 50 97 51 48 52 102 53
REMARK SMILES IDX 96 54 98 55 49 56 101 57 95 58 94 59 50 61 82 62 62 63 81 64
REMARK SMILES IDX 63 65 66 66 80 67 99 68 64 69 65 70 79 72 100 73 67 74 51 75
REMARK SMILES IDX 52 76 60 77 53 78 59 79 61 80 58 81 54 82 55 83 56 84 57 85
REMARK SMILES IDX 83 86 84 87 92 88 85 89 91 90 93 91 90 92 86 93 87 94 88 95
REMARK SMILES IDX 89 96 68 97 69 98 77 99 70 100 76 101 78 102 75 103 71 104
REMARK SMILES IDX 72 105 73 106 74 107
REMARK H PARENT 3 9 98 60 66 71
REMARK Flexibility Score: inf
ROOT
ATOM      1  C   UNL A   1      36.063  33.233  33.475  1.00  0.00     0.261 C 
ENDROOT
BRANCH   1   2
ATOM      2  O   UNL A   1      34.932  32.523  32.842  1.00  0.00    -0.462 OA
BRANCH   2   3
ATOM      3  C   UNL A   1      35.036  32.248  31.502  1.00  0.00     0.328 C 
ATOM      4  O   UNL A   1      35.738  31.318  31.103  1.00  0.00    -0.250 OA
BRANCH   3   5
ATOM      5  C   UNL A   1      34.447  33.321  30.461  1.00  0.00     0.189 C 
ATOM      6  C   UNL A   1      34.097  34.822  30.501  1.00  0.00     0.043 C 
BRANCH   5   7
ATOM      7  N   UNL A   1      35.269  33.235  29.284  1.00  0.00    -0.343 N 
ATOM      8  C   UNL A   1      34.896  32.423  28.251  1.00  0.00     0.220 C 
ATOM      9  H   UNL A   1      36.100  33.761  29.222  1.00  0.00     0.164 HD
ATOM     10  O   UNL A   1      35.767  31.992  27.500  1.00  0.00    -0.275 OA
BRANCH   8  11
ATOM     11  C   UNL A   1      33.395  32.159  28.030  1.00  0.00     0.102 C 
BRANCH  11  12
ATOM     12  C   UNL A   1      32.700  31.273  26.916  1.00  0.00     0.032 C 
BRANCH  12  13
ATOM     13  C   UNL A   1      32.121  29.751  26.625  1.00  0.00     0.128 C 
BRANCH  13  14
ATOM     14  N   UNL A   1      32.615  28.552  25.797  1.00  0.00    -0.293 N 
ATOM     15  C   UNL A   1      32.324  27.307  26.348  1.00  0.00     0.266 C 
ATOM     16  C   UNL A   1      32.809  28.287  24.447  1.00  0.00     0.148 C 
ATOM     17  O   UNL A   1      31.427  27.064  27.143  1.00  0.00    -0.268 OA
ATOM     18  C   UNL A   1      33.129  26.221  25.713  1.00  0.00     0.081 C 
ATOM     19  S   UNL A   1      33.781  26.824  24.260  1.00  0.00    -0.054 SA
ATOM     20  S   UNL A   1      32.134  28.840  23.020  1.00  0.00    -0.052 S 
ATOM     21  C   UNL A   1      33.297  25.001  26.241  1.00  0.00     0.030 C 
BRANCH  21  22
ATOM     22  C   UNL A   1      33.877  23.879  25.469  1.00  0.00    -0.009 A 
ATOM     23  C   UNL A   1      35.275  23.572  25.503  1.00  0.00    -0.010 A 
ATOM     24  C   UNL A   1      32.997  23.256  24.533  1.00  0.00    -0.010 A 
ATOM     25  C   UNL A   1      36.206  24.117  26.425  1.00  0.00     0.009 A 
ATOM     26  C   UNL A   1      35.790  22.697  24.523  1.00  0.00    -0.017 A 
ATOM     27  C   UNL A   1      33.546  22.388  23.570  1.00  0.00    -0.017 A 
ATOM     28  C   UNL A   1      31.595  23.491  24.484  1.00  0.00     0.009 A 
ATOM     29  C   UNL A   1      37.574  23.850  26.360  1.00  0.00     0.001 A 
ATOM     30  C   UNL A   1      37.172  22.434  24.465  1.00  0.00     0.009 A 
ATOM     31  C   UNL A   1      34.924  22.125  23.579  1.00  0.00     0.017 A 
ATOM     32  C   UNL A   1      32.716  21.826  22.585  1.00  0.00     0.009 A 
ATOM     33  C   UNL A   1      30.783  22.921  23.506  1.00  0.00     0.001 A 
ATOM     34  C   UNL A   1      38.060  23.015  25.369  1.00  0.00     0.001 A 
ATOM     35  C   UNL A   1      31.349  22.095  22.547  1.00  0.00     0.001 A 
ENDBRANCH  21  22
ENDBRANCH  13  14
ENDBRANCH  12  13
ENDBRANCH  11  12
ENDBRANCH   8  11
ENDBRANCH   5   7
ENDBRANCH   3   5
ENDBRANCH   2   3
ENDBRANCH   1   2
BRANCH   1  36
ATOM     36  C   UNL A   1      37.163  32.272  34.045  1.00  0.00     0.202 C 
BRANCH  36  37
ATOM     37  O   UNL A   1      38.025  32.823  35.058  1.00  0.00    -0.374 OA
BRANCH  37  38
ATOM     38  C   UNL A   1      38.870  31.870  35.685  1.00  0.00     0.202 C 
BRANCH  38  39
ATOM     39  C   UNL A   1      39.028  30.501  35.024  1.00  0.00     0.261 C 
BRANCH  39  40
ATOM     40  O   UNL A   1      40.234  30.421  34.290  1.00  0.00    -0.460 OA
BRANCH  40  41
ATOM     41  C   UNL A   1      40.941  29.330  34.645  1.00  0.00     0.338 C 
ATOM     42  O   UNL A   1      40.950  28.748  35.719  1.00  0.00    -0.246 OA
BRANCH  41  43
ATOM     43  C   UNL A   1      41.588  28.813  33.454  1.00  0.00     0.060 A 
ATOM     44  C   UNL A   1      42.734  28.044  33.665  1.00  0.00     0.016 A 
ATOM     45  C   UNL A   1      41.135  29.156  32.179  1.00  0.00     0.016 A 
ATOM     46  C   UNL A   1      43.505  27.686  32.579  1.00  0.00     0.010 A 
ATOM     47  C   UNL A   1      41.905  28.785  31.088  1.00  0.00     0.010 A 
ATOM     48  C   UNL A   1      43.119  28.107  31.301  1.00  0.00    -0.014 A 
BRANCH  48  49
ATOM     49  C   UNL A   1      44.104  28.037  30.213  1.00  0.00     0.031 A 
ATOM     50  C   UNL A   1      44.016  26.882  29.263  1.00  0.00     0.074 A 
ATOM     51  C   UNL A   1      45.023  29.005  30.095  1.00  0.00     0.049 A 
ATOM     52  N   UNL A   1      44.811  26.551  28.284  1.00  0.00    -0.248 NA
ATOM     53  C   UNL A   1      42.883  25.962  29.461  1.00  0.00     0.031 C 
ATOM     54  C   UNL A   1      45.129  30.174  30.968  1.00  0.00     0.029 A 
ATOM     55  N   UNL A   1      46.052  29.145  29.209  1.00  0.00    -0.354 N 
ATOM     56  C   UNL A   1      44.288  25.373  27.761  1.00  0.00     0.074 A 
ATOM     57  C   UNL A   1      43.136  25.027  28.561  1.00  0.00     0.031 C 
ATOM     58  C   UNL A   1      46.188  30.903  30.587  1.00  0.00     0.029 A 
ATOM     59  C   UNL A   1      46.852  30.225  29.477  1.00  0.00     0.049 A 
ATOM     60  H   UNL A   1      46.202  28.532  28.453  1.00  0.00     0.167 HD
ATOM     61  C   UNL A   1      44.738  24.658  26.702  1.00  0.00     0.034 A 
ATOM     62  C   UNL A   1      48.015  30.591  28.908  1.00  0.00     0.034 A 
ATOM     63  C   UNL A   1      45.906  25.044  25.950  1.00  0.00     0.049 A 
ATOM     64  C   UNL A   1      48.535  29.756  27.769  1.00  0.00     0.074 A 
ATOM     65  C   UNL A   1      46.472  24.432  24.848  1.00  0.00     0.029 A 
ATOM     66  N   UNL A   1      46.702  26.149  26.244  1.00  0.00    -0.354 N 
ATOM     67  N   UNL A   1      48.036  28.649  27.264  1.00  0.00    -0.248 NA
ATOM     68  C   UNL A   1      49.761  30.222  27.114  1.00  0.00     0.031 C 
ATOM     69  C   UNL A   1      47.649  25.119  24.527  1.00  0.00     0.029 A 
ATOM     70  C   UNL A   1      47.773  26.216  25.369  1.00  0.00     0.049 A 
ATOM     71  H   UNL A   1      46.529  26.790  26.971  1.00  0.00     0.167 HD
ATOM     72  C   UNL A   1      48.871  28.300  26.208  1.00  0.00     0.074 A 
ATOM     73  C   UNL A   1      49.905  29.319  26.153  1.00  0.00     0.031 C 
ATOM     74  C   UNL A   1      48.790  27.245  25.355  1.00  0.00     0.034 A 
BRANCH  61  75
ATOM     75  C   UNL A   1      44.009  23.374  26.373  1.00  0.00     0.023 A 
ATOM     76  C   UNL A   1      44.690  22.157  26.179  1.00  0.00     0.031 A 
ATOM     77  C   UNL A   1      42.619  23.383  26.156  1.00  0.00     0.131 A 
ATOM     78  C   UNL A   1      44.005  21.039  25.679  1.00  0.00     0.055 A 
ATOM     79  C   UNL A   1      41.927  22.239  25.753  1.00  0.00     0.041 A 
ATOM     80  F   UNL A   1      41.913  24.515  26.298  1.00  0.00    -0.206 F 
ATOM     81  C   UNL A   1      42.623  21.063  25.488  1.00  0.00     0.022 A 
BRANCH  78  82
ATOM     82  S   UNL A   1      44.973  19.620  25.090  1.00  0.00     0.124 S 
ATOM     83  O   UNL A   1      44.434  18.535  25.909  1.00  0.00    -0.237 OA
ATOM     84  O   UNL A   1      44.638  19.577  23.672  1.00  0.00    -0.237 OA
ATOM     85  O   UNL A   1      46.352  19.994  25.396  1.00  0.00    -0.744 OA
ENDBRANCH  78  82
ENDBRANCH  61  75
BRANCH  62  86
ATOM     86  C   UNL A   1      48.751  31.769  29.440  1.00  0.00     0.023 A 
ATOM     87  C   UNL A   1      49.785  31.623  30.374  1.00  0.00     0.031 A 
ATOM     88  C   UNL A   1      48.455  33.064  28.976  1.00  0.00     0.131 A 
ATOM     89  C   UNL A   1      50.479  32.757  30.827  1.00  0.00     0.055 A 
ATOM     90  C   UNL A   1      49.175  34.182  29.397  1.00  0.00     0.041 A 
ATOM     91  F   UNL A   1      47.480  33.254  28.071  1.00  0.00    -0.206 F 
ATOM     92  C   UNL A   1      50.191  34.032  30.334  1.00  0.00     0.022 A 
BRANCH  89  93
ATOM     93  S   UNL A   1      51.751  32.543  32.102  1.00  0.00     0.124 S 
ATOM     94  O   UNL A   1      52.093  31.133  31.948  1.00  0.00    -0.237 OA
ATOM     95  O   UNL A   1      52.768  33.500  31.680  1.00  0.00    -0.237 OA
ATOM     96  O   UNL A   1      51.053  32.885  33.340  1.00  0.00    -0.744 OA
ENDBRANCH  89  93
ENDBRANCH  62  86
BRANCH  74  97
ATOM     97  C   UNL A   1      49.820  27.179  24.257  1.00  0.00     0.023 A 
ATOM     98  C   UNL A   1      51.131  26.735  24.495  1.00  0.00     0.031 A 
ATOM     99  C   UNL A   1      49.468  27.547  22.945  1.00  0.00     0.131 A 
ATOM    100  C   UNL A   1      52.057  26.711  23.443  1.00  0.00     0.055 A 
ATOM    101  C   UNL A   1      50.375  27.462  21.892  1.00  0.00     0.041 A 
ATOM    102  F   UNL A   1      48.227  27.980  22.667  1.00  0.00    -0.206 F 
ATOM    103  C   UNL A   1      51.682  27.052  22.139  1.00  0.00     0.022 A 
BRANCH 100 104
ATOM    104  S   UNL A   1      53.784  26.302  23.812  1.00  0.00     0.124 S 
ATOM    105  O   UNL A   1      53.655  24.994  24.444  1.00  0.00    -0.237 OA
ATOM    106  O   UNL A   1      54.399  26.314  22.488  1.00  0.00    -0.237 OA
ATOM    107  O   UNL A   1      54.209  27.382  24.701  1.00  0.00    -0.744 OA
ENDBRANCH 100 104
ENDBRANCH  74  97
ENDBRANCH  48  49
ENDBRANCH  41  43
ENDBRANCH  40  41
ENDBRANCH  39  40
ENDBRANCH  38  39
ENDBRANCH  37  38
ENDBRANCH  36  37
ENDBRANCH   1  36
TORSDOF 23
ENDMDL
MODEL 2
REMARK VINA RESULT:      -9.8      1.937      2.565
REMARK SMILES C[C@@H](NC(=O)CCCN1C(=O)/C(=C/c2c3ccccc3cc3ccccc23)SC1=S)C(=O)OCCOCCOC(=O)c1ccc(-c2c3nc(c(-c4cc(S(=O)(=O)[O-])ccc4F)c4ccc([nH]4)c(-c4cc(S(=O)(=O)[O-])ccc4F)c4nc(c(-c5cc(S(=O)(=O)[O-])ccc5F)c5ccc2[nH]5)C=C4)C=C3)cc1
REMARK SMILES IDX 34 1 33 2 31 3 32 4 2 5 1 6 3 7 4 8 5 10 6 11 7 12 8 13 9 14
REMARK SMILES IDX 10 15 29 16 11 17 12 18 28 19 30 20 13 21 14 22 15 23 27 24
REMARK SMILES IDX 16 25 20 26 22 27 26 28 17 29 19 30 21 31 23 32 25 33 18 34
REMARK SMILES IDX 24 35 35 36 36 37 37 38 38 39 39 40 40 41 41 42 42 43 43 44
REMARK SMILES IDX 104 45 44 46 103 47 45 48 46 49 47 50 97 51 48 52 102 53
REMARK SMILES IDX 96 54 98 55 49 56 101 57 95 58 94 59 50 61 82 62 62 63 81 64
REMARK SMILES IDX 63 65 66 66 80 67 99 68 64 69 65 70 79 72 100 73 67 74 51 75
REMARK SMILES IDX 52 76 60 77 53 78 59 79 61 80 58 81 54 82 55 83 56 84 57 85
REMARK SMILES IDX 83 86 84 87 92 88 85 89 91 90 93 91 90 92 86 93 87 94 88 95
REMARK SMILES IDX 89 96 68 97 69 98 77 99 70 100 76 101 78 102 75 103 71 104
REMARK SMILES IDX 72 105 73 106 74 107
REMARK H PARENT 3 9 98 60 66 71
REMARK Flexibility Score: inf
ROOT
ATOM      1  C   UNL A   1      36.003  33.362  33.481  1.00  0.00     0.261 C 
ENDROOT
BRANCH   1   2
ATOM      2  O   UNL A   1      34.814  32.747  32.856  1.00  0.00    -0.462 OA
BRANCH   2   3
ATOM      3  C   UNL A   1      34.750  32.759  31.486  1.00  0.00     0.328 C 
ATOM      4  O   UNL A   1      35.344  31.910  30.821  1.00  0.00    -0.250 OA
BRANCH   3   5
ATOM      5  C   UNL A   1      34.113  34.048  30.768  1.00  0.00     0.189 C 
ATOM      6  C   UNL A   1      33.646  35.446  31.221  1.00  0.00     0.043 C 
BRANCH   5   7
ATOM      7  N   UNL A   1      34.979  34.364  29.663  1.00  0.00    -0.343 N 
ATOM      8  C   UNL A   1      34.678  33.908  28.411  1.00  0.00     0.220 C 
ATOM      9  H   UNL A   1      35.787  34.907  29.809  1.00  0.00     0.164 HD
ATOM     10  O   UNL A   1      35.593  33.764  27.605  1.00  0.00    -0.275 OA
BRANCH   8  11
ATOM     11  C   UNL A   1      33.199  33.681  28.049  1.00  0.00     0.102 C 
BRANCH  11  12
ATOM     12  C   UNL A   1      32.580  32.646  27.021  1.00  0.00     0.032 C 
BRANCH  12  13
ATOM     13  C   UNL A   1      31.658  31.276  26.937  1.00  0.00     0.128 C 
BRANCH  13  14
ATOM     14  N   UNL A   1      31.943  29.807  26.576  1.00  0.00    -0.293 N 
ATOM     15  C   UNL A   1      31.337  29.371  25.401  1.00  0.00     0.266 C 
ATOM     16  C   UNL A   1      33.000  28.925  26.759  1.00  0.00     0.148 C 
ATOM     17  O   UNL A   1      30.970  30.080  24.474  1.00  0.00    -0.268 OA
ATOM     18  C   UNL A   1      31.341  27.881  25.300  1.00  0.00     0.081 C 
ATOM     19  S   UNL A   1      32.464  27.275  26.427  1.00  0.00    -0.054 SA
ATOM     20  S   UNL A   1      34.656  29.077  26.936  1.00  0.00    -0.052 S 
ATOM     21  C   UNL A   1      30.563  27.181  24.462  1.00  0.00     0.030 C 
BRANCH  21  22
ATOM     22  C   UNL A   1      30.778  25.739  24.204  1.00  0.00    -0.009 A 
ATOM     23  C   UNL A   1      30.407  24.732  25.151  1.00  0.00    -0.010 A 
ATOM     24  C   UNL A   1      31.561  25.430  23.050  1.00  0.00    -0.010 A 
ATOM     25  C   UNL A   1      29.601  24.951  26.298  1.00  0.00     0.009 A 
ATOM     26  C   UNL A   1      30.912  23.427  24.968  1.00  0.00    -0.017 A 
ATOM     27  C   UNL A   1      32.046  24.117  22.902  1.00  0.00    -0.017 A 
ATOM     28  C   UNL A   1      31.920  26.381  22.056  1.00  0.00     0.009 A 
ATOM     29  C   UNL A   1      29.340  23.951  27.237  1.00  0.00     0.001 A 
ATOM     30  C   UNL A   1      30.644  22.425  25.921  1.00  0.00     0.009 A 
ATOM     31  C   UNL A   1      31.718  23.143  23.857  1.00  0.00     0.017 A 
ATOM     32  C   UNL A   1      32.888  23.804  21.820  1.00  0.00     0.009 A 
ATOM     33  C   UNL A   1      32.750  26.055  20.986  1.00  0.00     0.001 A 
ATOM     34  C   UNL A   1      29.873  22.687  27.053  1.00  0.00     0.001 A 
ATOM     35  C   UNL A   1      33.245  24.765  20.875  1.00  0.00     0.001 A 
ENDBRANCH  21  22
ENDBRANCH  13  14
ENDBRANCH  12  13
ENDBRANCH  11  12
ENDBRANCH   8  11
ENDBRANCH   5   7
ENDBRANCH   3   5
ENDBRANCH   2   3
ENDBRANCH   1   2
BRANCH   1  36
ATOM     36  C   UNL A   1      37.118  32.326  33.856  1.00  0.00     0.202 C 
BRANCH  36  37
ATOM     37  O   UNL A   1      38.074  32.750  34.846  1.00  0.00    -0.374 OA
BRANCH  37  38
ATOM     38  C   UNL A   1      38.868  31.701  35.376  1.00  0.00     0.202 C 
BRANCH  38  39
ATOM     39  C   UNL A   1      38.938  30.386  34.599  1.00  0.00     0.261 C 
BRANCH  39  40
ATOM     40  O   UNL A   1      40.160  30.271  33.895  1.00  0.00    -0.460 OA
BRANCH  40  41
ATOM     41  C   UNL A   1      40.835  29.171  34.281  1.00  0.00     0.338 C 
ATOM     42  O   UNL A   1      40.788  28.590  35.355  1.00  0.00    -0.246 OA
BRANCH  41  43
ATOM     43  C   UNL A   1      41.528  28.644  33.120  1.00  0.00     0.060 A 
ATOM     44  C   UNL A   1      42.675  27.893  33.381  1.00  0.00     0.016 A 
ATOM     45  C   UNL A   1      41.113  28.962  31.826  1.00  0.00     0.016 A 
ATOM     46  C   UNL A   1      43.486  27.528  32.327  1.00  0.00     0.010 A 
ATOM     47  C   UNL A   1      41.923  28.585  30.766  1.00  0.00     0.010 A 
ATOM     48  C   UNL A   1      43.138  27.925  31.031  1.00  0.00    -0.014 A 
BRANCH  48  49
ATOM     49  C   UNL A   1      44.160  27.852  29.977  1.00  0.00     0.031 A 
ATOM     50  C   UNL A   1      44.117  26.682  29.042  1.00  0.00     0.074 A 
ATOM     51  C   UNL A   1      45.071  28.828  29.875  1.00  0.00     0.049 A 
ATOM     52  N   UNL A   1      44.948  26.346  28.095  1.00  0.00    -0.248 NA
ATOM     53  C   UNL A   1      42.989  25.751  29.216  1.00  0.00     0.031 C 
ATOM     54  C   UNL A   1      45.133  30.011  30.733  1.00  0.00     0.029 A 
ATOM     55  N   UNL A   1      46.126  28.968  29.021  1.00  0.00    -0.354 N 
ATOM     56  C   UNL A   1      44.457  25.153  27.573  1.00  0.00     0.074 A 
ATOM     57  C   UNL A   1      43.282  24.805  28.340  1.00  0.00     0.031 C 
ATOM     58  C   UNL A   1      46.196  30.748  30.376  1.00  0.00     0.029 A 
ATOM     59  C   UNL A   1      46.905  30.062  29.299  1.00  0.00     0.049 A 
ATOM     60  H   UNL A   1      46.309  28.345  28.280  1.00  0.00     0.167 HD
ATOM     61  C   UNL A   1      44.950  24.428  26.540  1.00  0.00     0.034 A 
ATOM     62  C   UNL A   1      48.081  30.434  28.764  1.00  0.00     0.034 A 
ATOM     63  C   UNL A   1      46.138  24.818  25.822  1.00  0.00     0.049 A 
ATOM     64  C   UNL A   1      48.650  29.588  27.656  1.00  0.00     0.074 A 
ATOM     65  C   UNL A   1      46.748  24.197  24.749  1.00  0.00     0.029 A 
ATOM     66  N   UNL A   1      46.911  25.937  26.126  1.00  0.00    -0.354 N 
ATOM     67  N   UNL A   1      48.180  28.467  27.151  1.00  0.00    -0.248 NA
ATOM     68  C   UNL A   1      49.890  30.059  27.035  1.00  0.00     0.031 C 
ATOM     69  C   UNL A   1      47.926  24.893  24.457  1.00  0.00     0.029 A 
ATOM     70  C   UNL A   1      48.009  26.004  25.285  1.00  0.00     0.049 A 
ATOM     71  H   UNL A   1      46.706  26.587  26.837  1.00  0.00     0.167 HD
ATOM     72  C   UNL A   1      49.054  28.113  26.129  1.00  0.00     0.074 A 
ATOM     73  C   UNL A   1      50.077  29.144  26.092  1.00  0.00     0.031 C 
ATOM     74  C   UNL A   1      49.014  27.045  25.290  1.00  0.00     0.034 A 
BRANCH  61  75
ATOM     75  C   UNL A   1      44.248  23.131  26.208  1.00  0.00     0.023 A 
ATOM     76  C   UNL A   1      44.946  21.915  26.080  1.00  0.00     0.031 A 
ATOM     77  C   UNL A   1      42.871  23.123  25.918  1.00  0.00     0.131 A 
ATOM     78  C   UNL A   1      44.295  20.779  25.574  1.00  0.00     0.055 A 
ATOM     79  C   UNL A   1      42.208  21.964  25.508  1.00  0.00     0.041 A 
ATOM     80  F   UNL A   1      42.151  24.253  25.993  1.00  0.00    -0.206 F 
ATOM     81  C   UNL A   1      42.924  20.788  25.311  1.00  0.00     0.022 A 
BRANCH  78  82
ATOM     82  S   UNL A   1      45.302  19.353  25.073  1.00  0.00     0.124 S 
ATOM     83  O   UNL A   1      46.656  19.892  25.192  1.00  0.00    -0.237 OA
ATOM     84  O   UNL A   1      44.929  18.343  26.056  1.00  0.00    -0.237 OA
ATOM     85  O   UNL A   1      44.864  19.086  23.706  1.00  0.00    -0.744 OA
ENDBRANCH  78  82
ENDBRANCH  61  75
BRANCH  62  86
ATOM     86  C   UNL A   1      48.785  31.628  29.302  1.00  0.00     0.023 A 
ATOM     87  C   UNL A   1      49.600  31.545  30.439  1.00  0.00     0.031 A 
ATOM     88  C   UNL A   1      48.687  32.869  28.646  1.00  0.00     0.131 A 
ATOM     89  C   UNL A   1      50.275  32.688  30.897  1.00  0.00     0.055 A 
ATOM     90  C   UNL A   1      49.393  33.992  29.080  1.00  0.00     0.041 A 
ATOM     91  F   UNL A   1      47.928  32.996  27.545  1.00  0.00    -0.206 F 
ATOM     92  C   UNL A   1      50.189  33.906  30.217  1.00  0.00     0.022 A 
BRANCH  89  93
ATOM     93  S   UNL A   1      51.250  32.568  32.421  1.00  0.00     0.124 S 
ATOM     94  O   UNL A   1      50.336  31.849  33.302  1.00  0.00    -0.237 OA
ATOM     95  O   UNL A   1      52.425  31.830  31.974  1.00  0.00    -0.237 OA
ATOM     96  O   UNL A   1      51.493  33.965  32.780  1.00  0.00    -0.744 OA
ENDBRANCH  89  93
ENDBRANCH  62  86
BRANCH  74  97
ATOM     97  C   UNL A   1      50.080  26.976  24.227  1.00  0.00     0.023 A 
ATOM     98  C   UNL A   1      49.815  27.300  22.887  1.00  0.00     0.031 A 
ATOM     99  C   UNL A   1      51.390  26.599  24.575  1.00  0.00     0.131 A 
ATOM    100  C   UNL A   1      50.838  27.200  21.933  1.00  0.00     0.055 A 
ATOM    101  C   UNL A   1      52.417  26.562  23.634  1.00  0.00     0.041 A 
ATOM    102  F   UNL A   1      51.694  26.278  25.844  1.00  0.00    -0.206 F 
ATOM    103  C   UNL A   1      52.141  26.853  22.301  1.00  0.00     0.022 A 
BRANCH 100 104
ATOM    104  S   UNL A   1      50.426  27.454  20.186  1.00  0.00     0.124 S 
ATOM    105  O   UNL A   1      51.266  26.457  19.530  1.00  0.00    -0.237 OA
ATOM    106  O   UNL A   1      48.990  27.195  20.161  1.00  0.00    -0.237 OA
ATOM    107  O   UNL A   1      50.809  28.844  19.943  1.00  0.00    -0.744 OA
ENDBRANCH 100 104
ENDBRANCH  74  97
ENDBRANCH  48  49
ENDBRANCH  41  43
ENDBRANCH  40  41
ENDBRANCH  39  40
ENDBRANCH  38  39
ENDBRANCH  37  38
ENDBRANCH  36  37
ENDBRANCH   1  36
TORSDOF 23
ENDMDL
MODEL 3
REMARK VINA RESULT:      -9.8      4.797     13.710
REMARK SMILES C[C@@H](NC(=O)CCCN1C(=O)/C(=C/c2c3ccccc3cc3ccccc23)SC1=S)C(=O)OCCOCCOC(=O)c1ccc(-c2c3nc(c(-c4cc(S(=O)(=O)[O-])ccc4F)c4ccc([nH]4)c(-c4cc(S(=O)(=O)[O-])ccc4F)c4nc(c(-c5cc(S(=O)(=O)[O-])ccc5F)c5ccc2[nH]5)C=C4)C=C3)cc1
REMARK SMILES IDX 34 1 33 2 31 3 32 4 2 5 1 6 3 7 4 8 5 10 6 11 7 12 8 13 9 14
REMARK SMILES IDX 10 15 29 16 11 17 12 18 28 19 30 20 13 21 14 22 15 23 27 24
REMARK SMILES IDX 16 25 20 26 22 27 26 28 17 29 19 30 21 31 23 32 25 33 18 34
REMARK SMILES IDX 24 35 35 36 36 37 37 38 38 39 39 40 40 41 41 42 42 43 43 44
REMARK SMILES IDX 104 45 44 46 103 47 45 48 46 49 47 50 97 51 48 52 102 53
REMARK SMILES IDX 96 54 98 55 49 56 101 57 95 58 94 59 50 61 82 62 62 63 81 64
REMARK SMILES IDX 63 65 66 66 80 67 99 68 64 69 65 70 79 72 100 73 67 74 51 75
REMARK SMILES IDX 52 76 60 77 53 78 59 79 61 80 58 81 54 82 55 83 56 84 57 85
REMARK SMILES IDX 83 86 84 87 92 88 85 89 91 90 93 91 90 92 86 93 87 94 88 95
REMARK SMILES IDX 89 96 68 97 69 98 77 99 70 100 76 101 78 102 75 103 71 104
REMARK SMILES IDX 72 105 73 106 74 107
REMARK H PARENT 3 9 98 60 66 71
REMARK Flexibility Score: inf
ROOT
ATOM      1  C   UNL A   1      52.877  25.411  32.432  1.00  0.00     0.261 C 
ENDROOT
BRANCH   1   2
ATOM      2  O   UNL A   1      52.479  25.704  31.039  1.00  0.00    -0.462 OA
BRANCH   2   3
ATOM      3  C   UNL A   1      51.921  26.932  30.793  1.00  0.00     0.328 C 
ATOM      4  O   UNL A   1      51.999  27.838  31.624  1.00  0.00    -0.250 OA
BRANCH   3   5
ATOM      5  C   UNL A   1      50.941  27.079  29.527  1.00  0.00     0.189 C 
ATOM      6  C   UNL A   1      50.988  26.670  28.042  1.00  0.00     0.043 C 
BRANCH   5   7
ATOM      7  N   UNL A   1      49.665  26.559  29.942  1.00  0.00    -0.343 N 
ATOM      8  C   UNL A   1      48.722  27.403  30.457  1.00  0.00     0.220 C 
ATOM      9  H   UNL A   1      49.472  25.598  29.856  1.00  0.00     0.164 HD
ATOM     10  O   UNL A   1      47.873  26.940  31.214  1.00  0.00    -0.275 OA
BRANCH   8  11
ATOM     11  C   UNL A   1      48.720  28.871  29.993  1.00  0.00     0.102 C 
BRANCH  11  12
ATOM     12  C   UNL A   1      47.486  29.848  29.808  1.00  0.00     0.032 C 
BRANCH  12  13
ATOM     13  C   UNL A   1      46.189  30.487  30.612  1.00  0.00     0.128 C 
BRANCH  13  14
ATOM     14  N   UNL A   1      46.026  31.505  31.754  1.00  0.00    -0.293 N 
ATOM     15  C   UNL A   1      44.707  31.806  32.080  1.00  0.00     0.266 C 
ATOM     16  C   UNL A   1      46.742  31.841  32.896  1.00  0.00     0.148 C 
ATOM     17  O   UNL A   1      43.733  31.098  31.862  1.00  0.00    -0.268 OA
ATOM     18  C   UNL A   1      44.613  33.041  32.913  1.00  0.00     0.081 C 
ATOM     19  S   UNL A   1      46.163  33.385  33.530  1.00  0.00    -0.054 SA
ATOM     20  S   UNL A   1      47.781  31.032  33.928  1.00  0.00    -0.052 S 
ATOM     21  C   UNL A   1      43.484  33.738  33.102  1.00  0.00     0.030 C 
BRANCH  21  22
ATOM     22  C   UNL A   1      43.371  34.794  34.133  1.00  0.00    -0.009 A 
ATOM     23  C   UNL A   1      42.968  34.507  35.478  1.00  0.00    -0.010 A 
ATOM     24  C   UNL A   1      43.488  36.136  33.658  1.00  0.00    -0.010 A 
ATOM     25  C   UNL A   1      42.866  33.208  36.036  1.00  0.00     0.009 A 
ATOM     26  C   UNL A   1      42.597  35.587  36.306  1.00  0.00    -0.017 A 
ATOM     27  C   UNL A   1      43.109  37.186  34.513  1.00  0.00    -0.017 A 
ATOM     28  C   UNL A   1      43.926  36.478  32.349  1.00  0.00     0.009 A 
ATOM     29  C   UNL A   1      42.384  32.979  37.327  1.00  0.00     0.001 A 
ATOM     30  C   UNL A   1      42.111  35.346  37.606  1.00  0.00     0.009 A 
ATOM     31  C   UNL A   1      42.671  36.899  35.815  1.00  0.00     0.017 A 
ATOM     32  C   UNL A   1      43.134  38.511  34.044  1.00  0.00     0.009 A 
ATOM     33  C   UNL A   1      43.952  37.796  31.898  1.00  0.00     0.001 A 
ATOM     34  C   UNL A   1      41.995  34.051  38.110  1.00  0.00     0.001 A 
ATOM     35  C   UNL A   1      43.544  38.814  32.745  1.00  0.00     0.001 A 
ENDBRANCH  21  22
ENDBRANCH  13  14
ENDBRANCH  12  13
ENDBRANCH  11  12
ENDBRANCH   8  11
ENDBRANCH   5   7
ENDBRANCH   3   5
ENDBRANCH   2   3
ENDBRANCH   1   2
BRANCH   1  36
ATOM     36  C   UNL A   1      52.686  23.908  32.832  1.00  0.00     0.202 C 
BRANCH  36  37
ATOM     37  O   UNL A   1      51.503  23.597  33.592  1.00  0.00    -0.374 OA
BRANCH  37  38
ATOM     38  C   UNL A   1      50.447  24.532  33.436  1.00  0.00     0.202 C 
BRANCH  38  39
ATOM     39  C   UNL A   1      49.124  24.252  34.149  1.00  0.00     0.261 C 
BRANCH  39  40
ATOM     40  O   UNL A   1      48.319  25.413  34.210  1.00  0.00    -0.460 OA
BRANCH  40  41
ATOM     41  C   UNL A   1      47.464  25.350  35.250  1.00  0.00     0.338 C 
ATOM     42  O   UNL A   1      47.624  24.805  36.332  1.00  0.00    -0.246 OA
BRANCH  41  43
ATOM     43  C   UNL A   1      46.339  26.217  34.954  1.00  0.00     0.060 A 
ATOM     44  C   UNL A   1      45.081  25.731  35.313  1.00  0.00     0.016 A 
ATOM     45  C   UNL A   1      46.515  27.417  34.263  1.00  0.00     0.016 A 
ATOM     46  C   UNL A   1      43.958  26.410  34.887  1.00  0.00     0.010 A 
ATOM     47  C   UNL A   1      45.386  28.106  33.847  1.00  0.00     0.010 A 
ATOM     48  C   UNL A   1      44.114  27.563  34.109  1.00  0.00    -0.014 A 
BRANCH  48  49
ATOM     49  C   UNL A   1      42.950  28.072  33.370  1.00  0.00     0.031 A 
ATOM     50  C   UNL A   1      42.822  27.698  31.925  1.00  0.00     0.074 A 
ATOM     51  C   UNL A   1      42.045  28.826  34.007  1.00  0.00     0.049 A 
ATOM     52  N   UNL A   1      41.943  28.086  31.042  1.00  0.00    -0.248 NA
ATOM     53  C   UNL A   1      43.841  26.773  31.399  1.00  0.00     0.031 C 
ATOM     54  C   UNL A   1      42.099  29.185  35.424  1.00  0.00     0.029 A 
ATOM     55  N   UNL A   1      40.918  29.438  33.541  1.00  0.00    -0.354 N 
ATOM     56  C   UNL A   1      42.314  27.471  29.851  1.00  0.00     0.074 A 
ATOM     57  C   UNL A   1      43.521  26.722  30.116  1.00  0.00     0.031 C 
ATOM     58  C   UNL A   1      41.059  29.983  35.707  1.00  0.00     0.029 A 
ATOM     59  C   UNL A   1      40.300  30.220  34.482  1.00  0.00     0.049 A 
ATOM     60  H   UNL A   1      40.583  29.328  32.621  1.00  0.00     0.167 HD
ATOM     61  C   UNL A   1      41.688  27.530  28.651  1.00  0.00     0.034 A 
ATOM     62  C   UNL A   1      39.261  31.064  34.346  1.00  0.00     0.034 A 
ATOM     63  C   UNL A   1      40.493  28.310  28.442  1.00  0.00     0.049 A 
ATOM     64  C   UNL A   1      38.609  31.166  32.993  1.00  0.00     0.074 A 
ATOM     65  C   UNL A   1      39.740  28.455  27.292  1.00  0.00     0.029 A 
ATOM     66  N   UNL A   1      39.885  29.096  29.418  1.00  0.00    -0.354 N 
ATOM     67  N   UNL A   1      38.949  30.575  31.868  1.00  0.00    -0.248 NA
ATOM     68  C   UNL A   1      37.430  32.030  32.891  1.00  0.00     0.031 C 
ATOM     69  C   UNL A   1      38.728  29.386  27.551  1.00  0.00     0.029 A 
ATOM     70  C   UNL A   1      38.789  29.756  28.888  1.00  0.00     0.049 A 
ATOM     71  H   UNL A   1      40.190  29.173  30.350  1.00  0.00     0.167 HD
ATOM     72  C   UNL A   1      38.006  30.973  30.927  1.00  0.00     0.074 A 
ATOM     73  C   UNL A   1      37.083  31.853  31.622  1.00  0.00     0.031 C 
ATOM     74  C   UNL A   1      37.899  30.636  29.615  1.00  0.00     0.034 A 
BRANCH  61  75
ATOM     75  C   UNL A   1      42.337  26.803  27.495  1.00  0.00     0.023 A 
ATOM     76  C   UNL A   1      42.380  25.398  27.426  1.00  0.00     0.031 A 
ATOM     77  C   UNL A   1      43.010  27.524  26.491  1.00  0.00     0.131 A 
ATOM     78  C   UNL A   1      43.164  24.764  26.448  1.00  0.00     0.055 A 
ATOM     79  C   UNL A   1      43.707  26.885  25.463  1.00  0.00     0.041 A 
ATOM     80  F   UNL A   1      43.031  28.866  26.512  1.00  0.00    -0.206 F 
ATOM     81  C   UNL A   1      43.807  25.498  25.450  1.00  0.00     0.022 A 
BRANCH  78  82
ATOM     82  S   UNL A   1      43.495  22.987  26.619  1.00  0.00     0.124 S 
ATOM     83  O   UNL A   1      42.265  22.518  27.255  1.00  0.00    -0.237 OA
ATOM     84  O   UNL A   1      43.699  22.570  25.237  1.00  0.00    -0.237 OA
ATOM     85  O   UNL A   1      44.683  22.939  27.469  1.00  0.00    -0.744 OA
ENDBRANCH  78  82
ENDBRANCH  61  75
BRANCH  62  86
ATOM     86  C   UNL A   1      38.824  31.880  35.510  1.00  0.00     0.023 A 
ATOM     87  C   UNL A   1      38.157  31.302  36.599  1.00  0.00     0.031 A 
ATOM     88  C   UNL A   1      39.115  33.256  35.566  1.00  0.00     0.131 A 
ATOM     89  C   UNL A   1      37.790  32.100  37.694  1.00  0.00     0.055 A 
ATOM     90  C   UNL A   1      38.786  34.036  36.675  1.00  0.00     0.041 A 
ATOM     91  F   UNL A   1      39.764  33.853  34.553  1.00  0.00    -0.206 F 
ATOM     92  C   UNL A   1      38.113  33.458  37.746  1.00  0.00     0.022 A 
BRANCH  89  93
ATOM     93  S   UNL A   1      36.850  31.339  39.045  1.00  0.00     0.124 S 
ATOM     94  O   UNL A   1      36.669  29.978  38.553  1.00  0.00    -0.237 OA
ATOM     95  O   UNL A   1      37.759  31.497  40.175  1.00  0.00    -0.237 OA
ATOM     96  O   UNL A   1      35.633  32.147  39.110  1.00  0.00    -0.744 OA
ENDBRANCH  89  93
ENDBRANCH  62  86
BRANCH  74  97
ATOM     97  C   UNL A   1      36.710  31.182  28.867  1.00  0.00     0.023 A 
ATOM     98  C   UNL A   1      35.691  30.346  28.381  1.00  0.00     0.031 A 
ATOM     99  C   UNL A   1      36.590  32.568  28.662  1.00  0.00     0.131 A 
ATOM    100  C   UNL A   1      34.616  30.902  27.674  1.00  0.00     0.055 A 
ATOM    101  C   UNL A   1      35.488  33.121  28.014  1.00  0.00     0.041 A 
ATOM    102  F   UNL A   1      37.539  33.409  29.107  1.00  0.00    -0.206 F 
ATOM    103  C   UNL A   1      34.497  32.286  27.506  1.00  0.00     0.022 A 
BRANCH 100 104
ATOM    104  S   UNL A   1      33.409  29.788  26.908  1.00  0.00     0.124 S 
ATOM    105  O   UNL A   1      33.042  28.926  28.027  1.00  0.00    -0.237 OA
ATOM    106  O   UNL A   1      32.376  30.713  26.450  1.00  0.00    -0.237 OA
ATOM    107  O   UNL A   1      34.171  29.136  25.846  1.00  0.00    -0.744 OA
ENDBRANCH 100 104
ENDBRANCH  74  97
ENDBRANCH  48  49
ENDBRANCH  41  43
ENDBRANCH  40  41
ENDBRANCH  39  40
ENDBRANCH  38  39
ENDBRANCH  37  38
ENDBRANCH  36  37
ENDBRANCH   1  36
TORSDOF 23
ENDMDL
