MODEL 1
REMARK VINA RESULT:     -10.6      0.000      0.000
REMARK SMILES CCC(CC)(CC(=O)Nc1cccc(Br)c1)C(=O)OCCOCCOC(=O)c1ccc(-c2c3nc(c(-c4cc(S(=O)(=O)[O-])ccc4F)c4ccc([nH]4)c(-c4cc(S(=O)(=O)[O-])ccc4F)c4nc(c(-c5cc(S(=O)(=O)[O-])ccc5F)c5ccc2[nH]5)C=C4)C=C3)cc1
REMARK SMILES IDX 22 1 21 2 20 3 19 4 17 5 18 6 3 7 2 8 1 9 4 10 5 11 6 12
REMARK SMILES IDX 7 13 8 14 9 15 10 17 11 18 16 19 12 20 14 21 13 22 15 23
REMARK SMILES IDX 23 24 24 25 25 26 26 27 27 28 28 29 29 30 90 31 30 32 89 33
REMARK SMILES IDX 31 34 32 35 33 36 83 37 34 38 88 39 82 40 84 41 35 42 87 43
REMARK SMILES IDX 81 44 80 45 36 47 68 48 48 49 67 50 49 51 52 52 66 53 85 54
REMARK SMILES IDX 50 55 51 56 65 58 86 59 53 60 37 61 38 62 46 63 39 64 45 65
REMARK SMILES IDX 47 66 44 67 40 68 41 69 42 70 43 71 69 72 70 73 78 74 71 75
REMARK SMILES IDX 77 76 79 77 76 78 72 79 73 80 74 81 75 82 54 83 55 84 63 85
REMARK SMILES IDX 56 86 62 87 64 88 61 89 57 90 58 91 59 92 60 93
REMARK H PARENT 9 16 84 46 52 57
REMARK Flexibility Score: inf
ROOT
ATOM      1  O   UNL A   1      31.728  29.456  27.359  1.00  0.00    -0.374 OA
ENDROOT
BRANCH   1   2
ATOM      2  C   UNL A   1      32.287  28.157  27.192  1.00  0.00     0.202 C 
BRANCH   2   3
ATOM      3  C   UNL A   1      31.699  27.259  26.088  1.00  0.00     0.261 C 
BRANCH   3   4
ATOM      4  O   UNL A   1      32.298  25.948  25.986  1.00  0.00    -0.463 OA
BRANCH   4   5
ATOM      5  C   UNL A   1      33.145  25.798  24.942  1.00  0.00     0.312 C 
ATOM      6  O   UNL A   1      34.343  26.067  25.004  1.00  0.00    -0.252 OA
BRANCH   5   7
ATOM      7  C   UNL A   1      32.525  25.230  23.646  1.00  0.00     0.076 C 
BRANCH   7   8
ATOM      8  C   UNL A   1      31.181  24.595  24.040  1.00  0.00     0.016 C 
ATOM      9  C   UNL A   1      30.577  23.497  23.175  1.00  0.00     0.005 C 
ENDBRANCH   7   8
BRANCH   7  10
ATOM     10  C   UNL A   1      33.577  24.154  23.192  1.00  0.00     0.016 C 
ATOM     11  C   UNL A   1      33.818  22.984  24.137  1.00  0.00     0.005 C 
ENDBRANCH   7  10
BRANCH   7  12
ATOM     12  C   UNL A   1      32.321  26.204  22.441  1.00  0.00     0.119 C 
BRANCH  12  13
ATOM     13  C   UNL A   1      32.822  27.646  22.362  1.00  0.00     0.225 C 
ATOM     14  O   UNL A   1      34.016  27.847  22.102  1.00  0.00    -0.275 OA
ATOM     15  N   UNL A   1      32.051  28.772  22.436  1.00  0.00    -0.326 N 
ATOM     16  H   UNL A   1      32.563  29.606  22.547  1.00  0.00     0.169 HD
BRANCH  15  17
ATOM     17  C   UNL A   1      30.665  28.954  22.382  1.00  0.00     0.042 A 
ATOM     18  C   UNL A   1      29.840  28.195  23.217  1.00  0.00     0.026 A 
ATOM     19  C   UNL A   1      30.125  30.053  21.717  1.00  0.00     0.041 A 
ATOM     20  C   UNL A   1      28.458  28.391  23.229  1.00  0.00     0.003 A 
ATOM     21  C   UNL A   1      28.747  30.290  21.781  1.00  0.00     0.020 A 
ATOM     22  C   UNL A   1      27.906  29.439  22.500  1.00  0.00     0.016 A 
ATOM     23  Br  UNL A   1      28.008  31.806  20.925  1.00  0.00    -0.051 Br
ENDBRANCH  15  17
ENDBRANCH  12  13
ENDBRANCH   7  12
ENDBRANCH   5   7
ENDBRANCH   4   5
ENDBRANCH   3   4
ENDBRANCH   2   3
ENDBRANCH   1   2
BRANCH   1  24
ATOM     24  C   UNL A   1      31.761  30.316  26.217  1.00  0.00     0.202 C 
BRANCH  24  25
ATOM     25  C   UNL A   1      31.807  31.826  26.478  1.00  0.00     0.261 C 
BRANCH  25  26
ATOM     26  O   UNL A   1      32.342  32.121  27.783  1.00  0.00    -0.460 OA
BRANCH  26  27
ATOM     27  C   UNL A   1      33.279  33.098  27.779  1.00  0.00     0.338 C 
ATOM     28  O   UNL A   1      33.079  34.299  27.787  1.00  0.00    -0.246 OA
BRANCH  27  29
ATOM     29  C   UNL A   1      34.616  32.512  27.986  1.00  0.00     0.060 A 
ATOM     30  C   UNL A   1      34.675  31.162  28.347  1.00  0.00     0.016 A 
ATOM     31  C   UNL A   1      35.770  33.298  27.974  1.00  0.00     0.016 A 
ATOM     32  C   UNL A   1      35.884  30.606  28.763  1.00  0.00     0.010 A 
ATOM     33  C   UNL A   1      36.984  32.737  28.397  1.00  0.00     0.010 A 
ATOM     34  C   UNL A   1      37.037  31.402  28.839  1.00  0.00    -0.014 A 
BRANCH  34  35
ATOM     35  C   UNL A   1      38.226  30.856  29.547  1.00  0.00     0.031 A 
ATOM     36  C   UNL A   1      38.469  31.253  30.981  1.00  0.00     0.074 A 
ATOM     37  C   UNL A   1      39.015  29.939  28.959  1.00  0.00     0.049 A 
ATOM     38  N   UNL A   1      39.381  30.831  31.819  1.00  0.00    -0.248 NA
ATOM     39  C   UNL A   1      37.553  32.257  31.545  1.00  0.00     0.031 C 
ATOM     40  C   UNL A   1      38.859  29.448  27.590  1.00  0.00     0.029 A 
ATOM     41  N   UNL A   1      40.095  29.244  29.443  1.00  0.00    -0.354 N 
ATOM     42  C   UNL A   1      39.138  31.497  33.016  1.00  0.00     0.074 A 
ATOM     43  C   UNL A   1      38.027  32.395  32.775  1.00  0.00     0.031 C 
ATOM     44  C   UNL A   1      39.809  28.529  27.345  1.00  0.00     0.029 A 
ATOM     45  C   UNL A   1      40.654  28.381  28.529  1.00  0.00     0.049 A 
ATOM     46  H   UNL A   1      40.438  29.353  30.360  1.00  0.00     0.167 HD
ATOM     47  C   UNL A   1      39.767  31.363  34.210  1.00  0.00     0.034 A 
ATOM     48  C   UNL A   1      41.728  27.572  28.632  1.00  0.00     0.034 A 
ATOM     49  C   UNL A   1      40.893  30.486  34.432  1.00  0.00     0.049 A 
ATOM     50  C   UNL A   1      42.462  27.494  29.950  1.00  0.00     0.074 A 
ATOM     51  C   UNL A   1      41.621  30.291  35.593  1.00  0.00     0.029 A 
ATOM     52  N   UNL A   1      41.461  29.664  33.467  1.00  0.00    -0.354 N 
ATOM     53  N   UNL A   1      42.213  28.126  31.075  1.00  0.00    -0.248 NA
ATOM     54  C   UNL A   1      43.609  26.578  30.017  1.00  0.00     0.031 C 
ATOM     55  C   UNL A   1      42.664  29.400  35.315  1.00  0.00     0.029 A 
ATOM     56  C   UNL A   1      42.543  28.979  34.000  1.00  0.00     0.049 A 
ATOM     57  H   UNL A   1      41.142  29.579  32.540  1.00  0.00     0.167 HD
ATOM     58  C   UNL A   1      43.159  27.662  31.988  1.00  0.00     0.074 A 
ATOM     59  C   UNL A   1      43.962  26.681  31.289  1.00  0.00     0.031 C 
ATOM     60  C   UNL A   1      43.347  28.015  33.286  1.00  0.00     0.034 A 
BRANCH  47  61
ATOM     61  C   UNL A   1      39.270  32.217  35.352  1.00  0.00     0.023 A 
ATOM     62  C   UNL A   1      39.727  33.534  35.540  1.00  0.00     0.031 A 
ATOM     63  C   UNL A   1      38.348  31.702  36.280  1.00  0.00     0.131 A 
ATOM     64  C   UNL A   1      39.312  34.266  36.663  1.00  0.00     0.055 A 
ATOM     65  C   UNL A   1      37.882  32.462  37.356  1.00  0.00     0.041 A 
ATOM     66  F   UNL A   1      37.892  30.444  36.165  1.00  0.00    -0.206 F 
ATOM     67  C   UNL A   1      38.375  33.748  37.560  1.00  0.00     0.022 A 
BRANCH  64  68
ATOM     68  S   UNL A   1      40.111  35.859  37.008  1.00  0.00     0.124 S 
ATOM     69  O   UNL A   1      39.722  36.643  35.840  1.00  0.00    -0.237 OA
ATOM     70  O   UNL A   1      39.501  36.250  38.274  1.00  0.00    -0.237 OA
ATOM     71  O   UNL A   1      41.531  35.522  37.079  1.00  0.00    -0.744 OA
ENDBRANCH  64  68
ENDBRANCH  47  61
BRANCH  48  72
ATOM     72  C   UNL A   1      42.206  26.794  27.451  1.00  0.00     0.023 A 
ATOM     73  C   UNL A   1      41.943  25.422  27.317  1.00  0.00     0.031 A 
ATOM     74  C   UNL A   1      43.000  27.411  26.466  1.00  0.00     0.131 A 
ATOM     75  C   UNL A   1      42.510  24.701  26.253  1.00  0.00     0.055 A 
ATOM     76  C   UNL A   1      43.516  26.702  25.381  1.00  0.00     0.041 A 
ATOM     77  F   UNL A   1      43.285  28.722  26.547  1.00  0.00    -0.206 F 
ATOM     78  C   UNL A   1      43.285  25.335  25.279  1.00  0.00     0.022 A 
BRANCH  75  79
ATOM     79  S   UNL A   1      42.306  22.898  26.215  1.00  0.00     0.124 S 
ATOM     80  O   UNL A   1      40.877  22.754  26.464  1.00  0.00    -0.237 OA
ATOM     81  O   UNL A   1      42.760  22.572  24.867  1.00  0.00    -0.237 OA
ATOM     82  O   UNL A   1      43.178  22.435  27.292  1.00  0.00    -0.744 OA
ENDBRANCH  75  79
ENDBRANCH  48  72
BRANCH  60  83
ATOM     83  C   UNL A   1      44.448  27.300  34.034  1.00  0.00     0.023 A 
ATOM     84  C   UNL A   1      44.239  26.048  34.639  1.00  0.00     0.031 A 
ATOM     85  C   UNL A   1      45.714  27.896  34.172  1.00  0.00     0.131 A 
ATOM     86  C   UNL A   1      45.255  25.464  35.411  1.00  0.00     0.055 A 
ATOM     87  C   UNL A   1      46.742  27.282  34.889  1.00  0.00     0.041 A 
ATOM     88  F   UNL A   1      45.972  29.091  33.616  1.00  0.00    -0.206 F 
ATOM     89  C   UNL A   1      46.510  26.066  35.527  1.00  0.00     0.022 A 
BRANCH  86  90
ATOM     90  S   UNL A   1      44.878  23.961  36.353  1.00  0.00     0.124 S 
ATOM     91  O   UNL A   1      46.134  23.224  36.266  1.00  0.00    -0.237 OA
ATOM     92  O   UNL A   1      44.542  24.494  37.669  1.00  0.00    -0.237 OA
ATOM     93  O   UNL A   1      43.760  23.368  35.621  1.00  0.00    -0.744 OA
ENDBRANCH  86  90
ENDBRANCH  60  83
ENDBRANCH  34  35
ENDBRANCH  27  29
ENDBRANCH  26  27
ENDBRANCH  25  26
ENDBRANCH  24  25
ENDBRANCH   1  24
TORSDOF 22
ENDMDL
MODEL 2
REMARK VINA RESULT:     -10.5      4.710     10.155
REMARK SMILES CCC(CC)(CC(=O)Nc1cccc(Br)c1)C(=O)OCCOCCOC(=O)c1ccc(-c2c3nc(c(-c4cc(S(=O)(=O)[O-])ccc4F)c4ccc([nH]4)c(-c4cc(S(=O)(=O)[O-])ccc4F)c4nc(c(-c5cc(S(=O)(=O)[O-])ccc5F)c5ccc2[nH]5)C=C4)C=C3)cc1
REMARK SMILES IDX 22 1 21 2 20 3 19 4 17 5 18 6 3 7 2 8 1 9 4 10 5 11 6 12
REMARK SMILES IDX 7 13 8 14 9 15 10 17 11 18 16 19 12 20 14 21 13 22 15 23
REMARK SMILES IDX 23 24 24 25 25 26 26 27 27 28 28 29 29 30 90 31 30 32 89 33
REMARK SMILES IDX 31 34 32 35 33 36 83 37 34 38 88 39 82 40 84 41 35 42 87 43
REMARK SMILES IDX 81 44 80 45 36 47 68 48 48 49 67 50 49 51 52 52 66 53 85 54
REMARK SMILES IDX 50 55 51 56 65 58 86 59 53 60 37 61 38 62 46 63 39 64 45 65
REMARK SMILES IDX 47 66 44 67 40 68 41 69 42 70 43 71 69 72 70 73 78 74 71 75
REMARK SMILES IDX 77 76 79 77 76 78 72 79 73 80 74 81 75 82 54 83 55 84 63 85
REMARK SMILES IDX 56 86 62 87 64 88 61 89 57 90 58 91 59 92 60 93
REMARK H PARENT 9 16 84 46 52 57
REMARK Flexibility Score: inf
ROOT
ATOM      1  O   UNL A   1      35.071  20.647  25.340  1.00  0.00    -0.374 OA
ENDROOT
BRANCH   1   2
ATOM      2  C   UNL A   1      33.970  19.856  24.907  1.00  0.00     0.202 C 
BRANCH   2   3
ATOM      3  C   UNL A   1      32.601  20.546  24.766  1.00  0.00     0.261 C 
BRANCH   3   4
ATOM      4  O   UNL A   1      32.532  21.881  25.314  1.00  0.00    -0.463 OA
BRANCH   4   5
ATOM      5  C   UNL A   1      32.182  22.837  24.423  1.00  0.00     0.312 C 
ATOM      6  O   UNL A   1      31.284  22.689  23.596  1.00  0.00    -0.252 OA
BRANCH   5   7
ATOM      7  C   UNL A   1      32.966  24.165  24.515  1.00  0.00     0.076 C 
BRANCH   7   8
ATOM      8  C   UNL A   1      33.622  24.386  23.142  1.00  0.00     0.016 C 
ATOM      9  C   UNL A   1      33.613  25.772  22.510  1.00  0.00     0.005 C 
ENDBRANCH   7   8
BRANCH   7  10
ATOM     10  C   UNL A   1      34.026  23.874  25.637  1.00  0.00     0.016 C 
ATOM     11  C   UNL A   1      35.422  24.450  25.432  1.00  0.00     0.005 C 
ENDBRANCH   7  10
BRANCH   7  12
ATOM     12  C   UNL A   1      32.186  25.449  24.946  1.00  0.00     0.119 C 
BRANCH  12  13
ATOM     13  C   UNL A   1      31.402  25.625  26.247  1.00  0.00     0.225 C 
ATOM     14  O   UNL A   1      30.802  24.649  26.715  1.00  0.00    -0.275 OA
ATOM     15  N   UNL A   1      31.385  26.744  27.032  1.00  0.00    -0.326 N 
ATOM     16  H   UNL A   1      30.688  26.738  27.727  1.00  0.00     0.169 HD
BRANCH  15  17
ATOM     17  C   UNL A   1      32.178  27.896  27.025  1.00  0.00     0.042 A 
ATOM     18  C   UNL A   1      33.549  27.784  26.774  1.00  0.00     0.026 A 
ATOM     19  C   UNL A   1      31.586  29.157  26.996  1.00  0.00     0.041 A 
ATOM     20  C   UNL A   1      34.358  28.919  26.704  1.00  0.00     0.003 A 
ATOM     21  C   UNL A   1      32.391  30.294  26.860  1.00  0.00     0.020 A 
ATOM     22  C   UNL A   1      33.778  30.182  26.757  1.00  0.00     0.016 A 
ATOM     23  Br  UNL A   1      31.596  32.008  26.768  1.00  0.00    -0.051 Br
ENDBRANCH  15  17
ENDBRANCH  12  13
ENDBRANCH   7  12
ENDBRANCH   5   7
ENDBRANCH   4   5
ENDBRANCH   3   4
ENDBRANCH   2   3
ENDBRANCH   1   2
BRANCH   1  24
ATOM     24  C   UNL A   1      36.216  20.669  24.483  1.00  0.00     0.202 C 
BRANCH  24  25
ATOM     25  C   UNL A   1      37.557  20.250  25.096  1.00  0.00     0.261 C 
BRANCH  25  26
ATOM     26  O   UNL A   1      38.405  21.389  25.343  1.00  0.00    -0.460 OA
BRANCH  26  27
ATOM     27  C   UNL A   1      39.467  21.115  26.137  1.00  0.00     0.338 C 
ATOM     28  O   UNL A   1      40.144  20.103  26.127  1.00  0.00    -0.246 OA
BRANCH  27  29
ATOM     29  C   UNL A   1      39.849  22.320  26.896  1.00  0.00     0.060 A 
ATOM     30  C   UNL A   1      39.262  23.532  26.514  1.00  0.00     0.016 A 
ATOM     31  C   UNL A   1      40.862  22.291  27.856  1.00  0.00     0.016 A 
ATOM     32  C   UNL A   1      39.736  24.731  27.044  1.00  0.00     0.010 A 
ATOM     33  C   UNL A   1      41.339  23.501  28.384  1.00  0.00     0.010 A 
ATOM     34  C   UNL A   1      40.811  24.728  27.944  1.00  0.00    -0.014 A 
BRANCH  34  35
ATOM     35  C   UNL A   1      41.466  26.025  28.265  1.00  0.00     0.031 A 
ATOM     36  C   UNL A   1      42.869  26.276  27.774  1.00  0.00     0.074 A 
ATOM     37  C   UNL A   1      40.785  27.003  28.889  1.00  0.00     0.049 A 
ATOM     38  N   UNL A   1      43.597  27.361  27.854  1.00  0.00    -0.248 NA
ATOM     39  C   UNL A   1      43.536  25.154  27.096  1.00  0.00     0.031 C 
ATOM     40  C   UNL A   1      39.411  26.891  29.379  1.00  0.00     0.029 A 
ATOM     41  N   UNL A   1      41.150  28.288  29.205  1.00  0.00    -0.354 N 
ATOM     42  C   UNL A   1      44.798  27.062  27.218  1.00  0.00     0.074 A 
ATOM     43  C   UNL A   1      44.719  25.674  26.809  1.00  0.00     0.031 C 
ATOM     44  C   UNL A   1      39.049  28.062  29.932  1.00  0.00     0.029 A 
ATOM     45  C   UNL A   1      40.169  28.999  29.856  1.00  0.00     0.049 A 
ATOM     46  H   UNL A   1      42.033  28.666  28.985  1.00  0.00     0.167 HD
ATOM     47  C   UNL A   1      45.860  27.871  26.978  1.00  0.00     0.034 A 
ATOM     48  C   UNL A   1      40.176  30.256  30.344  1.00  0.00     0.034 A 
ATOM     49  C   UNL A   1      45.940  29.245  27.415  1.00  0.00     0.049 A 
ATOM     50  C   UNL A   1      41.400  31.116  30.132  1.00  0.00     0.074 A 
ATOM     51  C   UNL A   1      46.978  30.146  27.249  1.00  0.00     0.029 A 
ATOM     52  N   UNL A   1      44.945  29.914  28.115  1.00  0.00    -0.354 N 
ATOM     53  N   UNL A   1      42.524  30.820  29.521  1.00  0.00    -0.248 NA
ATOM     54  C   UNL A   1      41.346  32.486  30.660  1.00  0.00     0.031 C 
ATOM     55  C   UNL A   1      46.636  31.337  27.900  1.00  0.00     0.029 A 
ATOM     56  C   UNL A   1      45.354  31.207  28.408  1.00  0.00     0.049 A 
ATOM     57  H   UNL A   1      44.076  29.528  28.367  1.00  0.00     0.167 HD
ATOM     58  C   UNL A   1      43.300  31.977  29.570  1.00  0.00     0.074 A 
ATOM     59  C   UNL A   1      42.504  32.980  30.245  1.00  0.00     0.031 C 
ATOM     60  C   UNL A   1      44.555  32.192  29.099  1.00  0.00     0.034 A 
BRANCH  47  61
ATOM     61  C   UNL A   1      47.033  27.268  26.242  1.00  0.00     0.023 A 
ATOM     62  C   UNL A   1      48.027  26.535  26.915  1.00  0.00     0.031 A 
ATOM     63  C   UNL A   1      47.177  27.450  24.856  1.00  0.00     0.131 A 
ATOM     64  C   UNL A   1      49.150  26.067  26.214  1.00  0.00     0.055 A 
ATOM     65  C   UNL A   1      48.260  26.920  24.150  1.00  0.00     0.041 A 
ATOM     66  F   UNL A   1      46.272  28.160  24.162  1.00  0.00    -0.206 F 
ATOM     67  C   UNL A   1      49.261  26.235  24.832  1.00  0.00     0.022 A 
BRANCH  64  68
ATOM     68  S   UNL A   1      50.526  25.348  27.153  1.00  0.00     0.124 S 
ATOM     69  O   UNL A   1      51.451  24.980  26.085  1.00  0.00    -0.237 OA
ATOM     70  O   UNL A   1      50.940  26.457  28.005  1.00  0.00    -0.237 OA
ATOM     71  O   UNL A   1      49.913  24.221  27.852  1.00  0.00    -0.744 OA
ENDBRANCH  64  68
ENDBRANCH  47  61
BRANCH  48  72
ATOM     72  C   UNL A   1      39.008  30.777  31.112  1.00  0.00     0.023 A 
ATOM     73  C   UNL A   1      37.998  31.533  30.496  1.00  0.00     0.031 A 
ATOM     74  C   UNL A   1      38.924  30.578  32.503  1.00  0.00     0.131 A 
ATOM     75  C   UNL A   1      36.978  32.106  31.274  1.00  0.00     0.055 A 
ATOM     76  C   UNL A   1      37.879  31.103  33.264  1.00  0.00     0.041 A 
ATOM     77  F   UNL A   1      39.864  29.864  33.144  1.00  0.00    -0.206 F 
ATOM     78  C   UNL A   1      36.906  31.885  32.652  1.00  0.00     0.022 A 
BRANCH  75  79
ATOM     79  S   UNL A   1      35.800  33.231  30.475  1.00  0.00     0.124 S 
ATOM     80  O   UNL A   1      36.482  33.538  29.224  1.00  0.00    -0.237 OA
ATOM     81  O   UNL A   1      34.609  32.394  30.369  1.00  0.00    -0.237 OA
ATOM     82  O   UNL A   1      35.696  34.341  31.419  1.00  0.00    -0.744 OA
ENDBRANCH  75  79
ENDBRANCH  48  72
BRANCH  60  83
ATOM     83  C   UNL A   1      45.121  33.582  29.275  1.00  0.00     0.023 A 
ATOM     84  C   UNL A   1      44.853  34.612  28.355  1.00  0.00     0.031 A 
ATOM     85  C   UNL A   1      45.967  33.871  30.361  1.00  0.00     0.131 A 
ATOM     86  C   UNL A   1      45.479  35.860  28.498  1.00  0.00     0.055 A 
ATOM     87  C   UNL A   1      46.537  35.134  30.533  1.00  0.00     0.041 A 
ATOM     88  F   UNL A   1      46.259  32.928  31.271  1.00  0.00    -0.206 F 
ATOM     89  C   UNL A   1      46.307  36.132  29.589  1.00  0.00     0.022 A 
BRANCH  86  90
ATOM     90  S   UNL A   1      45.283  37.088  27.178  1.00  0.00     0.124 S 
ATOM     91  O   UNL A   1      45.635  38.328  27.861  1.00  0.00    -0.237 OA
ATOM     92  O   UNL A   1      46.233  36.621  26.175  1.00  0.00    -0.237 OA
ATOM     93  O   UNL A   1      43.875  36.966  26.802  1.00  0.00    -0.744 OA
ENDBRANCH  86  90
ENDBRANCH  60  83
ENDBRANCH  34  35
ENDBRANCH  27  29
ENDBRANCH  26  27
ENDBRANCH  25  26
ENDBRANCH  24  25
ENDBRANCH   1  24
TORSDOF 22
ENDMDL
MODEL 3
REMARK VINA RESULT:     -10.5      4.734     10.179
REMARK SMILES CCC(CC)(CC(=O)Nc1cccc(Br)c1)C(=O)OCCOCCOC(=O)c1ccc(-c2c3nc(c(-c4cc(S(=O)(=O)[O-])ccc4F)c4ccc([nH]4)c(-c4cc(S(=O)(=O)[O-])ccc4F)c4nc(c(-c5cc(S(=O)(=O)[O-])ccc5F)c5ccc2[nH]5)C=C4)C=C3)cc1
REMARK SMILES IDX 22 1 21 2 20 3 19 4 17 5 18 6 3 7 2 8 1 9 4 10 5 11 6 12
REMARK SMILES IDX 7 13 8 14 9 15 10 17 11 18 16 19 12 20 14 21 13 22 15 23
REMARK SMILES IDX 23 24 24 25 25 26 26 27 27 28 28 29 29 30 90 31 30 32 89 33
REMARK SMILES IDX 31 34 32 35 33 36 83 37 34 38 88 39 82 40 84 41 35 42 87 43
REMARK SMILES IDX 81 44 80 45 36 47 68 48 48 49 67 50 49 51 52 52 66 53 85 54
REMARK SMILES IDX 50 55 51 56 65 58 86 59 53 60 37 61 38 62 46 63 39 64 45 65
REMARK SMILES IDX 47 66 44 67 40 68 41 69 42 70 43 71 69 72 70 73 78 74 71 75
REMARK SMILES IDX 77 76 79 77 76 78 72 79 73 80 74 81 75 82 54 83 55 84 63 85
REMARK SMILES IDX 56 86 62 87 64 88 61 89 57 90 58 91 59 92 60 93
REMARK H PARENT 9 16 84 46 52 57
REMARK Flexibility Score: inf
ROOT
ATOM      1  O   UNL A   1      36.469  20.998  25.698  1.00  0.00    -0.374 OA
ENDROOT
BRANCH   1   2
ATOM      2  C   UNL A   1      35.392  20.329  25.051  1.00  0.00     0.202 C 
BRANCH   2   3
ATOM      3  C   UNL A   1      34.218  21.185  24.541  1.00  0.00     0.261 C 
BRANCH   3   4
ATOM      4  O   UNL A   1      34.268  22.578  24.922  1.00  0.00    -0.463 OA
BRANCH   4   5
ATOM      5  C   UNL A   1      34.377  23.440  23.886  1.00  0.00     0.312 C 
ATOM      6  O   UNL A   1      35.263  23.361  23.036  1.00  0.00    -0.252 OA
BRANCH   5   7
ATOM      7  C   UNL A   1      33.294  24.538  23.804  1.00  0.00     0.076 C 
BRANCH   7   8
ATOM      8  C   UNL A   1      33.710  25.485  22.667  1.00  0.00     0.016 C 
ATOM      9  C   UNL A   1      32.667  26.364  21.989  1.00  0.00     0.005 C 
ENDBRANCH   7   8
BRANCH   7  10
ATOM     10  C   UNL A   1      33.382  25.229  25.212  1.00  0.00     0.016 C 
ATOM     11  C   UNL A   1      34.249  26.477  25.313  1.00  0.00     0.005 C 
ENDBRANCH   7  10
BRANCH   7  12
ATOM     12  C   UNL A   1      31.809  24.091  23.608  1.00  0.00     0.119 C 
BRANCH  12  13
ATOM     13  C   UNL A   1      30.687  24.243  24.635  1.00  0.00     0.225 C 
ATOM     14  O   UNL A   1      30.480  23.318  25.430  1.00  0.00    -0.275 OA
ATOM     15  N   UNL A   1      29.939  25.367  24.851  1.00  0.00    -0.326 N 
ATOM     16  H   UNL A   1      29.149  25.224  25.421  1.00  0.00     0.169 HD
BRANCH  15  17
ATOM     17  C   UNL A   1      30.095  26.685  24.408  1.00  0.00     0.042 A 
ATOM     18  C   UNL A   1      29.231  27.187  23.429  1.00  0.00     0.026 A 
ATOM     19  C   UNL A   1      30.908  27.572  25.111  1.00  0.00     0.041 A 
ATOM     20  C   UNL A   1      29.323  28.514  23.006  1.00  0.00     0.003 A 
ATOM     21  C   UNL A   1      30.951  28.918  24.729  1.00  0.00     0.020 A 
ATOM     22  C   UNL A   1      30.194  29.383  23.653  1.00  0.00     0.016 A 
ATOM     23  Br  UNL A   1      32.012  30.142  25.706  1.00  0.00    -0.051 Br
ENDBRANCH  15  17
ENDBRANCH  12  13
ENDBRANCH   7  12
ENDBRANCH   5   7
ENDBRANCH   4   5
ENDBRANCH   3   4
ENDBRANCH   2   3
ENDBRANCH   1   2
BRANCH   1  24
ATOM     24  C   UNL A   1      37.681  21.128  24.950  1.00  0.00     0.202 C 
BRANCH  24  25
ATOM     25  C   UNL A   1      38.758  20.060  25.171  1.00  0.00     0.261 C 
BRANCH  25  26
ATOM     26  O   UNL A   1      39.416  20.228  26.443  1.00  0.00    -0.460 OA
BRANCH  26  27
ATOM     27  C   UNL A   1      40.686  20.686  26.343  1.00  0.00     0.338 C 
ATOM     28  O   UNL A   1      41.574  20.227  25.648  1.00  0.00    -0.246 OA
BRANCH  27  29
ATOM     29  C   UNL A   1      40.808  21.980  27.038  1.00  0.00     0.060 A 
ATOM     30  C   UNL A   1      40.274  23.104  26.400  1.00  0.00     0.016 A 
ATOM     31  C   UNL A   1      41.553  22.115  28.211  1.00  0.00     0.016 A 
ATOM     32  C   UNL A   1      40.541  24.379  26.897  1.00  0.00     0.010 A 
ATOM     33  C   UNL A   1      41.824  23.399  28.707  1.00  0.00     0.010 A 
ATOM     34  C   UNL A   1      41.359  24.538  28.025  1.00  0.00    -0.014 A 
BRANCH  34  35
ATOM     35  C   UNL A   1      41.849  25.904  28.354  1.00  0.00     0.031 A 
ATOM     36  C   UNL A   1      43.217  26.324  27.880  1.00  0.00     0.074 A 
ATOM     37  C   UNL A   1      41.048  26.792  28.970  1.00  0.00     0.049 A 
ATOM     38  N   UNL A   1      43.808  27.489  27.969  1.00  0.00    -0.248 NA
ATOM     39  C   UNL A   1      44.022  25.292  27.209  1.00  0.00     0.031 C 
ATOM     40  C   UNL A   1      39.692  26.514  29.444  1.00  0.00     0.029 A 
ATOM     41  N   UNL A   1      41.251  28.111  29.291  1.00  0.00    -0.354 N 
ATOM     42  C   UNL A   1      45.043  27.339  27.346  1.00  0.00     0.074 A 
ATOM     43  C   UNL A   1      45.137  25.952  26.936  1.00  0.00     0.031 C 
ATOM     44  C   UNL A   1      39.184  27.631  29.992  1.00  0.00     0.029 A 
ATOM     45  C   UNL A   1      40.183  28.697  29.931  1.00  0.00     0.049 A 
ATOM     46  H   UNL A   1      42.084  28.593  29.081  1.00  0.00     0.167 HD
ATOM     47  C   UNL A   1      46.003  28.270  27.119  1.00  0.00     0.034 A 
ATOM     48  C   UNL A   1      40.033  29.945  30.419  1.00  0.00     0.034 A 
ATOM     49  C   UNL A   1      45.911  29.643  27.558  1.00  0.00     0.049 A 
ATOM     50  C   UNL A   1      41.147  30.947  30.222  1.00  0.00     0.074 A 
ATOM     51  C   UNL A   1      46.834  30.663  27.405  1.00  0.00     0.029 A 
ATOM     52  N   UNL A   1      44.834  30.186  28.247  1.00  0.00    -0.354 N 
ATOM     53  N   UNL A   1      42.305  30.790  29.624  1.00  0.00    -0.248 NA
ATOM     54  C   UNL A   1      40.921  32.299  30.750  1.00  0.00     0.031 C 
ATOM     55  C   UNL A   1      46.343  31.803  28.052  1.00  0.00     0.029 A 
ATOM     56  C   UNL A   1      45.080  31.518  28.545  1.00  0.00     0.049 A 
ATOM     57  H   UNL A   1      44.015  29.697  28.488  1.00  0.00     0.167 HD
ATOM     58  C   UNL A   1      42.934  32.032  29.683  1.00  0.00     0.074 A 
ATOM     59  C   UNL A   1      42.015  32.930  30.349  1.00  0.00     0.031 C 
ATOM     60  C   UNL A   1      44.160  32.398  29.227  1.00  0.00     0.034 A 
BRANCH  47  61
ATOM     61  C   UNL A   1      47.249  27.815  26.397  1.00  0.00     0.023 A 
ATOM     62  C   UNL A   1      47.408  28.005  25.012  1.00  0.00     0.031 A 
ATOM     63  C   UNL A   1      48.278  27.160  27.094  1.00  0.00     0.131 A 
ATOM     64  C   UNL A   1      48.538  27.489  24.359  1.00  0.00     0.055 A 
ATOM     65  C   UNL A   1      49.435  26.713  26.450  1.00  0.00     0.041 A 
ATOM     66  F   UNL A   1      48.173  26.931  28.413  1.00  0.00    -0.206 F 
ATOM     67  C   UNL A   1      49.564  26.864  25.073  1.00  0.00     0.022 A 
BRANCH  64  68
ATOM     68  S   UNL A   1      48.592  27.531  22.546  1.00  0.00     0.124 S 
ATOM     69  O   UNL A   1      48.619  26.107  22.219  1.00  0.00    -0.237 OA
ATOM     70  O   UNL A   1      47.363  28.241  22.211  1.00  0.00    -0.237 OA
ATOM     71  O   UNL A   1      49.828  28.253  22.256  1.00  0.00    -0.744 OA
ENDBRANCH  64  68
ENDBRANCH  47  61
BRANCH  48  72
ATOM     72  C   UNL A   1      38.801  30.319  31.173  1.00  0.00     0.023 A 
ATOM     73  C   UNL A   1      37.725  30.971  30.551  1.00  0.00     0.031 A 
ATOM     74  C   UNL A   1      38.716  30.085  32.559  1.00  0.00     0.131 A 
ATOM     75  C   UNL A   1      36.635  31.413  31.319  1.00  0.00     0.055 A 
ATOM     76  C   UNL A   1      37.606  30.477  33.309  1.00  0.00     0.041 A 
ATOM     77  F   UNL A   1      39.718  29.466  33.206  1.00  0.00    -0.206 F 
ATOM     78  C   UNL A   1      36.564  31.160  32.692  1.00  0.00     0.022 A 
BRANCH  75  79
ATOM     79  S   UNL A   1      35.354  32.418  30.518  1.00  0.00     0.124 S 
ATOM     80  O   UNL A   1      36.020  33.708  30.393  1.00  0.00    -0.237 OA
ATOM     81  O   UNL A   1      35.132  31.686  29.275  1.00  0.00    -0.237 OA
ATOM     82  O   UNL A   1      34.245  32.376  31.468  1.00  0.00    -0.744 OA
ENDBRANCH  75  79
ENDBRANCH  48  72
BRANCH  60  83
ATOM     83  C   UNL A   1      44.552  33.846  29.411  1.00  0.00     0.023 A 
ATOM     84  C   UNL A   1      44.252  34.822  28.442  1.00  0.00     0.031 A 
ATOM     85  C   UNL A   1      45.263  34.249  30.554  1.00  0.00     0.131 A 
ATOM     86  C   UNL A   1      44.721  36.134  28.602  1.00  0.00     0.055 A 
ATOM     87  C   UNL A   1      45.673  35.570  30.738  1.00  0.00     0.041 A 
ATOM     88  F   UNL A   1      45.578  33.362  31.512  1.00  0.00    -0.206 F 
ATOM     89  C   UNL A   1      45.417  36.518  29.751  1.00  0.00     0.022 A 
BRANCH  86  90
ATOM     90  S   UNL A   1      44.506  37.308  27.235  1.00  0.00     0.124 S 
ATOM     91  O   UNL A   1      44.600  38.593  27.920  1.00  0.00    -0.237 OA
ATOM     92  O   UNL A   1      45.621  36.971  26.357  1.00  0.00    -0.237 OA
ATOM     93  O   UNL A   1      43.181  36.982  26.709  1.00  0.00    -0.744 OA
ENDBRANCH  86  90
ENDBRANCH  60  83
ENDBRANCH  34  35
ENDBRANCH  27  29
ENDBRANCH  26  27
ENDBRANCH  25  26
ENDBRANCH  24  25
ENDBRANCH   1  24
TORSDOF 22
ENDMDL
