MODEL 1
REMARK VINA RESULT:     -11.0      0.000      0.000
REMARK SMILES CC(C)[C@@H]([NH2+][C@@H]1CSCC(C)(C)C1)C(=O)OCCOCCOC(=O)c1ccc(-c2c3nc(c(-c4cc(S(=O)(=O)[O-])ccc4F)c4ccc([nH]4)c(-c4cc(S(=O)(=O)[O-])ccc4F)c4nc(c(-c5cc(S(=O)(=O)[O-])ccc5F)c5ccc2[nH]5)C=C4)C=C3)cc1
REMARK SMILES IDX 20 1 19 2 18 3 17 4 16 5 14 6 15 7 4 8 2 9 1 10 3 11 5 12
REMARK SMILES IDX 6 15 7 16 13 17 8 18 10 19 9 20 11 21 12 22 21 23 22 24
REMARK SMILES IDX 23 25 24 26 25 27 26 28 87 29 27 30 86 31 28 32 29 33 30 34
REMARK SMILES IDX 80 35 31 36 85 37 79 38 81 39 32 40 84 41 78 42 77 43 33 45
REMARK SMILES IDX 65 46 45 47 64 48 46 49 49 50 63 51 82 52 47 53 48 54 62 56
REMARK SMILES IDX 83 57 50 58 34 59 35 60 43 61 36 62 42 63 44 64 41 65 37 66
REMARK SMILES IDX 38 67 39 68 40 69 66 70 67 71 75 72 68 73 74 74 76 75 73 76
REMARK SMILES IDX 69 77 70 78 71 79 72 80 51 81 52 82 60 83 53 84 59 85 61 86
REMARK SMILES IDX 58 87 54 88 55 89 56 90 57 91
REMARK H PARENT 5 13 5 14 81 44 49 55
REMARK Flexibility Score: inf
ROOT
ATOM      1  C   UNL A   1      35.622  20.859  25.315  1.00  0.00     0.202 C 
ENDROOT
BRANCH   1   2
ATOM      2  O   UNL A   1      34.461  20.096  25.002  1.00  0.00    -0.374 OA
BRANCH   2   3
ATOM      3  C   UNL A   1      33.316  20.806  24.549  1.00  0.00     0.202 C 
BRANCH   3   4
ATOM      4  C   UNL A   1      32.433  21.488  25.595  1.00  0.00     0.261 C 
BRANCH   4   5
ATOM      5  O   UNL A   1      32.026  22.839  25.319  1.00  0.00    -0.459 OA
BRANCH   5   6
ATOM      6  C   UNL A   1      32.185  23.707  26.358  1.00  0.00     0.365 C 
ATOM      7  O   UNL A   1      31.421  23.795  27.314  1.00  0.00    -0.245 OA
BRANCH   6   8
ATOM      8  C   UNL A   1      33.403  24.634  26.192  1.00  0.00     0.296 C 
BRANCH   8   9
ATOM      9  C   UNL A   1      34.237  24.344  24.900  1.00  0.00     0.053 C 
ATOM     10  C   UNL A   1      33.962  25.394  23.809  1.00  0.00     0.014 C 
ATOM     11  C   UNL A   1      35.749  24.285  25.125  1.00  0.00     0.014 C 
ENDBRANCH   8   9
BRANCH   8  12
ATOM     12  N   UNL A   1      32.973  26.041  26.144  1.00  0.00    -0.331 N 
ATOM     13  H   UNL A   1      33.344  26.419  25.272  1.00  0.00     0.347 HD
ATOM     14  H   UNL A   1      33.319  26.393  27.036  1.00  0.00     0.347 HD
BRANCH  12  15
ATOM     15  C   UNL A   1      31.568  26.441  26.192  1.00  0.00     0.193 C 
ATOM     16  C   UNL A   1      30.696  26.531  24.929  1.00  0.00     0.134 C 
ATOM     17  C   UNL A   1      31.537  27.794  26.932  1.00  0.00     0.073 C 
ATOM     18  S   UNL A   1      30.581  28.115  24.032  1.00  0.00    -0.155 SA
ATOM     19  C   UNL A   1      32.298  28.951  26.223  1.00  0.00    -0.021 C 
ATOM     20  C   UNL A   1      31.960  29.083  24.721  1.00  0.00     0.076 C 
ATOM     21  C   UNL A   1      33.837  28.816  26.365  1.00  0.00     0.012 C 
ATOM     22  C   UNL A   1      31.927  30.262  26.951  1.00  0.00     0.012 C 
ENDBRANCH  12  15
ENDBRANCH   8  12
ENDBRANCH   6   8
ENDBRANCH   5   6
ENDBRANCH   4   5
ENDBRANCH   3   4
ENDBRANCH   2   3
ENDBRANCH   1   2
BRANCH   1  23
ATOM     23  C   UNL A   1      36.978  20.215  25.007  1.00  0.00     0.261 C 
BRANCH  23  24
ATOM     24  O   UNL A   1      38.050  21.179  24.981  1.00  0.00    -0.460 OA
BRANCH  24  25
ATOM     25  C   UNL A   1      39.079  20.899  25.815  1.00  0.00     0.338 C 
ATOM     26  O   UNL A   1      39.709  19.846  25.869  1.00  0.00    -0.246 OA
BRANCH  25  27
ATOM     27  C   UNL A   1      39.505  22.100  26.557  1.00  0.00     0.060 A 
ATOM     28  C   UNL A   1      38.937  23.325  26.179  1.00  0.00     0.016 A 
ATOM     29  C   UNL A   1      40.525  22.056  27.509  1.00  0.00     0.016 A 
ATOM     30  C   UNL A   1      39.441  24.519  26.691  1.00  0.00     0.010 A 
ATOM     31  C   UNL A   1      41.038  23.258  28.014  1.00  0.00     0.010 A 
ATOM     32  C   UNL A   1      40.534  24.495  27.567  1.00  0.00    -0.014 A 
BRANCH  32  33
ATOM     33  C   UNL A   1      41.281  25.752  27.829  1.00  0.00     0.031 A 
ATOM     34  C   UNL A   1      40.585  26.852  28.588  1.00  0.00     0.074 A 
ATOM     35  C   UNL A   1      42.563  25.898  27.449  1.00  0.00     0.049 A 
ATOM     36  N   UNL A   1      41.004  28.055  28.882  1.00  0.00    -0.248 NA
ATOM     37  C   UNL A   1      39.233  26.549  29.080  1.00  0.00     0.031 C 
ATOM     38  C   UNL A   1      43.366  24.879  26.777  1.00  0.00     0.029 A 
ATOM     39  N   UNL A   1      43.412  26.971  27.572  1.00  0.00    -0.354 N 
ATOM     40  C   UNL A   1      39.965  28.657  29.584  1.00  0.00     0.074 A 
ATOM     41  C   UNL A   1      38.885  27.695  29.644  1.00  0.00     0.031 C 
ATOM     42  C   UNL A   1      44.589  25.381  26.531  1.00  0.00     0.029 A 
ATOM     43  C   UNL A   1      44.641  26.771  26.987  1.00  0.00     0.049 A 
ATOM     44  H   UNL A   1      43.165  27.803  28.033  1.00  0.00     0.167 HD
ATOM     45  C   UNL A   1      39.917  29.896  30.134  1.00  0.00     0.034 A 
ATOM     46  C   UNL A   1      45.674  27.621  26.810  1.00  0.00     0.034 A 
ATOM     47  C   UNL A   1      40.999  30.846  30.061  1.00  0.00     0.049 A 
ATOM     48  C   UNL A   1      45.560  29.033  27.337  1.00  0.00     0.074 A 
ATOM     49  C   UNL A   1      41.061  32.124  30.589  1.00  0.00     0.029 A 
ATOM     50  N   UNL A   1      42.206  30.628  29.409  1.00  0.00    -0.354 N 
ATOM     51  N   UNL A   1      44.567  29.596  27.988  1.00  0.00    -0.248 NA
ATOM     52  C   UNL A   1      46.705  29.924  27.106  1.00  0.00     0.031 C 
ATOM     53  C   UNL A   1      42.272  32.703  30.194  1.00  0.00     0.029 A 
ATOM     54  C   UNL A   1      43.002  31.760  29.489  1.00  0.00     0.049 A 
ATOM     55  H   UNL A   1      42.458  29.790  28.957  1.00  0.00     0.167 HD
ATOM     56  C   UNL A   1      44.984  30.894  28.272  1.00  0.00     0.074 A 
ATOM     57  C   UNL A   1      46.318  31.030  27.727  1.00  0.00     0.031 C 
ATOM     58  C   UNL A   1      44.329  31.882  28.935  1.00  0.00     0.034 A 
BRANCH  45  59
ATOM     59  C   UNL A   1      38.629  30.309  30.804  1.00  0.00     0.023 A 
ATOM     60  C   UNL A   1      37.596  30.952  30.099  1.00  0.00     0.031 A 
ATOM     61  C   UNL A   1      38.446  30.084  32.180  1.00  0.00     0.131 A 
ATOM     62  C   UNL A   1      36.457  31.403  30.785  1.00  0.00     0.055 A 
ATOM     63  C   UNL A   1      37.278  30.467  32.841  1.00  0.00     0.041 A 
ATOM     64  F   UNL A   1      39.408  29.498  32.909  1.00  0.00    -0.206 F 
ATOM     65  C   UNL A   1      36.280  31.145  32.145  1.00  0.00     0.022 A 
BRANCH  62  66
ATOM     66  S   UNL A   1      35.274  32.458  29.902  1.00  0.00     0.124 S 
ATOM     67  O   UNL A   1      34.317  32.776  30.959  1.00  0.00    -0.237 OA
ATOM     68  O   UNL A   1      36.113  33.559  29.446  1.00  0.00    -0.237 OA
ATOM     69  O   UNL A   1      34.758  31.587  28.848  1.00  0.00    -0.744 OA
ENDBRANCH  62  66
ENDBRANCH  45  59
BRANCH  46  70
ATOM     70  C   UNL A   1      46.884  27.190  26.053  1.00  0.00     0.023 A 
ATOM     71  C   UNL A   1      47.123  27.633  24.742  1.00  0.00     0.031 A 
ATOM     72  C   UNL A   1      47.795  26.278  26.616  1.00  0.00     0.131 A 
ATOM     73  C   UNL A   1      48.220  27.130  24.024  1.00  0.00     0.055 A 
ATOM     74  C   UNL A   1      48.914  25.822  25.917  1.00  0.00     0.041 A 
ATOM     75  F   UNL A   1      47.612  25.818  27.865  1.00  0.00    -0.206 F 
ATOM     76  C   UNL A   1      49.125  26.240  24.607  1.00  0.00     0.022 A 
BRANCH  73  77
ATOM     77  S   UNL A   1      48.404  27.595  22.279  1.00  0.00     0.124 S 
ATOM     78  O   UNL A   1      49.604  28.423  22.319  1.00  0.00    -0.237 OA
ATOM     79  O   UNL A   1      48.540  26.295  21.632  1.00  0.00    -0.237 OA
ATOM     80  O   UNL A   1      47.163  28.308  21.986  1.00  0.00    -0.744 OA
ENDBRANCH  73  77
ENDBRANCH  46  70
BRANCH  58  81
ATOM     81  C   UNL A   1      45.068  33.179  29.154  1.00  0.00     0.023 A 
ATOM     82  C   UNL A   1      45.077  34.202  28.190  1.00  0.00     0.031 A 
ATOM     83  C   UNL A   1      45.759  33.398  30.359  1.00  0.00     0.131 A 
ATOM     84  C   UNL A   1      45.797  35.383  28.434  1.00  0.00     0.055 A 
ATOM     85  C   UNL A   1      46.428  34.595  30.617  1.00  0.00     0.041 A 
ATOM     86  F   UNL A   1      45.783  32.454  31.314  1.00  0.00    -0.206 F 
ATOM     87  C   UNL A   1      46.457  35.593  29.648  1.00  0.00     0.022 A 
BRANCH  84  88
ATOM     88  S   UNL A   1      45.913  36.623  27.114  1.00  0.00     0.124 S 
ATOM     89  O   UNL A   1      47.088  37.387  27.518  1.00  0.00    -0.237 OA
ATOM     90  O   UNL A   1      46.069  35.797  25.920  1.00  0.00    -0.237 OA
ATOM     91  O   UNL A   1      44.644  37.343  27.206  1.00  0.00    -0.744 OA
ENDBRANCH  84  88
ENDBRANCH  58  81
ENDBRANCH  32  33
ENDBRANCH  25  27
ENDBRANCH  24  25
ENDBRANCH  23  24
ENDBRANCH   1  23
TORSDOF 20
ENDMDL
MODEL 2
REMARK VINA RESULT:     -10.8      5.086     10.323
REMARK SMILES CC(C)[C@@H]([NH2+][C@@H]1CSCC(C)(C)C1)C(=O)OCCOCCOC(=O)c1ccc(-c2c3nc(c(-c4cc(S(=O)(=O)[O-])ccc4F)c4ccc([nH]4)c(-c4cc(S(=O)(=O)[O-])ccc4F)c4nc(c(-c5cc(S(=O)(=O)[O-])ccc5F)c5ccc2[nH]5)C=C4)C=C3)cc1
REMARK SMILES IDX 20 1 19 2 18 3 17 4 16 5 14 6 15 7 4 8 2 9 1 10 3 11 5 12
REMARK SMILES IDX 6 15 7 16 13 17 8 18 10 19 9 20 11 21 12 22 21 23 22 24
REMARK SMILES IDX 23 25 24 26 25 27 26 28 87 29 27 30 86 31 28 32 29 33 30 34
REMARK SMILES IDX 80 35 31 36 85 37 79 38 81 39 32 40 84 41 78 42 77 43 33 45
REMARK SMILES IDX 65 46 45 47 64 48 46 49 49 50 63 51 82 52 47 53 48 54 62 56
REMARK SMILES IDX 83 57 50 58 34 59 35 60 43 61 36 62 42 63 44 64 41 65 37 66
REMARK SMILES IDX 38 67 39 68 40 69 66 70 67 71 75 72 68 73 74 74 76 75 73 76
REMARK SMILES IDX 69 77 70 78 71 79 72 80 51 81 52 82 60 83 53 84 59 85 61 86
REMARK SMILES IDX 58 87 54 88 55 89 56 90 57 91
REMARK H PARENT 5 13 5 14 81 44 49 55
REMARK Flexibility Score: inf
ROOT
ATOM      1  C   UNL A   1      31.463  30.272  25.425  1.00  0.00     0.202 C 
ENDROOT
BRANCH   1   2
ATOM      2  O   UNL A   1      32.487  29.288  25.536  1.00  0.00    -0.374 OA
BRANCH   2   3
ATOM      3  C   UNL A   1      32.149  27.954  25.183  1.00  0.00     0.202 C 
BRANCH   3   4
ATOM      4  C   UNL A   1      32.505  26.838  26.166  1.00  0.00     0.261 C 
BRANCH   4   5
ATOM      5  O   UNL A   1      32.650  25.515  25.621  1.00  0.00    -0.459 OA
BRANCH   5   6
ATOM      6  C   UNL A   1      31.610  24.673  25.883  1.00  0.00     0.365 C 
ATOM      7  O   UNL A   1      31.079  24.545  26.982  1.00  0.00    -0.245 OA
BRANCH   6   8
ATOM      8  C   UNL A   1      31.192  23.828  24.666  1.00  0.00     0.296 C 
BRANCH   8   9
ATOM      9  C   UNL A   1      30.586  24.674  23.497  1.00  0.00     0.053 C 
ATOM     10  C   UNL A   1      29.653  25.776  24.029  1.00  0.00     0.014 C 
ATOM     11  C   UNL A   1      31.626  25.336  22.591  1.00  0.00     0.014 C 
ENDBRANCH   8   9
BRANCH   8  12
ATOM     12  N   UNL A   1      32.348  23.089  24.133  1.00  0.00    -0.331 N 
ATOM     13  H   UNL A   1      33.147  23.717  24.216  1.00  0.00     0.347 HD
ATOM     14  H   UNL A   1      32.011  22.816  23.211  1.00  0.00     0.347 HD
BRANCH  12  15
ATOM     15  C   UNL A   1      32.785  21.805  24.679  1.00  0.00     0.193 C 
ATOM     16  C   UNL A   1      32.707  21.482  26.180  1.00  0.00     0.134 C 
ATOM     17  C   UNL A   1      34.234  21.607  24.189  1.00  0.00     0.073 C 
ATOM     18  S   UNL A   1      34.141  21.839  27.249  1.00  0.00    -0.155 SA
ATOM     19  C   UNL A   1      35.253  22.668  24.695  1.00  0.00    -0.021 C 
ATOM     20  C   UNL A   1      35.167  22.931  26.215  1.00  0.00     0.076 C 
ATOM     21  C   UNL A   1      35.102  24.025  23.957  1.00  0.00     0.012 C 
ATOM     22  C   UNL A   1      36.667  22.157  24.340  1.00  0.00     0.012 C 
ENDBRANCH  12  15
ENDBRANCH   8  12
ENDBRANCH   6   8
ENDBRANCH   5   6
ENDBRANCH   4   5
ENDBRANCH   3   4
ENDBRANCH   2   3
ENDBRANCH   1   2
BRANCH   1  23
ATOM     23  C   UNL A   1      31.593  31.511  26.318  1.00  0.00     0.261 C 
BRANCH  23  24
ATOM     24  O   UNL A   1      32.540  31.317  27.388  1.00  0.00    -0.460 OA
BRANCH  24  25
ATOM     25  C   UNL A   1      33.382  32.358  27.589  1.00  0.00     0.338 C 
ATOM     26  O   UNL A   1      33.072  33.543  27.678  1.00  0.00    -0.246 OA
BRANCH  25  27
ATOM     27  C   UNL A   1      34.749  31.888  27.883  1.00  0.00     0.060 A 
ATOM     28  C   UNL A   1      34.919  30.518  28.129  1.00  0.00     0.016 A 
ATOM     29  C   UNL A   1      35.816  32.773  28.043  1.00  0.00     0.016 A 
ATOM     30  C   UNL A   1      36.133  30.038  28.614  1.00  0.00     0.010 A 
ATOM     31  C   UNL A   1      37.034  32.290  28.541  1.00  0.00     0.010 A 
ATOM     32  C   UNL A   1      37.180  30.931  28.878  1.00  0.00    -0.014 A 
BRANCH  32  33
ATOM     33  C   UNL A   1      38.326  30.481  29.709  1.00  0.00     0.031 A 
ATOM     34  C   UNL A   1      39.265  29.452  29.133  1.00  0.00     0.074 A 
ATOM     35  C   UNL A   1      38.560  31.005  30.925  1.00  0.00     0.049 A 
ATOM     36  N   UNL A   1      40.293  28.860  29.685  1.00  0.00    -0.248 NA
ATOM     37  C   UNL A   1      39.006  29.037  27.746  1.00  0.00     0.031 C 
ATOM     38  C   UNL A   1      37.768  32.058  31.557  1.00  0.00     0.029 A 
ATOM     39  N   UNL A   1      39.534  30.715  31.849  1.00  0.00    -0.354 N 
ATOM     40  C   UNL A   1      40.797  27.997  28.719  1.00  0.00     0.074 A 
ATOM     41  C   UNL A   1      39.942  28.120  27.557  1.00  0.00     0.031 C 
ATOM     42  C   UNL A   1      38.279  32.315  32.773  1.00  0.00     0.029 A 
ATOM     43  C   UNL A   1      39.405  31.415  33.025  1.00  0.00     0.049 A 
ATOM     44  H   UNL A   1      40.256  30.067  31.684  1.00  0.00     0.167 HD
ATOM     45  C   UNL A   1      41.877  27.180  28.790  1.00  0.00     0.034 A 
ATOM     46  C   UNL A   1      40.093  31.315  34.182  1.00  0.00     0.034 A 
ATOM     47  C   UNL A   1      42.716  27.063  29.956  1.00  0.00     0.049 A 
ATOM     48  C   UNL A   1      41.227  30.322  34.277  1.00  0.00     0.074 A 
ATOM     49  C   UNL A   1      43.839  26.273  30.135  1.00  0.00     0.029 A 
ATOM     50  N   UNL A   1      42.517  27.745  31.150  1.00  0.00    -0.354 N 
ATOM     51  N   UNL A   1      41.687  29.500  33.361  1.00  0.00    -0.248 NA
ATOM     52  C   UNL A   1      41.935  30.241  35.563  1.00  0.00     0.031 C 
ATOM     53  C   UNL A   1      44.273  26.423  31.456  1.00  0.00     0.029 A 
ATOM     54  C   UNL A   1      43.473  27.367  32.080  1.00  0.00     0.049 A 
ATOM     55  H   UNL A   1      41.802  28.402  31.311  1.00  0.00     0.167 HD
ATOM     56  C   UNL A   1      42.758  28.833  33.950  1.00  0.00     0.074 A 
ATOM     57  C   UNL A   1      42.879  29.349  35.297  1.00  0.00     0.031 C 
ATOM     58  C   UNL A   1      43.577  27.886  33.422  1.00  0.00     0.034 A 
BRANCH  45  59
ATOM     59  C   UNL A   1      42.167  26.306  27.593  1.00  0.00     0.023 A 
ATOM     60  C   UNL A   1      41.726  24.974  27.519  1.00  0.00     0.031 A 
ATOM     61  C   UNL A   1      42.927  26.808  26.522  1.00  0.00     0.131 A 
ATOM     62  C   UNL A   1      42.102  24.172  26.430  1.00  0.00     0.055 A 
ATOM     63  C   UNL A   1      43.233  26.028  25.406  1.00  0.00     0.041 A 
ATOM     64  F   UNL A   1      43.397  28.065  26.548  1.00  0.00    -0.206 F 
ATOM     65  C   UNL A   1      42.833  24.696  25.362  1.00  0.00     0.022 A 
BRANCH  62  66
ATOM     66  S   UNL A   1      41.744  22.394  26.496  1.00  0.00     0.124 S 
ATOM     67  O   UNL A   1      42.176  22.056  27.850  1.00  0.00    -0.237 OA
ATOM     68  O   UNL A   1      40.307  22.354  26.254  1.00  0.00    -0.237 OA
ATOM     69  O   UNL A   1      42.573  21.838  25.428  1.00  0.00    -0.744 OA
ENDBRANCH  62  66
ENDBRANCH  45  59
BRANCH  46  70
ATOM     70  C   UNL A   1      39.699  32.132  35.366  1.00  0.00     0.023 A 
ATOM     71  C   UNL A   1      38.887  31.603  36.382  1.00  0.00     0.031 A 
ATOM     72  C   UNL A   1      40.087  33.481  35.468  1.00  0.00     0.131 A 
ATOM     73  C   UNL A   1      38.455  32.430  37.432  1.00  0.00     0.055 A 
ATOM     74  C   UNL A   1      39.699  34.284  36.541  1.00  0.00     0.041 A 
ATOM     75  F   UNL A   1      40.860  34.039  34.521  1.00  0.00    -0.206 F 
ATOM     76  C   UNL A   1      38.867  33.761  37.527  1.00  0.00     0.022 A 
BRANCH  73  77
ATOM     77  S   UNL A   1      37.274  31.761  38.636  1.00  0.00     0.124 S 
ATOM     78  O   UNL A   1      38.034  31.851  39.878  1.00  0.00    -0.237 OA
ATOM     79  O   UNL A   1      36.150  32.680  38.501  1.00  0.00    -0.237 OA
ATOM     80  O   UNL A   1      37.028  30.404  38.151  1.00  0.00    -0.744 OA
ENDBRANCH  73  77
ENDBRANCH  46  70
BRANCH  58  81
ATOM     81  C   UNL A   1      44.709  27.388  34.286  1.00  0.00     0.023 A 
ATOM     82  C   UNL A   1      44.565  26.276  35.133  1.00  0.00     0.031 A 
ATOM     83  C   UNL A   1      45.960  28.030  34.242  1.00  0.00     0.131 A 
ATOM     84  C   UNL A   1      45.643  25.863  35.932  1.00  0.00     0.055 A 
ATOM     85  C   UNL A   1      47.044  27.582  34.999  1.00  0.00     0.041 A 
ATOM     86  F   UNL A   1      46.153  29.097  33.450  1.00  0.00    -0.206 F 
ATOM     87  C   UNL A   1      46.886  26.499  35.857  1.00  0.00     0.022 A 
BRANCH  84  88
ATOM     88  S   UNL A   1      45.384  24.520  37.123  1.00  0.00     0.124 S 
ATOM     89  O   UNL A   1      46.612  24.568  37.909  1.00  0.00    -0.237 OA
ATOM     90  O   UNL A   1      44.169  24.941  37.813  1.00  0.00    -0.237 OA
ATOM     91  O   UNL A   1      45.236  23.335  36.278  1.00  0.00    -0.744 OA
ENDBRANCH  84  88
ENDBRANCH  58  81
ENDBRANCH  32  33
ENDBRANCH  25  27
ENDBRANCH  24  25
ENDBRANCH  23  24
ENDBRANCH   1  23
TORSDOF 20
ENDMDL
MODEL 3
REMARK VINA RESULT:     -10.5      5.054      8.200
REMARK SMILES CC(C)[C@@H]([NH2+][C@@H]1CSCC(C)(C)C1)C(=O)OCCOCCOC(=O)c1ccc(-c2c3nc(c(-c4cc(S(=O)(=O)[O-])ccc4F)c4ccc([nH]4)c(-c4cc(S(=O)(=O)[O-])ccc4F)c4nc(c(-c5cc(S(=O)(=O)[O-])ccc5F)c5ccc2[nH]5)C=C4)C=C3)cc1
REMARK SMILES IDX 20 1 19 2 18 3 17 4 16 5 14 6 15 7 4 8 2 9 1 10 3 11 5 12
REMARK SMILES IDX 6 15 7 16 13 17 8 18 10 19 9 20 11 21 12 22 21 23 22 24
REMARK SMILES IDX 23 25 24 26 25 27 26 28 87 29 27 30 86 31 28 32 29 33 30 34
REMARK SMILES IDX 80 35 31 36 85 37 79 38 81 39 32 40 84 41 78 42 77 43 33 45
REMARK SMILES IDX 65 46 45 47 64 48 46 49 49 50 63 51 82 52 47 53 48 54 62 56
REMARK SMILES IDX 83 57 50 58 34 59 35 60 43 61 36 62 42 63 44 64 41 65 37 66
REMARK SMILES IDX 38 67 39 68 40 69 66 70 67 71 75 72 68 73 74 74 76 75 73 76
REMARK SMILES IDX 69 77 70 78 71 79 72 80 51 81 52 82 60 83 53 84 59 85 61 86
REMARK SMILES IDX 58 87 54 88 55 89 56 90 57 91
REMARK H PARENT 5 13 5 14 81 44 49 55
REMARK Flexibility Score: inf
ROOT
ATOM      1  C   UNL A   1      31.274  31.670  26.233  1.00  0.00     0.202 C 
ENDROOT
BRANCH   1   2
ATOM      2  O   UNL A   1      32.190  30.586  26.352  1.00  0.00    -0.374 OA
BRANCH   2   3
ATOM      3  C   UNL A   1      31.912  29.604  27.340  1.00  0.00     0.202 C 
BRANCH   3   4
ATOM      4  C   UNL A   1      32.650  28.268  27.254  1.00  0.00     0.261 C 
BRANCH   4   5
ATOM      5  O   UNL A   1      31.993  27.208  26.539  1.00  0.00    -0.459 OA
BRANCH   5   6
ATOM      6  C   UNL A   1      32.821  26.423  25.793  1.00  0.00     0.365 C 
ATOM      7  O   UNL A   1      34.044  26.523  25.775  1.00  0.00    -0.245 OA
BRANCH   6   8
ATOM      8  C   UNL A   1      32.066  25.418  24.905  1.00  0.00     0.296 C 
BRANCH   8   9
ATOM      9  C   UNL A   1      31.524  26.042  23.576  1.00  0.00     0.053 C 
ATOM     10  C   UNL A   1      31.722  25.086  22.387  1.00  0.00     0.014 C 
ATOM     11  C   UNL A   1      30.047  26.438  23.621  1.00  0.00     0.014 C 
ENDBRANCH   8   9
BRANCH   8  12
ATOM     12  N   UNL A   1      32.942  24.291  24.547  1.00  0.00    -0.331 N 
ATOM     13  H   UNL A   1      33.857  24.510  24.939  1.00  0.00     0.347 HD
ATOM     14  H   UNL A   1      32.821  24.248  23.536  1.00  0.00     0.347 HD
BRANCH  12  15
ATOM     15  C   UNL A   1      32.655  22.911  24.937  1.00  0.00     0.193 C 
ATOM     16  C   UNL A   1      32.337  22.517  26.389  1.00  0.00     0.134 C 
ATOM     17  C   UNL A   1      33.844  22.070  24.428  1.00  0.00     0.073 C 
ATOM     18  S   UNL A   1      33.694  22.003  27.494  1.00  0.00    -0.155 SA
ATOM     19  C   UNL A   1      35.221  22.426  25.058  1.00  0.00    -0.021 C 
ATOM     20  C   UNL A   1      35.185  22.540  26.598  1.00  0.00     0.076 C 
ATOM     21  C   UNL A   1      35.804  23.746  24.487  1.00  0.00     0.012 C 
ATOM     22  C   UNL A   1      36.217  21.320  24.646  1.00  0.00     0.012 C 
ENDBRANCH  12  15
ENDBRANCH   8  12
ENDBRANCH   6   8
ENDBRANCH   5   6
ENDBRANCH   4   5
ENDBRANCH   3   4
ENDBRANCH   2   3
ENDBRANCH   1   2
BRANCH   1  23
ATOM     23  C   UNL A   1      31.750  33.037  26.737  1.00  0.00     0.261 C 
BRANCH  23  24
ATOM     24  O   UNL A   1      32.582  32.930  27.910  1.00  0.00    -0.460 OA
BRANCH  24  25
ATOM     25  C   UNL A   1      33.656  33.755  27.916  1.00  0.00     0.338 C 
ATOM     26  O   UNL A   1      33.634  34.982  27.910  1.00  0.00    -0.246 OA
BRANCH  25  27
ATOM     27  C   UNL A   1      34.906  33.000  28.125  1.00  0.00     0.060 A 
ATOM     28  C   UNL A   1      34.793  31.623  28.364  1.00  0.00     0.016 A 
ATOM     29  C   UNL A   1      36.145  33.635  28.213  1.00  0.00     0.016 A 
ATOM     30  C   UNL A   1      35.905  30.889  28.772  1.00  0.00     0.010 A 
ATOM     31  C   UNL A   1      37.260  32.898  28.634  1.00  0.00     0.010 A 
ATOM     32  C   UNL A   1      37.133  31.535  28.966  1.00  0.00    -0.014 A 
BRANCH  32  33
ATOM     33  C   UNL A   1      38.206  30.842  29.724  1.00  0.00     0.031 A 
ATOM     34  C   UNL A   1      38.416  31.215  31.169  1.00  0.00     0.074 A 
ATOM     35  C   UNL A   1      38.946  29.870  29.162  1.00  0.00     0.049 A 
ATOM     36  N   UNL A   1      39.323  30.798  32.014  1.00  0.00    -0.248 NA
ATOM     37  C   UNL A   1      37.471  32.191  31.733  1.00  0.00     0.031 C 
ATOM     38  C   UNL A   1      38.787  29.370  27.798  1.00  0.00     0.029 A 
ATOM     39  N   UNL A   1      39.986  29.133  29.673  1.00  0.00    -0.354 N 
ATOM     40  C   UNL A   1      39.066  31.467  33.206  1.00  0.00     0.074 A 
ATOM     41  C   UNL A   1      37.936  32.339  32.964  1.00  0.00     0.031 C 
ATOM     42  C   UNL A   1      39.710  28.417  27.574  1.00  0.00     0.029 A 
ATOM     43  C   UNL A   1      40.552  28.272  28.762  1.00  0.00     0.049 A 
ATOM     44  H   UNL A   1      40.297  29.213  30.603  1.00  0.00     0.167 HD
ATOM     45  C   UNL A   1      39.708  31.359  34.396  1.00  0.00     0.034 A 
ATOM     46  C   UNL A   1      41.644  27.485  28.864  1.00  0.00     0.034 A 
ATOM     47  C   UNL A   1      40.835  30.490  34.620  1.00  0.00     0.049 A 
ATOM     48  C   UNL A   1      42.410  27.460  30.166  1.00  0.00     0.074 A 
ATOM     49  C   UNL A   1      41.556  30.296  35.786  1.00  0.00     0.029 A 
ATOM     50  N   UNL A   1      41.417  29.677  33.656  1.00  0.00    -0.354 N 
ATOM     51  N   UNL A   1      42.166  28.106  31.283  1.00  0.00    -0.248 NA
ATOM     52  C   UNL A   1      43.600  26.598  30.221  1.00  0.00     0.031 C 
ATOM     53  C   UNL A   1      42.615  29.426  35.507  1.00  0.00     0.029 A 
ATOM     54  C   UNL A   1      42.509  29.011  34.190  1.00  0.00     0.049 A 
ATOM     55  H   UNL A   1      41.098  29.588  32.728  1.00  0.00     0.167 HD
ATOM     56  C   UNL A   1      43.151  27.702  32.181  1.00  0.00     0.074 A 
ATOM     57  C   UNL A   1      43.990  26.754  31.478  1.00  0.00     0.031 C 
ATOM     58  C   UNL A   1      43.340  28.072  33.474  1.00  0.00     0.034 A 
BRANCH  45  59
ATOM     59  C   UNL A   1      39.240  32.252  35.520  1.00  0.00     0.023 A 
ATOM     60  C   UNL A   1      39.661  33.588  35.634  1.00  0.00     0.031 A 
ATOM     61  C   UNL A   1      38.384  31.745  36.513  1.00  0.00     0.131 A 
ATOM     62  C   UNL A   1      39.277  34.350  36.749  1.00  0.00     0.055 A 
ATOM     63  C   UNL A   1      37.944  32.531  37.579  1.00  0.00     0.041 A 
ATOM     64  F   UNL A   1      37.970  30.468  36.471  1.00  0.00    -0.206 F 
ATOM     65  C   UNL A   1      38.403  33.838  37.710  1.00  0.00     0.022 A 
BRANCH  62  66
ATOM     66  S   UNL A   1      40.049  35.973  37.000  1.00  0.00     0.124 S 
ATOM     67  O   UNL A   1      39.252  36.512  38.099  1.00  0.00    -0.237 OA
ATOM     68  O   UNL A   1      41.426  35.619  37.320  1.00  0.00    -0.237 OA
ATOM     69  O   UNL A   1      39.859  36.645  35.715  1.00  0.00    -0.744 OA
ENDBRANCH  62  66
ENDBRANCH  45  59
BRANCH  46  70
ATOM     70  C   UNL A   1      42.120  26.700  27.689  1.00  0.00     0.023 A 
ATOM     71  C   UNL A   1      41.777  25.348  27.525  1.00  0.00     0.031 A 
ATOM     72  C   UNL A   1      42.977  27.282  26.737  1.00  0.00     0.131 A 
ATOM     73  C   UNL A   1      42.322  24.613  26.459  1.00  0.00     0.055 A 
ATOM     74  C   UNL A   1      43.474  26.562  25.650  1.00  0.00     0.041 A 
ATOM     75  F   UNL A   1      43.341  28.570  26.848  1.00  0.00    -0.206 F 
ATOM     76  C   UNL A   1      43.156  25.214  25.513  1.00  0.00     0.022 A 
BRANCH  73  77
ATOM     77  S   UNL A   1      41.992  22.831  26.373  1.00  0.00     0.124 S 
ATOM     78  O   UNL A   1      42.544  22.491  25.066  1.00  0.00    -0.237 OA
ATOM     79  O   UNL A   1      42.724  22.331  27.531  1.00  0.00    -0.237 OA
ATOM     80  O   UNL A   1      40.536  22.751  26.476  1.00  0.00    -0.744 OA
ENDBRANCH  73  77
ENDBRANCH  46  70
BRANCH  58  81
ATOM     81  C   UNL A   1      44.465  27.408  34.229  1.00  0.00     0.023 A 
ATOM     82  C   UNL A   1      44.259  26.261  35.015  1.00  0.00     0.031 A 
ATOM     83  C   UNL A   1      45.770  27.925  34.141  1.00  0.00     0.131 A 
ATOM     84  C   UNL A   1      45.335  25.692  35.714  1.00  0.00     0.055 A 
ATOM     85  C   UNL A   1      46.846  27.324  34.795  1.00  0.00     0.041 A 
ATOM     86  F   UNL A   1      46.023  29.019  33.404  1.00  0.00    -0.206 F 
ATOM     87  C   UNL A   1      46.630  26.206  35.595  1.00  0.00     0.022 A 
BRANCH  84  88
ATOM     88  S   UNL A   1      45.012  24.304  36.836  1.00  0.00     0.124 S 
ATOM     89  O   UNL A   1      44.031  24.875  37.752  1.00  0.00    -0.237 OA
ATOM     90  O   UNL A   1      44.514  23.276  35.929  1.00  0.00    -0.237 OA
ATOM     91  O   UNL A   1      46.322  24.027  37.426  1.00  0.00    -0.744 OA
ENDBRANCH  84  88
ENDBRANCH  58  81
ENDBRANCH  32  33
ENDBRANCH  25  27
ENDBRANCH  24  25
ENDBRANCH  23  24
ENDBRANCH   1  23
TORSDOF 20
ENDMDL
