MODEL 1
REMARK VINA RESULT:     -11.3      0.000      0.000
REMARK SMILES Cc1cc(SCC(=O)OCCOCCOC(=O)c2ccc(-c3c4nc(c(-c5cc(S(=O)(=O)[O-])ccc5F)c5ccc([nH]5)c(-c5cc(S(=O)(=O)[O-])ccc5F)c5nc(c(-c6cc(S(=O)(=O)[O-])ccc6F)c6ccc3[nH]6)C=C5)C=C4)cc2)c2cc(C(F)(F)F)ccc2n1
REMARK SMILES IDX 12 1 11 2 10 3 9 4 7 5 8 6 6 7 5 8 4 9 1 10 2 11 3 12 91 13
REMARK SMILES IDX 90 14 81 15 89 16 82 17 88 18 83 19 84 20 85 21 86 22 87 23
REMARK SMILES IDX 13 24 14 25 15 26 16 27 17 28 18 29 19 30 80 31 20 32 79 33
REMARK SMILES IDX 21 34 22 35 23 36 73 37 24 38 78 39 72 40 74 41 25 42 77 43
REMARK SMILES IDX 71 44 70 45 26 47 58 48 38 49 57 50 39 51 42 52 56 53 75 54
REMARK SMILES IDX 40 55 41 56 55 58 76 59 43 60 27 61 28 62 36 63 29 64 35 65
REMARK SMILES IDX 37 66 34 67 30 68 31 69 32 70 33 71 59 72 60 73 68 74 61 75
REMARK SMILES IDX 67 76 69 77 66 78 62 79 63 80 64 81 65 82 44 83 45 84 53 85
REMARK SMILES IDX 46 86 52 87 54 88 51 89 47 90 48 91 49 92 50 93
REMARK H PARENT 74 46 42 57
REMARK Flexibility Score: inf
ROOT
ATOM      1  O   UNL A   1      31.162  28.621  25.471  1.00  0.00    -0.374 OA
ENDROOT
BRANCH   1   2
ATOM      2  C   UNL A   1      31.332  27.365  24.814  1.00  0.00     0.202 C 
BRANCH   2   3
ATOM      3  C   UNL A   1      30.712  26.132  25.487  1.00  0.00     0.261 C 
BRANCH   3   4
ATOM      4  O   UNL A   1      31.614  25.427  26.368  1.00  0.00    -0.463 OA
BRANCH   4   5
ATOM      5  C   UNL A   1      31.397  24.092  26.507  1.00  0.00     0.316 C 
ATOM      6  O   UNL A   1      31.449  23.492  27.579  1.00  0.00    -0.251 OA
BRANCH   5   7
ATOM      7  C   UNL A   1      31.120  23.336  25.223  1.00  0.00     0.197 C 
BRANCH   7   8
ATOM      8  S   UNL A   1      31.742  21.635  25.099  1.00  0.00    -0.114 SA
BRANCH   8   9
ATOM      9  C   UNL A   1      33.551  21.721  25.012  1.00  0.00     0.019 A 
ATOM     10  C   UNL A   1      36.424  24.066  25.771  1.00  0.00     0.067 C 
ATOM     11  C   UNL A   1      35.640  22.863  25.335  1.00  0.00     0.039 A 
ATOM     12  C   UNL A   1      34.256  22.910  25.210  1.00  0.00     0.039 A 
ATOM     13  N   UNL A   1      36.338  21.714  25.243  1.00  0.00    -0.253 NA
ATOM     14  C   UNL A   1      35.683  20.570  25.002  1.00  0.00     0.072 A 
ATOM     15  C   UNL A   1      34.284  20.505  24.845  1.00  0.00     0.014 A 
ATOM     16  C   UNL A   1      36.435  19.405  24.933  1.00  0.00     0.029 A 
ATOM     17  C   UNL A   1      33.714  19.235  24.538  1.00  0.00     0.024 A 
ATOM     18  C   UNL A   1      35.859  18.163  24.653  1.00  0.00     0.015 A 
ATOM     19  C   UNL A   1      34.489  18.070  24.422  1.00  0.00     0.056 A 
BRANCH  19  20
ATOM     20  C   UNL A   1      33.840  16.762  24.039  1.00  0.00     0.416 C 
ATOM     21  F   UNL A   1      32.513  16.891  23.774  1.00  0.00    -0.166 F 
ATOM     22  F   UNL A   1      34.399  16.223  22.919  1.00  0.00    -0.166 F 
ATOM     23  F   UNL A   1      33.943  15.802  25.000  1.00  0.00    -0.166 F 
ENDBRANCH  19  20
ENDBRANCH   8   9
ENDBRANCH   7   8
ENDBRANCH   5   7
ENDBRANCH   4   5
ENDBRANCH   3   4
ENDBRANCH   2   3
ENDBRANCH   1   2
BRANCH   1  24
ATOM     24  C   UNL A   1      32.341  29.355  25.782  1.00  0.00     0.202 C 
BRANCH  24  25
ATOM     25  C   UNL A   1      32.182  30.828  26.169  1.00  0.00     0.261 C 
BRANCH  25  26
ATOM     26  O   UNL A   1      32.577  31.099  27.514  1.00  0.00    -0.460 OA
BRANCH  26  27
ATOM     27  C   UNL A   1      33.439  32.134  27.624  1.00  0.00     0.338 C 
ATOM     28  O   UNL A   1      33.174  33.329  27.600  1.00  0.00    -0.246 OA
BRANCH  27  29
ATOM     29  C   UNL A   1      34.771  31.625  27.962  1.00  0.00     0.060 A 
ATOM     30  C   UNL A   1      34.887  30.248  28.178  1.00  0.00     0.016 A 
ATOM     31  C   UNL A   1      35.859  32.483  28.135  1.00  0.00     0.016 A 
ATOM     32  C   UNL A   1      36.089  29.725  28.634  1.00  0.00     0.010 A 
ATOM     33  C   UNL A   1      37.064  31.956  28.598  1.00  0.00     0.010 A 
ATOM     34  C   UNL A   1      37.167  30.583  28.887  1.00  0.00    -0.014 A 
BRANCH  34  35
ATOM     35  C   UNL A   1      38.338  30.058  29.619  1.00  0.00     0.031 A 
ATOM     36  C   UNL A   1      38.585  30.544  31.019  1.00  0.00     0.074 A 
ATOM     37  C   UNL A   1      39.126  29.127  29.053  1.00  0.00     0.049 A 
ATOM     38  N   UNL A   1      39.546  30.236  31.848  1.00  0.00    -0.248 NA
ATOM     39  C   UNL A   1      37.613  31.513  31.553  1.00  0.00     0.031 C 
ATOM     40  C   UNL A   1      38.931  28.561  27.718  1.00  0.00     0.029 A 
ATOM     41  N   UNL A   1      40.242  28.495  29.529  1.00  0.00    -0.354 N 
ATOM     42  C   UNL A   1      39.294  30.967  33.004  1.00  0.00     0.074 A 
ATOM     43  C   UNL A   1      38.117  31.770  32.750  1.00  0.00     0.031 C 
ATOM     44  C   UNL A   1      39.904  27.664  27.480  1.00  0.00     0.029 A 
ATOM     45  C   UNL A   1      40.806  27.622  28.628  1.00  0.00     0.049 A 
ATOM     46  H   UNL A   1      40.607  28.649  30.431  1.00  0.00     0.167 HD
ATOM     47  C   UNL A   1      39.980  30.959  34.173  1.00  0.00     0.034 A 
ATOM     48  C   UNL A   1      41.936  26.893  28.719  1.00  0.00     0.034 A 
ATOM     49  C   UNL A   1      41.164  30.164  34.387  1.00  0.00     0.049 A 
ATOM     50  C   UNL A   1      42.736  26.971  29.997  1.00  0.00     0.074 A 
ATOM     51  C   UNL A   1      41.954  30.075  35.519  1.00  0.00     0.029 A 
ATOM     52  N   UNL A   1      41.737  29.327  33.436  1.00  0.00    -0.354 N 
ATOM     53  N   UNL A   1      42.491  27.665  31.087  1.00  0.00    -0.248 NA
ATOM     54  C   UNL A   1      43.959  26.163  30.063  1.00  0.00     0.031 C 
ATOM     55  C   UNL A   1      43.038  29.239  35.230  1.00  0.00     0.029 A 
ATOM     56  C   UNL A   1      42.885  28.742  33.944  1.00  0.00     0.049 A 
ATOM     57  H   UNL A   1      41.378  29.172  32.532  1.00  0.00     0.167 HD
ATOM     58  C   UNL A   1      43.511  27.349  31.978  1.00  0.00     0.074 A 
ATOM     59  C   UNL A   1      44.369  26.396  31.302  1.00  0.00     0.031 C 
ATOM     60  C   UNL A   1      43.723  27.798  33.242  1.00  0.00     0.034 A 
BRANCH  47  61
ATOM     61  C   UNL A   1      39.491  31.874  35.270  1.00  0.00     0.023 A 
ATOM     62  C   UNL A   1      39.956  33.195  35.393  1.00  0.00     0.031 A 
ATOM     63  C   UNL A   1      38.582  31.405  36.234  1.00  0.00     0.131 A 
ATOM     64  C   UNL A   1      39.569  33.975  36.494  1.00  0.00     0.055 A 
ATOM     65  C   UNL A   1      38.139  32.212  37.285  1.00  0.00     0.041 A 
ATOM     66  F   UNL A   1      38.123  30.144  36.185  1.00  0.00    -0.206 F 
ATOM     67  C   UNL A   1      38.644  33.501  37.428  1.00  0.00     0.022 A 
BRANCH  64  68
ATOM     68  S   UNL A   1      40.401  35.565  36.770  1.00  0.00     0.124 S 
ATOM     69  O   UNL A   1      41.765  35.260  36.347  1.00  0.00    -0.237 OA
ATOM     70  O   UNL A   1      39.649  36.467  35.905  1.00  0.00    -0.237 OA
ATOM     71  O   UNL A   1      40.236  35.794  38.204  1.00  0.00    -0.744 OA
ENDBRANCH  64  68
ENDBRANCH  47  61
BRANCH  48  72
ATOM     72  C   UNL A   1      42.396  26.063  27.571  1.00  0.00     0.023 A 
ATOM     73  C   UNL A   1      41.975  24.733  27.418  1.00  0.00     0.031 A 
ATOM     74  C   UNL A   1      43.305  26.579  26.627  1.00  0.00     0.131 A 
ATOM     75  C   UNL A   1      42.494  23.950  26.375  1.00  0.00     0.055 A 
ATOM     76  C   UNL A   1      43.778  25.812  25.561  1.00  0.00     0.041 A 
ATOM     77  F   UNL A   1      43.740  27.845  26.725  1.00  0.00    -0.206 F 
ATOM     78  C   UNL A   1      43.383  24.484  25.438  1.00  0.00     0.022 A 
BRANCH  75  79
ATOM     79  S   UNL A   1      42.059  22.191  26.310  1.00  0.00     0.124 S 
ATOM     80  O   UNL A   1      42.870  21.725  25.190  1.00  0.00    -0.237 OA
ATOM     81  O   UNL A   1      42.467  21.730  27.633  1.00  0.00    -0.237 OA
ATOM     82  O   UNL A   1      40.618  22.205  26.074  1.00  0.00    -0.744 OA
ENDBRANCH  75  79
ENDBRANCH  48  72
BRANCH  60  83
ATOM     83  C   UNL A   1      44.900  27.218  33.983  1.00  0.00     0.023 A 
ATOM     84  C   UNL A   1      44.807  26.008  34.692  1.00  0.00     0.031 A 
ATOM     85  C   UNL A   1      46.136  27.890  33.975  1.00  0.00     0.131 A 
ATOM     86  C   UNL A   1      45.917  25.532  35.405  1.00  0.00     0.055 A 
ATOM     87  C   UNL A   1      47.252  27.381  34.638  1.00  0.00     0.041 A 
ATOM     88  F   UNL A   1      46.279  29.050  33.314  1.00  0.00    -0.206 F 
ATOM     89  C   UNL A   1      47.143  26.201  35.368  1.00  0.00     0.022 A 
BRANCH  86  90
ATOM     90  S   UNL A   1      45.715  24.062  36.449  1.00  0.00     0.124 S 
ATOM     91  O   UNL A   1      44.310  23.730  36.237  1.00  0.00    -0.237 OA
ATOM     92  O   UNL A   1      46.683  23.134  35.874  1.00  0.00    -0.237 OA
ATOM     93  O   UNL A   1      46.042  24.546  37.789  1.00  0.00    -0.744 OA
ENDBRANCH  86  90
ENDBRANCH  60  83
ENDBRANCH  34  35
ENDBRANCH  27  29
ENDBRANCH  26  27
ENDBRANCH  25  26
ENDBRANCH  24  25
ENDBRANCH   1  24
TORSDOF 20
ENDMDL
MODEL 2
REMARK VINA RESULT:     -11.1      6.009     11.613
REMARK SMILES Cc1cc(SCC(=O)OCCOCCOC(=O)c2ccc(-c3c4nc(c(-c5cc(S(=O)(=O)[O-])ccc5F)c5ccc([nH]5)c(-c5cc(S(=O)(=O)[O-])ccc5F)c5nc(c(-c6cc(S(=O)(=O)[O-])ccc6F)c6ccc3[nH]6)C=C5)C=C4)cc2)c2cc(C(F)(F)F)ccc2n1
REMARK SMILES IDX 12 1 11 2 10 3 9 4 7 5 8 6 6 7 5 8 4 9 1 10 2 11 3 12 91 13
REMARK SMILES IDX 90 14 81 15 89 16 82 17 88 18 83 19 84 20 85 21 86 22 87 23
REMARK SMILES IDX 13 24 14 25 15 26 16 27 17 28 18 29 19 30 80 31 20 32 79 33
REMARK SMILES IDX 21 34 22 35 23 36 73 37 24 38 78 39 72 40 74 41 25 42 77 43
REMARK SMILES IDX 71 44 70 45 26 47 58 48 38 49 57 50 39 51 42 52 56 53 75 54
REMARK SMILES IDX 40 55 41 56 55 58 76 59 43 60 27 61 28 62 36 63 29 64 35 65
REMARK SMILES IDX 37 66 34 67 30 68 31 69 32 70 33 71 59 72 60 73 68 74 61 75
REMARK SMILES IDX 67 76 69 77 66 78 62 79 63 80 64 81 65 82 44 83 45 84 53 85
REMARK SMILES IDX 46 86 52 87 54 88 51 89 47 90 48 91 49 92 50 93
REMARK H PARENT 74 46 42 57
REMARK Flexibility Score: inf
ROOT
ATOM      1  O   UNL A   1      42.536  19.723  27.368  1.00  0.00    -0.374 OA
ENDROOT
BRANCH   1   2
ATOM      2  C   UNL A   1      43.013  18.503  26.799  1.00  0.00     0.202 C 
BRANCH   2   3
ATOM      3  C   UNL A   1      43.441  18.537  25.325  1.00  0.00     0.261 C 
BRANCH   3   4
ATOM      4  O   UNL A   1      44.005  19.800  24.906  1.00  0.00    -0.463 OA
BRANCH   4   5
ATOM      5  C   UNL A   1      45.288  19.765  24.457  1.00  0.00     0.316 C 
ATOM      6  O   UNL A   1      45.773  18.827  23.828  1.00  0.00    -0.251 OA
BRANCH   5   7
ATOM      7  C   UNL A   1      46.142  20.962  24.822  1.00  0.00     0.197 C 
BRANCH   7   8
ATOM      8  S   UNL A   1      45.399  22.609  24.643  1.00  0.00    -0.114 SA
BRANCH   8   9
ATOM      9  C   UNL A   1      45.498  23.431  26.255  1.00  0.00     0.019 A 
ATOM     10  C   UNL A   1      44.223  23.107  29.804  1.00  0.00     0.067 C 
ATOM     11  C   UNL A   1      44.936  23.611  28.584  1.00  0.00     0.039 A 
ATOM     12  C   UNL A   1      44.667  23.088  27.325  1.00  0.00     0.039 A 
ATOM     13  N   UNL A   1      45.954  24.465  28.814  1.00  0.00    -0.253 NA
ATOM     14  C   UNL A   1      46.730  24.844  27.790  1.00  0.00     0.072 A 
ATOM     15  C   UNL A   1      46.539  24.387  26.470  1.00  0.00     0.014 A 
ATOM     16  C   UNL A   1      47.780  25.710  28.070  1.00  0.00     0.029 A 
ATOM     17  C   UNL A   1      47.399  24.910  25.462  1.00  0.00     0.024 A 
ATOM     18  C   UNL A   1      48.629  26.196  27.073  1.00  0.00     0.015 A 
ATOM     19  C   UNL A   1      48.427  25.822  25.747  1.00  0.00     0.056 A 
BRANCH  19  20
ATOM     20  C   UNL A   1      49.273  26.386  24.630  1.00  0.00     0.416 C 
ATOM     21  F   UNL A   1      49.242  27.744  24.581  1.00  0.00    -0.166 F 
ATOM     22  F   UNL A   1      50.585  26.042  24.760  1.00  0.00    -0.166 F 
ATOM     23  F   UNL A   1      48.900  25.953  23.394  1.00  0.00    -0.166 F 
ENDBRANCH  19  20
ENDBRANCH   8   9
ENDBRANCH   7   8
ENDBRANCH   5   7
ENDBRANCH   4   5
ENDBRANCH   3   4
ENDBRANCH   2   3
ENDBRANCH   1   2
BRANCH   1  24
ATOM     24  C   UNL A   1      41.126  19.869  27.502  1.00  0.00     0.202 C 
BRANCH  24  25
ATOM     25  C   UNL A   1      40.363  20.503  26.336  1.00  0.00     0.261 C 
BRANCH  25  26
ATOM     26  O   UNL A   1      40.135  21.902  26.511  1.00  0.00    -0.460 OA
BRANCH  26  27
ATOM     27  C   UNL A   1      41.172  22.671  26.113  1.00  0.00     0.338 C 
ATOM     28  O   UNL A   1      42.015  22.404  25.267  1.00  0.00    -0.246 OA
BRANCH  27  29
ATOM     29  C   UNL A   1      41.058  23.997  26.727  1.00  0.00     0.060 A 
ATOM     30  C   UNL A   1      41.049  25.097  25.863  1.00  0.00     0.016 A 
ATOM     31  C   UNL A   1      41.036  24.161  28.114  1.00  0.00     0.016 A 
ATOM     32  C   UNL A   1      41.082  26.381  26.389  1.00  0.00     0.010 A 
ATOM     33  C   UNL A   1      41.074  25.452  28.639  1.00  0.00     0.010 A 
ATOM     34  C   UNL A   1      41.139  26.561  27.777  1.00  0.00    -0.014 A 
BRANCH  34  35
ATOM     35  C   UNL A   1      41.443  27.906  28.309  1.00  0.00     0.031 A 
ATOM     36  C   UNL A   1      42.878  28.348  28.361  1.00  0.00     0.074 A 
ATOM     37  C   UNL A   1      40.445  28.725  28.683  1.00  0.00     0.049 A 
ATOM     38  N   UNL A   1      43.385  29.471  28.793  1.00  0.00    -0.248 NA
ATOM     39  C   UNL A   1      43.875  27.387  27.859  1.00  0.00     0.031 C 
ATOM     40  C   UNL A   1      39.020  28.397  28.618  1.00  0.00     0.029 A 
ATOM     41  N   UNL A   1      40.476  29.996  29.188  1.00  0.00    -0.354 N 
ATOM     42  C   UNL A   1      44.760  29.357  28.611  1.00  0.00     0.074 A 
ATOM     43  C   UNL A   1      45.008  28.036  28.074  1.00  0.00     0.031 C 
ATOM     44  C   UNL A   1      38.312  29.445  29.074  1.00  0.00     0.029 A 
ATOM     45  C   UNL A   1      39.233  30.497  29.494  1.00  0.00     0.049 A 
ATOM     46  H   UNL A   1      41.310  30.504  29.319  1.00  0.00     0.167 HD
ATOM     47  C   UNL A   1      45.723  30.278  28.861  1.00  0.00     0.034 A 
ATOM     48  C   UNL A   1      38.888  31.665  30.071  1.00  0.00     0.034 A 
ATOM     49  C   UNL A   1      45.444  31.578  29.418  1.00  0.00     0.049 A 
ATOM     50  C   UNL A   1      39.986  32.639  30.428  1.00  0.00     0.074 A 
ATOM     51  C   UNL A   1      46.329  32.595  29.727  1.00  0.00     0.029 A 
ATOM     52  N   UNL A   1      44.177  32.036  29.762  1.00  0.00    -0.354 N 
ATOM     53  N   UNL A   1      41.284  32.523  30.252  1.00  0.00    -0.248 NA
ATOM     54  C   UNL A   1      39.574  33.902  31.051  1.00  0.00     0.031 C 
ATOM     55  C   UNL A   1      45.607  33.637  30.319  1.00  0.00     0.029 A 
ATOM     56  C   UNL A   1      44.261  33.306  30.308  1.00  0.00     0.049 A 
ATOM     57  H   UNL A   1      43.341  31.531  29.636  1.00  0.00     0.167 HD
ATOM     58  C   UNL A   1      41.838  33.713  30.713  1.00  0.00     0.074 A 
ATOM     59  C   UNL A   1      40.733  34.535  31.165  1.00  0.00     0.031 C 
ATOM     60  C   UNL A   1      43.139  34.099  30.755  1.00  0.00     0.034 A 
BRANCH  47  61
ATOM     61  C   UNL A   1      47.151  29.878  28.584  1.00  0.00     0.023 A 
ATOM     62  C   UNL A   1      47.938  29.224  29.549  1.00  0.00     0.031 A 
ATOM     63  C   UNL A   1      47.753  30.196  27.353  1.00  0.00     0.131 A 
ATOM     64  C   UNL A   1      49.297  28.977  29.297  1.00  0.00     0.055 A 
ATOM     65  C   UNL A   1      49.084  29.877  27.078  1.00  0.00     0.041 A 
ATOM     66  F   UNL A   1      47.061  30.843  26.402  1.00  0.00    -0.206 F 
ATOM     67  C   UNL A   1      49.869  29.276  28.058  1.00  0.00     0.022 A 
BRANCH  64  68
ATOM     68  S   UNL A   1      50.341  28.390  30.660  1.00  0.00     0.124 S 
ATOM     69  O   UNL A   1      49.450  28.554  31.806  1.00  0.00    -0.237 OA
ATOM     70  O   UNL A   1      50.631  27.016  30.266  1.00  0.00    -0.237 OA
ATOM     71  O   UNL A   1      51.484  29.301  30.633  1.00  0.00    -0.744 OA
ENDBRANCH  64  68
ENDBRANCH  47  61
BRANCH  48  72
ATOM     72  C   UNL A   1      37.462  31.966  30.378  1.00  0.00     0.023 A 
ATOM     73  C   UNL A   1      36.635  32.609  29.445  1.00  0.00     0.031 A 
ATOM     74  C   UNL A   1      36.914  31.650  31.636  1.00  0.00     0.131 A 
ATOM     75  C   UNL A   1      35.320  32.957  29.796  1.00  0.00     0.055 A 
ATOM     76  C   UNL A   1      35.590  31.951  31.963  1.00  0.00     0.041 A 
ATOM     77  F   UNL A   1      37.659  31.034  32.567  1.00  0.00    -0.206 F 
ATOM     78  C   UNL A   1      34.789  32.621  31.043  1.00  0.00     0.022 A 
BRANCH  75  79
ATOM     79  S   UNL A   1      34.339  33.937  28.628  1.00  0.00     0.124 S 
ATOM     80  O   UNL A   1      33.096  34.124  29.368  1.00  0.00    -0.237 OA
ATOM     81  O   UNL A   1      35.171  35.125  28.458  1.00  0.00    -0.237 OA
ATOM     82  O   UNL A   1      34.244  33.073  27.454  1.00  0.00    -0.744 OA
ENDBRANCH  75  79
ENDBRANCH  48  72
BRANCH  60  83
ATOM     83  C   UNL A   1      43.422  35.490  31.264  1.00  0.00     0.023 A 
ATOM     84  C   UNL A   1      43.456  35.783  32.638  1.00  0.00     0.031 A 
ATOM     85  C   UNL A   1      43.664  36.536  30.356  1.00  0.00     0.131 A 
ATOM     86  C   UNL A   1      43.677  37.101  33.063  1.00  0.00     0.055 A 
ATOM     87  C   UNL A   1      43.941  37.832  30.786  1.00  0.00     0.041 A 
ATOM     88  F   UNL A   1      43.643  36.309  29.032  1.00  0.00    -0.206 F 
ATOM     89  C   UNL A   1      43.938  38.124  32.147  1.00  0.00     0.022 A 
BRANCH  86  90
ATOM     90  S   UNL A   1      43.543  37.479  34.833  1.00  0.00     0.124 S 
ATOM     91  O   UNL A   1      43.794  38.917  34.855  1.00  0.00    -0.237 OA
ATOM     92  O   UNL A   1      42.177  37.066  35.138  1.00  0.00    -0.237 OA
ATOM     93  O   UNL A   1      44.588  36.657  35.439  1.00  0.00    -0.744 OA
ENDBRANCH  86  90
ENDBRANCH  60  83
ENDBRANCH  34  35
ENDBRANCH  27  29
ENDBRANCH  26  27
ENDBRANCH  25  26
ENDBRANCH  24  25
ENDBRANCH   1  24
TORSDOF 20
ENDMDL
MODEL 3
REMARK VINA RESULT:     -11.1      1.908      2.170
REMARK SMILES Cc1cc(SCC(=O)OCCOCCOC(=O)c2ccc(-c3c4nc(c(-c5cc(S(=O)(=O)[O-])ccc5F)c5ccc([nH]5)c(-c5cc(S(=O)(=O)[O-])ccc5F)c5nc(c(-c6cc(S(=O)(=O)[O-])ccc6F)c6ccc3[nH]6)C=C5)C=C4)cc2)c2cc(C(F)(F)F)ccc2n1
REMARK SMILES IDX 12 1 11 2 10 3 9 4 7 5 8 6 6 7 5 8 4 9 1 10 2 11 3 12 91 13
REMARK SMILES IDX 90 14 81 15 89 16 82 17 88 18 83 19 84 20 85 21 86 22 87 23
REMARK SMILES IDX 13 24 14 25 15 26 16 27 17 28 18 29 19 30 80 31 20 32 79 33
REMARK SMILES IDX 21 34 22 35 23 36 73 37 24 38 78 39 72 40 74 41 25 42 77 43
REMARK SMILES IDX 71 44 70 45 26 47 58 48 38 49 57 50 39 51 42 52 56 53 75 54
REMARK SMILES IDX 40 55 41 56 55 58 76 59 43 60 27 61 28 62 36 63 29 64 35 65
REMARK SMILES IDX 37 66 34 67 30 68 31 69 32 70 33 71 59 72 60 73 68 74 61 75
REMARK SMILES IDX 67 76 69 77 66 78 62 79 63 80 64 81 65 82 44 83 45 84 53 85
REMARK SMILES IDX 46 86 52 87 54 88 51 89 47 90 48 91 49 92 50 93
REMARK H PARENT 74 46 42 57
REMARK Flexibility Score: inf
ROOT
ATOM      1  O   UNL A   1      31.407  28.760  26.046  1.00  0.00    -0.374 OA
ENDROOT
BRANCH   1   2
ATOM      2  C   UNL A   1      31.423  27.473  25.427  1.00  0.00     0.202 C 
BRANCH   2   3
ATOM      3  C   UNL A   1      30.918  26.287  26.261  1.00  0.00     0.261 C 
BRANCH   3   4
ATOM      4  O   UNL A   1      31.952  25.352  26.638  1.00  0.00    -0.463 OA
BRANCH   4   5
ATOM      5  C   UNL A   1      31.590  24.042  26.681  1.00  0.00     0.316 C 
ATOM      6  O   UNL A   1      31.614  23.352  27.698  1.00  0.00    -0.251 OA
BRANCH   5   7
ATOM      7  C   UNL A   1      31.180  23.432  25.356  1.00  0.00     0.197 C 
BRANCH   7   8
ATOM      8  S   UNL A   1      31.783  21.761  24.979  1.00  0.00    -0.114 SA
BRANCH   8   9
ATOM      9  C   UNL A   1      33.592  21.837  24.903  1.00  0.00     0.019 A 
ATOM     10  C   UNL A   1      36.468  24.199  25.601  1.00  0.00     0.067 C 
ATOM     11  C   UNL A   1      35.683  22.984  25.203  1.00  0.00     0.039 A 
ATOM     12  C   UNL A   1      34.301  23.031  25.065  1.00  0.00     0.039 A 
ATOM     13  N   UNL A   1      36.378  21.829  25.157  1.00  0.00    -0.253 NA
ATOM     14  C   UNL A   1      35.721  20.680  24.952  1.00  0.00     0.072 A 
ATOM     15  C   UNL A   1      34.322  20.614  24.785  1.00  0.00     0.014 A 
ATOM     16  C   UNL A   1      36.469  19.511  24.930  1.00  0.00     0.029 A 
ATOM     17  C   UNL A   1      33.751  19.336  24.519  1.00  0.00     0.024 A 
ATOM     18  C   UNL A   1      35.892  18.261  24.689  1.00  0.00     0.015 A 
ATOM     19  C   UNL A   1      34.523  18.165  24.450  1.00  0.00     0.056 A 
BRANCH  19  20
ATOM     20  C   UNL A   1      33.872  16.846  24.109  1.00  0.00     0.416 C 
ATOM     21  F   UNL A   1      34.175  16.417  22.856  1.00  0.00    -0.166 F 
ATOM     22  F   UNL A   1      34.262  15.851  24.955  1.00  0.00    -0.166 F 
ATOM     23  F   UNL A   1      32.512  16.877  24.180  1.00  0.00    -0.166 F 
ENDBRANCH  19  20
ENDBRANCH   8   9
ENDBRANCH   7   8
ENDBRANCH   5   7
ENDBRANCH   4   5
ENDBRANCH   3   4
ENDBRANCH   2   3
ENDBRANCH   1   2
BRANCH   1  24
ATOM     24  C   UNL A   1      32.623  29.500  26.034  1.00  0.00     0.202 C 
BRANCH  24  25
ATOM     25  C   UNL A   1      32.583  30.943  26.547  1.00  0.00     0.261 C 
BRANCH  25  26
ATOM     26  O   UNL A   1      33.153  31.089  27.848  1.00  0.00    -0.460 OA
BRANCH  26  27
ATOM     27  C   UNL A   1      34.055  32.092  27.931  1.00  0.00     0.338 C 
ATOM     28  O   UNL A   1      33.832  33.296  27.944  1.00  0.00    -0.246 OA
BRANCH  27  29
ATOM     29  C   UNL A   1      35.385  31.531  28.186  1.00  0.00     0.060 A 
ATOM     30  C   UNL A   1      35.465  30.145  28.357  1.00  0.00     0.016 A 
ATOM     31  C   UNL A   1      36.508  32.349  28.329  1.00  0.00     0.016 A 
ATOM     32  C   UNL A   1      36.670  29.571  28.738  1.00  0.00     0.010 A 
ATOM     33  C   UNL A   1      37.716  31.770  28.716  1.00  0.00     0.010 A 
ATOM     34  C   UNL A   1      37.787  30.386  28.960  1.00  0.00    -0.014 A 
BRANCH  34  35
ATOM     35  C   UNL A   1      38.975  29.802  29.617  1.00  0.00     0.031 A 
ATOM     36  C   UNL A   1      39.343  30.286  30.991  1.00  0.00     0.074 A 
ATOM     37  C   UNL A   1      39.670  28.824  29.011  1.00  0.00     0.049 A 
ATOM     38  N   UNL A   1      40.340  29.931  31.757  1.00  0.00    -0.248 NA
ATOM     39  C   UNL A   1      38.466  31.312  31.579  1.00  0.00     0.031 C 
ATOM     40  C   UNL A   1      39.353  28.259  27.698  1.00  0.00     0.029 A 
ATOM     41  N   UNL A   1      40.779  28.135  29.417  1.00  0.00    -0.354 N 
ATOM     42  C   UNL A   1      40.210  30.685  32.919  1.00  0.00     0.074 A 
ATOM     43  C   UNL A   1      39.063  31.550  32.735  1.00  0.00     0.031 C 
ATOM     44  C   UNL A   1      40.256  27.307  27.407  1.00  0.00     0.029 A 
ATOM     45  C   UNL A   1      41.231  27.224  28.491  1.00  0.00     0.049 A 
ATOM     46  H   UNL A   1      41.213  28.275  30.290  1.00  0.00     0.167 HD
ATOM     47  C   UNL A   1      40.972  30.648  34.038  1.00  0.00     0.034 A 
ATOM     48  C   UNL A   1      42.322  26.434  28.514  1.00  0.00     0.034 A 
ATOM     49  C   UNL A   1      42.123  29.790  34.180  1.00  0.00     0.049 A 
ATOM     50  C   UNL A   1      43.212  26.477  29.733  1.00  0.00     0.074 A 
ATOM     51  C   UNL A   1      42.982  29.667  35.257  1.00  0.00     0.029 A 
ATOM     52  N   UNL A   1      42.582  28.914  33.203  1.00  0.00    -0.354 N 
ATOM     53  N   UNL A   1      43.080  27.193  30.828  1.00  0.00    -0.248 NA
ATOM     54  C   UNL A   1      44.389  25.603  29.725  1.00  0.00     0.031 C 
ATOM     55  C   UNL A   1      43.996  28.769  34.905  1.00  0.00     0.029 A 
ATOM     56  C   UNL A   1      43.728  28.271  33.639  1.00  0.00     0.049 A 
ATOM     57  H   UNL A   1      42.154  28.772  32.327  1.00  0.00     0.167 HD
ATOM     58  C   UNL A   1      44.140  26.828  31.652  1.00  0.00     0.074 A 
ATOM     59  C   UNL A   1      44.895  25.823  30.931  1.00  0.00     0.031 C 
ATOM     60  C   UNL A   1      44.462  27.275  32.893  1.00  0.00     0.034 A 
BRANCH  47  61
ATOM     61  C   UNL A   1      40.611  31.598  35.154  1.00  0.00     0.023 A 
ATOM     62  C   UNL A   1      39.597  31.299  36.082  1.00  0.00     0.031 A 
ATOM     63  C   UNL A   1      41.257  32.842  35.266  1.00  0.00     0.131 A 
ATOM     64  C   UNL A   1      39.209  32.258  37.031  1.00  0.00     0.055 A 
ATOM     65  C   UNL A   1      40.920  33.761  36.262  1.00  0.00     0.041 A 
ATOM     66  F   UNL A   1      42.214  33.196  34.394  1.00  0.00    -0.206 F 
ATOM     67  C   UNL A   1      39.880  33.478  37.143  1.00  0.00     0.022 A 
BRANCH  64  68
ATOM     68  S   UNL A   1      37.721  31.948  38.022  1.00  0.00     0.124 S 
ATOM     69  O   UNL A   1      38.223  32.153  39.378  1.00  0.00    -0.237 OA
ATOM     70  O   UNL A   1      36.794  32.957  37.523  1.00  0.00    -0.237 OA
ATOM     71  O   UNL A   1      37.373  30.566  37.696  1.00  0.00    -0.744 OA
ENDBRANCH  64  68
ENDBRANCH  47  61
BRANCH  48  72
ATOM     72  C   UNL A   1      42.656  25.570  27.347  1.00  0.00     0.023 A 
ATOM     73  C   UNL A   1      42.207  24.243  27.271  1.00  0.00     0.031 A 
ATOM     74  C   UNL A   1      43.472  26.050  26.305  1.00  0.00     0.131 A 
ATOM     75  C   UNL A   1      42.611  23.427  26.202  1.00  0.00     0.055 A 
ATOM     76  C   UNL A   1      43.827  25.251  25.216  1.00  0.00     0.041 A 
ATOM     77  F   UNL A   1      43.929  27.312  26.326  1.00  0.00    -0.206 F 
ATOM     78  C   UNL A   1      43.407  23.926  25.168  1.00  0.00     0.022 A 
BRANCH  75  79
ATOM     79  S   UNL A   1      42.151  21.673  26.225  1.00  0.00     0.124 S 
ATOM     80  O   UNL A   1      43.067  21.112  25.237  1.00  0.00    -0.237 OA
ATOM     81  O   UNL A   1      42.409  21.313  27.616  1.00  0.00    -0.237 OA
ATOM     82  O   UNL A   1      40.744  21.684  25.837  1.00  0.00    -0.744 OA
ENDBRANCH  75  79
ENDBRANCH  48  72
BRANCH  60  83
ATOM     83  C   UNL A   1      45.654  26.637  33.560  1.00  0.00     0.023 A 
ATOM     84  C   UNL A   1      46.965  27.081  33.316  1.00  0.00     0.031 A 
ATOM     85  C   UNL A   1      45.471  25.569  34.457  1.00  0.00     0.131 A 
ATOM     86  C   UNL A   1      48.046  26.426  33.924  1.00  0.00     0.055 A 
ATOM     87  C   UNL A   1      46.545  24.960  35.103  1.00  0.00     0.041 A 
ATOM     88  F   UNL A   1      44.238  25.107  34.725  1.00  0.00    -0.206 F 
ATOM     89  C   UNL A   1      47.843  25.381  34.830  1.00  0.00     0.022 A 
BRANCH  86  90
ATOM     90  S   UNL A   1      49.731  26.908  33.455  1.00  0.00     0.124 S 
ATOM     91  O   UNL A   1      49.987  26.039  32.311  1.00  0.00    -0.237 OA
ATOM     92  O   UNL A   1      49.578  28.328  33.154  1.00  0.00    -0.237 OA
ATOM     93  O   UNL A   1      50.518  26.609  34.650  1.00  0.00    -0.744 OA
ENDBRANCH  86  90
ENDBRANCH  60  83
ENDBRANCH  34  35
ENDBRANCH  27  29
ENDBRANCH  26  27
ENDBRANCH  25  26
ENDBRANCH  24  25
ENDBRANCH   1  24
TORSDOF 20
ENDMDL
