MODEL 1
REMARK VINA RESULT:      -9.9      0.000      0.000
REMARK SMILES Cc1cc(Br)cnc1SCC1(CC(=O)OCCOCCOC(=O)c2ccc(-c3c4nc(c(-c5cc(S(=O)(=O)[O-])ccc5F)c5ccc([nH]5)c(-c5cc(S(=O)(=O)[O-])ccc5F)c5nc(c(-c6cc(S(=O)(=O)[O-])ccc6F)c6ccc3[nH]6)C=C5)C=C4)cc2)CC1
REMARK SMILES IDX 17 1 16 2 15 3 13 4 14 5 12 6 11 7 87 8 88 9 10 10 9 11 8 12
REMARK SMILES IDX 1 13 2 14 3 15 4 16 7 17 5 18 6 19 18 20 19 21 20 22 21 23
REMARK SMILES IDX 22 24 23 25 24 26 25 27 86 28 26 29 85 30 27 31 28 32 29 33
REMARK SMILES IDX 79 34 30 35 84 36 78 37 80 38 31 39 83 40 77 41 76 42 32 44
REMARK SMILES IDX 64 45 44 46 63 47 45 48 48 49 62 50 81 51 46 52 47 53 61 55
REMARK SMILES IDX 82 56 49 57 33 58 34 59 42 60 35 61 41 62 43 63 40 64 36 65
REMARK SMILES IDX 37 66 38 67 39 68 65 69 66 70 74 71 67 72 73 73 75 74 72 75
REMARK SMILES IDX 68 76 69 77 70 78 71 79 50 80 51 81 59 82 52 83 58 84 60 85
REMARK SMILES IDX 57 86 53 87 54 88 55 89 56 90
REMARK H PARENT 80 43 48 54
REMARK Flexibility Score: inf
ROOT
ATOM      1  C   UNL A   1      35.648  21.579  25.040  1.00  0.00     0.202 C 
ENDROOT
BRANCH   1   2
ATOM      2  C   UNL A   1      34.748  20.356  25.219  1.00  0.00     0.261 C 
BRANCH   2   3
ATOM      3  O   UNL A   1      33.865  20.183  24.085  1.00  0.00    -0.463 OA
BRANCH   3   4
ATOM      4  C   UNL A   1      32.566  20.541  24.274  1.00  0.00     0.306 C 
ATOM      5  O   UNL A   1      31.786  19.964  25.023  1.00  0.00    -0.252 OA
BRANCH   4   6
ATOM      6  C   UNL A   1      32.121  21.658  23.351  1.00  0.00     0.130 C 
BRANCH   6   7
ATOM      7  C   UNL A   1      31.942  23.056  23.934  1.00  0.00    -0.010 C 
ATOM      8  C   UNL A   1      30.705  23.824  23.505  1.00  0.00     0.009 C 
ATOM      9  C   UNL A   1      32.041  24.217  22.955  1.00  0.00     0.009 C 
BRANCH   7  10
ATOM     10  C   UNL A   1      32.510  23.336  25.300  1.00  0.00     0.084 C 
BRANCH  10  11
ATOM     11  S   UNL A   1      31.587  24.314  26.487  1.00  0.00    -0.106 SA
BRANCH  11  12
ATOM     12  C   UNL A   1      32.095  26.018  26.409  1.00  0.00     0.099 A 
ATOM     13  C   UNL A   1      34.437  25.876  25.308  1.00  0.00     0.047 C 
ATOM     14  C   UNL A   1      33.284  26.592  25.940  1.00  0.00    -0.018 A 
ATOM     15  C   UNL A   1      33.453  27.989  26.086  1.00  0.00     0.023 A 
ATOM     16  C   UNL A   1      32.513  28.751  26.758  1.00  0.00     0.036 A 
ATOM     17  N   UNL A   1      31.173  26.786  27.060  1.00  0.00    -0.248 NA
ATOM     18  Br  UNL A   1      32.776  30.595  27.036  1.00  0.00    -0.049 Br
ATOM     19  C   UNL A   1      31.400  28.107  27.240  1.00  0.00     0.128 A 
ENDBRANCH  11  12
ENDBRANCH  10  11
ENDBRANCH   7  10
ENDBRANCH   6   7
ENDBRANCH   4   6
ENDBRANCH   3   4
ENDBRANCH   2   3
ENDBRANCH   1   2
BRANCH   1  20
ATOM     20  O   UNL A   1      37.055  21.307  25.019  1.00  0.00    -0.374 OA
BRANCH  20  21
ATOM     21  C   UNL A   1      37.431  19.938  24.921  1.00  0.00     0.202 C 
BRANCH  21  22
ATOM     22  C   UNL A   1      38.846  19.610  25.422  1.00  0.00     0.261 C 
BRANCH  22  23
ATOM     23  O   UNL A   1      39.628  20.790  25.685  1.00  0.00    -0.460 OA
BRANCH  23  24
ATOM     24  C   UNL A   1      40.311  20.747  26.856  1.00  0.00     0.338 C 
ATOM     25  O   UNL A   1      40.738  19.745  27.420  1.00  0.00    -0.246 OA
BRANCH  24  26
ATOM     26  C   UNL A   1      40.652  22.105  27.318  1.00  0.00     0.060 A 
ATOM     27  C   UNL A   1      40.119  23.174  26.586  1.00  0.00     0.016 A 
ATOM     28  C   UNL A   1      41.536  22.340  28.375  1.00  0.00     0.016 A 
ATOM     29  C   UNL A   1      40.510  24.479  26.871  1.00  0.00     0.010 A 
ATOM     30  C   UNL A   1      41.932  23.656  28.655  1.00  0.00     0.010 A 
ATOM     31  C   UNL A   1      41.450  24.729  27.882  1.00  0.00    -0.014 A 
BRANCH  31  32
ATOM     32  C   UNL A   1      42.022  26.094  28.002  1.00  0.00     0.031 A 
ATOM     33  C   UNL A   1      41.250  27.147  28.753  1.00  0.00     0.074 A 
ATOM     34  C   UNL A   1      43.250  26.369  27.523  1.00  0.00     0.049 A 
ATOM     35  N   UNL A   1      41.573  28.387  29.016  1.00  0.00    -0.248 NA
ATOM     36  C   UNL A   1      39.937  26.744  29.279  1.00  0.00     0.031 C 
ATOM     37  C   UNL A   1      44.111  25.417  26.822  1.00  0.00     0.029 A 
ATOM     38  N   UNL A   1      43.991  27.523  27.563  1.00  0.00    -0.354 N 
ATOM     39  C   UNL A   1      40.512  28.910  29.748  1.00  0.00     0.074 A 
ATOM     40  C   UNL A   1      39.514  27.864  29.845  1.00  0.00     0.031 C 
ATOM     41  C   UNL A   1      45.262  26.028  26.496  1.00  0.00     0.029 A 
ATOM     42  C   UNL A   1      45.211  27.421  26.936  1.00  0.00     0.049 A 
ATOM     43  H   UNL A   1      43.677  28.349  27.999  1.00  0.00     0.167 HD
ATOM     44  C   UNL A   1      40.386  30.142  30.300  1.00  0.00     0.034 A 
ATOM     45  C   UNL A   1      46.168  28.348  26.727  1.00  0.00     0.034 A 
ATOM     46  C   UNL A   1      41.381  31.180  30.183  1.00  0.00     0.049 A 
ATOM     47  C   UNL A   1      45.967  29.741  27.278  1.00  0.00     0.074 A 
ATOM     48  C   UNL A   1      41.355  32.465  30.699  1.00  0.00     0.029 A 
ATOM     49  N   UNL A   1      42.581  31.057  29.492  1.00  0.00    -0.354 N 
ATOM     50  N   UNL A   1      44.960  30.218  27.973  1.00  0.00    -0.248 NA
ATOM     51  C   UNL A   1      47.038  30.714  27.028  1.00  0.00     0.031 C 
ATOM     52  C   UNL A   1      42.502  33.138  30.264  1.00  0.00     0.029 A 
ATOM     53  C   UNL A   1      43.285  32.251  29.542  1.00  0.00     0.049 A 
ATOM     54  H   UNL A   1      42.886  30.241  29.034  1.00  0.00     0.167 HD
ATOM     55  C   UNL A   1      45.291  31.539  28.264  1.00  0.00     0.074 A 
ATOM     56  C   UNL A   1      46.599  31.775  27.688  1.00  0.00     0.031 C 
ATOM     57  C   UNL A   1      44.582  32.474  28.948  1.00  0.00     0.034 A 
BRANCH  44  58
ATOM     58  C   UNL A   1      39.103  30.445  31.039  1.00  0.00     0.023 A 
ATOM     59  C   UNL A   1      38.042  31.137  30.428  1.00  0.00     0.031 A 
ATOM     60  C   UNL A   1      38.948  30.050  32.379  1.00  0.00     0.131 A 
ATOM     61  C   UNL A   1      36.900  31.466  31.175  1.00  0.00     0.055 A 
ATOM     62  C   UNL A   1      37.778  30.317  33.094  1.00  0.00     0.041 A 
ATOM     63  F   UNL A   1      39.934  29.407  33.021  1.00  0.00    -0.206 F 
ATOM     64  C   UNL A   1      36.751  31.040  32.496  1.00  0.00     0.022 A 
BRANCH  61  65
ATOM     65  S   UNL A   1      35.665  32.570  30.434  1.00  0.00     0.124 S 
ATOM     66  O   UNL A   1      36.507  33.635  29.895  1.00  0.00    -0.237 OA
ATOM     67  O   UNL A   1      35.019  31.706  29.452  1.00  0.00    -0.237 OA
ATOM     68  O   UNL A   1      34.829  32.959  31.568  1.00  0.00    -0.744 OA
ENDBRANCH  61  65
ENDBRANCH  44  58
BRANCH  45  69
ATOM     69  C   UNL A   1      47.382  28.019  25.923  1.00  0.00     0.023 A 
ATOM     70  C   UNL A   1      47.389  28.134  24.524  1.00  0.00     0.031 A 
ATOM     71  C   UNL A   1      48.538  27.517  26.547  1.00  0.00     0.131 A 
ATOM     72  C   UNL A   1      48.509  27.706  23.792  1.00  0.00     0.055 A 
ATOM     73  C   UNL A   1      49.670  27.145  25.820  1.00  0.00     0.041 A 
ATOM     74  F   UNL A   1      48.587  27.383  27.882  1.00  0.00    -0.206 F 
ATOM     75  C   UNL A   1      49.653  27.224  24.431  1.00  0.00     0.022 A 
BRANCH  72  76
ATOM     76  S   UNL A   1      48.412  27.692  21.979  1.00  0.00     0.124 S 
ATOM     77  O   UNL A   1      49.524  28.562  21.616  1.00  0.00    -0.237 OA
ATOM     78  O   UNL A   1      48.580  26.274  21.680  1.00  0.00    -0.237 OA
ATOM     79  O   UNL A   1      47.081  28.232  21.707  1.00  0.00    -0.744 OA
ENDBRANCH  72  76
ENDBRANCH  45  69
BRANCH  57  80
ATOM     80  C   UNL A   1      45.231  33.825  29.134  1.00  0.00     0.023 A 
ATOM     81  C   UNL A   1      44.960  34.901  28.270  1.00  0.00     0.031 A 
ATOM     82  C   UNL A   1      46.146  34.034  30.183  1.00  0.00     0.131 A 
ATOM     83  C   UNL A   1      45.643  36.116  28.432  1.00  0.00     0.055 A 
ATOM     84  C   UNL A   1      46.775  35.264  30.376  1.00  0.00     0.041 A 
ATOM     85  F   UNL A   1      46.442  33.042  31.038  1.00  0.00    -0.206 F 
ATOM     86  C   UNL A   1      46.536  36.309  29.488  1.00  0.00     0.022 A 
BRANCH  83  87
ATOM     87  S   UNL A   1      45.418  37.412  27.183  1.00  0.00     0.124 S 
ATOM     88  O   UNL A   1      45.775  38.616  27.927  1.00  0.00    -0.237 OA
ATOM     89  O   UNL A   1      46.354  37.007  26.140  1.00  0.00    -0.237 OA
ATOM     90  O   UNL A   1      44.005  37.302  26.824  1.00  0.00    -0.744 OA
ENDBRANCH  83  87
ENDBRANCH  57  80
ENDBRANCH  31  32
ENDBRANCH  24  26
ENDBRANCH  23  24
ENDBRANCH  22  23
ENDBRANCH  21  22
ENDBRANCH  20  21
ENDBRANCH   1  20
TORSDOF 21
ENDMDL
MODEL 2
REMARK VINA RESULT:      -9.6      3.491      8.181
REMARK SMILES Cc1cc(Br)cnc1SCC1(CC(=O)OCCOCCOC(=O)c2ccc(-c3c4nc(c(-c5cc(S(=O)(=O)[O-])ccc5F)c5ccc([nH]5)c(-c5cc(S(=O)(=O)[O-])ccc5F)c5nc(c(-c6cc(S(=O)(=O)[O-])ccc6F)c6ccc3[nH]6)C=C5)C=C4)cc2)CC1
REMARK SMILES IDX 17 1 16 2 15 3 13 4 14 5 12 6 11 7 87 8 88 9 10 10 9 11 8 12
REMARK SMILES IDX 1 13 2 14 3 15 4 16 7 17 5 18 6 19 18 20 19 21 20 22 21 23
REMARK SMILES IDX 22 24 23 25 24 26 25 27 86 28 26 29 85 30 27 31 28 32 29 33
REMARK SMILES IDX 79 34 30 35 84 36 78 37 80 38 31 39 83 40 77 41 76 42 32 44
REMARK SMILES IDX 64 45 44 46 63 47 45 48 48 49 62 50 81 51 46 52 47 53 61 55
REMARK SMILES IDX 82 56 49 57 33 58 34 59 42 60 35 61 41 62 43 63 40 64 36 65
REMARK SMILES IDX 37 66 38 67 39 68 65 69 66 70 74 71 67 72 73 73 75 74 72 75
REMARK SMILES IDX 68 76 69 77 70 78 71 79 50 80 51 81 59 82 52 83 58 84 60 85
REMARK SMILES IDX 57 86 53 87 54 88 55 89 56 90
REMARK H PARENT 80 43 48 54
REMARK Flexibility Score: inf
ROOT
ATOM      1  C   UNL A   1      35.300  23.401  24.715  1.00  0.00     0.202 C 
ENDROOT
BRANCH   1   2
ATOM      2  C   UNL A   1      35.076  22.981  23.261  1.00  0.00     0.261 C 
BRANCH   2   3
ATOM      3  O   UNL A   1      33.719  23.258  22.838  1.00  0.00    -0.463 OA
BRANCH   3   4
ATOM      4  C   UNL A   1      32.749  22.470  23.376  1.00  0.00     0.306 C 
ATOM      5  O   UNL A   1      32.893  21.289  23.670  1.00  0.00    -0.252 OA
BRANCH   4   6
ATOM      6  C   UNL A   1      31.403  23.163  23.453  1.00  0.00     0.130 C 
BRANCH   6   7
ATOM      7  C   UNL A   1      31.373  24.676  23.638  1.00  0.00    -0.010 C 
ATOM      8  C   UNL A   1      31.939  25.221  24.937  1.00  0.00     0.009 C 
ATOM      9  C   UNL A   1      30.456  25.209  24.730  1.00  0.00     0.009 C 
BRANCH   7  10
ATOM     10  C   UNL A   1      31.457  25.545  22.411  1.00  0.00     0.084 C 
BRANCH  10  11
ATOM     11  S   UNL A   1      32.366  27.092  22.451  1.00  0.00    -0.106 SA
BRANCH  11  12
ATOM     12  C   UNL A   1      31.287  28.428  22.916  1.00  0.00     0.099 A 
ATOM     13  C   UNL A   1      32.213  29.147  25.228  1.00  0.00     0.047 C 
ATOM     14  C   UNL A   1      31.258  29.213  24.076  1.00  0.00    -0.018 A 
ATOM     15  C   UNL A   1      30.215  30.160  24.216  1.00  0.00     0.023 A 
ATOM     16  C   UNL A   1      29.201  30.241  23.278  1.00  0.00     0.036 A 
ATOM     17  N   UNL A   1      30.284  28.529  21.995  1.00  0.00    -0.248 NA
ATOM     18  Br  UNL A   1      27.762  31.435  23.505  1.00  0.00    -0.049 Br
ATOM     19  C   UNL A   1      29.268  29.398  22.195  1.00  0.00     0.128 A 
ENDBRANCH  11  12
ENDBRANCH  10  11
ENDBRANCH   7  10
ENDBRANCH   6   7
ENDBRANCH   4   6
ENDBRANCH   3   4
ENDBRANCH   2   3
ENDBRANCH   1   2
BRANCH   1  20
ATOM     20  O   UNL A   1      35.797  22.373  25.580  1.00  0.00    -0.374 OA
BRANCH  20  21
ATOM     21  C   UNL A   1      36.573  21.351  24.965  1.00  0.00     0.202 C 
BRANCH  21  22
ATOM     22  C   UNL A   1      38.082  21.417  25.245  1.00  0.00     0.261 C 
BRANCH  22  23
ATOM     23  O   UNL A   1      38.394  22.178  26.426  1.00  0.00    -0.460 OA
BRANCH  23  24
ATOM     24  C   UNL A   1      39.667  22.647  26.458  1.00  0.00     0.338 C 
ATOM     25  O   UNL A   1      40.666  22.085  26.023  1.00  0.00    -0.246 OA
BRANCH  24  26
ATOM     26  C   UNL A   1      39.704  24.039  26.939  1.00  0.00     0.060 A 
ATOM     27  C   UNL A   1      40.206  25.002  26.054  1.00  0.00     0.016 A 
ATOM     28  C   UNL A   1      39.349  24.394  28.244  1.00  0.00     0.016 A 
ATOM     29  C   UNL A   1      40.407  26.310  26.484  1.00  0.00     0.010 A 
ATOM     30  C   UNL A   1      39.558  25.712  28.676  1.00  0.00     0.010 A 
ATOM     31  C   UNL A   1      40.122  26.668  27.810  1.00  0.00    -0.014 A 
BRANCH  31  32
ATOM     32  C   UNL A   1      40.567  27.997  28.301  1.00  0.00     0.031 A 
ATOM     33  C   UNL A   1      42.039  28.318  28.313  1.00  0.00     0.074 A 
ATOM     34  C   UNL A   1      39.667  28.936  28.650  1.00  0.00     0.049 A 
ATOM     35  N   UNL A   1      42.646  29.423  28.659  1.00  0.00    -0.248 NA
ATOM     36  C   UNL A   1      42.945  27.246  27.872  1.00  0.00     0.031 C 
ATOM     37  C   UNL A   1      38.216  28.757  28.632  1.00  0.00     0.029 A 
ATOM     38  N   UNL A   1      39.840  30.229  29.077  1.00  0.00    -0.354 N 
ATOM     39  C   UNL A   1      44.005  29.186  28.468  1.00  0.00     0.074 A 
ATOM     40  C   UNL A   1      44.131  27.815  28.019  1.00  0.00     0.031 C 
ATOM     41  C   UNL A   1      37.631  29.899  29.033  1.00  0.00     0.029 A 
ATOM     42  C   UNL A   1      38.662  30.880  29.364  1.00  0.00     0.049 A 
ATOM     43  H   UNL A   1      40.725  30.652  29.169  1.00  0.00     0.167 HD
ATOM     44  C   UNL A   1      45.047  30.037  28.636  1.00  0.00     0.034 A 
ATOM     45  C   UNL A   1      38.444  32.117  29.854  1.00  0.00     0.034 A 
ATOM     46  C   UNL A   1      44.908  31.397  29.097  1.00  0.00     0.049 A 
ATOM     47  C   UNL A   1      39.629  33.018  30.116  1.00  0.00     0.074 A 
ATOM     48  C   UNL A   1      45.896  32.344  29.306  1.00  0.00     0.029 A 
ATOM     49  N   UNL A   1      43.703  32.004  29.432  1.00  0.00    -0.354 N 
ATOM     50  N   UNL A   1      40.906  32.782  29.924  1.00  0.00    -0.248 NA
ATOM     51  C   UNL A   1      39.339  34.357  30.646  1.00  0.00     0.031 C 
ATOM     52  C   UNL A   1      45.299  33.496  29.830  1.00  0.00     0.029 A 
ATOM     53  C   UNL A   1      43.927  33.298  29.876  1.00  0.00     0.049 A 
ATOM     54  H   UNL A   1      42.819  31.576  29.364  1.00  0.00     0.167 HD
ATOM     55  C   UNL A   1      41.568  33.952  30.286  1.00  0.00     0.074 A 
ATOM     56  C   UNL A   1      40.547  34.899  30.687  1.00  0.00     0.031 C 
ATOM     57  C   UNL A   1      42.898  34.225  30.286  1.00  0.00     0.034 A 
BRANCH  44  58
ATOM     58  C   UNL A   1      46.432  29.500  28.364  1.00  0.00     0.023 A 
ATOM     59  C   UNL A   1      47.221  28.934  29.381  1.00  0.00     0.031 A 
ATOM     60  C   UNL A   1      46.979  29.571  27.070  1.00  0.00     0.131 A 
ATOM     61  C   UNL A   1      48.533  28.520  29.102  1.00  0.00     0.055 A 
ATOM     62  C   UNL A   1      48.258  29.089  26.783  1.00  0.00     0.041 A 
ATOM     63  F   UNL A   1      46.282  30.120  26.064  1.00  0.00    -0.206 F 
ATOM     64  C   UNL A   1      49.047  28.571  27.805  1.00  0.00     0.022 A 
BRANCH  61  65
ATOM     65  S   UNL A   1      49.603  28.029  30.482  1.00  0.00     0.124 S 
ATOM     66  O   UNL A   1      49.714  29.280  31.229  1.00  0.00    -0.237 OA
ATOM     67  O   UNL A   1      48.830  26.970  31.120  1.00  0.00    -0.237 OA
ATOM     68  O   UNL A   1      50.833  27.593  29.824  1.00  0.00    -0.744 OA
ENDBRANCH  61  65
ENDBRANCH  44  58
BRANCH  45  69
ATOM     69  C   UNL A   1      37.059  32.572  30.180  1.00  0.00     0.023 A 
ATOM     70  C   UNL A   1      36.251  33.206  29.223  1.00  0.00     0.031 A 
ATOM     71  C   UNL A   1      36.549  32.433  31.483  1.00  0.00     0.131 A 
ATOM     72  C   UNL A   1      35.000  33.723  29.597  1.00  0.00     0.055 A 
ATOM     73  C   UNL A   1      35.281  32.899  31.836  1.00  0.00     0.041 A 
ATOM     74  F   UNL A   1      37.280  31.837  32.439  1.00  0.00    -0.206 F 
ATOM     75  C   UNL A   1      34.504  33.563  30.892  1.00  0.00     0.022 A 
BRANCH  72  76
ATOM     76  S   UNL A   1      34.065  34.701  28.385  1.00  0.00     0.124 S 
ATOM     77  O   UNL A   1      32.782  34.008  28.370  1.00  0.00    -0.237 OA
ATOM     78  O   UNL A   1      34.073  36.025  28.998  1.00  0.00    -0.237 OA
ATOM     79  O   UNL A   1      34.858  34.576  27.165  1.00  0.00    -0.744 OA
ENDBRANCH  72  76
ENDBRANCH  45  69
BRANCH  57  80
ATOM     80  C   UNL A   1      43.313  35.616  30.701  1.00  0.00     0.023 A 
ATOM     81  C   UNL A   1      43.521  35.954  32.050  1.00  0.00     0.031 A 
ATOM     82  C   UNL A   1      43.487  36.622  29.734  1.00  0.00     0.131 A 
ATOM     83  C   UNL A   1      43.830  37.277  32.400  1.00  0.00     0.055 A 
ATOM     84  C   UNL A   1      43.856  37.922  30.083  1.00  0.00     0.041 A 
ATOM     85  F   UNL A   1      43.302  36.356  28.431  1.00  0.00    -0.206 F 
ATOM     86  C   UNL A   1      44.014  38.259  31.424  1.00  0.00     0.022 A 
BRANCH  83  87
ATOM     87  S   UNL A   1      43.893  37.720  34.158  1.00  0.00     0.124 S 
ATOM     88  O   UNL A   1      45.098  38.543  34.220  1.00  0.00    -0.237 OA
ATOM     89  O   UNL A   1      42.630  38.424  34.349  1.00  0.00    -0.237 OA
ATOM     90  O   UNL A   1      43.990  36.427  34.834  1.00  0.00    -0.744 OA
ENDBRANCH  83  87
ENDBRANCH  57  80
ENDBRANCH  31  32
ENDBRANCH  24  26
ENDBRANCH  23  24
ENDBRANCH  22  23
ENDBRANCH  21  22
ENDBRANCH  20  21
ENDBRANCH   1  20
TORSDOF 21
ENDMDL
MODEL 3
REMARK VINA RESULT:      -9.5      5.019     10.337
REMARK SMILES Cc1cc(Br)cnc1SCC1(CC(=O)OCCOCCOC(=O)c2ccc(-c3c4nc(c(-c5cc(S(=O)(=O)[O-])ccc5F)c5ccc([nH]5)c(-c5cc(S(=O)(=O)[O-])ccc5F)c5nc(c(-c6cc(S(=O)(=O)[O-])ccc6F)c6ccc3[nH]6)C=C5)C=C4)cc2)CC1
REMARK SMILES IDX 17 1 16 2 15 3 13 4 14 5 12 6 11 7 87 8 88 9 10 10 9 11 8 12
REMARK SMILES IDX 1 13 2 14 3 15 4 16 7 17 5 18 6 19 18 20 19 21 20 22 21 23
REMARK SMILES IDX 22 24 23 25 24 26 25 27 86 28 26 29 85 30 27 31 28 32 29 33
REMARK SMILES IDX 79 34 30 35 84 36 78 37 80 38 31 39 83 40 77 41 76 42 32 44
REMARK SMILES IDX 64 45 44 46 63 47 45 48 48 49 62 50 81 51 46 52 47 53 61 55
REMARK SMILES IDX 82 56 49 57 33 58 34 59 42 60 35 61 41 62 43 63 40 64 36 65
REMARK SMILES IDX 37 66 38 67 39 68 65 69 66 70 74 71 67 72 73 73 75 74 72 75
REMARK SMILES IDX 68 76 69 77 70 78 71 79 50 80 51 81 59 82 52 83 58 84 60 85
REMARK SMILES IDX 57 86 53 87 54 88 55 89 56 90
REMARK H PARENT 80 43 48 54
REMARK Flexibility Score: inf
ROOT
ATOM      1  C   UNL A   1      41.926  19.178  26.127  1.00  0.00     0.202 C 
ENDROOT
BRANCH   1   2
ATOM      2  C   UNL A   1      43.359  18.795  25.753  1.00  0.00     0.261 C 
BRANCH   2   3
ATOM      3  O   UNL A   1      43.874  19.648  24.703  1.00  0.00    -0.463 OA
BRANCH   3   4
ATOM      4  C   UNL A   1      45.193  19.501  24.402  1.00  0.00     0.306 C 
ATOM      5  O   UNL A   1      45.687  18.495  23.905  1.00  0.00    -0.252 OA
BRANCH   4   6
ATOM      6  C   UNL A   1      46.039  20.667  24.872  1.00  0.00     0.130 C 
BRANCH   6   7
ATOM      7  C   UNL A   1      45.412  22.057  24.899  1.00  0.00    -0.010 C 
ATOM      8  C   UNL A   1      44.892  22.601  23.581  1.00  0.00     0.009 C 
ATOM      9  C   UNL A   1      46.161  23.154  24.155  1.00  0.00     0.009 C 
BRANCH   7  10
ATOM     10  C   UNL A   1      44.735  22.508  26.167  1.00  0.00     0.084 C 
BRANCH  10  11
ATOM     11  S   UNL A   1      45.682  23.289  27.476  1.00  0.00    -0.106 SA
BRANCH  11  12
ATOM     12  C   UNL A   1      45.473  25.054  27.418  1.00  0.00     0.099 A 
ATOM     13  C   UNL A   1      46.923  25.877  29.404  1.00  0.00     0.047 C 
ATOM     14  C   UNL A   1      45.985  26.059  28.250  1.00  0.00    -0.018 A 
ATOM     15  C   UNL A   1      45.573  27.393  28.017  1.00  0.00     0.023 A 
ATOM     16  C   UNL A   1      44.619  27.683  27.057  1.00  0.00     0.036 A 
ATOM     17  N   UNL A   1      44.541  25.360  26.468  1.00  0.00    -0.248 NA
ATOM     18  Br  UNL A   1      43.999  29.443  26.805  1.00  0.00    -0.049 Br
ATOM     19  C   UNL A   1      44.121  26.636  26.319  1.00  0.00     0.128 A 
ENDBRANCH  11  12
ENDBRANCH  10  11
ENDBRANCH   7  10
ENDBRANCH   6   7
ENDBRANCH   4   6
ENDBRANCH   3   4
ENDBRANCH   2   3
ENDBRANCH   1   2
BRANCH   1  20
ATOM     20  O   UNL A   1      41.803  20.125  27.195  1.00  0.00    -0.374 OA
BRANCH  20  21
ATOM     21  C   UNL A   1      40.701  21.023  27.119  1.00  0.00     0.202 C 
BRANCH  21  22
ATOM     22  C   UNL A   1      40.990  22.455  27.594  1.00  0.00     0.261 C 
BRANCH  22  23
ATOM     23  O   UNL A   1      40.697  23.442  26.589  1.00  0.00    -0.460 OA
BRANCH  23  24
ATOM     24  C   UNL A   1      39.434  23.936  26.655  1.00  0.00     0.338 C 
ATOM     25  O   UNL A   1      38.417  23.405  26.226  1.00  0.00    -0.246 OA
BRANCH  24  26
ATOM     26  C   UNL A   1      39.387  25.155  27.483  1.00  0.00     0.060 A 
ATOM     27  C   UNL A   1      39.935  26.319  26.928  1.00  0.00     0.016 A 
ATOM     28  C   UNL A   1      38.909  25.154  28.796  1.00  0.00     0.016 A 
ATOM     29  C   UNL A   1      40.058  27.470  27.700  1.00  0.00     0.010 A 
ATOM     30  C   UNL A   1      39.040  26.314  29.573  1.00  0.00     0.010 A 
ATOM     31  C   UNL A   1      39.648  27.466  29.041  1.00  0.00    -0.014 A 
BRANCH  31  32
ATOM     32  C   UNL A   1      40.008  28.624  29.899  1.00  0.00     0.031 A 
ATOM     33  C   UNL A   1      41.440  28.797  30.332  1.00  0.00     0.074 A 
ATOM     34  C   UNL A   1      39.088  29.555  30.218  1.00  0.00     0.049 A 
ATOM     35  N   UNL A   1      41.985  29.749  31.043  1.00  0.00    -0.248 NA
ATOM     36  C   UNL A   1      42.384  27.754  29.899  1.00  0.00     0.031 C 
ATOM     37  C   UNL A   1      37.683  29.519  29.816  1.00  0.00     0.029 A 
ATOM     38  N   UNL A   1      39.200  30.715  30.943  1.00  0.00    -0.354 N 
ATOM     39  C   UNL A   1      43.337  29.429  31.136  1.00  0.00     0.074 A 
ATOM     40  C   UNL A   1      43.517  28.169  30.445  1.00  0.00     0.031 C 
ATOM     41  C   UNL A   1      37.063  30.608  30.302  1.00  0.00     0.029 A 
ATOM     42  C   UNL A   1      38.015  31.402  31.074  1.00  0.00     0.049 A 
ATOM     43  H   UNL A   1      40.049  31.026  31.333  1.00  0.00     0.167 HD
ATOM     44  C   UNL A   1      44.337  30.128  31.728  1.00  0.00     0.034 A 
ATOM     45  C   UNL A   1      37.731  32.532  31.753  1.00  0.00     0.034 A 
ATOM     46  C   UNL A   1      44.141  31.376  32.425  1.00  0.00     0.049 A 
ATOM     47  C   UNL A   1      38.847  33.249  32.479  1.00  0.00     0.074 A 
ATOM     48  C   UNL A   1      45.082  32.166  33.064  1.00  0.00     0.029 A 
ATOM     49  N   UNL A   1      42.917  32.014  32.585  1.00  0.00    -0.354 N 
ATOM     50  N   UNL A   1      40.121  32.936  32.551  1.00  0.00    -0.248 NA
ATOM     51  C   UNL A   1      38.488  34.476  33.201  1.00  0.00     0.031 C 
ATOM     52  C   UNL A   1      44.419  33.241  33.666  1.00  0.00     0.029 A 
ATOM     53  C   UNL A   1      43.074  33.167  33.339  1.00  0.00     0.049 A 
ATOM     54  H   UNL A   1      42.061  31.693  32.217  1.00  0.00     0.167 HD
ATOM     55  C   UNL A   1      40.717  33.944  33.305  1.00  0.00     0.074 A 
ATOM     56  C   UNL A   1      39.667  34.883  33.645  1.00  0.00     0.031 C 
ATOM     57  C   UNL A   1      42.013  34.086  33.682  1.00  0.00     0.034 A 
BRANCH  44  58
ATOM     58  C   UNL A   1      45.723  29.529  31.685  1.00  0.00     0.023 A 
ATOM     59  C   UNL A   1      46.200  28.691  32.709  1.00  0.00     0.031 A 
ATOM     60  C   UNL A   1      46.586  29.815  30.613  1.00  0.00     0.131 A 
ATOM     61  C   UNL A   1      47.521  28.220  32.669  1.00  0.00     0.055 A 
ATOM     62  C   UNL A   1      47.875  29.282  30.542  1.00  0.00     0.041 A 
ATOM     63  F   UNL A   1      46.194  30.626  29.619  1.00  0.00    -0.206 F 
ATOM     64  C   UNL A   1      48.354  28.489  31.581  1.00  0.00     0.022 A 
BRANCH  61  65
ATOM     65  S   UNL A   1      48.179  27.352  34.120  1.00  0.00     0.124 S 
ATOM     66  O   UNL A   1      47.840  25.965  33.813  1.00  0.00    -0.237 OA
ATOM     67  O   UNL A   1      49.597  27.689  34.073  1.00  0.00    -0.237 OA
ATOM     68  O   UNL A   1      47.437  27.936  35.235  1.00  0.00    -0.744 OA
ENDBRANCH  61  65
ENDBRANCH  44  58
BRANCH  45  69
ATOM     69  C   UNL A   1      36.329  33.040  31.829  1.00  0.00     0.023 A 
ATOM     70  C   UNL A   1      35.722  33.684  30.739  1.00  0.00     0.031 A 
ATOM     71  C   UNL A   1      35.597  32.944  33.026  1.00  0.00     0.131 A 
ATOM     72  C   UNL A   1      34.445  34.251  30.884  1.00  0.00     0.055 A 
ATOM     73  C   UNL A   1      34.306  33.459  33.148  1.00  0.00     0.041 A 
ATOM     74  F   UNL A   1      36.129  32.341  34.101  1.00  0.00    -0.206 F 
ATOM     75  C   UNL A   1      33.728  34.132  32.076  1.00  0.00     0.022 A 
BRANCH  72  76
ATOM     76  S   UNL A   1      33.770  35.238  29.517  1.00  0.00     0.124 S 
ATOM     77  O   UNL A   1      33.555  36.528  30.161  1.00  0.00    -0.237 OA
ATOM     78  O   UNL A   1      34.853  35.179  28.541  1.00  0.00    -0.237 OA
ATOM     79  O   UNL A   1      32.556  34.515  29.144  1.00  0.00    -0.744 OA
ENDBRANCH  72  76
ENDBRANCH  45  69
BRANCH  57  80
ATOM     80  C   UNL A   1      42.366  35.322  34.475  1.00  0.00     0.023 A 
ATOM     81  C   UNL A   1      42.775  36.511  33.846  1.00  0.00     0.031 A 
ATOM     82  C   UNL A   1      42.307  35.303  35.880  1.00  0.00     0.131 A 
ATOM     83  C   UNL A   1      43.168  37.612  34.622  1.00  0.00     0.055 A 
ATOM     84  C   UNL A   1      42.640  36.422  36.645  1.00  0.00     0.041 A 
ATOM     85  F   UNL A   1      41.924  34.194  36.533  1.00  0.00    -0.206 F 
ATOM     86  C   UNL A   1      43.088  37.580  36.016  1.00  0.00     0.022 A 
BRANCH  83  87
ATOM     87  S   UNL A   1      43.878  39.057  33.786  1.00  0.00     0.124 S 
ATOM     88  O   UNL A   1      42.738  39.967  33.732  1.00  0.00    -0.237 OA
ATOM     89  O   UNL A   1      44.959  39.440  34.687  1.00  0.00    -0.237 OA
ATOM     90  O   UNL A   1      44.309  38.527  32.493  1.00  0.00    -0.744 OA
ENDBRANCH  83  87
ENDBRANCH  57  80
ENDBRANCH  31  32
ENDBRANCH  24  26
ENDBRANCH  23  24
ENDBRANCH  22  23
ENDBRANCH  21  22
ENDBRANCH  20  21
ENDBRANCH   1  20
TORSDOF 21
ENDMDL
