MODEL 1
REMARK VINA RESULT:     -12.0      0.000      0.000
REMARK SMILES Cc1ccnc(C(=O)c2[nH]c3ccc(F)cc3c2CC(=O)OCCOCCOC(=O)c2ccc(-c3c4nc(c(-c5cc(S(=O)(=O)[O-])ccc5F)c5ccc([nH]5)c(-c5cc(S(=O)(=O)[O-])ccc5F)c5nc(c(-c6cc(S(=O)(=O)[O-])ccc6F)c6ccc3[nH]6)C=C5)C=C4)cc2)c1
REMARK SMILES IDX 25 1 24 2 23 3 22 4 20 5 21 6 19 7 18 8 9 9 10 10 11 11
REMARK SMILES IDX 17 13 12 14 16 15 13 16 14 17 15 18 7 19 8 20 6 21 1 22 2 23
REMARK SMILES IDX 3 24 94 25 4 26 5 27 26 28 27 29 28 30 29 31 30 32 31 33
REMARK SMILES IDX 32 34 93 35 33 36 92 37 34 38 35 39 36 40 86 41 37 42 91 43
REMARK SMILES IDX 85 44 87 45 38 46 90 47 84 48 83 49 39 51 71 52 51 53 70 54
REMARK SMILES IDX 52 55 55 56 69 57 88 58 53 59 54 60 68 62 89 63 56 64 40 65
REMARK SMILES IDX 41 66 49 67 42 68 48 69 50 70 47 71 43 72 44 73 45 74 46 75
REMARK SMILES IDX 72 76 73 77 81 78 74 79 80 80 82 81 79 82 75 83 76 84 77 85
REMARK SMILES IDX 78 86 57 87 58 88 66 89 59 90 65 91 67 92 64 93 60 94 61 95
REMARK SMILES IDX 62 96 63 97
REMARK H PARENT 10 12 87 50 55 61
REMARK Flexibility Score: inf
ROOT
ATOM      1  O   UNL A   1      37.318  21.122  25.379  1.00  0.00    -0.374 OA
ENDROOT
BRANCH   1   2
ATOM      2  C   UNL A   1      36.775  21.794  24.225  1.00  0.00     0.202 C 
BRANCH   2   3
ATOM      3  C   UNL A   1      36.955  23.331  24.158  1.00  0.00     0.261 C 
BRANCH   3   4
ATOM      4  O   UNL A   1      36.631  24.012  25.392  1.00  0.00    -0.463 OA
BRANCH   4   5
ATOM      5  C   UNL A   1      35.321  23.978  25.775  1.00  0.00     0.310 C 
ATOM      6  O   UNL A   1      34.875  23.256  26.661  1.00  0.00    -0.252 OA
BRANCH   5   7
ATOM      7  C   UNL A   1      34.430  24.900  24.963  1.00  0.00     0.161 C 
BRANCH   7   8
ATOM      8  C   UNL A   1      33.204  25.436  25.654  1.00  0.00     0.000 A 
ATOM      9  C   UNL A   1      31.985  24.803  25.940  1.00  0.00     0.093 A 
ATOM     10  N   UNL A   1      31.137  25.827  26.361  1.00  0.00    -0.352 N 
ATOM     11  C   UNL A   1      31.819  26.985  26.636  1.00  0.00     0.046 A 
ATOM     12  H   UNL A   1      30.161  25.730  26.450  1.00  0.00     0.167 HD
ATOM     13  C   UNL A   1      33.116  26.794  26.172  1.00  0.00     0.007 A 
ATOM     14  C   UNL A   1      31.396  28.153  27.295  1.00  0.00     0.030 A 
ATOM     15  C   UNL A   1      34.035  27.856  26.334  1.00  0.00     0.049 A 
ATOM     16  C   UNL A   1      32.340  29.164  27.491  1.00  0.00     0.041 A 
ATOM     17  C   UNL A   1      33.631  29.014  27.006  1.00  0.00     0.123 A 
ATOM     18  F   UNL A   1      34.519  29.997  27.205  1.00  0.00    -0.207 F 
BRANCH   9  19
ATOM     19  C   UNL A   1      31.379  23.469  25.782  1.00  0.00     0.227 C 
ATOM     20  O   UNL A   1      30.428  23.206  26.528  1.00  0.00    -0.285 OA
BRANCH  19  21
ATOM     21  C   UNL A   1      31.889  22.308  24.928  1.00  0.00     0.113 A 
ATOM     22  C   UNL A   1      32.698  18.570  24.927  1.00  0.00     0.044 C 
ATOM     23  C   UNL A   1      32.397  19.971  24.466  1.00  0.00    -0.047 A 
ATOM     24  C   UNL A   1      32.340  20.253  23.107  1.00  0.00     0.023 A 
ATOM     25  C   UNL A   1      32.181  21.024  25.381  1.00  0.00     0.036 A 
ATOM     26  C   UNL A   1      32.060  21.550  22.726  1.00  0.00     0.112 A 
ATOM     27  N   UNL A   1      31.844  22.570  23.591  1.00  0.00    -0.253 NA
ENDBRANCH  19  21
ENDBRANCH   9  19
ENDBRANCH   7   8
ENDBRANCH   5   7
ENDBRANCH   4   5
ENDBRANCH   3   4
ENDBRANCH   2   3
ENDBRANCH   1   2
BRANCH   1  28
ATOM     28  C   UNL A   1      37.946  19.896  25.010  1.00  0.00     0.202 C 
BRANCH  28  29
ATOM     29  C   UNL A   1      39.281  19.539  25.662  1.00  0.00     0.261 C 
BRANCH  29  30
ATOM     30  O   UNL A   1      40.071  20.660  25.906  1.00  0.00    -0.460 OA
BRANCH  30  31
ATOM     31  C   UNL A   1      40.544  20.769  27.169  1.00  0.00     0.338 C 
ATOM     32  O   UNL A   1      40.838  19.903  27.952  1.00  0.00    -0.246 OA
BRANCH  31  33
ATOM     33  C   UNL A   1      40.906  22.187  27.182  1.00  0.00     0.060 A 
ATOM     34  C   UNL A   1      40.077  23.085  26.510  1.00  0.00     0.016 A 
ATOM     35  C   UNL A   1      41.871  22.595  28.116  1.00  0.00     0.016 A 
ATOM     36  C   UNL A   1      40.220  24.434  26.784  1.00  0.00     0.010 A 
ATOM     37  C   UNL A   1      41.931  23.916  28.467  1.00  0.00     0.010 A 
ATOM     38  C   UNL A   1      41.149  24.832  27.754  1.00  0.00    -0.014 A 
BRANCH  38  39
ATOM     39  C   UNL A   1      41.556  26.228  27.886  1.00  0.00     0.031 A 
ATOM     40  C   UNL A   1      42.901  26.562  27.320  1.00  0.00     0.074 A 
ATOM     41  C   UNL A   1      40.801  27.073  28.598  1.00  0.00     0.049 A 
ATOM     42  N   UNL A   1      43.627  27.627  27.488  1.00  0.00    -0.248 NA
ATOM     43  C   UNL A   1      43.546  25.509  26.510  1.00  0.00     0.031 C 
ATOM     44  C   UNL A   1      39.497  26.759  29.189  1.00  0.00     0.029 A 
ATOM     45  N   UNL A   1      41.043  28.361  28.967  1.00  0.00    -0.354 N 
ATOM     46  C   UNL A   1      44.823  27.358  26.832  1.00  0.00     0.074 A 
ATOM     47  C   UNL A   1      44.759  26.003  26.344  1.00  0.00     0.031 C 
ATOM     48  C   UNL A   1      39.051  27.841  29.849  1.00  0.00     0.029 A 
ATOM     49  C   UNL A   1      40.059  28.893  29.762  1.00  0.00     0.049 A 
ATOM     50  H   UNL A   1      41.845  28.861  28.693  1.00  0.00     0.167 HD
ATOM     51  C   UNL A   1      45.865  28.196  26.639  1.00  0.00     0.034 A 
ATOM     52  C   UNL A   1      40.016  30.098  30.356  1.00  0.00     0.034 A 
ATOM     53  C   UNL A   1      45.856  29.539  27.150  1.00  0.00     0.049 A 
ATOM     54  C   UNL A   1      41.189  31.018  30.131  1.00  0.00     0.074 A 
ATOM     55  C   UNL A   1      46.810  30.526  27.013  1.00  0.00     0.029 A 
ATOM     56  N   UNL A   1      44.821  30.079  27.911  1.00  0.00    -0.354 N 
ATOM     57  N   UNL A   1      42.307  30.788  29.474  1.00  0.00    -0.248 NA
ATOM     58  C   UNL A   1      41.093  32.361  30.708  1.00  0.00     0.031 C 
ATOM     59  C   UNL A   1      46.380  31.640  27.745  1.00  0.00     0.029 A 
ATOM     60  C   UNL A   1      45.121  31.378  28.270  1.00  0.00     0.049 A 
ATOM     61  H   UNL A   1      43.995  29.603  28.156  1.00  0.00     0.167 HD
ATOM     62  C   UNL A   1      43.036  31.970  29.533  1.00  0.00     0.074 A 
ATOM     63  C   UNL A   1      42.218  32.912  30.278  1.00  0.00     0.031 C 
ATOM     64  C   UNL A   1      44.263  32.265  29.024  1.00  0.00     0.034 A 
BRANCH  51  65
ATOM     65  C   UNL A   1      47.059  27.651  25.894  1.00  0.00     0.023 A 
ATOM     66  C   UNL A   1      47.327  28.008  24.558  1.00  0.00     0.031 A 
ATOM     67  C   UNL A   1      47.891  26.690  26.492  1.00  0.00     0.131 A 
ATOM     68  C   UNL A   1      48.330  27.341  23.839  1.00  0.00     0.055 A 
ATOM     69  C   UNL A   1      48.950  26.098  25.800  1.00  0.00     0.041 A 
ATOM     70  F   UNL A   1      47.666  26.279  27.750  1.00  0.00    -0.206 F 
ATOM     71  C   UNL A   1      49.163  26.408  24.460  1.00  0.00     0.022 A 
BRANCH  68  72
ATOM     72  S   UNL A   1      48.417  27.584  22.042  1.00  0.00     0.124 S 
ATOM     73  O   UNL A   1      47.100  28.150  21.758  1.00  0.00    -0.237 OA
ATOM     74  O   UNL A   1      49.547  28.494  21.901  1.00  0.00    -0.237 OA
ATOM     75  O   UNL A   1      48.632  26.235  21.524  1.00  0.00    -0.744 OA
ENDBRANCH  68  72
ENDBRANCH  51  65
BRANCH  52  76
ATOM     76  C   UNL A   1      38.844  30.490  31.186  1.00  0.00     0.023 A 
ATOM     77  C   UNL A   1      37.843  31.324  30.665  1.00  0.00     0.031 A 
ATOM     78  C   UNL A   1      38.700  30.035  32.509  1.00  0.00     0.131 A 
ATOM     79  C   UNL A   1      36.763  31.711  31.472  1.00  0.00     0.055 A 
ATOM     80  C   UNL A   1      37.598  30.384  33.293  1.00  0.00     0.041 A 
ATOM     81  F   UNL A   1      39.619  29.221  33.051  1.00  0.00    -0.206 F 
ATOM     82  C   UNL A   1      36.627  31.237  32.779  1.00  0.00     0.022 A 
BRANCH  79  83
ATOM     83  S   UNL A   1      35.569  32.903  30.807  1.00  0.00     0.124 S 
ATOM     84  O   UNL A   1      35.738  32.723  29.370  1.00  0.00    -0.237 OA
ATOM     85  O   UNL A   1      34.314  32.418  31.372  1.00  0.00    -0.237 OA
ATOM     86  O   UNL A   1      36.036  34.182  31.336  1.00  0.00    -0.744 OA
ENDBRANCH  79  83
ENDBRANCH  52  76
BRANCH  64  87
ATOM     87  C   UNL A   1      44.750  33.674  29.231  1.00  0.00     0.023 A 
ATOM     88  C   UNL A   1      44.363  34.717  28.375  1.00  0.00     0.031 A 
ATOM     89  C   UNL A   1      45.612  33.970  30.301  1.00  0.00     0.131 A 
ATOM     90  C   UNL A   1      44.892  35.999  28.564  1.00  0.00     0.055 A 
ATOM     91  C   UNL A   1      46.075  35.265  30.528  1.00  0.00     0.041 A 
ATOM     92  F   UNL A   1      46.008  33.006  31.147  1.00  0.00    -0.206 F 
ATOM     93  C   UNL A   1      45.728  36.285  29.648  1.00  0.00     0.022 A 
BRANCH  90  94
ATOM     94  S   UNL A   1      44.559  37.263  27.309  1.00  0.00     0.124 S 
ATOM     95  O   UNL A   1      45.783  37.229  26.515  1.00  0.00    -0.237 OA
ATOM     96  O   UNL A   1      43.361  36.746  26.656  1.00  0.00    -0.237 OA
ATOM     97  O   UNL A   1      44.361  38.480  28.094  1.00  0.00    -0.744 OA
ENDBRANCH  90  94
ENDBRANCH  64  87
ENDBRANCH  38  39
ENDBRANCH  31  33
ENDBRANCH  30  31
ENDBRANCH  29  30
ENDBRANCH  28  29
ENDBRANCH   1  28
TORSDOF 20
ENDMDL
MODEL 2
REMARK VINA RESULT:     -11.9      2.090      7.806
REMARK SMILES Cc1ccnc(C(=O)c2[nH]c3ccc(F)cc3c2CC(=O)OCCOCCOC(=O)c2ccc(-c3c4nc(c(-c5cc(S(=O)(=O)[O-])ccc5F)c5ccc([nH]5)c(-c5cc(S(=O)(=O)[O-])ccc5F)c5nc(c(-c6cc(S(=O)(=O)[O-])ccc6F)c6ccc3[nH]6)C=C5)C=C4)cc2)c1
REMARK SMILES IDX 25 1 24 2 23 3 22 4 20 5 21 6 19 7 18 8 9 9 10 10 11 11
REMARK SMILES IDX 17 13 12 14 16 15 13 16 14 17 15 18 7 19 8 20 6 21 1 22 2 23
REMARK SMILES IDX 3 24 94 25 4 26 5 27 26 28 27 29 28 30 29 31 30 32 31 33
REMARK SMILES IDX 32 34 93 35 33 36 92 37 34 38 35 39 36 40 86 41 37 42 91 43
REMARK SMILES IDX 85 44 87 45 38 46 90 47 84 48 83 49 39 51 71 52 51 53 70 54
REMARK SMILES IDX 52 55 55 56 69 57 88 58 53 59 54 60 68 62 89 63 56 64 40 65
REMARK SMILES IDX 41 66 49 67 42 68 48 69 50 70 47 71 43 72 44 73 45 74 46 75
REMARK SMILES IDX 72 76 73 77 81 78 74 79 80 80 82 81 79 82 75 83 76 84 77 85
REMARK SMILES IDX 78 86 57 87 58 88 66 89 59 90 65 91 67 92 64 93 60 94 61 95
REMARK SMILES IDX 62 96 63 97
REMARK H PARENT 10 12 87 50 55 61
REMARK Flexibility Score: inf
ROOT
ATOM      1  O   UNL A   1      35.239  23.900  26.093  1.00  0.00    -0.374 OA
ENDROOT
BRANCH   1   2
ATOM      2  C   UNL A   1      33.968  24.558  25.919  1.00  0.00     0.202 C 
BRANCH   2   3
ATOM      3  C   UNL A   1      33.994  25.991  25.332  1.00  0.00     0.261 C 
BRANCH   3   4
ATOM      4  O   UNL A   1      34.131  26.032  23.893  1.00  0.00    -0.463 OA
BRANCH   4   5
ATOM      5  C   UNL A   1      33.075  26.553  23.200  1.00  0.00     0.310 C 
ATOM      6  O   UNL A   1      32.791  26.261  22.044  1.00  0.00    -0.252 OA
BRANCH   5   7
ATOM      7  C   UNL A   1      32.288  27.584  23.987  1.00  0.00     0.161 C 
BRANCH   7   8
ATOM      8  C   UNL A   1      30.787  27.457  23.954  1.00  0.00     0.000 A 
ATOM      9  C   UNL A   1      29.956  26.475  24.515  1.00  0.00     0.093 A 
ATOM     10  N   UNL A   1      28.695  26.716  23.970  1.00  0.00    -0.352 N 
ATOM     11  C   UNL A   1      28.622  27.938  23.352  1.00  0.00     0.046 A 
ATOM     12  H   UNL A   1      27.944  26.082  24.023  1.00  0.00     0.167 HD
ATOM     13  C   UNL A   1      29.924  28.422  23.288  1.00  0.00     0.007 A 
ATOM     14  C   UNL A   1      27.505  28.658  22.893  1.00  0.00     0.030 A 
ATOM     15  C   UNL A   1      30.127  29.684  22.684  1.00  0.00     0.049 A 
ATOM     16  C   UNL A   1      27.729  29.927  22.352  1.00  0.00     0.041 A 
ATOM     17  C   UNL A   1      29.022  30.418  22.243  1.00  0.00     0.123 A 
ATOM     18  F   UNL A   1      29.213  31.637  21.720  1.00  0.00    -0.207 F 
BRANCH   9  19
ATOM     19  C   UNL A   1      30.094  25.267  25.348  1.00  0.00     0.227 C 
ATOM     20  O   UNL A   1      29.872  25.406  26.556  1.00  0.00    -0.285 OA
BRANCH  19  21
ATOM     21  C   UNL A   1      30.642  23.904  24.929  1.00  0.00     0.113 A 
ATOM     22  C   UNL A   1      32.487  22.010  22.164  1.00  0.00     0.044 C 
ATOM     23  C   UNL A   1      31.883  22.375  23.494  1.00  0.00    -0.047 A 
ATOM     24  C   UNL A   1      32.005  21.504  24.569  1.00  0.00     0.023 A 
ATOM     25  C   UNL A   1      31.178  23.583  23.683  1.00  0.00     0.036 A 
ATOM     26  C   UNL A   1      31.439  21.877  25.772  1.00  0.00     0.112 A 
ATOM     27  N   UNL A   1      30.764  23.034  25.972  1.00  0.00    -0.253 NA
ENDBRANCH  19  21
ENDBRANCH   9  19
ENDBRANCH   7   8
ENDBRANCH   5   7
ENDBRANCH   4   5
ENDBRANCH   3   4
ENDBRANCH   2   3
ENDBRANCH   1   2
BRANCH   1  28
ATOM     28  C   UNL A   1      35.065  22.509  26.351  1.00  0.00     0.202 C 
BRANCH  28  29
ATOM     29  C   UNL A   1      36.080  21.529  25.766  1.00  0.00     0.261 C 
BRANCH  29  30
ATOM     30  O   UNL A   1      37.305  22.133  25.490  1.00  0.00    -0.460 OA
BRANCH  30  31
ATOM     31  C   UNL A   1      38.393  21.457  25.925  1.00  0.00     0.338 C 
ATOM     32  O   UNL A   1      38.738  20.329  25.684  1.00  0.00    -0.246 OA
BRANCH  31  33
ATOM     33  C   UNL A   1      39.177  22.564  26.474  1.00  0.00     0.060 A 
ATOM     34  C   UNL A   1      40.349  22.262  27.166  1.00  0.00     0.016 A 
ATOM     35  C   UNL A   1      38.877  23.854  26.012  1.00  0.00     0.016 A 
ATOM     36  C   UNL A   1      41.251  23.285  27.399  1.00  0.00     0.010 A 
ATOM     37  C   UNL A   1      39.820  24.837  26.144  1.00  0.00     0.010 A 
ATOM     38  C   UNL A   1      40.972  24.560  26.890  1.00  0.00    -0.014 A 
BRANCH  38  39
ATOM     39  C   UNL A   1      41.717  25.734  27.337  1.00  0.00     0.031 A 
ATOM     40  C   UNL A   1      40.948  26.702  28.181  1.00  0.00     0.074 A 
ATOM     41  C   UNL A   1      42.955  25.947  26.874  1.00  0.00     0.049 A 
ATOM     42  N   UNL A   1      41.246  27.921  28.521  1.00  0.00    -0.248 NA
ATOM     43  C   UNL A   1      39.618  26.252  28.640  1.00  0.00     0.031 C 
ATOM     44  C   UNL A   1      43.715  25.030  26.021  1.00  0.00     0.029 A 
ATOM     45  N   UNL A   1      43.775  27.020  27.038  1.00  0.00    -0.354 N 
ATOM     46  C   UNL A   1      40.131  28.389  29.206  1.00  0.00     0.074 A 
ATOM     47  C   UNL A   1      39.121  27.361  29.154  1.00  0.00     0.031 C 
ATOM     48  C   UNL A   1      44.905  25.587  25.740  1.00  0.00     0.029 A 
ATOM     49  C   UNL A   1      44.959  26.911  26.353  1.00  0.00     0.049 A 
ATOM     50  H   UNL A   1      43.542  27.800  27.593  1.00  0.00     0.167 HD
ATOM     51  C   UNL A   1      39.991  29.571  29.845  1.00  0.00     0.034 A 
ATOM     52  C   UNL A   1      45.952  27.809  26.237  1.00  0.00     0.034 A 
ATOM     53  C   UNL A   1      41.045  30.548  29.860  1.00  0.00     0.049 A 
ATOM     54  C   UNL A   1      45.776  29.125  26.954  1.00  0.00     0.074 A 
ATOM     55  C   UNL A   1      41.082  31.777  30.487  1.00  0.00     0.029 A 
ATOM     56  N   UNL A   1      42.264  30.394  29.201  1.00  0.00    -0.354 N 
ATOM     57  N   UNL A   1      44.742  29.560  27.643  1.00  0.00    -0.248 NA
ATOM     58  C   UNL A   1      46.901  30.061  26.896  1.00  0.00     0.031 C 
ATOM     59  C   UNL A   1      42.295  32.390  30.154  1.00  0.00     0.029 A 
ATOM     60  C   UNL A   1      43.051  31.513  29.387  1.00  0.00     0.049 A 
ATOM     61  H   UNL A   1      42.525  29.602  28.679  1.00  0.00     0.167 HD
ATOM     62  C   UNL A   1      45.103  30.812  28.127  1.00  0.00     0.074 A 
ATOM     63  C   UNL A   1      46.459  31.048  27.661  1.00  0.00     0.031 C 
ATOM     64  C   UNL A   1      44.396  31.691  28.887  1.00  0.00     0.034 A 
BRANCH  51  65
ATOM     65  C   UNL A   1      38.664  29.843  30.511  1.00  0.00     0.023 A 
ATOM     66  C   UNL A   1      37.654  30.590  29.875  1.00  0.00     0.031 A 
ATOM     67  C   UNL A   1      38.437  29.432  31.834  1.00  0.00     0.131 A 
ATOM     68  C   UNL A   1      36.513  30.984  30.591  1.00  0.00     0.055 A 
ATOM     69  C   UNL A   1      37.256  29.746  32.511  1.00  0.00     0.041 A 
ATOM     70  F   UNL A   1      39.376  28.749  32.509  1.00  0.00    -0.206 F 
ATOM     71  C   UNL A   1      36.294  30.542  31.897  1.00  0.00     0.022 A 
BRANCH  68  72
ATOM     72  S   UNL A   1      35.408  32.220  29.851  1.00  0.00     0.124 S 
ATOM     73  O   UNL A   1      36.336  33.311  29.565  1.00  0.00    -0.237 OA
ATOM     74  O   UNL A   1      34.876  31.514  28.692  1.00  0.00    -0.237 OA
ATOM     75  O   UNL A   1      34.443  32.495  30.913  1.00  0.00    -0.744 OA
ENDBRANCH  68  72
ENDBRANCH  51  65
BRANCH  52  76
ATOM     76  C   UNL A   1      47.169  27.493  25.441  1.00  0.00     0.023 A 
ATOM     77  C   UNL A   1      47.240  27.821  24.078  1.00  0.00     0.031 A 
ATOM     78  C   UNL A   1      48.282  26.863  26.026  1.00  0.00     0.131 A 
ATOM     79  C   UNL A   1      48.381  27.484  23.335  1.00  0.00     0.055 A 
ATOM     80  C   UNL A   1      49.435  26.574  25.294  1.00  0.00     0.041 A 
ATOM     81  F   UNL A   1      48.274  26.543  27.329  1.00  0.00    -0.206 F 
ATOM     82  C   UNL A   1      49.485  26.873  23.936  1.00  0.00     0.022 A 
BRANCH  79  83
ATOM     83  S   UNL A   1      48.375  27.797  21.549  1.00  0.00     0.124 S 
ATOM     84  O   UNL A   1      47.012  28.268  21.335  1.00  0.00    -0.237 OA
ATOM     85  O   UNL A   1      49.428  28.796  21.415  1.00  0.00    -0.237 OA
ATOM     86  O   UNL A   1      48.682  26.488  20.975  1.00  0.00    -0.744 OA
ENDBRANCH  79  83
ENDBRANCH  52  76
BRANCH  64  87
ATOM     87  C   UNL A   1      45.109  32.957  29.281  1.00  0.00     0.023 A 
ATOM     88  C   UNL A   1      44.926  34.153  28.570  1.00  0.00     0.031 A 
ATOM     89  C   UNL A   1      45.981  32.959  30.383  1.00  0.00     0.131 A 
ATOM     90  C   UNL A   1      45.660  35.290  28.930  1.00  0.00     0.055 A 
ATOM     91  C   UNL A   1      46.651  34.114  30.782  1.00  0.00     0.041 A 
ATOM     92  F   UNL A   1      46.186  31.839  31.094  1.00  0.00    -0.206 F 
ATOM     93  C   UNL A   1      46.504  35.284  30.044  1.00  0.00     0.022 A 
BRANCH  90  94
ATOM     94  S   UNL A   1      45.578  36.745  27.853  1.00  0.00     0.124 S 
ATOM     95  O   UNL A   1      44.616  36.317  26.842  1.00  0.00    -0.237 OA
ATOM     96  O   UNL A   1      45.121  37.786  28.768  1.00  0.00    -0.237 OA
ATOM     97  O   UNL A   1      46.952  36.896  27.378  1.00  0.00    -0.744 OA
ENDBRANCH  90  94
ENDBRANCH  64  87
ENDBRANCH  38  39
ENDBRANCH  31  33
ENDBRANCH  30  31
ENDBRANCH  29  30
ENDBRANCH  28  29
ENDBRANCH   1  28
TORSDOF 20
ENDMDL
MODEL 3
REMARK VINA RESULT:     -11.8      4.776      7.437
REMARK SMILES Cc1ccnc(C(=O)c2[nH]c3ccc(F)cc3c2CC(=O)OCCOCCOC(=O)c2ccc(-c3c4nc(c(-c5cc(S(=O)(=O)[O-])ccc5F)c5ccc([nH]5)c(-c5cc(S(=O)(=O)[O-])ccc5F)c5nc(c(-c6cc(S(=O)(=O)[O-])ccc6F)c6ccc3[nH]6)C=C5)C=C4)cc2)c1
REMARK SMILES IDX 25 1 24 2 23 3 22 4 20 5 21 6 19 7 18 8 9 9 10 10 11 11
REMARK SMILES IDX 17 13 12 14 16 15 13 16 14 17 15 18 7 19 8 20 6 21 1 22 2 23
REMARK SMILES IDX 3 24 94 25 4 26 5 27 26 28 27 29 28 30 29 31 30 32 31 33
REMARK SMILES IDX 32 34 93 35 33 36 92 37 34 38 35 39 36 40 86 41 37 42 91 43
REMARK SMILES IDX 85 44 87 45 38 46 90 47 84 48 83 49 39 51 71 52 51 53 70 54
REMARK SMILES IDX 52 55 55 56 69 57 88 58 53 59 54 60 68 62 89 63 56 64 40 65
REMARK SMILES IDX 41 66 49 67 42 68 48 69 50 70 47 71 43 72 44 73 45 74 46 75
REMARK SMILES IDX 72 76 73 77 81 78 74 79 80 80 82 81 79 82 75 83 76 84 77 85
REMARK SMILES IDX 78 86 57 87 58 88 66 89 59 90 65 91 67 92 64 93 60 94 61 95
REMARK SMILES IDX 62 96 63 97
REMARK H PARENT 10 12 87 50 55 61
REMARK Flexibility Score: inf
ROOT
ATOM      1  O   UNL A   1      32.747  29.142  25.157  1.00  0.00    -0.374 OA
ENDROOT
BRANCH   1   2
ATOM      2  C   UNL A   1      32.825  28.144  26.194  1.00  0.00     0.202 C 
BRANCH   2   3
ATOM      3  C   UNL A   1      31.516  27.395  26.549  1.00  0.00     0.261 C 
BRANCH   3   4
ATOM      4  O   UNL A   1      31.510  26.005  26.148  1.00  0.00    -0.463 OA
BRANCH   4   5
ATOM      5  C   UNL A   1      30.303  25.491  25.768  1.00  0.00     0.310 C 
ATOM      6  O   UNL A   1      29.395  25.207  26.542  1.00  0.00    -0.252 OA
BRANCH   5   7
ATOM      7  C   UNL A   1      30.192  25.255  24.273  1.00  0.00     0.161 C 
BRANCH   7   8
ATOM      8  C   UNL A   1      30.666  26.369  23.377  1.00  0.00     0.000 A 
ATOM      9  C   UNL A   1      31.850  26.481  22.632  1.00  0.00     0.093 A 
ATOM     10  N   UNL A   1      31.877  27.805  22.195  1.00  0.00    -0.352 N 
ATOM     11  C   UNL A   1      30.668  28.432  22.363  1.00  0.00     0.046 A 
ATOM     12  H   UNL A   1      32.672  28.240  21.810  1.00  0.00     0.167 HD
ATOM     13  C   UNL A   1      29.889  27.577  23.134  1.00  0.00     0.007 A 
ATOM     14  C   UNL A   1      30.203  29.657  21.854  1.00  0.00     0.030 A 
ATOM     15  C   UNL A   1      28.578  27.995  23.458  1.00  0.00     0.049 A 
ATOM     16  C   UNL A   1      28.884  30.019  22.143  1.00  0.00     0.041 A 
ATOM     17  C   UNL A   1      28.097  29.202  22.941  1.00  0.00     0.123 A 
ATOM     18  F   UNL A   1      26.836  29.569  23.205  1.00  0.00    -0.207 F 
BRANCH   9  19
ATOM     19  C   UNL A   1      33.043  25.667  22.341  1.00  0.00     0.227 C 
ATOM     20  O   UNL A   1      33.672  25.960  21.318  1.00  0.00    -0.285 OA
BRANCH  19  21
ATOM     21  C   UNL A   1      33.502  24.397  23.058  1.00  0.00     0.113 A 
ATOM     22  C   UNL A   1      32.500  20.832  24.015  1.00  0.00     0.044 C 
ATOM     23  C   UNL A   1      33.317  22.068  23.748  1.00  0.00    -0.047 A 
ATOM     24  C   UNL A   1      34.692  22.042  23.943  1.00  0.00     0.023 A 
ATOM     25  C   UNL A   1      32.722  23.272  23.312  1.00  0.00     0.036 A 
ATOM     26  C   UNL A   1      35.404  23.197  23.685  1.00  0.00     0.112 A 
ATOM     27  N   UNL A   1      34.850  24.357  23.261  1.00  0.00    -0.253 NA
ENDBRANCH  19  21
ENDBRANCH   9  19
ENDBRANCH   7   8
ENDBRANCH   5   7
ENDBRANCH   4   5
ENDBRANCH   3   4
ENDBRANCH   2   3
ENDBRANCH   1   2
BRANCH   1  28
ATOM     28  C   UNL A   1      31.630  30.005  25.360  1.00  0.00     0.202 C 
BRANCH  28  29
ATOM     29  C   UNL A   1      31.722  31.065  26.456  1.00  0.00     0.261 C 
BRANCH  29  30
ATOM     30  O   UNL A   1      32.966  31.079  27.081  1.00  0.00    -0.460 OA
BRANCH  30  31
ATOM     31  C   UNL A   1      33.436  32.305  27.405  1.00  0.00     0.338 C 
ATOM     32  O   UNL A   1      32.904  33.380  27.297  1.00  0.00    -0.246 OA
BRANCH  31  33
ATOM     33  C   UNL A   1      34.596  31.928  28.213  1.00  0.00     0.060 A 
ATOM     34  C   UNL A   1      34.757  30.584  28.548  1.00  0.00     0.016 A 
ATOM     35  C   UNL A   1      35.628  32.871  28.336  1.00  0.00     0.016 A 
ATOM     36  C   UNL A   1      35.991  30.172  29.019  1.00  0.00     0.010 A 
ATOM     37  C   UNL A   1      36.876  32.440  28.693  1.00  0.00     0.010 A 
ATOM     38  C   UNL A   1      37.033  31.106  29.091  1.00  0.00    -0.014 A 
BRANCH  38  39
ATOM     39  C   UNL A   1      38.255  30.822  29.837  1.00  0.00     0.031 A 
ATOM     40  C   UNL A   1      39.195  29.853  29.189  1.00  0.00     0.074 A 
ATOM     41  C   UNL A   1      38.404  31.313  31.073  1.00  0.00     0.049 A 
ATOM     42  N   UNL A   1      40.218  29.231  29.694  1.00  0.00    -0.248 NA
ATOM     43  C   UNL A   1      38.885  29.480  27.794  1.00  0.00     0.031 C 
ATOM     44  C   UNL A   1      37.483  32.237  31.740  1.00  0.00     0.029 A 
ATOM     45  N   UNL A   1      39.377  31.076  31.995  1.00  0.00    -0.354 N 
ATOM     46  C   UNL A   1      40.652  28.373  28.690  1.00  0.00     0.074 A 
ATOM     47  C   UNL A   1      39.731  28.489  27.587  1.00  0.00     0.031 C 
ATOM     48  C   UNL A   1      37.946  32.492  32.976  1.00  0.00     0.029 A 
ATOM     49  C   UNL A   1      39.161  31.712  33.191  1.00  0.00     0.049 A 
ATOM     50  H   UNL A   1      40.159  30.503  31.822  1.00  0.00     0.167 HD
ATOM     51  C   UNL A   1      41.748  27.583  28.696  1.00  0.00     0.034 A 
ATOM     52  C   UNL A   1      39.875  31.636  34.327  1.00  0.00     0.034 A 
ATOM     53  C   UNL A   1      42.627  27.523  29.832  1.00  0.00     0.049 A 
ATOM     54  C   UNL A   1      41.094  30.748  34.316  1.00  0.00     0.074 A 
ATOM     55  C   UNL A   1      43.795  26.806  29.988  1.00  0.00     0.029 A 
ATOM     56  N   UNL A   1      42.417  28.221  31.020  1.00  0.00    -0.354 N 
ATOM     57  N   UNL A   1      41.538  29.965  33.354  1.00  0.00    -0.248 NA
ATOM     58  C   UNL A   1      41.915  30.741  35.528  1.00  0.00     0.031 C 
ATOM     59  C   UNL A   1      44.256  27.021  31.293  1.00  0.00     0.029 A 
ATOM     60  C   UNL A   1      43.422  27.935  31.924  1.00  0.00     0.049 A 
ATOM     61  H   UNL A   1      41.663  28.829  31.190  1.00  0.00     0.167 HD
ATOM     62  C   UNL A   1      42.711  29.395  33.835  1.00  0.00     0.074 A 
ATOM     63  C   UNL A   1      42.908  29.941  35.167  1.00  0.00     0.031 C 
ATOM     64  C   UNL A   1      43.556  28.508  33.244  1.00  0.00     0.034 A 
BRANCH  51  65
ATOM     65  C   UNL A   1      41.993  26.734  27.473  1.00  0.00     0.023 A 
ATOM     66  C   UNL A   1      41.574  25.391  27.405  1.00  0.00     0.031 A 
ATOM     67  C   UNL A   1      42.738  27.240  26.394  1.00  0.00     0.131 A 
ATOM     68  C   UNL A   1      41.982  24.579  26.337  1.00  0.00     0.055 A 
ATOM     69  C   UNL A   1      43.060  26.452  25.287  1.00  0.00     0.041 A 
ATOM     70  F   UNL A   1      43.199  28.500  26.414  1.00  0.00    -0.206 F 
ATOM     71  C   UNL A   1      42.699  25.108  25.262  1.00  0.00     0.022 A 
BRANCH  68  72
ATOM     72  S   UNL A   1      41.712  22.787  26.456  1.00  0.00     0.124 S 
ATOM     73  O   UNL A   1      42.316  22.315  25.213  1.00  0.00    -0.237 OA
ATOM     74  O   UNL A   1      42.421  22.442  27.682  1.00  0.00    -0.237 OA
ATOM     75  O   UNL A   1      40.257  22.664  26.519  1.00  0.00    -0.744 OA
ENDBRANCH  68  72
ENDBRANCH  51  65
BRANCH  52  76
ATOM     76  C   UNL A   1      39.470  32.416  35.529  1.00  0.00     0.023 A 
ATOM     77  C   UNL A   1      39.867  33.753  35.684  1.00  0.00     0.031 A 
ATOM     78  C   UNL A   1      38.676  31.843  36.538  1.00  0.00     0.131 A 
ATOM     79  C   UNL A   1      39.504  34.462  36.839  1.00  0.00     0.055 A 
ATOM     80  C   UNL A   1      38.276  32.568  37.663  1.00  0.00     0.041 A 
ATOM     81  F   UNL A   1      38.254  30.573  36.432  1.00  0.00    -0.206 F 
ATOM     82  C   UNL A   1      38.701  33.882  37.825  1.00  0.00     0.022 A 
BRANCH  79  83
ATOM     83  S   UNL A   1      40.156  36.139  37.066  1.00  0.00     0.124 S 
ATOM     84  O   UNL A   1      41.568  35.875  37.325  1.00  0.00    -0.237 OA
ATOM     85  O   UNL A   1      39.844  36.759  35.784  1.00  0.00    -0.237 OA
ATOM     86  O   UNL A   1      39.396  36.647  38.206  1.00  0.00    -0.744 OA
ENDBRANCH  79  83
ENDBRANCH  52  76
BRANCH  64  87
ATOM     87  C   UNL A   1      44.778  28.123  34.035  1.00  0.00     0.023 A 
ATOM     88  C   UNL A   1      45.975  28.849  33.934  1.00  0.00     0.031 A 
ATOM     89  C   UNL A   1      44.737  27.015  34.899  1.00  0.00     0.131 A 
ATOM     90  C   UNL A   1      47.107  28.417  34.636  1.00  0.00     0.055 A 
ATOM     91  C   UNL A   1      45.846  26.636  35.652  1.00  0.00     0.041 A 
ATOM     92  F   UNL A   1      43.614  26.291  35.029  1.00  0.00    -0.206 F 
ATOM     93  C   UNL A   1      47.044  27.328  35.511  1.00  0.00     0.022 A 
BRANCH  90  94
ATOM     94  S   UNL A   1      48.690  29.233  34.303  1.00  0.00     0.124 S 
ATOM     95  O   UNL A   1      49.318  28.303  33.370  1.00  0.00    -0.237 OA
ATOM     96  O   UNL A   1      48.271  30.512  33.743  1.00  0.00    -0.237 OA
ATOM     97  O   UNL A   1      49.318  29.309  35.621  1.00  0.00    -0.744 OA
ENDBRANCH  90  94
ENDBRANCH  64  87
ENDBRANCH  38  39
ENDBRANCH  31  33
ENDBRANCH  30  31
ENDBRANCH  29  30
ENDBRANCH  28  29
ENDBRANCH   1  28
TORSDOF 20
ENDMDL
