MODEL 1
REMARK VINA RESULT:     -10.5      0.000      0.000
REMARK SMILES CCOc1ccccc1Nc1ccc(C(=O)OCCOCCOC(=O)c2ccc(-c3c4nc(c(-c5cc(S(=O)(=O)[O-])ccc5F)c5ccc([nH]5)c(-c5cc(S(=O)(=O)[O-])ccc5F)c5nc(c(-c6cc(S(=O)(=O)[O-])ccc6F)c6ccc3[nH]6)C=C5)C=C4)cc2)cc1N
REMARK SMILES IDX 19 1 18 2 17 3 15 4 16 5 14 6 11 7 12 8 90 9 13 10 89 11
REMARK SMILES IDX 10 12 9 14 4 15 5 16 6 17 8 18 7 19 3 20 2 21 1 22 91 23
REMARK SMILES IDX 20 26 21 27 22 28 23 29 24 30 25 31 26 32 27 33 88 34 28 35
REMARK SMILES IDX 87 36 29 37 30 38 31 39 81 40 32 41 86 42 80 43 82 44 33 45
REMARK SMILES IDX 85 46 79 47 78 48 34 50 66 51 46 52 65 53 47 54 50 55 64 56
REMARK SMILES IDX 83 57 48 58 49 59 63 61 84 62 51 63 35 64 36 65 44 66 37 67
REMARK SMILES IDX 43 68 45 69 42 70 38 71 39 72 40 73 41 74 67 75 68 76 76 77
REMARK SMILES IDX 69 78 75 79 77 80 74 81 70 82 71 83 72 84 73 85 52 86 53 87
REMARK SMILES IDX 61 88 54 89 60 90 62 91 59 92 55 93 56 94 57 95 58 96
REMARK H PARENT 10 13 91 24 91 25 82 49 50 60
REMARK Flexibility Score: inf
ROOT
ATOM      1  C   UNL A   1      37.489  22.984  25.642  1.00  0.00     0.202 C 
ENDROOT
BRANCH   1   2
ATOM      2  C   UNL A   1      35.987  22.716  25.761  1.00  0.00     0.261 C 
BRANCH   2   3
ATOM      3  O   UNL A   1      35.438  22.259  24.517  1.00  0.00    -0.460 OA
BRANCH   3   4
ATOM      4  C   UNL A   1      34.366  21.446  24.647  1.00  0.00     0.338 C 
ATOM      5  O   UNL A   1      34.380  20.230  24.776  1.00  0.00    -0.246 OA
BRANCH   4   6
ATOM      6  C   UNL A   1      33.115  22.230  24.730  1.00  0.00     0.062 A 
ATOM      7  C   UNL A   1      30.947  23.973  24.956  1.00  0.00     0.062 A 
ATOM      8  C   UNL A   1      31.918  24.185  23.971  1.00  0.00     0.029 A 
ATOM      9  C   UNL A   1      31.002  22.805  25.757  1.00  0.00     0.056 A 
ATOM     10  C   UNL A   1      33.000  23.322  23.864  1.00  0.00     0.018 A 
ATOM     11  C   UNL A   1      32.084  21.931  25.627  1.00  0.00     0.043 A 
BRANCH   7  12
ATOM     12  N   UNL A   1      30.050  25.026  25.218  1.00  0.00    -0.351 N 
ATOM     13  H   UNL A   1      29.342  24.824  25.871  1.00  0.00     0.167 HD
BRANCH  12  14
ATOM     14  C   UNL A   1      30.020  26.329  24.679  1.00  0.00     0.081 A 
ATOM     15  C   UNL A   1      31.003  27.256  25.064  1.00  0.00     0.142 A 
ATOM     16  C   UNL A   1      31.024  28.548  24.535  1.00  0.00     0.048 A 
ATOM     17  C   UNL A   1      30.077  28.921  23.581  1.00  0.00     0.004 A 
ATOM     18  C   UNL A   1      29.077  26.728  23.722  1.00  0.00     0.030 A 
ATOM     19  C   UNL A   1      29.103  28.013  23.176  1.00  0.00     0.002 A 
BRANCH  15  20
ATOM     20  O   UNL A   1      31.895  26.929  26.055  1.00  0.00    -0.492 OA
BRANCH  20  21
ATOM     21  C   UNL A   1      33.110  27.683  25.954  1.00  0.00     0.226 C 
ATOM     22  C   UNL A   1      33.351  28.455  27.243  1.00  0.00     0.049 C 
ENDBRANCH  20  21
ENDBRANCH  15  20
ENDBRANCH  12  14
ENDBRANCH   7  12
BRANCH   9  23
ATOM     23  N   UNL A   1      29.931  22.456  26.580  1.00  0.00    -0.397 N 
ATOM     24  H   UNL A   1      29.423  23.157  27.050  1.00  0.00     0.156 HD
ATOM     25  H   UNL A   1      29.683  21.510  26.690  1.00  0.00     0.156 HD
ENDBRANCH   9  23
ENDBRANCH   4   6
ENDBRANCH   3   4
ENDBRANCH   2   3
ENDBRANCH   1   2
BRANCH   1  26
ATOM     26  O   UNL A   1      38.358  21.905  25.988  1.00  0.00    -0.374 OA
BRANCH  26  27
ATOM     27  C   UNL A   1      38.322  20.746  25.150  1.00  0.00     0.202 C 
BRANCH  27  28
ATOM     28  C   UNL A   1      39.242  19.583  25.541  1.00  0.00     0.261 C 
BRANCH  28  29
ATOM     29  O   UNL A   1      40.171  19.960  26.575  1.00  0.00    -0.460 OA
BRANCH  29  30
ATOM     30  C   UNL A   1      41.474  19.741  26.281  1.00  0.00     0.338 C 
ATOM     31  O   UNL A   1      41.954  18.733  25.780  1.00  0.00    -0.246 OA
BRANCH  30  32
ATOM     32  C   UNL A   1      42.242  20.988  26.456  1.00  0.00     0.060 A 
ATOM     33  C   UNL A   1      42.639  21.327  27.756  1.00  0.00     0.016 A 
ATOM     34  C   UNL A   1      42.525  21.837  25.384  1.00  0.00     0.016 A 
ATOM     35  C   UNL A   1      43.289  22.536  27.995  1.00  0.00     0.010 A 
ATOM     36  C   UNL A   1      43.167  23.056  25.628  1.00  0.00     0.010 A 
ATOM     37  C   UNL A   1      43.525  23.424  26.938  1.00  0.00    -0.014 A 
BRANCH  37  38
ATOM     38  C   UNL A   1      44.023  24.791  27.229  1.00  0.00     0.031 A 
ATOM     39  C   UNL A   1      43.062  25.819  27.760  1.00  0.00     0.074 A 
ATOM     40  C   UNL A   1      45.320  25.102  27.049  1.00  0.00     0.049 A 
ATOM     41  N   UNL A   1      43.265  27.079  28.044  1.00  0.00    -0.248 NA
ATOM     42  C   UNL A   1      41.684  25.361  27.996  1.00  0.00     0.031 C 
ATOM     43  C   UNL A   1      46.352  24.175  26.587  1.00  0.00     0.029 A 
ATOM     44  N   UNL A   1      45.988  26.287  27.231  1.00  0.00    -0.354 N 
ATOM     45  C   UNL A   1      42.043  27.568  28.494  1.00  0.00     0.074 A 
ATOM     46  C   UNL A   1      41.096  26.476  28.406  1.00  0.00     0.031 C 
ATOM     47  C   UNL A   1      47.523  24.831  26.510  1.00  0.00     0.029 A 
ATOM     48  C   UNL A   1      47.317  26.230  26.880  1.00  0.00     0.049 A 
ATOM     49  H   UNL A   1      45.558  27.100  27.581  1.00  0.00     0.167 HD
ATOM     50  C   UNL A   1      41.742  28.810  28.947  1.00  0.00     0.034 A 
ATOM     51  C   UNL A   1      48.250  27.202  26.835  1.00  0.00     0.034 A 
ATOM     52  C   UNL A   1      42.695  29.892  29.013  1.00  0.00     0.049 A 
ATOM     53  C   UNL A   1      47.868  28.602  27.252  1.00  0.00     0.074 A 
ATOM     54  C   UNL A   1      42.502  31.185  29.469  1.00  0.00     0.029 A 
ATOM     55  N   UNL A   1      44.019  29.813  28.598  1.00  0.00    -0.354 N 
ATOM     56  N   UNL A   1      46.711  29.050  27.685  1.00  0.00    -0.248 NA
ATOM     57  C   UNL A   1      48.919  29.625  27.179  1.00  0.00     0.031 C 
ATOM     58  C   UNL A   1      43.684  31.905  29.261  1.00  0.00     0.029 A 
ATOM     59  C   UNL A   1      44.641  31.043  28.750  1.00  0.00     0.049 A 
ATOM     60  H   UNL A   1      44.452  29.002  28.246  1.00  0.00     0.167 HD
ATOM     61  C   UNL A   1      46.907  30.401  27.963  1.00  0.00     0.074 A 
ATOM     62  C   UNL A   1      48.294  30.689  27.662  1.00  0.00     0.031 C 
ATOM     63  C   UNL A   1      46.023  31.320  28.429  1.00  0.00     0.034 A 
BRANCH  50  64
ATOM     64  C   UNL A   1      40.310  29.073  29.348  1.00  0.00     0.023 A 
ATOM     65  C   UNL A   1      39.893  29.018  30.689  1.00  0.00     0.031 A 
ATOM     66  C   UNL A   1      39.341  29.356  28.369  1.00  0.00     0.131 A 
ATOM     67  C   UNL A   1      38.536  29.172  31.008  1.00  0.00     0.055 A 
ATOM     68  C   UNL A   1      38.004  29.586  28.701  1.00  0.00     0.041 A 
ATOM     69  F   UNL A   1      39.675  29.399  27.070  1.00  0.00    -0.206 F 
ATOM     70  C   UNL A   1      37.592  29.480  30.025  1.00  0.00     0.022 A 
BRANCH  67  71
ATOM     71  S   UNL A   1      37.997  28.827  32.706  1.00  0.00     0.124 S 
ATOM     72  O   UNL A   1      36.654  29.404  32.712  1.00  0.00    -0.237 OA
ATOM     73  O   UNL A   1      38.070  27.373  32.770  1.00  0.00    -0.237 OA
ATOM     74  O   UNL A   1      38.976  29.538  33.527  1.00  0.00    -0.744 OA
ENDBRANCH  67  71
ENDBRANCH  50  64
BRANCH  51  75
ATOM     75  C   UNL A   1      49.623  26.907  26.335  1.00  0.00     0.023 A 
ATOM     76  C   UNL A   1      50.027  27.286  25.046  1.00  0.00     0.031 A 
ATOM     77  C   UNL A   1      50.537  26.187  27.127  1.00  0.00     0.131 A 
ATOM     78  C   UNL A   1      51.291  26.907  24.569  1.00  0.00     0.055 A 
ATOM     79  C   UNL A   1      51.814  25.859  26.668  1.00  0.00     0.041 A 
ATOM     80  F   UNL A   1      50.202  25.799  28.368  1.00  0.00    -0.206 F 
ATOM     81  C   UNL A   1      52.192  26.207  25.376  1.00  0.00     0.022 A 
BRANCH  78  82
ATOM     82  S   UNL A   1      51.713  27.267  22.841  1.00  0.00     0.124 S 
ATOM     83  O   UNL A   1      50.442  27.029  22.170  1.00  0.00    -0.237 OA
ATOM     84  O   UNL A   1      52.146  28.658  22.921  1.00  0.00    -0.237 OA
ATOM     85  O   UNL A   1      52.770  26.304  22.541  1.00  0.00    -0.744 OA
ENDBRANCH  78  82
ENDBRANCH  51  75
BRANCH  63  86
ATOM     86  C   UNL A   1      46.548  32.714  28.678  1.00  0.00     0.023 A 
ATOM     87  C   UNL A   1      46.429  33.734  27.717  1.00  0.00     0.031 A 
ATOM     88  C   UNL A   1      47.187  33.022  29.893  1.00  0.00     0.131 A 
ATOM     89  C   UNL A   1      46.990  34.996  27.964  1.00  0.00     0.055 A 
ATOM     90  C   UNL A   1      47.690  34.297  30.156  1.00  0.00     0.041 A 
ATOM     91  F   UNL A   1      47.331  32.086  30.845  1.00  0.00    -0.206 F 
ATOM     92  C   UNL A   1      47.604  35.289  29.184  1.00  0.00     0.022 A 
BRANCH  89  93
ATOM     93  S   UNL A   1      46.986  36.228  26.632  1.00  0.00     0.124 S 
ATOM     94  O   UNL A   1      45.850  37.068  26.999  1.00  0.00    -0.237 OA
ATOM     95  O   UNL A   1      48.303  36.840  26.768  1.00  0.00    -0.237 OA
ATOM     96  O   UNL A   1      46.798  35.426  25.423  1.00  0.00    -0.744 OA
ENDBRANCH  89  93
ENDBRANCH  63  86
ENDBRANCH  37  38
ENDBRANCH  30  32
ENDBRANCH  29  30
ENDBRANCH  28  29
ENDBRANCH  27  28
ENDBRANCH  26  27
ENDBRANCH   1  26
TORSDOF 22
ENDMDL
MODEL 2
REMARK VINA RESULT:     -10.3      5.686      9.568
REMARK SMILES CCOc1ccccc1Nc1ccc(C(=O)OCCOCCOC(=O)c2ccc(-c3c4nc(c(-c5cc(S(=O)(=O)[O-])ccc5F)c5ccc([nH]5)c(-c5cc(S(=O)(=O)[O-])ccc5F)c5nc(c(-c6cc(S(=O)(=O)[O-])ccc6F)c6ccc3[nH]6)C=C5)C=C4)cc2)cc1N
REMARK SMILES IDX 19 1 18 2 17 3 15 4 16 5 14 6 11 7 12 8 90 9 13 10 89 11
REMARK SMILES IDX 10 12 9 14 4 15 5 16 6 17 8 18 7 19 3 20 2 21 1 22 91 23
REMARK SMILES IDX 20 26 21 27 22 28 23 29 24 30 25 31 26 32 27 33 88 34 28 35
REMARK SMILES IDX 87 36 29 37 30 38 31 39 81 40 32 41 86 42 80 43 82 44 33 45
REMARK SMILES IDX 85 46 79 47 78 48 34 50 66 51 46 52 65 53 47 54 50 55 64 56
REMARK SMILES IDX 83 57 48 58 49 59 63 61 84 62 51 63 35 64 36 65 44 66 37 67
REMARK SMILES IDX 43 68 45 69 42 70 38 71 39 72 40 73 41 74 67 75 68 76 76 77
REMARK SMILES IDX 69 78 75 79 77 80 74 81 70 82 71 83 72 84 73 85 52 86 53 87
REMARK SMILES IDX 61 88 54 89 60 90 62 91 59 92 55 93 56 94 57 95 58 96
REMARK H PARENT 10 13 91 24 91 25 82 49 50 60
REMARK Flexibility Score: inf
ROOT
ATOM      1  C   UNL A   1      32.679  30.341  25.787  1.00  0.00     0.202 C 
ENDROOT
BRANCH   1   2
ATOM      2  C   UNL A   1      32.731  28.824  25.586  1.00  0.00     0.261 C 
BRANCH   2   3
ATOM      3  O   UNL A   1      31.458  28.219  25.851  1.00  0.00    -0.460 OA
BRANCH   3   4
ATOM      4  C   UNL A   1      30.990  27.445  24.848  1.00  0.00     0.338 C 
ATOM      5  O   UNL A   1      30.327  27.811  23.887  1.00  0.00    -0.246 OA
BRANCH   4   6
ATOM      6  C   UNL A   1      31.478  26.055  24.980  1.00  0.00     0.062 A 
ATOM      7  C   UNL A   1      32.517  23.524  25.528  1.00  0.00     0.062 A 
ATOM      8  C   UNL A   1      31.516  24.063  26.344  1.00  0.00     0.029 A 
ATOM      9  C   UNL A   1      32.915  24.213  24.355  1.00  0.00     0.056 A 
ATOM     10  C   UNL A   1      31.005  25.325  26.075  1.00  0.00     0.018 A 
ATOM     11  C   UNL A   1      32.378  25.473  24.081  1.00  0.00     0.043 A 
BRANCH   7  12
ATOM     12  N   UNL A   1      33.206  22.394  26.010  1.00  0.00    -0.351 N 
ATOM     13  H   UNL A   1      33.598  22.491  26.908  1.00  0.00     0.167 HD
BRANCH  12  14
ATOM     14  C   UNL A   1      33.414  21.143  25.393  1.00  0.00     0.081 A 
ATOM     15  C   UNL A   1      34.717  20.629  25.299  1.00  0.00     0.142 A 
ATOM     16  C   UNL A   1      34.963  19.384  24.718  1.00  0.00     0.048 A 
ATOM     17  C   UNL A   1      33.897  18.615  24.252  1.00  0.00     0.004 A 
ATOM     18  C   UNL A   1      32.359  20.354  24.914  1.00  0.00     0.030 A 
ATOM     19  C   UNL A   1      32.596  19.100  24.347  1.00  0.00     0.002 A 
BRANCH  15  20
ATOM     20  O   UNL A   1      35.783  21.404  25.686  1.00  0.00    -0.492 OA
BRANCH  20  21
ATOM     21  C   UNL A   1      36.543  21.870  24.563  1.00  0.00     0.226 C 
ATOM     22  C   UNL A   1      37.183  23.211  24.889  1.00  0.00     0.049 C 
ENDBRANCH  20  21
ENDBRANCH  15  20
ENDBRANCH  12  14
ENDBRANCH   7  12
BRANCH   9  23
ATOM     23  N   UNL A   1      33.735  23.594  23.412  1.00  0.00    -0.397 N 
ATOM     24  H   UNL A   1      34.690  23.451  23.608  1.00  0.00     0.156 HD
ATOM     25  H   UNL A   1      33.361  23.302  22.549  1.00  0.00     0.156 HD
ENDBRANCH   9  23
ENDBRANCH   4   6
ENDBRANCH   3   4
ENDBRANCH   2   3
ENDBRANCH   1   2
BRANCH   1  26
ATOM     26  O   UNL A   1      31.381  30.932  25.836  1.00  0.00    -0.374 OA
BRANCH  26  27
ATOM     27  C   UNL A   1      31.162  31.938  26.830  1.00  0.00     0.202 C 
BRANCH  27  28
ATOM     28  C   UNL A   1      32.164  33.099  26.868  1.00  0.00     0.261 C 
BRANCH  28  29
ATOM     29  O   UNL A   1      32.411  33.549  28.214  1.00  0.00    -0.460 OA
BRANCH  29  30
ATOM     30  C   UNL A   1      33.510  34.325  28.364  1.00  0.00     0.338 C 
ATOM     31  O   UNL A   1      33.551  35.548  28.379  1.00  0.00    -0.246 OA
BRANCH  30  32
ATOM     32  C   UNL A   1      34.668  33.484  28.725  1.00  0.00     0.060 A 
ATOM     33  C   UNL A   1      34.411  32.280  29.394  1.00  0.00     0.016 A 
ATOM     34  C   UNL A   1      35.980  33.884  28.462  1.00  0.00     0.016 A 
ATOM     35  C   UNL A   1      35.467  31.488  29.837  1.00  0.00     0.010 A 
ATOM     36  C   UNL A   1      37.040  33.092  28.920  1.00  0.00     0.010 A 
ATOM     37  C   UNL A   1      36.789  31.907  29.635  1.00  0.00    -0.014 A 
BRANCH  37  38
ATOM     38  C   UNL A   1      37.898  31.170  30.289  1.00  0.00     0.031 A 
ATOM     39  C   UNL A   1      38.198  31.444  31.738  1.00  0.00     0.074 A 
ATOM     40  C   UNL A   1      38.607  30.251  29.610  1.00  0.00     0.049 A 
ATOM     41  N   UNL A   1      39.140  30.952  32.499  1.00  0.00    -0.248 NA
ATOM     42  C   UNL A   1      37.318  32.409  32.415  1.00  0.00     0.031 C 
ATOM     43  C   UNL A   1      38.374  29.867  28.219  1.00  0.00     0.029 A 
ATOM     44  N   UNL A   1      39.670  29.476  30.000  1.00  0.00    -0.354 N 
ATOM     45  C   UNL A   1      38.968  31.543  33.745  1.00  0.00     0.074 A 
ATOM     46  C   UNL A   1      37.855  32.461  33.624  1.00  0.00     0.031 C 
ATOM     47  C   UNL A   1      39.278  28.936  27.867  1.00  0.00     0.029 A 
ATOM     48  C   UNL A   1      40.175  28.686  28.993  1.00  0.00     0.049 A 
ATOM     49  H   UNL A   1      40.037  29.483  30.913  1.00  0.00     0.167 HD
ATOM     50  C   UNL A   1      39.669  31.333  34.888  1.00  0.00     0.034 A 
ATOM     51  C   UNL A   1      41.254  27.877  28.977  1.00  0.00     0.034 A 
ATOM     52  C   UNL A   1      40.787  30.425  34.987  1.00  0.00     0.049 A 
ATOM     53  C   UNL A   1      42.079  27.732  30.232  1.00  0.00     0.074 A 
ATOM     54  C   UNL A   1      41.558  30.124  36.097  1.00  0.00     0.029 A 
ATOM     55  N   UNL A   1      41.304  29.682  33.933  1.00  0.00    -0.354 N 
ATOM     56  N   UNL A   1      41.900  28.290  31.409  1.00  0.00    -0.248 NA
ATOM     57  C   UNL A   1      43.246  26.844  30.159  1.00  0.00     0.031 C 
ATOM     58  C   UNL A   1      42.583  29.259  35.697  1.00  0.00     0.029 A 
ATOM     59  C   UNL A   1      42.407  28.956  34.356  1.00  0.00     0.049 A 
ATOM     60  H   UNL A   1      40.942  29.673  33.017  1.00  0.00     0.167 HD
ATOM     61  C   UNL A   1      42.918  27.795  32.221  1.00  0.00     0.074 A 
ATOM     62  C   UNL A   1      43.695  26.886  31.406  1.00  0.00     0.031 C 
ATOM     63  C   UNL A   1      43.184  28.064  33.526  1.00  0.00     0.034 A 
BRANCH  50  64
ATOM     64  C   UNL A   1      39.278  32.144  36.100  1.00  0.00     0.023 A 
ATOM     65  C   UNL A   1      38.418  31.635  37.088  1.00  0.00     0.031 A 
ATOM     66  C   UNL A   1      39.751  33.460  36.254  1.00  0.00     0.131 A 
ATOM     67  C   UNL A   1      38.004  32.457  38.147  1.00  0.00     0.055 A 
ATOM     68  C   UNL A   1      39.396  34.246  37.351  1.00  0.00     0.041 A 
ATOM     69  F   UNL A   1      40.557  34.009  35.331  1.00  0.00    -0.206 F 
ATOM     70  C   UNL A   1      38.506  33.751  38.298  1.00  0.00     0.022 A 
BRANCH  67  71
ATOM     71  S   UNL A   1      36.690  31.859  39.247  1.00  0.00     0.124 S 
ATOM     72  O   UNL A   1      35.572  32.720  38.867  1.00  0.00    -0.237 OA
ATOM     73  O   UNL A   1      36.575  30.456  38.868  1.00  0.00    -0.237 OA
ATOM     74  O   UNL A   1      37.227  32.102  40.585  1.00  0.00    -0.744 OA
ENDBRANCH  67  71
ENDBRANCH  50  64
BRANCH  51  75
ATOM     75  C   UNL A   1      41.652  27.177  27.722  1.00  0.00     0.023 A 
ATOM     76  C   UNL A   1      41.583  25.779  27.614  1.00  0.00     0.031 A 
ATOM     77  C   UNL A   1      42.165  27.898  26.628  1.00  0.00     0.131 A 
ATOM     78  C   UNL A   1      42.059  25.144  26.457  1.00  0.00     0.055 A 
ATOM     79  C   UNL A   1      42.587  27.265  25.458  1.00  0.00     0.041 A 
ATOM     80  F   UNL A   1      42.255  29.237  26.678  1.00  0.00    -0.206 F 
ATOM     81  C   UNL A   1      42.548  25.877  25.373  1.00  0.00     0.022 A 
BRANCH  78  82
ATOM     82  S   UNL A   1      42.109  23.330  26.420  1.00  0.00     0.124 S 
ATOM     83  O   UNL A   1      42.686  23.023  27.722  1.00  0.00    -0.237 OA
ATOM     84  O   UNL A   1      40.700  22.993  26.246  1.00  0.00    -0.237 OA
ATOM     85  O   UNL A   1      42.963  23.037  25.271  1.00  0.00    -0.744 OA
ENDBRANCH  78  82
ENDBRANCH  51  75
BRANCH  63  86
ATOM     86  C   UNL A   1      44.344  27.331  34.155  1.00  0.00     0.023 A 
ATOM     87  C   UNL A   1      44.187  26.065  34.748  1.00  0.00     0.031 A 
ATOM     88  C   UNL A   1      45.624  27.913  34.171  1.00  0.00     0.131 A 
ATOM     89  C   UNL A   1      45.277  25.448  35.378  1.00  0.00     0.055 A 
ATOM     90  C   UNL A   1      46.719  27.267  34.747  1.00  0.00     0.041 A 
ATOM     91  F   UNL A   1      45.832  29.121  33.622  1.00  0.00    -0.206 F 
ATOM     92  C   UNL A   1      46.546  26.033  35.367  1.00  0.00     0.022 A 
BRANCH  89  93
ATOM     93  S   UNL A   1      44.997  23.907  36.296  1.00  0.00     0.124 S 
ATOM     94  O   UNL A   1      43.916  23.292  35.533  1.00  0.00    -0.237 OA
ATOM     95  O   UNL A   1      46.296  23.249  36.206  1.00  0.00    -0.237 OA
ATOM     96  O   UNL A   1      44.628  24.367  37.634  1.00  0.00    -0.744 OA
ENDBRANCH  89  93
ENDBRANCH  63  86
ENDBRANCH  37  38
ENDBRANCH  30  32
ENDBRANCH  29  30
ENDBRANCH  28  29
ENDBRANCH  27  28
ENDBRANCH  26  27
ENDBRANCH   1  26
TORSDOF 22
ENDMDL
MODEL 3
REMARK VINA RESULT:     -10.2      5.729      9.707
REMARK SMILES CCOc1ccccc1Nc1ccc(C(=O)OCCOCCOC(=O)c2ccc(-c3c4nc(c(-c5cc(S(=O)(=O)[O-])ccc5F)c5ccc([nH]5)c(-c5cc(S(=O)(=O)[O-])ccc5F)c5nc(c(-c6cc(S(=O)(=O)[O-])ccc6F)c6ccc3[nH]6)C=C5)C=C4)cc2)cc1N
REMARK SMILES IDX 19 1 18 2 17 3 15 4 16 5 14 6 11 7 12 8 90 9 13 10 89 11
REMARK SMILES IDX 10 12 9 14 4 15 5 16 6 17 8 18 7 19 3 20 2 21 1 22 91 23
REMARK SMILES IDX 20 26 21 27 22 28 23 29 24 30 25 31 26 32 27 33 88 34 28 35
REMARK SMILES IDX 87 36 29 37 30 38 31 39 81 40 32 41 86 42 80 43 82 44 33 45
REMARK SMILES IDX 85 46 79 47 78 48 34 50 66 51 46 52 65 53 47 54 50 55 64 56
REMARK SMILES IDX 83 57 48 58 49 59 63 61 84 62 51 63 35 64 36 65 44 66 37 67
REMARK SMILES IDX 43 68 45 69 42 70 38 71 39 72 40 73 41 74 67 75 68 76 76 77
REMARK SMILES IDX 69 78 75 79 77 80 74 81 70 82 71 83 72 84 73 85 52 86 53 87
REMARK SMILES IDX 61 88 54 89 60 90 62 91 59 92 55 93 56 94 57 95 58 96
REMARK H PARENT 10 13 91 24 91 25 82 49 50 60
REMARK Flexibility Score: inf
ROOT
ATOM      1  C   UNL A   1      32.137  30.034  25.356  1.00  0.00     0.202 C 
ENDROOT
BRANCH   1   2
ATOM      2  C   UNL A   1      31.842  28.548  25.576  1.00  0.00     0.261 C 
BRANCH   2   3
ATOM      3  O   UNL A   1      30.660  28.141  24.873  1.00  0.00    -0.460 OA
BRANCH   3   4
ATOM      4  C   UNL A   1      30.819  28.025  23.537  1.00  0.00     0.338 C 
ATOM      5  O   UNL A   1      30.615  28.890  22.695  1.00  0.00    -0.246 OA
BRANCH   4   6
ATOM      6  C   UNL A   1      31.399  26.711  23.185  1.00  0.00     0.062 A 
ATOM      7  C   UNL A   1      32.727  24.295  22.753  1.00  0.00     0.062 A 
ATOM      8  C   UNL A   1      32.161  24.571  24.002  1.00  0.00     0.029 A 
ATOM      9  C   UNL A   1      32.520  25.191  21.674  1.00  0.00     0.056 A 
ATOM     10  C   UNL A   1      31.507  25.776  24.219  1.00  0.00     0.018 A 
ATOM     11  C   UNL A   1      31.841  26.391  21.897  1.00  0.00     0.043 A 
BRANCH   7  12
ATOM     12  N   UNL A   1      33.626  23.214  22.674  1.00  0.00    -0.351 N 
ATOM     13  H   UNL A   1      33.687  22.780  21.792  1.00  0.00     0.167 HD
BRANCH  12  14
ATOM     14  C   UNL A   1      34.452  22.664  23.676  1.00  0.00     0.081 A 
ATOM     15  C   UNL A   1      34.108  21.430  24.252  1.00  0.00     0.142 A 
ATOM     16  C   UNL A   1      34.911  20.839  25.228  1.00  0.00     0.048 A 
ATOM     17  C   UNL A   1      36.097  21.461  25.618  1.00  0.00     0.004 A 
ATOM     18  C   UNL A   1      35.647  23.271  24.086  1.00  0.00     0.030 A 
ATOM     19  C   UNL A   1      36.464  22.677  25.049  1.00  0.00     0.002 A 
BRANCH  15  20
ATOM     20  O   UNL A   1      32.907  20.842  23.933  1.00  0.00    -0.492 OA
BRANCH  20  21
ATOM     21  C   UNL A   1      32.641  19.692  24.746  1.00  0.00     0.226 C 
ATOM     22  C   UNL A   1      32.511  18.455  23.870  1.00  0.00     0.049 C 
ENDBRANCH  20  21
ENDBRANCH  15  20
ENDBRANCH  12  14
ENDBRANCH   7  12
BRANCH   9  23
ATOM     23  N   UNL A   1      32.872  24.831  20.373  1.00  0.00    -0.397 N 
ATOM     24  H   UNL A   1      33.773  25.038  20.033  1.00  0.00     0.156 HD
ATOM     25  H   UNL A   1      32.221  24.371  19.796  1.00  0.00     0.156 HD
ENDBRANCH   9  23
ENDBRANCH   4   6
ENDBRANCH   3   4
ENDBRANCH   2   3
ENDBRANCH   1   2
BRANCH   1  26
ATOM     26  O   UNL A   1      31.016  30.917  25.389  1.00  0.00    -0.374 OA
BRANCH  26  27
ATOM     27  C   UNL A   1      31.025  31.942  26.387  1.00  0.00     0.202 C 
BRANCH  27  28
ATOM     28  C   UNL A   1      32.399  32.415  26.877  1.00  0.00     0.261 C 
BRANCH  28  29
ATOM     29  O   UNL A   1      32.286  33.461  27.861  1.00  0.00    -0.460 OA
BRANCH  29  30
ATOM     30  C   UNL A   1      33.384  34.242  27.994  1.00  0.00     0.338 C 
ATOM     31  O   UNL A   1      33.423  35.465  27.969  1.00  0.00    -0.246 OA
BRANCH  30  32
ATOM     32  C   UNL A   1      34.540  33.414  28.390  1.00  0.00     0.060 A 
ATOM     33  C   UNL A   1      34.279  32.237  29.103  1.00  0.00     0.016 A 
ATOM     34  C   UNL A   1      35.853  33.803  28.116  1.00  0.00     0.016 A 
ATOM     35  C   UNL A   1      35.333  31.462  29.579  1.00  0.00     0.010 A 
ATOM     36  C   UNL A   1      36.911  33.028  28.607  1.00  0.00     0.010 A 
ATOM     37  C   UNL A   1      36.656  31.871  29.365  1.00  0.00    -0.014 A 
BRANCH  37  38
ATOM     38  C   UNL A   1      37.762  31.159  30.051  1.00  0.00     0.031 A 
ATOM     39  C   UNL A   1      38.069  31.500  31.484  1.00  0.00     0.074 A 
ATOM     40  C   UNL A   1      38.463  30.203  29.414  1.00  0.00     0.049 A 
ATOM     41  N   UNL A   1      39.010  31.037  32.265  1.00  0.00    -0.248 NA
ATOM     42  C   UNL A   1      37.198  32.501  32.116  1.00  0.00     0.031 C 
ATOM     43  C   UNL A   1      38.222  29.755  28.044  1.00  0.00     0.029 A 
ATOM     44  N   UNL A   1      39.522  29.440  29.837  1.00  0.00    -0.354 N 
ATOM     45  C   UNL A   1      38.847  31.689  33.482  1.00  0.00     0.074 A 
ATOM     46  C   UNL A   1      37.739  32.608  33.320  1.00  0.00     0.031 C 
ATOM     47  C   UNL A   1      39.119  28.802  27.734  1.00  0.00     0.029 A 
ATOM     48  C   UNL A   1      40.018  28.600  28.868  1.00  0.00     0.049 A 
ATOM     49  H   UNL A   1      39.892  29.489  30.748  1.00  0.00     0.167 HD
ATOM     50  C   UNL A   1      39.550  31.529  34.631  1.00  0.00     0.034 A 
ATOM     51  C   UNL A   1      41.091  27.784  28.887  1.00  0.00     0.034 A 
ATOM     52  C   UNL A   1      40.662  30.619  34.770  1.00  0.00     0.049 A 
ATOM     53  C   UNL A   1      41.919  27.693  30.145  1.00  0.00     0.074 A 
ATOM     54  C   UNL A   1      41.434  30.365  35.890  1.00  0.00     0.029 A 
ATOM     55  N   UNL A   1      41.171  29.823  33.751  1.00  0.00    -0.354 N 
ATOM     56  N   UNL A   1      41.748  28.307  31.294  1.00  0.00    -0.248 NA
ATOM     57  C   UNL A   1      43.080  26.794  30.111  1.00  0.00     0.031 C 
ATOM     58  C   UNL A   1      42.453  29.475  35.529  1.00  0.00     0.029 A 
ATOM     59  C   UNL A   1      42.270  29.109  34.205  1.00  0.00     0.049 A 
ATOM     60  H   UNL A   1      40.805  29.773  32.838  1.00  0.00     0.167 HD
ATOM     61  C   UNL A   1      42.765  27.845  32.127  1.00  0.00     0.074 A 
ATOM     62  C   UNL A   1      43.533  26.892  31.353  1.00  0.00     0.031 C 
ATOM     63  C   UNL A   1      43.038  28.174  33.416  1.00  0.00     0.034 A 
BRANCH  50  64
ATOM     64  C   UNL A   1      39.169  32.400  35.804  1.00  0.00     0.023 A 
ATOM     65  C   UNL A   1      39.611  33.729  35.916  1.00  0.00     0.031 A 
ATOM     66  C   UNL A   1      38.373  31.881  36.842  1.00  0.00     0.131 A 
ATOM     67  C   UNL A   1      39.314  34.471  37.069  1.00  0.00     0.055 A 
ATOM     68  C   UNL A   1      38.016  32.651  37.950  1.00  0.00     0.041 A 
ATOM     69  F   UNL A   1      37.941  30.611  36.801  1.00  0.00    -0.206 F 
ATOM     70  C   UNL A   1      38.499  33.949  38.076  1.00  0.00     0.022 A 
BRANCH  67  71
ATOM     71  S   UNL A   1      40.123  36.079  37.300  1.00  0.00     0.124 S 
ATOM     72  O   UNL A   1      39.292  36.681  38.340  1.00  0.00    -0.237 OA
ATOM     73  O   UNL A   1      41.472  35.699  37.698  1.00  0.00    -0.237 OA
ATOM     74  O   UNL A   1      40.014  36.708  35.985  1.00  0.00    -0.744 OA
ENDBRANCH  67  71
ENDBRANCH  50  64
BRANCH  51  75
ATOM     75  C   UNL A   1      41.480  27.021  27.666  1.00  0.00     0.023 A 
ATOM     76  C   UNL A   1      41.305  25.631  27.588  1.00  0.00     0.031 A 
ATOM     77  C   UNL A   1      42.089  27.671  26.576  1.00  0.00     0.131 A 
ATOM     78  C   UNL A   1      41.773  24.929  26.466  1.00  0.00     0.055 A 
ATOM     79  C   UNL A   1      42.504  26.976  25.439  1.00  0.00     0.041 A 
ATOM     80  F   UNL A   1      42.283  29.000  26.599  1.00  0.00    -0.206 F 
ATOM     81  C   UNL A   1      42.359  25.593  25.386  1.00  0.00     0.022 A 
BRANCH  78  82
ATOM     82  S   UNL A   1      41.681  23.117  26.473  1.00  0.00     0.124 S 
ATOM     83  O   UNL A   1      42.452  22.786  27.666  1.00  0.00    -0.237 OA
ATOM     84  O   UNL A   1      40.242  22.889  26.554  1.00  0.00    -0.237 OA
ATOM     85  O   UNL A   1      42.299  22.740  25.204  1.00  0.00    -0.744 OA
ENDBRANCH  78  82
ENDBRANCH  51  75
BRANCH  63  86
ATOM     86  C   UNL A   1      44.194  27.463  34.076  1.00  0.00     0.023 A 
ATOM     87  C   UNL A   1      44.044  26.199  34.675  1.00  0.00     0.031 A 
ATOM     88  C   UNL A   1      45.465  28.065  34.115  1.00  0.00     0.131 A 
ATOM     89  C   UNL A   1      45.130  25.604  35.334  1.00  0.00     0.055 A 
ATOM     90  C   UNL A   1      46.557  27.440  34.720  1.00  0.00     0.041 A 
ATOM     91  F   UNL A   1      45.667  29.272  33.561  1.00  0.00    -0.206 F 
ATOM     92  C   UNL A   1      46.390  26.209  35.346  1.00  0.00     0.022 A 
BRANCH  89  93
ATOM     93  S   UNL A   1      44.853  24.066  36.257  1.00  0.00     0.124 S 
ATOM     94  O   UNL A   1      43.747  23.465  35.520  1.00  0.00    -0.237 OA
ATOM     95  O   UNL A   1      46.142  23.393  36.136  1.00  0.00    -0.237 OA
ATOM     96  O   UNL A   1      44.522  24.530  37.604  1.00  0.00    -0.744 OA
ENDBRANCH  89  93
ENDBRANCH  63  86
ENDBRANCH  37  38
ENDBRANCH  30  32
ENDBRANCH  29  30
ENDBRANCH  28  29
ENDBRANCH  27  28
ENDBRANCH  26  27
ENDBRANCH   1  26
TORSDOF 22
ENDMDL
