MODEL 1
REMARK VINA RESULT:     -12.0      0.000      0.000
REMARK SMILES O=C(OCCOCCOC(=O)[C@@]12C[NH2+]C[C@H]1CN(C(=O)c1ccccc1-n1cncn1)C2)c1ccc(-c2c3nc(c(-c4cc(S(=O)(=O)[O-])ccc4F)c4ccc([nH]4)c(-c4cc(S(=O)(=O)[O-])ccc4F)c4nc(c(-c5cc(S(=O)(=O)[O-])ccc5F)c5ccc2[nH]5)C=C4)C=C3)cc1
REMARK SMILES IDX 6 1 5 2 4 3 3 4 2 5 1 6 33 7 34 8 95 9 35 10 94 11 36 12
REMARK SMILES IDX 37 13 38 14 88 15 39 16 93 17 87 18 89 19 40 20 92 21 86 22
REMARK SMILES IDX 85 23 41 25 73 26 53 27 72 28 54 29 57 30 71 31 90 32 55 33
REMARK SMILES IDX 56 34 70 36 91 37 58 38 42 39 43 40 51 41 44 42 50 43 52 44
REMARK SMILES IDX 49 45 45 46 46 47 47 48 48 49 74 50 75 51 83 52 76 53 82 54
REMARK SMILES IDX 84 55 81 56 77 57 78 58 79 59 80 60 59 61 60 62 68 63 61 64
REMARK SMILES IDX 67 65 69 66 66 67 62 68 63 69 64 70 65 71 7 72 8 73 9 74
REMARK SMILES IDX 10 75 11 76 12 77 13 78 16 79 32 80 14 81 15 82 17 83 18 84
REMARK SMILES IDX 19 87 20 88 21 89 22 90 26 91 23 92 25 93 24 94 27 95 28 96
REMARK SMILES IDX 31 97 29 98 30 99
REMARK H PARENT 89 24 57 35 14 85 14 86
REMARK Flexibility Score: inf
ROOT
ATOM      1  O   UNL A   1      32.516  30.782  26.722  1.00  0.00    -0.374 OA
ENDROOT
BRANCH   1   2
ATOM      2  C   UNL A   1      33.632  31.018  27.564  1.00  0.00     0.202 C 
BRANCH   2   3
ATOM      3  C   UNL A   1      33.907  32.435  28.055  1.00  0.00     0.261 C 
BRANCH   3   4
ATOM      4  O   UNL A   1      35.227  32.659  28.575  1.00  0.00    -0.460 OA
BRANCH   4   5
ATOM      5  C   UNL A   1      35.620  32.065  29.727  1.00  0.00     0.338 C 
ATOM      6  O   UNL A   1      34.892  32.019  30.713  1.00  0.00    -0.246 OA
BRANCH   5   7
ATOM      7  C   UNL A   1      36.844  31.232  29.610  1.00  0.00     0.060 A 
ATOM      8  C   UNL A   1      36.807  29.849  29.433  1.00  0.00     0.016 A 
ATOM      9  C   UNL A   1      38.083  31.872  29.744  1.00  0.00     0.016 A 
ATOM     10  C   UNL A   1      37.959  29.097  29.528  1.00  0.00     0.010 A 
ATOM     11  C   UNL A   1      39.255  31.121  29.799  1.00  0.00     0.010 A 
ATOM     12  C   UNL A   1      39.179  29.728  29.749  1.00  0.00    -0.014 A 
BRANCH  12  13
ATOM     13  C   UNL A   1      40.319  28.838  29.916  1.00  0.00     0.031 A 
ATOM     14  C   UNL A   1      40.802  28.625  31.309  1.00  0.00     0.074 A 
ATOM     15  C   UNL A   1      40.926  28.226  28.883  1.00  0.00     0.049 A 
ATOM     16  N   UNL A   1      41.970  28.881  31.805  1.00  0.00    -0.248 NA
ATOM     17  C   UNL A   1      39.827  28.143  32.296  1.00  0.00     0.031 C 
ATOM     18  C   UNL A   1      40.463  28.122  27.500  1.00  0.00     0.029 A 
ATOM     19  N   UNL A   1      42.054  27.465  28.902  1.00  0.00    -0.354 N 
ATOM     20  C   UNL A   1      41.944  28.431  33.124  1.00  0.00     0.074 A 
ATOM     21  C   UNL A   1      40.571  28.091  33.401  1.00  0.00     0.031 C 
ATOM     22  C   UNL A   1      41.161  27.147  26.879  1.00  0.00     0.029 A 
ATOM     23  C   UNL A   1      42.203  26.675  27.776  1.00  0.00     0.049 A 
ATOM     24  H   UNL A   1      42.702  27.477  29.643  1.00  0.00     0.167 HD
ATOM     25  C   UNL A   1      43.080  28.229  33.848  1.00  0.00     0.034 A 
ATOM     26  C   UNL A   1      43.054  25.633  27.626  1.00  0.00     0.034 A 
ATOM     27  C   UNL A   1      44.198  28.953  33.298  1.00  0.00     0.049 A 
ATOM     28  C   UNL A   1      44.174  25.826  28.578  1.00  0.00     0.074 A 
ATOM     29  C   UNL A   1      44.474  30.289  33.077  1.00  0.00     0.029 A 
ATOM     30  N   UNL A   1      45.155  28.261  32.594  1.00  0.00    -0.354 N 
ATOM     31  N   UNL A   1      45.031  26.808  28.500  1.00  0.00    -0.248 NA
ATOM     32  C   UNL A   1      44.117  25.161  29.871  1.00  0.00     0.031 C 
ATOM     33  C   UNL A   1      45.250  30.315  31.883  1.00  0.00     0.029 A 
ATOM     34  C   UNL A   1      45.424  28.994  31.466  1.00  0.00     0.049 A 
ATOM     35  H   UNL A   1      45.568  27.405  32.851  1.00  0.00     0.167 HD
ATOM     36  C   UNL A   1      45.312  27.149  29.812  1.00  0.00     0.074 A 
ATOM     37  C   UNL A   1      44.817  26.030  30.607  1.00  0.00     0.031 C 
ATOM     38  C   UNL A   1      45.672  28.421  30.158  1.00  0.00     0.034 A 
BRANCH  25  39
ATOM     39  C   UNL A   1      43.258  27.167  34.909  1.00  0.00     0.023 A 
ATOM     40  C   UNL A   1      43.973  26.000  34.563  1.00  0.00     0.031 A 
ATOM     41  C   UNL A   1      42.542  27.109  36.125  1.00  0.00     0.131 A 
ATOM     42  C   UNL A   1      43.891  24.839  35.353  1.00  0.00     0.055 A 
ATOM     43  C   UNL A   1      42.525  25.975  36.945  1.00  0.00     0.041 A 
ATOM     44  F   UNL A   1      41.747  28.102  36.540  1.00  0.00    -0.206 F 
ATOM     45  C   UNL A   1      43.177  24.820  36.546  1.00  0.00     0.022 A 
BRANCH  42  46
ATOM     46  S   UNL A   1      44.574  23.294  34.693  1.00  0.00     0.124 S 
ATOM     47  O   UNL A   1      45.854  23.739  34.153  1.00  0.00    -0.237 OA
ATOM     48  O   UNL A   1      44.634  22.458  35.888  1.00  0.00    -0.237 OA
ATOM     49  O   UNL A   1      43.587  22.887  33.696  1.00  0.00    -0.744 OA
ENDBRANCH  42  46
ENDBRANCH  25  39
BRANCH  26  50
ATOM     50  C   UNL A   1      42.715  24.354  26.956  1.00  0.00     0.023 A 
ATOM     51  C   UNL A   1      43.604  23.701  26.087  1.00  0.00     0.031 A 
ATOM     52  C   UNL A   1      41.548  23.645  27.329  1.00  0.00     0.131 A 
ATOM     53  C   UNL A   1      43.300  22.406  25.611  1.00  0.00     0.055 A 
ATOM     54  C   UNL A   1      41.242  22.377  26.839  1.00  0.00     0.041 A 
ATOM     55  F   UNL A   1      40.699  24.133  28.248  1.00  0.00    -0.206 F 
ATOM     56  C   UNL A   1      42.123  21.748  25.977  1.00  0.00     0.022 A 
BRANCH  53  57
ATOM     57  S   UNL A   1      44.501  21.518  24.575  1.00  0.00     0.124 S 
ATOM     58  O   UNL A   1      44.442  22.265  23.324  1.00  0.00    -0.237 OA
ATOM     59  O   UNL A   1      45.732  21.644  25.348  1.00  0.00    -0.237 OA
ATOM     60  O   UNL A   1      43.956  20.162  24.510  1.00  0.00    -0.744 OA
ENDBRANCH  53  57
ENDBRANCH  26  50
BRANCH  38  61
ATOM     61  C   UNL A   1      46.092  29.385  29.072  1.00  0.00     0.023 A 
ATOM     62  C   UNL A   1      45.191  30.159  28.309  1.00  0.00     0.031 A 
ATOM     63  C   UNL A   1      47.466  29.644  28.926  1.00  0.00     0.131 A 
ATOM     64  C   UNL A   1      45.682  31.150  27.438  1.00  0.00     0.055 A 
ATOM     65  C   UNL A   1      47.947  30.636  28.073  1.00  0.00     0.041 A 
ATOM     66  F   UNL A   1      48.368  28.966  29.658  1.00  0.00    -0.206 F 
ATOM     67  C   UNL A   1      47.055  31.392  27.322  1.00  0.00     0.022 A 
BRANCH  64  68
ATOM     68  S   UNL A   1      44.530  32.161  26.454  1.00  0.00     0.124 S 
ATOM     69  O   UNL A   1      44.114  33.203  27.385  1.00  0.00    -0.237 OA
ATOM     70  O   UNL A   1      45.365  32.593  25.336  1.00  0.00    -0.237 OA
ATOM     71  O   UNL A   1      43.474  31.215  26.087  1.00  0.00    -0.744 OA
ENDBRANCH  64  68
ENDBRANCH  38  61
ENDBRANCH  12  13
ENDBRANCH   5   7
ENDBRANCH   4   5
ENDBRANCH   3   4
ENDBRANCH   2   3
ENDBRANCH   1   2
BRANCH   1  72
ATOM     72  C   UNL A   1      31.842  29.516  26.911  1.00  0.00     0.202 C 
BRANCH  72  73
ATOM     73  C   UNL A   1      32.706  28.227  26.934  1.00  0.00     0.261 C 
BRANCH  73  74
ATOM     74  O   UNL A   1      32.632  27.605  25.629  1.00  0.00    -0.463 OA
BRANCH  74  75
ATOM     75  C   UNL A   1      31.508  26.925  25.253  1.00  0.00     0.320 C 
ATOM     76  O   UNL A   1      30.655  26.525  26.031  1.00  0.00    -0.251 OA
BRANCH  75  77
ATOM     77  C   UNL A   1      31.373  27.009  23.723  1.00  0.00     0.144 C 
ATOM     78  C   UNL A   1      30.436  28.159  23.359  1.00  0.00     0.281 C 
ATOM     79  C   UNL A   1      32.494  27.398  22.771  1.00  0.00     0.088 C 
ATOM     80  C   UNL A   1      31.236  25.544  23.314  1.00  0.00     0.145 C 
ATOM     81  N   UNL A   1      31.349  29.342  23.257  1.00  0.00    -0.345 N 
ATOM     82  C   UNL A   1      32.731  28.846  23.048  1.00  0.00     0.267 C 
ATOM     83  C   UNL A   1      33.494  26.286  22.833  1.00  0.00     0.130 C 
ATOM     84  N   UNL A   1      32.619  25.120  22.991  1.00  0.00    -0.337 N 
ATOM     85  H   UNL A   1      31.305  29.889  24.117  1.00  0.00     0.346 HD
ATOM     86  H   UNL A   1      31.067  29.938  22.477  1.00  0.00     0.346 HD
BRANCH  84  87
ATOM     87  C   UNL A   1      33.176  23.854  23.002  1.00  0.00     0.256 C 
ATOM     88  O   UNL A   1      32.926  23.009  22.146  1.00  0.00    -0.269 OA
BRANCH  87  89
ATOM     89  C   UNL A   1      34.180  23.501  24.032  1.00  0.00     0.065 A 
ATOM     90  C   UNL A   1      35.508  23.468  23.567  1.00  0.00     0.016 A 
ATOM     91  C   UNL A   1      33.921  23.268  25.389  1.00  0.00     0.079 A 
ATOM     92  C   UNL A   1      36.567  23.232  24.442  1.00  0.00     0.001 A 
ATOM     93  C   UNL A   1      35.001  23.081  26.274  1.00  0.00     0.029 A 
ATOM     94  C   UNL A   1      36.314  23.049  25.798  1.00  0.00     0.002 A 
BRANCH  91  95
ATOM     95  N   UNL A   1      32.613  23.197  25.918  1.00  0.00    -0.220 N 
ATOM     96  C   UNL A   1      32.095  23.743  27.066  1.00  0.00     0.225 A 
ATOM     97  N   UNL A   1      31.650  22.470  25.298  1.00  0.00    -0.155 NA
ATOM     98  N   UNL A   1      30.858  23.338  27.247  1.00  0.00    -0.223 NA
ATOM     99  C   UNL A   1      30.624  22.576  26.142  1.00  0.00     0.246 A 
ENDBRANCH  91  95
ENDBRANCH  87  89
ENDBRANCH  84  87
ENDBRANCH  75  77
ENDBRANCH  74  75
ENDBRANCH  73  74
ENDBRANCH  72  73
ENDBRANCH   1  72
TORSDOF 20
ENDMDL
MODEL 2
REMARK VINA RESULT:     -11.9      3.121      9.290
REMARK SMILES O=C(OCCOCCOC(=O)[C@@]12C[NH2+]C[C@H]1CN(C(=O)c1ccccc1-n1cncn1)C2)c1ccc(-c2c3nc(c(-c4cc(S(=O)(=O)[O-])ccc4F)c4ccc([nH]4)c(-c4cc(S(=O)(=O)[O-])ccc4F)c4nc(c(-c5cc(S(=O)(=O)[O-])ccc5F)c5ccc2[nH]5)C=C4)C=C3)cc1
REMARK SMILES IDX 6 1 5 2 4 3 3 4 2 5 1 6 33 7 34 8 95 9 35 10 94 11 36 12
REMARK SMILES IDX 37 13 38 14 88 15 39 16 93 17 87 18 89 19 40 20 92 21 86 22
REMARK SMILES IDX 85 23 41 25 73 26 53 27 72 28 54 29 57 30 71 31 90 32 55 33
REMARK SMILES IDX 56 34 70 36 91 37 58 38 42 39 43 40 51 41 44 42 50 43 52 44
REMARK SMILES IDX 49 45 45 46 46 47 47 48 48 49 74 50 75 51 83 52 76 53 82 54
REMARK SMILES IDX 84 55 81 56 77 57 78 58 79 59 80 60 59 61 60 62 68 63 61 64
REMARK SMILES IDX 67 65 69 66 66 67 62 68 63 69 64 70 65 71 7 72 8 73 9 74
REMARK SMILES IDX 10 75 11 76 12 77 13 78 16 79 32 80 14 81 15 82 17 83 18 84
REMARK SMILES IDX 19 87 20 88 21 89 22 90 26 91 23 92 25 93 24 94 27 95 28 96
REMARK SMILES IDX 31 97 29 98 30 99
REMARK H PARENT 89 24 57 35 14 85 14 86
REMARK Flexibility Score: inf
ROOT
ATOM      1  O   UNL A   1      37.124  22.666  25.310  1.00  0.00    -0.374 OA
ENDROOT
BRANCH   1   2
ATOM      2  C   UNL A   1      37.865  21.463  25.430  1.00  0.00     0.202 C 
BRANCH   2   3
ATOM      3  C   UNL A   1      39.301  21.522  25.938  1.00  0.00     0.261 C 
BRANCH   3   4
ATOM      4  O   UNL A   1      39.513  22.366  27.081  1.00  0.00    -0.460 OA
BRANCH   4   5
ATOM      5  C   UNL A   1      40.759  22.790  27.398  1.00  0.00     0.338 C 
ATOM      6  O   UNL A   1      41.742  22.069  27.262  1.00  0.00    -0.246 OA
BRANCH   5   7
ATOM      7  C   UNL A   1      40.879  24.252  27.630  1.00  0.00     0.060 A 
ATOM      8  C   UNL A   1      41.860  24.814  28.445  1.00  0.00     0.016 A 
ATOM      9  C   UNL A   1      39.918  25.086  27.041  1.00  0.00     0.016 A 
ATOM     10  C   UNL A   1      41.811  26.149  28.787  1.00  0.00     0.010 A 
ATOM     11  C   UNL A   1      39.890  26.444  27.349  1.00  0.00     0.010 A 
ATOM     12  C   UNL A   1      40.804  26.957  28.270  1.00  0.00    -0.014 A 
BRANCH  12  13
ATOM     13  C   UNL A   1      40.795  28.329  28.757  1.00  0.00     0.031 A 
ATOM     14  C   UNL A   1      41.921  29.201  28.320  1.00  0.00     0.074 A 
ATOM     15  C   UNL A   1      39.832  28.812  29.562  1.00  0.00     0.049 A 
ATOM     16  N   UNL A   1      42.797  29.813  29.050  1.00  0.00    -0.248 NA
ATOM     17  C   UNL A   1      42.148  29.338  26.875  1.00  0.00     0.031 C 
ATOM     18  C   UNL A   1      38.548  28.197  29.900  1.00  0.00     0.029 A 
ATOM     19  N   UNL A   1      39.772  30.032  30.164  1.00  0.00    -0.354 N 
ATOM     20  C   UNL A   1      43.584  30.559  28.176  1.00  0.00     0.074 A 
ATOM     21  C   UNL A   1      43.211  30.142  26.848  1.00  0.00     0.031 C 
ATOM     22  C   UNL A   1      37.741  29.140  30.433  1.00  0.00     0.029 A 
ATOM     23  C   UNL A   1      38.502  30.367  30.602  1.00  0.00     0.049 A 
ATOM     24  H   UNL A   1      40.555  30.618  30.277  1.00  0.00     0.167 HD
ATOM     25  C   UNL A   1      44.384  31.576  28.603  1.00  0.00     0.034 A 
ATOM     26  C   UNL A   1      38.076  31.595  30.980  1.00  0.00     0.034 A 
ATOM     27  C   UNL A   1      44.674  31.471  30.010  1.00  0.00     0.049 A 
ATOM     28  C   UNL A   1      39.262  32.371  31.410  1.00  0.00     0.074 A 
ATOM     29  C   UNL A   1      45.303  30.530  30.803  1.00  0.00     0.029 A 
ATOM     30  N   UNL A   1      44.032  32.315  30.885  1.00  0.00    -0.354 N 
ATOM     31  N   UNL A   1      39.986  32.071  32.455  1.00  0.00    -0.248 NA
ATOM     32  C   UNL A   1      39.906  33.257  30.452  1.00  0.00     0.031 C 
ATOM     33  C   UNL A   1      44.608  30.567  32.046  1.00  0.00     0.029 A 
ATOM     34  C   UNL A   1      43.619  31.547  31.944  1.00  0.00     0.049 A 
ATOM     35  H   UNL A   1      43.895  33.283  30.773  1.00  0.00     0.167 HD
ATOM     36  C   UNL A   1      41.288  32.379  32.096  1.00  0.00     0.074 A 
ATOM     37  C   UNL A   1      41.162  33.213  30.905  1.00  0.00     0.031 C 
ATOM     38  C   UNL A   1      42.353  31.713  32.631  1.00  0.00     0.034 A 
BRANCH  25  39
ATOM     39  C   UNL A   1      44.700  32.825  27.812  1.00  0.00     0.023 A 
ATOM     40  C   UNL A   1      44.033  34.018  28.164  1.00  0.00     0.031 A 
ATOM     41  C   UNL A   1      45.389  32.851  26.579  1.00  0.00     0.131 A 
ATOM     42  C   UNL A   1      43.999  35.118  27.288  1.00  0.00     0.055 A 
ATOM     43  C   UNL A   1      45.415  33.974  25.745  1.00  0.00     0.041 A 
ATOM     44  F   UNL A   1      45.991  31.770  26.069  1.00  0.00    -0.206 F 
ATOM     45  C   UNL A   1      44.692  35.106  26.082  1.00  0.00     0.022 A 
BRANCH  42  46
ATOM     46  S   UNL A   1      42.874  36.489  27.662  1.00  0.00     0.124 S 
ATOM     47  O   UNL A   1      41.712  35.786  28.194  1.00  0.00    -0.237 OA
ATOM     48  O   UNL A   1      43.654  37.265  28.621  1.00  0.00    -0.237 OA
ATOM     49  O   UNL A   1      42.673  37.125  26.362  1.00  0.00    -0.744 OA
ENDBRANCH  42  46
ENDBRANCH  25  39
BRANCH  26  50
ATOM     50  C   UNL A   1      36.757  32.176  30.630  1.00  0.00     0.023 A 
ATOM     51  C   UNL A   1      35.971  32.873  31.562  1.00  0.00     0.031 A 
ATOM     52  C   UNL A   1      36.335  32.215  29.280  1.00  0.00     0.131 A 
ATOM     53  C   UNL A   1      34.807  33.550  31.135  1.00  0.00     0.055 A 
ATOM     54  C   UNL A   1      35.173  32.865  28.867  1.00  0.00     0.041 A 
ATOM     55  F   UNL A   1      37.083  31.683  28.299  1.00  0.00    -0.206 F 
ATOM     56  C   UNL A   1      34.403  33.542  29.797  1.00  0.00     0.022 A 
BRANCH  53  57
ATOM     57  S   UNL A   1      33.851  34.542  32.321  1.00  0.00     0.124 S 
ATOM     58  O   UNL A   1      32.756  35.039  31.495  1.00  0.00    -0.237 OA
ATOM     59  O   UNL A   1      33.501  33.558  33.339  1.00  0.00    -0.237 OA
ATOM     60  O   UNL A   1      34.805  35.562  32.758  1.00  0.00    -0.744 OA
ENDBRANCH  53  57
ENDBRANCH  26  50
BRANCH  38  61
ATOM     61  C   UNL A   1      42.143  30.865  33.865  1.00  0.00     0.023 A 
ATOM     62  C   UNL A   1      41.898  29.475  33.837  1.00  0.00     0.031 A 
ATOM     63  C   UNL A   1      42.366  31.468  35.115  1.00  0.00     0.131 A 
ATOM     64  C   UNL A   1      41.882  28.742  35.039  1.00  0.00     0.055 A 
ATOM     65  C   UNL A   1      42.362  30.736  36.302  1.00  0.00     0.041 A 
ATOM     66  F   UNL A   1      42.644  32.780  35.199  1.00  0.00    -0.206 F 
ATOM     67  C   UNL A   1      42.117  29.368  36.268  1.00  0.00     0.022 A 
BRANCH  64  68
ATOM     68  S   UNL A   1      41.576  26.947  35.018  1.00  0.00     0.124 S 
ATOM     69  O   UNL A   1      42.830  26.395  34.519  1.00  0.00    -0.237 OA
ATOM     70  O   UNL A   1      41.259  26.664  36.415  1.00  0.00    -0.237 OA
ATOM     71  O   UNL A   1      40.442  26.806  34.102  1.00  0.00    -0.744 OA
ENDBRANCH  64  68
ENDBRANCH  38  61
ENDBRANCH  12  13
ENDBRANCH   5   7
ENDBRANCH   4   5
ENDBRANCH   3   4
ENDBRANCH   2   3
ENDBRANCH   1   2
BRANCH   1  72
ATOM     72  C   UNL A   1      36.950  23.167  23.965  1.00  0.00     0.202 C 
BRANCH  72  73
ATOM     73  C   UNL A   1      35.539  23.065  23.326  1.00  0.00     0.261 C 
BRANCH  73  74
ATOM     74  O   UNL A   1      34.573  23.594  24.266  1.00  0.00    -0.463 OA
BRANCH  74  75
ATOM     75  C   UNL A   1      33.725  22.752  24.928  1.00  0.00     0.320 C 
ATOM     76  O   UNL A   1      34.089  21.805  25.608  1.00  0.00    -0.251 OA
BRANCH  75  77
ATOM     77  C   UNL A   1      32.312  23.361  24.903  1.00  0.00     0.144 C 
ATOM     78  C   UNL A   1      31.278  22.241  24.808  1.00  0.00     0.281 C 
ATOM     79  C   UNL A   1      31.661  24.094  26.065  1.00  0.00     0.088 C 
ATOM     80  C   UNL A   1      32.473  24.549  23.957  1.00  0.00     0.145 C 
ATOM     81  N   UNL A   1      31.005  21.887  26.238  1.00  0.00    -0.345 N 
ATOM     82  C   UNL A   1      31.420  23.031  27.087  1.00  0.00     0.267 C 
ATOM     83  C   UNL A   1      32.434  25.363  26.241  1.00  0.00     0.130 C 
ATOM     84  N   UNL A   1      32.759  25.696  24.851  1.00  0.00    -0.337 N 
ATOM     85  H   UNL A   1      31.538  21.056  26.496  1.00  0.00     0.346 HD
ATOM     86  H   UNL A   1      30.012  21.693  26.369  1.00  0.00     0.346 HD
BRANCH  84  87
ATOM     87  C   UNL A   1      33.417  26.882  24.577  1.00  0.00     0.256 C 
ATOM     88  O   UNL A   1      34.265  26.984  23.692  1.00  0.00    -0.269 OA
BRANCH  87  89
ATOM     89  C   UNL A   1      33.047  28.115  25.309  1.00  0.00     0.065 A 
ATOM     90  C   UNL A   1      33.923  28.459  26.355  1.00  0.00     0.016 A 
ATOM     91  C   UNL A   1      31.970  28.958  25.009  1.00  0.00     0.079 A 
ATOM     92  C   UNL A   1      33.748  29.638  27.077  1.00  0.00     0.001 A 
ATOM     93  C   UNL A   1      31.830  30.172  25.710  1.00  0.00     0.029 A 
ATOM     94  C   UNL A   1      32.706  30.500  26.747  1.00  0.00     0.002 A 
BRANCH  91  95
ATOM     95  N   UNL A   1      30.997  28.642  24.035  1.00  0.00    -0.220 N 
ATOM     96  C   UNL A   1      30.756  29.212  22.810  1.00  0.00     0.225 A 
ATOM     97  N   UNL A   1      30.081  27.666  24.258  1.00  0.00    -0.155 NA
ATOM     98  N   UNL A   1      29.679  28.691  22.266  1.00  0.00    -0.223 NA
ATOM     99  C   UNL A   1      29.308  27.747  23.175  1.00  0.00     0.246 A 
ENDBRANCH  91  95
ENDBRANCH  87  89
ENDBRANCH  84  87
ENDBRANCH  75  77
ENDBRANCH  74  75
ENDBRANCH  73  74
ENDBRANCH  72  73
ENDBRANCH   1  72
TORSDOF 20
ENDMDL
MODEL 3
REMARK VINA RESULT:     -11.9      2.769      8.022
REMARK SMILES O=C(OCCOCCOC(=O)[C@@]12C[NH2+]C[C@H]1CN(C(=O)c1ccccc1-n1cncn1)C2)c1ccc(-c2c3nc(c(-c4cc(S(=O)(=O)[O-])ccc4F)c4ccc([nH]4)c(-c4cc(S(=O)(=O)[O-])ccc4F)c4nc(c(-c5cc(S(=O)(=O)[O-])ccc5F)c5ccc2[nH]5)C=C4)C=C3)cc1
REMARK SMILES IDX 6 1 5 2 4 3 3 4 2 5 1 6 33 7 34 8 95 9 35 10 94 11 36 12
REMARK SMILES IDX 37 13 38 14 88 15 39 16 93 17 87 18 89 19 40 20 92 21 86 22
REMARK SMILES IDX 85 23 41 25 73 26 53 27 72 28 54 29 57 30 71 31 90 32 55 33
REMARK SMILES IDX 56 34 70 36 91 37 58 38 42 39 43 40 51 41 44 42 50 43 52 44
REMARK SMILES IDX 49 45 45 46 46 47 47 48 48 49 74 50 75 51 83 52 76 53 82 54
REMARK SMILES IDX 84 55 81 56 77 57 78 58 79 59 80 60 59 61 60 62 68 63 61 64
REMARK SMILES IDX 67 65 69 66 66 67 62 68 63 69 64 70 65 71 7 72 8 73 9 74
REMARK SMILES IDX 10 75 11 76 12 77 13 78 16 79 32 80 14 81 15 82 17 83 18 84
REMARK SMILES IDX 19 87 20 88 21 89 22 90 26 91 23 92 25 93 24 94 27 95 28 96
REMARK SMILES IDX 31 97 29 98 30 99
REMARK H PARENT 89 24 57 35 14 85 14 86
REMARK Flexibility Score: inf
ROOT
ATOM      1  O   UNL A   1      38.215  20.968  25.190  1.00  0.00    -0.374 OA
ENDROOT
BRANCH   1   2
ATOM      2  C   UNL A   1      38.825  19.695  25.057  1.00  0.00     0.202 C 
BRANCH   2   3
ATOM      3  C   UNL A   1      39.841  19.244  26.100  1.00  0.00     0.261 C 
BRANCH   3   4
ATOM      4  O   UNL A   1      41.083  18.748  25.573  1.00  0.00    -0.460 OA
BRANCH   4   5
ATOM      5  C   UNL A   1      42.211  19.492  25.661  1.00  0.00     0.338 C 
ATOM      6  O   UNL A   1      43.217  19.220  25.014  1.00  0.00    -0.246 OA
BRANCH   5   7
ATOM      7  C   UNL A   1      42.043  20.798  26.348  1.00  0.00     0.060 A 
ATOM      8  C   UNL A   1      42.359  22.016  25.749  1.00  0.00     0.016 A 
ATOM      9  C   UNL A   1      41.600  20.782  27.678  1.00  0.00     0.016 A 
ATOM     10  C   UNL A   1      42.374  23.180  26.488  1.00  0.00     0.010 A 
ATOM     11  C   UNL A   1      41.573  21.962  28.417  1.00  0.00     0.010 A 
ATOM     12  C   UNL A   1      42.018  23.148  27.832  1.00  0.00    -0.014 A 
BRANCH  12  13
ATOM     13  C   UNL A   1      42.147  24.414  28.541  1.00  0.00     0.031 A 
ATOM     14  C   UNL A   1      41.098  25.438  28.276  1.00  0.00     0.074 A 
ATOM     15  C   UNL A   1      43.152  24.673  29.397  1.00  0.00     0.049 A 
ATOM     16  N   UNL A   1      41.240  26.631  27.795  1.00  0.00    -0.248 NA
ATOM     17  C   UNL A   1      39.700  25.047  28.498  1.00  0.00     0.031 C 
ATOM     18  C   UNL A   1      44.122  23.733  29.959  1.00  0.00     0.029 A 
ATOM     19  N   UNL A   1      43.436  25.844  30.031  1.00  0.00    -0.354 N 
ATOM     20  C   UNL A   1      39.975  27.215  27.815  1.00  0.00     0.074 A 
ATOM     21  C   UNL A   1      39.054  26.159  28.151  1.00  0.00     0.031 C 
ATOM     22  C   UNL A   1      44.719  24.309  31.025  1.00  0.00     0.029 A 
ATOM     23  C   UNL A   1      44.278  25.691  31.118  1.00  0.00     0.049 A 
ATOM     24  H   UNL A   1      43.078  26.715  29.742  1.00  0.00     0.167 HD
ATOM     25  C   UNL A   1      39.792  28.560  27.698  1.00  0.00     0.034 A 
ATOM     26  C   UNL A   1      44.517  26.602  32.090  1.00  0.00     0.034 A 
ATOM     27  C   UNL A   1      40.934  29.204  27.101  1.00  0.00     0.049 A 
ATOM     28  C   UNL A   1      44.228  27.944  31.530  1.00  0.00     0.074 A 
ATOM     29  C   UNL A   1      41.579  29.101  25.883  1.00  0.00     0.029 A 
ATOM     30  N   UNL A   1      41.786  29.924  27.905  1.00  0.00    -0.354 N 
ATOM     31  N   UNL A   1      44.913  28.488  30.561  1.00  0.00    -0.248 NA
ATOM     32  C   UNL A   1      42.918  28.534  31.764  1.00  0.00     0.031 C 
ATOM     33  C   UNL A   1      42.956  29.323  26.172  1.00  0.00     0.029 A 
ATOM     34  C   UNL A   1      43.062  29.576  27.540  1.00  0.00     0.049 A 
ATOM     35  H   UNL A   1      41.529  30.565  28.607  1.00  0.00     0.167 HD
ATOM     36  C   UNL A   1      43.984  29.190  29.810  1.00  0.00     0.074 A 
ATOM     37  C   UNL A   1      42.802  29.280  30.661  1.00  0.00     0.031 C 
ATOM     38  C   UNL A   1      44.159  29.398  28.471  1.00  0.00     0.034 A 
BRANCH  25  39
ATOM     39  C   UNL A   1      38.685  29.348  28.363  1.00  0.00     0.023 A 
ATOM     40  C   UNL A   1      38.700  29.449  29.770  1.00  0.00     0.031 A 
ATOM     41  C   UNL A   1      37.490  29.756  27.731  1.00  0.00     0.131 A 
ATOM     42  C   UNL A   1      37.554  29.853  30.481  1.00  0.00     0.055 A 
ATOM     43  C   UNL A   1      36.379  30.228  28.438  1.00  0.00     0.041 A 
ATOM     44  F   UNL A   1      37.294  29.634  26.414  1.00  0.00    -0.206 F 
ATOM     45  C   UNL A   1      36.395  30.250  29.823  1.00  0.00     0.022 A 
BRANCH  42  46
ATOM     46  S   UNL A   1      37.541  29.662  32.284  1.00  0.00     0.124 S 
ATOM     47  O   UNL A   1      36.350  30.418  32.656  1.00  0.00    -0.237 OA
ATOM     48  O   UNL A   1      37.459  28.213  32.432  1.00  0.00    -0.237 OA
ATOM     49  O   UNL A   1      38.809  30.261  32.696  1.00  0.00    -0.744 OA
ENDBRANCH  42  46
ENDBRANCH  25  39
BRANCH  26  50
ATOM     50  C   UNL A   1      44.630  26.287  33.535  1.00  0.00     0.023 A 
ATOM     51  C   UNL A   1      43.540  26.385  34.415  1.00  0.00     0.031 A 
ATOM     52  C   UNL A   1      45.808  25.684  34.039  1.00  0.00     0.131 A 
ATOM     53  C   UNL A   1      43.660  25.912  35.740  1.00  0.00     0.055 A 
ATOM     54  C   UNL A   1      45.928  25.240  35.354  1.00  0.00     0.041 A 
ATOM     55  F   UNL A   1      46.860  25.436  33.243  1.00  0.00    -0.206 F 
ATOM     56  C   UNL A   1      44.849  25.348  36.213  1.00  0.00     0.022 A 
BRANCH  53  57
ATOM     57  S   UNL A   1      42.216  25.937  36.844  1.00  0.00     0.124 S 
ATOM     58  O   UNL A   1      41.416  27.020  36.282  1.00  0.00    -0.237 OA
ATOM     59  O   UNL A   1      41.683  24.588  36.689  1.00  0.00    -0.237 OA
ATOM     60  O   UNL A   1      42.797  26.218  38.157  1.00  0.00    -0.744 OA
ENDBRANCH  53  57
ENDBRANCH  26  50
BRANCH  38  61
ATOM     61  C   UNL A   1      45.522  29.156  27.864  1.00  0.00     0.023 A 
ATOM     62  C   UNL A   1      45.883  27.980  27.172  1.00  0.00     0.031 A 
ATOM     63  C   UNL A   1      46.427  30.232  27.846  1.00  0.00     0.131 A 
ATOM     64  C   UNL A   1      47.117  27.914  26.498  1.00  0.00     0.055 A 
ATOM     65  C   UNL A   1      47.642  30.167  27.165  1.00  0.00     0.041 A 
ATOM     66  F   UNL A   1      46.119  31.391  28.453  1.00  0.00    -0.206 F 
ATOM     67  C   UNL A   1      47.993  29.005  26.490  1.00  0.00     0.022 A 
BRANCH  64  68
ATOM     68  S   UNL A   1      47.592  26.405  25.595  1.00  0.00     0.124 S 
ATOM     69  O   UNL A   1      47.039  26.619  24.263  1.00  0.00    -0.237 OA
ATOM     70  O   UNL A   1      49.049  26.421  25.697  1.00  0.00    -0.237 OA
ATOM     71  O   UNL A   1      46.946  25.334  26.357  1.00  0.00    -0.744 OA
ENDBRANCH  64  68
ENDBRANCH  38  61
ENDBRANCH  12  13
ENDBRANCH   5   7
ENDBRANCH   4   5
ENDBRANCH   3   4
ENDBRANCH   2   3
ENDBRANCH   1   2
BRANCH   1  72
ATOM     72  C   UNL A   1      36.883  21.088  24.642  1.00  0.00     0.202 C 
BRANCH  72  73
ATOM     73  C   UNL A   1      36.515  22.402  23.901  1.00  0.00     0.261 C 
BRANCH  73  74
ATOM     74  O   UNL A   1      35.072  22.492  23.825  1.00  0.00    -0.463 OA
BRANCH  74  75
ATOM     75  C   UNL A   1      34.385  23.279  24.705  1.00  0.00     0.320 C 
ATOM     76  O   UNL A   1      34.683  24.433  24.973  1.00  0.00    -0.251 OA
BRANCH  75  77
ATOM     77  C   UNL A   1      33.060  22.580  25.056  1.00  0.00     0.144 C 
ATOM     78  C   UNL A   1      33.182  21.086  24.765  1.00  0.00     0.281 C 
ATOM     79  C   UNL A   1      32.500  22.432  26.462  1.00  0.00     0.088 C 
ATOM     80  C   UNL A   1      32.012  23.543  24.503  1.00  0.00     0.145 C 
ATOM     81  N   UNL A   1      33.720  20.517  26.042  1.00  0.00    -0.345 N 
ATOM     82  C   UNL A   1      33.433  21.479  27.135  1.00  0.00     0.267 C 
ATOM     83  C   UNL A   1      32.134  23.812  26.910  1.00  0.00     0.130 C 
ATOM     84  N   UNL A   1      31.657  24.404  25.656  1.00  0.00    -0.337 N 
ATOM     85  H   UNL A   1      34.727  20.377  25.962  1.00  0.00     0.346 HD
ATOM     86  H   UNL A   1      33.280  19.618  26.241  1.00  0.00     0.346 HD
BRANCH  84  87
ATOM     87  C   UNL A   1      31.135  25.685  25.669  1.00  0.00     0.256 C 
ATOM     88  O   UNL A   1      29.931  25.912  25.769  1.00  0.00    -0.269 OA
BRANCH  87  89
ATOM     89  C   UNL A   1      32.047  26.852  25.646  1.00  0.00     0.065 A 
ATOM     90  C   UNL A   1      32.294  27.426  26.907  1.00  0.00     0.016 A 
ATOM     91  C   UNL A   1      32.699  27.363  24.517  1.00  0.00     0.079 A 
ATOM     92  C   UNL A   1      33.198  28.479  27.048  1.00  0.00     0.001 A 
ATOM     93  C   UNL A   1      33.648  28.393  24.677  1.00  0.00     0.029 A 
ATOM     94  C   UNL A   1      33.882  28.955  25.935  1.00  0.00     0.002 A 
BRANCH  91  95
ATOM     95  N   UNL A   1      32.440  26.902  23.207  1.00  0.00    -0.220 N 
ATOM     96  C   UNL A   1      31.303  27.004  22.444  1.00  0.00     0.225 A 
ATOM     97  N   UNL A   1      33.377  26.204  22.517  1.00  0.00    -0.155 NA
ATOM     98  N   UNL A   1      31.444  26.338  21.320  1.00  0.00    -0.223 NA
ATOM     99  C   UNL A   1      32.724  25.878  21.401  1.00  0.00     0.246 A 
ENDBRANCH  91  95
ENDBRANCH  87  89
ENDBRANCH  84  87
ENDBRANCH  75  77
ENDBRANCH  74  75
ENDBRANCH  73  74
ENDBRANCH  72  73
ENDBRANCH   1  72
TORSDOF 20
ENDMDL
