MODEL 1
REMARK VINA RESULT:     -12.1      0.000      0.000
REMARK SMILES O=C(OCCOCCOC(=O)[C@@H](Cc1ccc(O)cc1)Nc1c2ccccc2nc2ccccc12)c1ccc(-c2c3nc(c(-c4cc(S(=O)(=O)[O-])ccc4F)c4ccc([nH]4)c(-c4cc(S(=O)(=O)[O-])ccc4F)c4nc(c(-c5cc(S(=O)(=O)[O-])ccc5F)c5ccc2[nH]5)C=C4)C=C3)cc1
REMARK SMILES IDX 6 1 5 2 4 3 3 4 2 5 1 6 36 7 37 8 98 9 38 10 97 11 39 12
REMARK SMILES IDX 40 13 41 14 91 15 42 16 96 17 90 18 92 19 43 20 95 21 89 22
REMARK SMILES IDX 88 23 44 25 76 26 56 27 75 28 57 29 60 30 74 31 93 32 58 33
REMARK SMILES IDX 59 34 73 36 94 37 61 38 45 39 46 40 54 41 47 42 53 43 55 44
REMARK SMILES IDX 52 45 48 46 49 47 50 48 51 49 77 50 78 51 86 52 79 53 85 54
REMARK SMILES IDX 87 55 84 56 80 57 81 58 82 59 83 60 62 61 63 62 71 63 64 64
REMARK SMILES IDX 70 65 72 66 69 67 65 68 66 69 67 70 68 71 7 72 8 73 9 74
REMARK SMILES IDX 10 75 11 76 12 77 13 78 14 79 15 80 20 81 16 82 19 83 17 84
REMARK SMILES IDX 18 85 21 87 22 89 23 90 35 91 24 92 28 93 30 94 34 95 25 96
REMARK SMILES IDX 27 97 29 98 31 99 33 100 26 101 32 102
REMARK H PARENT 92 24 60 35 18 86 21 88
REMARK Flexibility Score: inf
ROOT
ATOM      1  O   UNL A   1      32.222  28.785  25.776  1.00  0.00    -0.374 OA
ENDROOT
BRANCH   1   2
ATOM      2  C   UNL A   1      32.008  29.631  26.907  1.00  0.00     0.202 C 
BRANCH   2   3
ATOM      3  C   UNL A   1      31.493  31.068  26.695  1.00  0.00     0.261 C 
BRANCH   3   4
ATOM      4  O   UNL A   1      32.564  32.017  26.548  1.00  0.00    -0.460 OA
BRANCH   4   5
ATOM      5  C   UNL A   1      33.204  32.718  27.515  1.00  0.00     0.338 C 
ATOM      6  O   UNL A   1      32.736  33.803  27.856  1.00  0.00    -0.246 OA
BRANCH   5   7
ATOM      7  C   UNL A   1      34.497  32.276  28.123  1.00  0.00     0.060 A 
ATOM      8  C   UNL A   1      34.691  31.046  28.744  1.00  0.00     0.016 A 
ATOM      9  C   UNL A   1      35.614  33.122  27.993  1.00  0.00     0.016 A 
ATOM     10  C   UNL A   1      35.916  30.635  29.200  1.00  0.00     0.010 A 
ATOM     11  C   UNL A   1      36.871  32.725  28.466  1.00  0.00     0.010 A 
ATOM     12  C   UNL A   1      37.009  31.472  29.066  1.00  0.00    -0.014 A 
BRANCH  12  13
ATOM     13  C   UNL A   1      38.210  30.989  29.747  1.00  0.00     0.031 A 
ATOM     14  C   UNL A   1      38.375  31.370  31.182  1.00  0.00     0.074 A 
ATOM     15  C   UNL A   1      38.904  29.991  29.173  1.00  0.00     0.049 A 
ATOM     16  N   UNL A   1      39.290  31.011  32.033  1.00  0.00    -0.248 NA
ATOM     17  C   UNL A   1      37.329  32.244  31.745  1.00  0.00     0.031 C 
ATOM     18  C   UNL A   1      38.603  29.410  27.858  1.00  0.00     0.029 A 
ATOM     19  N   UNL A   1      39.941  29.238  29.640  1.00  0.00    -0.354 N 
ATOM     20  C   UNL A   1      38.950  31.633  33.227  1.00  0.00     0.074 A 
ATOM     21  C   UNL A   1      37.736  32.380  32.995  1.00  0.00     0.031 C 
ATOM     22  C   UNL A   1      39.428  28.374  27.639  1.00  0.00     0.029 A 
ATOM     23  C   UNL A   1      40.363  28.278  28.752  1.00  0.00     0.049 A 
ATOM     24  H   UNL A   1      40.348  29.370  30.527  1.00  0.00     0.167 HD
ATOM     25  C   UNL A   1      39.625  31.591  34.400  1.00  0.00     0.034 A 
ATOM     26  C   UNL A   1      41.426  27.455  28.828  1.00  0.00     0.034 A 
ATOM     27  C   UNL A   1      40.854  30.854  34.542  1.00  0.00     0.049 A 
ATOM     28  C   UNL A   1      42.266  27.557  30.076  1.00  0.00     0.074 A 
ATOM     29  C   UNL A   1      41.744  30.834  35.597  1.00  0.00     0.029 A 
ATOM     30  N   UNL A   1      41.370  30.002  33.566  1.00  0.00    -0.354 N 
ATOM     31  N   UNL A   1      42.045  28.272  31.158  1.00  0.00    -0.248 NA
ATOM     32  C   UNL A   1      43.500  26.772  30.108  1.00  0.00     0.031 C 
ATOM     33  C   UNL A   1      42.828  30.024  35.231  1.00  0.00     0.029 A 
ATOM     34  C   UNL A   1      42.580  29.475  33.979  1.00  0.00     0.049 A 
ATOM     35  H   UNL A   1      40.934  29.804  32.706  1.00  0.00     0.167 HD
ATOM     36  C   UNL A   1      43.116  28.022  32.006  1.00  0.00     0.074 A 
ATOM     37  C   UNL A   1      43.963  27.064  31.316  1.00  0.00     0.031 C 
ATOM     38  C   UNL A   1      43.389  28.535  33.235  1.00  0.00     0.034 A 
BRANCH  25  39
ATOM     39  C   UNL A   1      39.112  32.488  35.499  1.00  0.00     0.023 A 
ATOM     40  C   UNL A   1      39.527  33.827  35.627  1.00  0.00     0.031 A 
ATOM     41  C   UNL A   1      38.321  31.944  36.526  1.00  0.00     0.131 A 
ATOM     42  C   UNL A   1      39.231  34.541  36.800  1.00  0.00     0.055 A 
ATOM     43  C   UNL A   1      37.959  32.688  37.651  1.00  0.00     0.041 A 
ATOM     44  F   UNL A   1      37.932  30.661  36.481  1.00  0.00    -0.206 F 
ATOM     45  C   UNL A   1      38.431  33.987  37.803  1.00  0.00     0.022 A 
BRANCH  42  46
ATOM     46  S   UNL A   1      40.066  36.129  37.089  1.00  0.00     0.124 S 
ATOM     47  O   UNL A   1      41.444  35.700  37.317  1.00  0.00    -0.237 OA
ATOM     48  O   UNL A   1      39.818  36.847  35.844  1.00  0.00    -0.237 OA
ATOM     49  O   UNL A   1      39.386  36.666  38.265  1.00  0.00    -0.744 OA
ENDBRANCH  42  46
ENDBRANCH  25  39
BRANCH  26  50
ATOM     50  C   UNL A   1      41.805  26.585  27.675  1.00  0.00     0.023 A 
ATOM     51  C   UNL A   1      41.670  25.189  27.721  1.00  0.00     0.031 A 
ATOM     52  C   UNL A   1      42.351  27.150  26.504  1.00  0.00     0.131 A 
ATOM     53  C   UNL A   1      42.099  24.407  26.634  1.00  0.00     0.055 A 
ATOM     54  C   UNL A   1      42.724  26.374  25.406  1.00  0.00     0.041 A 
ATOM     55  F   UNL A   1      42.521  28.478  26.403  1.00  0.00    -0.206 F 
ATOM     56  C   UNL A   1      42.609  24.991  25.471  1.00  0.00     0.022 A 
BRANCH  53  57
ATOM     57  S   UNL A   1      42.058  22.599  26.784  1.00  0.00     0.124 S 
ATOM     58  O   UNL A   1      41.940  22.188  25.389  1.00  0.00    -0.237 OA
ATOM     59  O   UNL A   1      43.336  22.320  27.431  1.00  0.00    -0.237 OA
ATOM     60  O   UNL A   1      40.878  22.353  27.609  1.00  0.00    -0.744 OA
ENDBRANCH  53  57
ENDBRANCH  26  50
BRANCH  38  61
ATOM     61  C   UNL A   1      44.646  28.036  33.893  1.00  0.00     0.023 A 
ATOM     62  C   UNL A   1      44.634  26.910  34.731  1.00  0.00     0.031 A 
ATOM     63  C   UNL A   1      45.864  28.702  33.679  1.00  0.00     0.131 A 
ATOM     64  C   UNL A   1      45.812  26.514  35.375  1.00  0.00     0.055 A 
ATOM     65  C   UNL A   1      47.046  28.267  34.275  1.00  0.00     0.041 A 
ATOM     66  F   UNL A   1      45.923  29.783  32.885  1.00  0.00    -0.206 F 
ATOM     67  C   UNL A   1      47.022  27.174  35.138  1.00  0.00     0.022 A 
BRANCH  64  68
ATOM     68  S   UNL A   1      45.724  25.179  36.597  1.00  0.00     0.124 S 
ATOM     69  O   UNL A   1      44.426  25.424  37.219  1.00  0.00    -0.237 OA
ATOM     70  O   UNL A   1      45.816  23.986  35.763  1.00  0.00    -0.237 OA
ATOM     71  O   UNL A   1      46.880  25.426  37.456  1.00  0.00    -0.744 OA
ENDBRANCH  64  68
ENDBRANCH  38  61
ENDBRANCH  12  13
ENDBRANCH   5   7
ENDBRANCH   4   5
ENDBRANCH   3   4
ENDBRANCH   2   3
ENDBRANCH   1   2
BRANCH   1  72
ATOM     72  C   UNL A   1      33.021  27.611  25.952  1.00  0.00     0.202 C 
BRANCH  72  73
ATOM     73  C   UNL A   1      32.257  26.410  26.525  1.00  0.00     0.261 C 
BRANCH  73  74
ATOM     74  O   UNL A   1      32.917  25.179  26.183  1.00  0.00    -0.462 OA
BRANCH  74  75
ATOM     75  C   UNL A   1      32.161  24.062  26.317  1.00  0.00     0.328 C 
ATOM     76  O   UNL A   1      31.727  23.652  27.391  1.00  0.00    -0.250 OA
BRANCH  75  77
ATOM     77  C   UNL A   1      31.888  23.342  24.984  1.00  0.00     0.194 C 
BRANCH  77  78
ATOM     78  C   UNL A   1      30.708  23.776  24.070  1.00  0.00     0.072 C 
BRANCH  78  79
ATOM     79  C   UNL A   1      30.649  25.174  23.499  1.00  0.00    -0.045 A 
ATOM     80  C   UNL A   1      29.659  26.081  23.902  1.00  0.00     0.007 A 
ATOM     81  C   UNL A   1      31.527  25.570  22.486  1.00  0.00     0.007 A 
ATOM     82  C   UNL A   1      29.585  27.371  23.381  1.00  0.00     0.046 A 
ATOM     83  C   UNL A   1      31.437  26.850  21.930  1.00  0.00     0.046 A 
ATOM     84  C   UNL A   1      30.483  27.748  22.398  1.00  0.00     0.115 A 
BRANCH  84  85
ATOM     85  O   UNL A   1      30.452  28.999  21.860  1.00  0.00    -0.508 OA
ATOM     86  H   UNL A   1      31.070  29.646  22.140  1.00  0.00     0.293 HD
ENDBRANCH  84  85
ENDBRANCH  78  79
ENDBRANCH  77  78
BRANCH  77  87
ATOM     87  N   UNL A   1      33.117  23.230  24.184  1.00  0.00    -0.371 N 
ATOM     88  H   UNL A   1      33.312  23.869  23.460  1.00  0.00     0.161 HD
BRANCH  87  89
ATOM     89  C   UNL A   1      34.009  22.178  24.487  1.00  0.00     0.054 A 
ATOM     90  C   UNL A   1      35.329  22.445  24.963  1.00  0.00     0.024 A 
ATOM     91  C   UNL A   1      33.617  20.831  24.242  1.00  0.00     0.024 A 
ATOM     92  C   UNL A   1      35.885  23.739  25.149  1.00  0.00     0.012 A 
ATOM     93  C   UNL A   1      36.135  21.336  25.276  1.00  0.00     0.073 A 
ATOM     94  C   UNL A   1      34.512  19.819  24.634  1.00  0.00     0.073 A 
ATOM     95  C   UNL A   1      32.409  20.448  23.600  1.00  0.00     0.012 A 
ATOM     96  C   UNL A   1      37.206  23.927  25.551  1.00  0.00     0.001 A 
ATOM     97  C   UNL A   1      37.435  21.545  25.721  1.00  0.00     0.029 A 
ATOM     98  N   UNL A   1      35.717  20.070  25.164  1.00  0.00    -0.248 NA
ATOM     99  C   UNL A   1      34.153  18.490  24.452  1.00  0.00     0.029 A 
ATOM    100  C   UNL A   1      32.090  19.107  23.387  1.00  0.00     0.001 A 
ATOM    101  C   UNL A   1      37.985  22.822  25.842  1.00  0.00     0.002 A 
ATOM    102  C   UNL A   1      32.957  18.123  23.834  1.00  0.00     0.002 A 
ENDBRANCH  87  89
ENDBRANCH  77  87
ENDBRANCH  75  77
ENDBRANCH  74  75
ENDBRANCH  73  74
ENDBRANCH  72  73
ENDBRANCH   1  72
TORSDOF 22
ENDMDL
MODEL 2
REMARK VINA RESULT:     -12.1      0.698      7.723
REMARK SMILES O=C(OCCOCCOC(=O)[C@@H](Cc1ccc(O)cc1)Nc1c2ccccc2nc2ccccc12)c1ccc(-c2c3nc(c(-c4cc(S(=O)(=O)[O-])ccc4F)c4ccc([nH]4)c(-c4cc(S(=O)(=O)[O-])ccc4F)c4nc(c(-c5cc(S(=O)(=O)[O-])ccc5F)c5ccc2[nH]5)C=C4)C=C3)cc1
REMARK SMILES IDX 6 1 5 2 4 3 3 4 2 5 1 6 36 7 37 8 98 9 38 10 97 11 39 12
REMARK SMILES IDX 40 13 41 14 91 15 42 16 96 17 90 18 92 19 43 20 95 21 89 22
REMARK SMILES IDX 88 23 44 25 76 26 56 27 75 28 57 29 60 30 74 31 93 32 58 33
REMARK SMILES IDX 59 34 73 36 94 37 61 38 45 39 46 40 54 41 47 42 53 43 55 44
REMARK SMILES IDX 52 45 48 46 49 47 50 48 51 49 77 50 78 51 86 52 79 53 85 54
REMARK SMILES IDX 87 55 84 56 80 57 81 58 82 59 83 60 62 61 63 62 71 63 64 64
REMARK SMILES IDX 70 65 72 66 69 67 65 68 66 69 67 70 68 71 7 72 8 73 9 74
REMARK SMILES IDX 10 75 11 76 12 77 13 78 14 79 15 80 20 81 16 82 19 83 17 84
REMARK SMILES IDX 18 85 21 87 22 89 23 90 35 91 24 92 28 93 30 94 34 95 25 96
REMARK SMILES IDX 27 97 29 98 31 99 33 100 26 101 32 102
REMARK H PARENT 92 24 60 35 18 86 21 88
REMARK Flexibility Score: inf
ROOT
ATOM      1  O   UNL A   1      32.912  28.092  24.889  1.00  0.00    -0.374 OA
ENDROOT
BRANCH   1   2
ATOM      2  C   UNL A   1      31.890  28.602  25.747  1.00  0.00     0.202 C 
BRANCH   2   3
ATOM      3  C   UNL A   1      31.651  30.123  25.825  1.00  0.00     0.261 C 
BRANCH   3   4
ATOM      4  O   UNL A   1      32.877  30.865  25.949  1.00  0.00    -0.460 OA
BRANCH   4   5
ATOM      5  C   UNL A   1      33.321  31.583  27.009  1.00  0.00     0.338 C 
ATOM      6  O   UNL A   1      32.743  32.633  27.285  1.00  0.00    -0.246 OA
BRANCH   5   7
ATOM      7  C   UNL A   1      34.532  31.205  27.801  1.00  0.00     0.060 A 
ATOM      8  C   UNL A   1      34.787  29.922  28.276  1.00  0.00     0.016 A 
ATOM      9  C   UNL A   1      35.516  32.187  28.017  1.00  0.00     0.016 A 
ATOM     10  C   UNL A   1      35.955  29.591  28.913  1.00  0.00     0.010 A 
ATOM     11  C   UNL A   1      36.710  31.870  28.678  1.00  0.00     0.010 A 
ATOM     12  C   UNL A   1      36.919  30.561  29.118  1.00  0.00    -0.014 A 
BRANCH  12  13
ATOM     13  C   UNL A   1      38.032  30.121  29.958  1.00  0.00     0.031 A 
ATOM     14  C   UNL A   1      39.107  29.323  29.296  1.00  0.00     0.074 A 
ATOM     15  C   UNL A   1      38.197  30.716  31.152  1.00  0.00     0.049 A 
ATOM     16  N   UNL A   1      40.231  28.886  29.782  1.00  0.00    -0.248 NA
ATOM     17  C   UNL A   1      38.900  29.016  27.869  1.00  0.00     0.031 C 
ATOM     18  C   UNL A   1      37.282  31.713  31.724  1.00  0.00     0.029 A 
ATOM     19  N   UNL A   1      39.213  30.640  32.058  1.00  0.00    -0.354 N 
ATOM     20  C   UNL A   1      40.859  28.228  28.731  1.00  0.00     0.074 A 
ATOM     21  C   UNL A   1      39.997  28.337  27.578  1.00  0.00     0.031 C 
ATOM     22  C   UNL A   1      37.798  32.169  32.876  1.00  0.00     0.029 A 
ATOM     23  C   UNL A   1      39.025  31.438  33.161  1.00  0.00     0.049 A 
ATOM     24  H   UNL A   1      40.005  30.068  31.934  1.00  0.00     0.167 HD
ATOM     25  C   UNL A   1      42.043  27.574  28.758  1.00  0.00     0.034 A 
ATOM     26  C   UNL A   1      39.751  31.514  34.292  1.00  0.00     0.034 A 
ATOM     27  C   UNL A   1      42.828  27.474  29.962  1.00  0.00     0.049 A 
ATOM     28  C   UNL A   1      40.974  30.635  34.365  1.00  0.00     0.074 A 
ATOM     29  C   UNL A   1      43.959  26.722  30.208  1.00  0.00     0.029 A 
ATOM     30  N   UNL A   1      42.539  28.161  31.141  1.00  0.00    -0.354 N 
ATOM     31  N   UNL A   1      41.494  29.872  33.427  1.00  0.00    -0.248 NA
ATOM     32  C   UNL A   1      41.690  30.603  35.640  1.00  0.00     0.031 C 
ATOM     33  C   UNL A   1      44.311  26.902  31.553  1.00  0.00     0.029 A 
ATOM     34  C   UNL A   1      43.448  27.827  32.127  1.00  0.00     0.049 A 
ATOM     35  H   UNL A   1      41.793  28.793  31.254  1.00  0.00     0.167 HD
ATOM     36  C   UNL A   1      42.605  29.267  33.999  1.00  0.00     0.074 A 
ATOM     37  C   UNL A   1      42.692  29.782  35.356  1.00  0.00     0.031 C 
ATOM     38  C   UNL A   1      43.472  28.363  33.470  1.00  0.00     0.034 A 
BRANCH  25  39
ATOM     39  C   UNL A   1      42.416  26.814  27.509  1.00  0.00     0.023 A 
ATOM     40  C   UNL A   1      42.206  25.428  27.386  1.00  0.00     0.031 A 
ATOM     41  C   UNL A   1      43.139  27.463  26.493  1.00  0.00     0.131 A 
ATOM     42  C   UNL A   1      42.798  24.724  26.323  1.00  0.00     0.055 A 
ATOM     43  C   UNL A   1      43.653  26.770  25.395  1.00  0.00     0.041 A 
ATOM     44  F   UNL A   1      43.408  28.775  26.578  1.00  0.00    -0.206 F 
ATOM     45  C   UNL A   1      43.502  25.390  25.315  1.00  0.00     0.022 A 
BRANCH  42  46
ATOM     46  S   UNL A   1      42.808  22.908  26.378  1.00  0.00     0.124 S 
ATOM     47  O   UNL A   1      44.096  22.639  27.014  1.00  0.00    -0.237 OA
ATOM     48  O   UNL A   1      41.625  22.610  27.178  1.00  0.00    -0.237 OA
ATOM     49  O   UNL A   1      42.723  22.521  24.972  1.00  0.00    -0.744 OA
ENDBRANCH  42  46
ENDBRANCH  25  39
BRANCH  26  50
ATOM     50  C   UNL A   1      39.285  32.337  35.447  1.00  0.00     0.023 A 
ATOM     51  C   UNL A   1      39.744  33.646  35.660  1.00  0.00     0.031 A 
ATOM     52  C   UNL A   1      38.385  31.799  36.391  1.00  0.00     0.131 A 
ATOM     53  C   UNL A   1      39.324  34.359  36.797  1.00  0.00     0.055 A 
ATOM     54  C   UNL A   1      37.928  32.531  37.487  1.00  0.00     0.041 A 
ATOM     55  F   UNL A   1      37.922  30.547  36.252  1.00  0.00    -0.206 F 
ATOM     56  C   UNL A   1      38.407  33.817  37.701  1.00  0.00     0.022 A 
BRANCH  53  57
ATOM     57  S   UNL A   1      40.053  35.988  37.129  1.00  0.00     0.124 S 
ATOM     58  O   UNL A   1      39.315  36.407  38.316  1.00  0.00    -0.237 OA
ATOM     59  O   UNL A   1      41.459  35.654  37.329  1.00  0.00    -0.237 OA
ATOM     60  O   UNL A   1      39.762  36.745  35.914  1.00  0.00    -0.744 OA
ENDBRANCH  53  57
ENDBRANCH  26  50
BRANCH  38  61
ATOM     61  C   UNL A   1      44.587  27.913  34.373  1.00  0.00     0.023 A 
ATOM     62  C   UNL A   1      44.360  27.003  35.416  1.00  0.00     0.031 A 
ATOM     63  C   UNL A   1      45.888  28.410  34.184  1.00  0.00     0.131 A 
ATOM     64  C   UNL A   1      45.411  26.658  36.274  1.00  0.00     0.055 A 
ATOM     65  C   UNL A   1      46.944  28.015  35.003  1.00  0.00     0.041 A 
ATOM     66  F   UNL A   1      46.151  29.282  33.198  1.00  0.00    -0.206 F 
ATOM     67  C   UNL A   1      46.705  27.143  36.063  1.00  0.00     0.022 A 
BRANCH  64  68
ATOM     68  S   UNL A   1      45.045  25.634  37.723  1.00  0.00     0.124 S 
ATOM     69  O   UNL A   1      44.372  24.487  37.121  1.00  0.00    -0.237 OA
ATOM     70  O   UNL A   1      46.373  25.379  38.270  1.00  0.00    -0.237 OA
ATOM     71  O   UNL A   1      44.193  26.493  38.542  1.00  0.00    -0.744 OA
ENDBRANCH  64  68
ENDBRANCH  38  61
ENDBRANCH  12  13
ENDBRANCH   5   7
ENDBRANCH   4   5
ENDBRANCH   3   4
ENDBRANCH   2   3
ENDBRANCH   1   2
BRANCH   1  72
ATOM     72  C   UNL A   1      33.472  26.812  25.193  1.00  0.00     0.202 C 
BRANCH  72  73
ATOM     73  C   UNL A   1      32.878  26.144  26.441  1.00  0.00     0.261 C 
BRANCH  73  74
ATOM     74  O   UNL A   1      33.227  24.749  26.484  1.00  0.00    -0.462 OA
BRANCH  74  75
ATOM     75  C   UNL A   1      32.183  23.890  26.381  1.00  0.00     0.328 C 
ATOM     76  O   UNL A   1      31.355  23.707  27.269  1.00  0.00    -0.250 OA
BRANCH  75  77
ATOM     77  C   UNL A   1      32.126  23.155  25.029  1.00  0.00     0.194 C 
BRANCH  77  78
ATOM     78  C   UNL A   1      30.995  23.453  24.007  1.00  0.00     0.072 C 
BRANCH  78  79
ATOM     79  C   UNL A   1      30.834  24.834  23.415  1.00  0.00    -0.045 A 
ATOM     80  C   UNL A   1      31.662  25.280  22.376  1.00  0.00     0.007 A 
ATOM     81  C   UNL A   1      29.910  25.737  23.949  1.00  0.00     0.007 A 
ATOM     82  C   UNL A   1      31.532  26.552  21.823  1.00  0.00     0.046 A 
ATOM     83  C   UNL A   1      29.797  27.029  23.426  1.00  0.00     0.046 A 
ATOM     84  C   UNL A   1      30.591  27.419  22.352  1.00  0.00     0.115 A 
BRANCH  84  85
ATOM     85  O   UNL A   1      30.426  28.671  21.844  1.00  0.00    -0.508 OA
ATOM     86  H   UNL A   1      30.344  29.404  22.422  1.00  0.00     0.293 HD
ENDBRANCH  84  85
ENDBRANCH  78  79
ENDBRANCH  77  78
BRANCH  77  87
ATOM     87  N   UNL A   1      33.430  23.199  24.350  1.00  0.00    -0.371 N 
ATOM     88  H   UNL A   1      33.659  23.935  23.737  1.00  0.00     0.161 HD
BRANCH  87  89
ATOM     89  C   UNL A   1      34.343  22.151  24.604  1.00  0.00     0.054 A 
ATOM     90  C   UNL A   1      33.953  20.784  24.463  1.00  0.00     0.024 A 
ATOM     91  C   UNL A   1      35.649  22.457  25.082  1.00  0.00     0.024 A 
ATOM     92  C   UNL A   1      32.654  20.337  24.099  1.00  0.00     0.012 A 
ATOM     93  C   UNL A   1      34.938  19.808  24.700  1.00  0.00     0.073 A 
ATOM     94  C   UNL A   1      36.542  21.382  25.243  1.00  0.00     0.073 A 
ATOM     95  C   UNL A   1      36.092  23.759  25.438  1.00  0.00     0.012 A 
ATOM     96  C   UNL A   1      32.324  18.984  24.049  1.00  0.00     0.001 A 
ATOM     97  C   UNL A   1      34.601  18.464  24.597  1.00  0.00     0.029 A 
ATOM     98  N   UNL A   1      36.202  20.105  25.026  1.00  0.00    -0.248 NA
ATOM     99  C   UNL A   1      37.840  21.639  25.669  1.00  0.00     0.029 A 
ATOM    100  C   UNL A   1      37.386  23.986  25.905  1.00  0.00     0.001 A 
ATOM    101  C   UNL A   1      33.305  18.041  24.296  1.00  0.00     0.002 A 
ATOM    102  C   UNL A   1      38.270  22.924  26.001  1.00  0.00     0.002 A 
ENDBRANCH  87  89
ENDBRANCH  77  87
ENDBRANCH  75  77
ENDBRANCH  74  75
ENDBRANCH  73  74
ENDBRANCH  72  73
ENDBRANCH   1  72
TORSDOF 22
ENDMDL
MODEL 3
REMARK VINA RESULT:     -12.0      0.320      2.007
REMARK SMILES O=C(OCCOCCOC(=O)[C@@H](Cc1ccc(O)cc1)Nc1c2ccccc2nc2ccccc12)c1ccc(-c2c3nc(c(-c4cc(S(=O)(=O)[O-])ccc4F)c4ccc([nH]4)c(-c4cc(S(=O)(=O)[O-])ccc4F)c4nc(c(-c5cc(S(=O)(=O)[O-])ccc5F)c5ccc2[nH]5)C=C4)C=C3)cc1
REMARK SMILES IDX 6 1 5 2 4 3 3 4 2 5 1 6 36 7 37 8 98 9 38 10 97 11 39 12
REMARK SMILES IDX 40 13 41 14 91 15 42 16 96 17 90 18 92 19 43 20 95 21 89 22
REMARK SMILES IDX 88 23 44 25 76 26 56 27 75 28 57 29 60 30 74 31 93 32 58 33
REMARK SMILES IDX 59 34 73 36 94 37 61 38 45 39 46 40 54 41 47 42 53 43 55 44
REMARK SMILES IDX 52 45 48 46 49 47 50 48 51 49 77 50 78 51 86 52 79 53 85 54
REMARK SMILES IDX 87 55 84 56 80 57 81 58 82 59 83 60 62 61 63 62 71 63 64 64
REMARK SMILES IDX 70 65 72 66 69 67 65 68 66 69 67 70 68 71 7 72 8 73 9 74
REMARK SMILES IDX 10 75 11 76 12 77 13 78 14 79 15 80 20 81 16 82 19 83 17 84
REMARK SMILES IDX 18 85 21 87 22 89 23 90 35 91 24 92 28 93 30 94 34 95 25 96
REMARK SMILES IDX 27 97 29 98 31 99 33 100 26 101 32 102
REMARK H PARENT 92 24 60 35 18 86 21 88
REMARK Flexibility Score: inf
ROOT
ATOM      1  O   UNL A   1      32.085  28.906  25.647  1.00  0.00    -0.374 OA
ENDROOT
BRANCH   1   2
ATOM      2  C   UNL A   1      31.931  29.660  26.850  1.00  0.00     0.202 C 
BRANCH   2   3
ATOM      3  C   UNL A   1      31.457  31.125  26.775  1.00  0.00     0.261 C 
BRANCH   3   4
ATOM      4  O   UNL A   1      32.547  32.045  26.588  1.00  0.00    -0.460 OA
BRANCH   4   5
ATOM      5  C   UNL A   1      33.207  32.769  27.524  1.00  0.00     0.338 C 
ATOM      6  O   UNL A   1      32.748  33.865  27.843  1.00  0.00    -0.246 OA
BRANCH   5   7
ATOM      7  C   UNL A   1      34.508  32.338  28.121  1.00  0.00     0.060 A 
ATOM      8  C   UNL A   1      34.748  31.072  28.647  1.00  0.00     0.016 A 
ATOM      9  C   UNL A   1      35.587  33.240  28.082  1.00  0.00     0.016 A 
ATOM     10  C   UNL A   1      35.982  30.681  29.095  1.00  0.00     0.010 A 
ATOM     11  C   UNL A   1      36.852  32.863  28.548  1.00  0.00     0.010 A 
ATOM     12  C   UNL A   1      37.038  31.574  29.049  1.00  0.00    -0.014 A 
BRANCH  12  13
ATOM     13  C   UNL A   1      38.248  31.092  29.715  1.00  0.00     0.031 A 
ATOM     14  C   UNL A   1      38.416  31.447  31.156  1.00  0.00     0.074 A 
ATOM     15  C   UNL A   1      38.951  30.114  29.119  1.00  0.00     0.049 A 
ATOM     16  N   UNL A   1      39.340  31.082  31.995  1.00  0.00    -0.248 NA
ATOM     17  C   UNL A   1      37.363  32.297  31.741  1.00  0.00     0.031 C 
ATOM     18  C   UNL A   1      38.650  29.555  27.794  1.00  0.00     0.029 A 
ATOM     19  N   UNL A   1      39.999  29.364  29.565  1.00  0.00    -0.354 N 
ATOM     20  C   UNL A   1      38.999  31.677  33.204  1.00  0.00     0.074 A 
ATOM     21  C   UNL A   1      37.775  32.414  32.992  1.00  0.00     0.031 C 
ATOM     22  C   UNL A   1      39.486  28.533  27.551  1.00  0.00     0.029 A 
ATOM     23  C   UNL A   1      40.428  28.426  28.657  1.00  0.00     0.049 A 
ATOM     24  H   UNL A   1      40.409  29.484  30.453  1.00  0.00     0.167 HD
ATOM     25  C   UNL A   1      39.680  31.620  34.372  1.00  0.00     0.034 A 
ATOM     26  C   UNL A   1      41.500  27.614  28.712  1.00  0.00     0.034 A 
ATOM     27  C   UNL A   1      40.919  30.896  34.493  1.00  0.00     0.049 A 
ATOM     28  C   UNL A   1      42.346  27.703  29.957  1.00  0.00     0.074 A 
ATOM     29  C   UNL A   1      41.815  30.866  35.544  1.00  0.00     0.029 A 
ATOM     30  N   UNL A   1      41.440  30.069  33.499  1.00  0.00    -0.354 N 
ATOM     31  N   UNL A   1      42.123  28.394  31.054  1.00  0.00    -0.248 NA
ATOM     32  C   UNL A   1      43.589  26.932  29.968  1.00  0.00     0.031 C 
ATOM     33  C   UNL A   1      42.906  30.076  35.156  1.00  0.00     0.029 A 
ATOM     34  C   UNL A   1      42.658  29.549  33.895  1.00  0.00     0.049 A 
ATOM     35  H   UNL A   1      41.002  29.882  32.637  1.00  0.00     0.167 HD
ATOM     36  C   UNL A   1      43.200  28.141  31.892  1.00  0.00     0.074 A 
ATOM     37  C   UNL A   1      44.055  27.206  31.178  1.00  0.00     0.031 C 
ATOM     38  C   UNL A   1      43.475  28.633  33.128  1.00  0.00     0.034 A 
BRANCH  25  39
ATOM     39  C   UNL A   1      39.163  32.491  35.491  1.00  0.00     0.023 A 
ATOM     40  C   UNL A   1      39.557  33.834  35.637  1.00  0.00     0.031 A 
ATOM     41  C   UNL A   1      38.391  31.916  36.515  1.00  0.00     0.131 A 
ATOM     42  C   UNL A   1      39.259  34.523  36.826  1.00  0.00     0.055 A 
ATOM     43  C   UNL A   1      38.027  32.634  37.656  1.00  0.00     0.041 A 
ATOM     44  F   UNL A   1      38.023  30.627  36.452  1.00  0.00    -0.206 F 
ATOM     45  C   UNL A   1      38.478  33.938  37.826  1.00  0.00     0.022 A 
BRANCH  42  46
ATOM     46  S   UNL A   1      40.071  36.119  37.134  1.00  0.00     0.124 S 
ATOM     47  O   UNL A   1      39.842  36.815  35.870  1.00  0.00    -0.237 OA
ATOM     48  O   UNL A   1      39.337  36.629  38.286  1.00  0.00    -0.237 OA
ATOM     49  O   UNL A   1      41.462  35.754  37.391  1.00  0.00    -0.744 OA
ENDBRANCH  42  46
ENDBRANCH  25  39
BRANCH  26  50
ATOM     50  C   UNL A   1      41.883  26.772  27.540  1.00  0.00     0.023 A 
ATOM     51  C   UNL A   1      41.840  25.370  27.587  1.00  0.00     0.031 A 
ATOM     52  C   UNL A   1      42.342  27.371  26.348  1.00  0.00     0.131 A 
ATOM     53  C   UNL A   1      42.271  24.618  26.479  1.00  0.00     0.055 A 
ATOM     54  C   UNL A   1      42.714  26.622  25.232  1.00  0.00     0.041 A 
ATOM     55  F   UNL A   1      42.422  28.708  26.245  1.00  0.00    -0.206 F 
ATOM     56  C   UNL A   1      42.691  25.235  25.298  1.00  0.00     0.022 A 
BRANCH  53  57
ATOM     57  S   UNL A   1      42.351  22.811  26.624  1.00  0.00     0.124 S 
ATOM     58  O   UNL A   1      43.559  22.631  27.424  1.00  0.00    -0.237 OA
ATOM     59  O   UNL A   1      41.089  22.504  27.287  1.00  0.00    -0.237 OA
ATOM     60  O   UNL A   1      42.450  22.362  25.237  1.00  0.00    -0.744 OA
ENDBRANCH  53  57
ENDBRANCH  26  50
BRANCH  38  61
ATOM     61  C   UNL A   1      44.740  28.136  33.770  1.00  0.00     0.023 A 
ATOM     62  C   UNL A   1      44.752  26.975  34.559  1.00  0.00     0.031 A 
ATOM     63  C   UNL A   1      45.943  28.840  33.592  1.00  0.00     0.131 A 
ATOM     64  C   UNL A   1      45.937  26.580  35.191  1.00  0.00     0.055 A 
ATOM     65  C   UNL A   1      47.133  28.408  34.174  1.00  0.00     0.041 A 
ATOM     66  F   UNL A   1      45.978  29.956  32.846  1.00  0.00    -0.206 F 
ATOM     67  C   UNL A   1      47.132  27.278  34.989  1.00  0.00     0.022 A 
BRANCH  64  68
ATOM     68  S   UNL A   1      45.877  25.191  36.353  1.00  0.00     0.124 S 
ATOM     69  O   UNL A   1      47.136  24.507  36.072  1.00  0.00    -0.237 OA
ATOM     70  O   UNL A   1      45.792  25.867  37.643  1.00  0.00    -0.237 OA
ATOM     71  O   UNL A   1      44.674  24.464  35.954  1.00  0.00    -0.744 OA
ENDBRANCH  64  68
ENDBRANCH  38  61
ENDBRANCH  12  13
ENDBRANCH   5   7
ENDBRANCH   4   5
ENDBRANCH   3   4
ENDBRANCH   2   3
ENDBRANCH   1   2
BRANCH   1  72
ATOM     72  C   UNL A   1      32.868  27.710  25.695  1.00  0.00     0.202 C 
BRANCH  72  73
ATOM     73  C   UNL A   1      32.192  26.544  26.428  1.00  0.00     0.261 C 
BRANCH  73  74
ATOM     74  O   UNL A   1      32.938  25.328  26.241  1.00  0.00    -0.462 OA
BRANCH  74  75
ATOM     75  C   UNL A   1      32.217  24.186  26.359  1.00  0.00     0.328 C 
ATOM     76  O   UNL A   1      31.746  23.778  27.417  1.00  0.00    -0.250 OA
BRANCH  75  77
ATOM     77  C   UNL A   1      32.036  23.435  25.027  1.00  0.00     0.194 C 
BRANCH  77  78
ATOM     78  C   UNL A   1      30.869  23.788  24.065  1.00  0.00     0.072 C 
BRANCH  78  79
ATOM     79  C   UNL A   1      30.741  25.177  23.483  1.00  0.00    -0.045 A 
ATOM     80  C   UNL A   1      29.723  26.047  23.898  1.00  0.00     0.007 A 
ATOM     81  C   UNL A   1      31.582  25.599  22.450  1.00  0.00     0.007 A 
ATOM     82  C   UNL A   1      29.587  27.328  23.368  1.00  0.00     0.046 A 
ATOM     83  C   UNL A   1      31.430  26.869  21.885  1.00  0.00     0.046 A 
ATOM     84  C   UNL A   1      30.449  27.732  22.364  1.00  0.00     0.115 A 
BRANCH  84  85
ATOM     85  O   UNL A   1      30.356  28.976  21.816  1.00  0.00    -0.508 OA
ATOM     86  H   UNL A   1      30.045  29.693  22.333  1.00  0.00     0.293 HD
ENDBRANCH  84  85
ENDBRANCH  78  79
ENDBRANCH  77  78
BRANCH  77  87
ATOM     87  N   UNL A   1      33.299  23.385  24.275  1.00  0.00    -0.371 N 
ATOM     88  H   UNL A   1      33.513  24.066  23.595  1.00  0.00     0.161 HD
BRANCH  87  89
ATOM     89  C   UNL A   1      34.195  22.331  24.556  1.00  0.00     0.054 A 
ATOM     90  C   UNL A   1      33.794  20.966  24.420  1.00  0.00     0.024 A 
ATOM     91  C   UNL A   1      35.494  22.626  25.058  1.00  0.00     0.024 A 
ATOM     92  C   UNL A   1      32.497  20.529  24.034  1.00  0.00     0.012 A 
ATOM     93  C   UNL A   1      34.763  19.982  24.685  1.00  0.00     0.073 A 
ATOM     94  C   UNL A   1      36.373  21.544  25.247  1.00  0.00     0.073 A 
ATOM     95  C   UNL A   1      35.945  23.927  25.411  1.00  0.00     0.012 A 
ATOM     96  C   UNL A   1      32.154  19.180  23.989  1.00  0.00     0.001 A 
ATOM     97  C   UNL A   1      34.413  18.641  24.587  1.00  0.00     0.029 A 
ATOM     98  N   UNL A   1      36.023  20.269  25.034  1.00  0.00    -0.248 NA
ATOM     99  C   UNL A   1      37.664  21.791  25.695  1.00  0.00     0.029 A 
ATOM    100  C   UNL A   1      37.232  24.144  25.902  1.00  0.00     0.001 A 
ATOM    101  C   UNL A   1      33.119  18.229  24.264  1.00  0.00     0.002 A 
ATOM    102  C   UNL A   1      38.102  23.074  26.025  1.00  0.00     0.002 A 
ENDBRANCH  87  89
ENDBRANCH  77  87
ENDBRANCH  75  77
ENDBRANCH  74  75
ENDBRANCH  73  74
ENDBRANCH  72  73
ENDBRANCH   1  72
TORSDOF 22
ENDMDL
