MODEL 1
REMARK VINA RESULT:     -11.3      0.000      0.000
REMARK SMILES C[C@@H](C(=O)OCCOCCOC(=O)c1ccc(-c2c3nc(c(-c4cc(S(=O)(=O)[O-])ccc4F)c4ccc([nH]4)c(-c4cc(S(=O)(=O)[O-])ccc4F)c4nc(c(-c5cc(S(=O)(=O)[O-])ccc5F)c5ccc2[nH]5)C=C4)C=C3)cc1)c1ccc(N[C@H]2CCC[C@@H]2O)cc1F
REMARK SMILES IDX 7 1 6 2 5 3 3 4 4 5 2 6 1 7 77 8 78 9 89 10 79 11 88 12
REMARK SMILES IDX 90 13 80 14 81 15 82 17 83 18 86 19 84 20 85 21 87 22 8 24
REMARK SMILES IDX 9 25 10 26 11 27 12 28 13 29 14 30 15 31 76 32 16 33 75 34
REMARK SMILES IDX 17 35 18 36 19 37 69 38 20 39 74 40 68 41 70 42 21 43 73 44
REMARK SMILES IDX 67 45 66 46 22 48 54 49 34 50 53 51 35 52 38 53 52 54 71 55
REMARK SMILES IDX 36 56 37 57 51 59 72 60 39 61 23 62 24 63 32 64 25 65 31 66
REMARK SMILES IDX 33 67 30 68 26 69 27 70 28 71 29 72 55 73 56 74 64 75 57 76
REMARK SMILES IDX 63 77 65 78 62 79 58 80 59 81 60 82 61 83 40 84 41 85 49 86
REMARK SMILES IDX 42 87 48 88 50 89 47 90 43 91 44 92 45 93 46 94
REMARK H PARENT 81 16 87 23 70 47 38 58
REMARK Flexibility Score: inf
ROOT
ATOM      1  C   UNL A   1      33.270  28.736  22.747  1.00  0.00     0.202 C 
ENDROOT
BRANCH   1   2
ATOM      2  C   UNL A   1      33.288  27.286  22.253  1.00  0.00     0.261 C 
BRANCH   2   3
ATOM      3  O   UNL A   1      34.057  26.435  23.117  1.00  0.00    -0.463 OA
BRANCH   3   4
ATOM      4  C   UNL A   1      33.605  25.154  23.242  1.00  0.00     0.313 C 
ATOM      5  O   UNL A   1      33.482  24.386  22.296  1.00  0.00    -0.252 OA
BRANCH   4   6
ATOM      6  C   UNL A   1      33.282  24.780  24.700  1.00  0.00     0.129 C 
ATOM      7  C   UNL A   1      34.098  25.626  25.694  1.00  0.00     0.025 C 
BRANCH   6   8
ATOM      8  C   UNL A   1      33.318  23.271  24.972  1.00  0.00     0.002 A 
ATOM      9  C   UNL A   1      34.475  22.586  25.376  1.00  0.00     0.010 A 
ATOM     10  C   UNL A   1      32.150  22.507  24.905  1.00  0.00     0.129 A 
ATOM     11  C   UNL A   1      34.451  21.209  25.679  1.00  0.00     0.026 A 
ATOM     12  C   UNL A   1      32.137  21.133  25.163  1.00  0.00     0.065 A 
ATOM     13  F   UNL A   1      30.969  23.083  24.650  1.00  0.00    -0.207 F 
ATOM     14  C   UNL A   1      33.287  20.450  25.563  1.00  0.00     0.037 A 
BRANCH  14  15
ATOM     15  N   UNL A   1      33.171  19.117  25.889  1.00  0.00    -0.380 N 
ATOM     16  H   UNL A   1      33.123  18.930  26.854  1.00  0.00     0.160 HD
BRANCH  15  17
ATOM     17  C   UNL A   1      33.108  17.940  25.033  1.00  0.00     0.107 C 
ATOM     18  C   UNL A   1      32.158  18.064  23.838  1.00  0.00     0.027 C 
ATOM     19  C   UNL A   1      34.464  17.496  24.458  1.00  0.00     0.136 C 
ATOM     20  C   UNL A   1      32.914  17.463  22.649  1.00  0.00     0.005 C 
ATOM     21  C   UNL A   1      34.050  16.656  23.260  1.00  0.00     0.034 C 
BRANCH  19  22
ATOM     22  O   UNL A   1      35.219  16.720  25.378  1.00  0.00    -0.391 OA
ATOM     23  H   UNL A   1      34.624  16.137  25.875  1.00  0.00     0.211 HD
ENDBRANCH  19  22
ENDBRANCH  15  17
ENDBRANCH  14  15
ENDBRANCH   6   8
ENDBRANCH   4   6
ENDBRANCH   3   4
ENDBRANCH   2   3
ENDBRANCH   1   2
BRANCH   1  24
ATOM     24  O   UNL A   1      32.190  29.123  23.592  1.00  0.00    -0.374 OA
BRANCH  24  25
ATOM     25  C   UNL A   1      32.456  29.284  24.987  1.00  0.00     0.202 C 
BRANCH  25  26
ATOM     26  C   UNL A   1      31.828  30.489  25.701  1.00  0.00     0.261 C 
BRANCH  26  27
ATOM     27  O   UNL A   1      32.299  30.643  27.054  1.00  0.00    -0.460 OA
BRANCH  27  28
ATOM     28  C   UNL A   1      33.046  31.755  27.268  1.00  0.00     0.338 C 
ATOM     29  O   UNL A   1      32.654  32.916  27.252  1.00  0.00    -0.246 OA
BRANCH  28  30
ATOM     30  C   UNL A   1      34.396  31.388  27.733  1.00  0.00     0.060 A 
ATOM     31  C   UNL A   1      34.643  30.037  28.004  1.00  0.00     0.016 A 
ATOM     32  C   UNL A   1      35.370  32.355  27.993  1.00  0.00     0.016 A 
ATOM     33  C   UNL A   1      35.853  29.649  28.579  1.00  0.00     0.010 A 
ATOM     34  C   UNL A   1      36.580  31.963  28.581  1.00  0.00     0.010 A 
ATOM     35  C   UNL A   1      36.812  30.615  28.909  1.00  0.00    -0.014 A 
BRANCH  35  36
ATOM     36  C   UNL A   1      37.981  30.227  29.739  1.00  0.00     0.031 A 
ATOM     37  C   UNL A   1      38.970  29.239  29.181  1.00  0.00     0.074 A 
ATOM     38  C   UNL A   1      38.183  30.777  30.949  1.00  0.00     0.049 A 
ATOM     39  N   UNL A   1      40.041  28.731  29.734  1.00  0.00    -0.248 NA
ATOM     40  C   UNL A   1      38.712  28.759  27.815  1.00  0.00     0.031 C 
ATOM     41  C   UNL A   1      37.322  31.782  31.572  1.00  0.00     0.029 A 
ATOM     42  N   UNL A   1      39.174  30.564  31.874  1.00  0.00    -0.354 N 
ATOM     43  C   UNL A   1      40.587  27.872  28.785  1.00  0.00     0.074 A 
ATOM     44  C   UNL A   1      39.702  27.898  27.639  1.00  0.00     0.031 C 
ATOM     45  C   UNL A   1      37.817  32.089  32.783  1.00  0.00     0.029 A 
ATOM     46  C   UNL A   1      39.007  31.278  33.037  1.00  0.00     0.049 A 
ATOM     47  H   UNL A   1      39.935  29.957  31.719  1.00  0.00     0.167 HD
ATOM     48  C   UNL A   1      41.727  27.140  28.858  1.00  0.00     0.034 A 
ATOM     49  C   UNL A   1      39.716  31.257  34.184  1.00  0.00     0.034 A 
ATOM     50  C   UNL A   1      42.590  27.112  30.015  1.00  0.00     0.049 A 
ATOM     51  C   UNL A   1      40.929  30.363  34.280  1.00  0.00     0.074 A 
ATOM     52  C   UNL A   1      43.767  26.408  30.197  1.00  0.00     0.029 A 
ATOM     53  N   UNL A   1      42.361  27.811  31.194  1.00  0.00    -0.354 N 
ATOM     54  N   UNL A   1      41.435  29.555  33.376  1.00  0.00    -0.248 NA
ATOM     55  C   UNL A   1      41.671  30.385  35.548  1.00  0.00     0.031 C 
ATOM     56  C   UNL A   1      44.211  26.624  31.506  1.00  0.00     0.029 A 
ATOM     57  C   UNL A   1      43.357  27.528  32.117  1.00  0.00     0.049 A 
ATOM     58  H   UNL A   1      41.603  28.419  31.351  1.00  0.00     0.167 HD
ATOM     59  C   UNL A   1      42.572  28.996  33.958  1.00  0.00     0.074 A 
ATOM     60  C   UNL A   1      42.682  29.570  35.284  1.00  0.00     0.031 C 
ATOM     61  C   UNL A   1      43.448  28.097  33.443  1.00  0.00     0.034 A 
BRANCH  48  62
ATOM     62  C   UNL A   1      42.066  26.270  27.670  1.00  0.00     0.023 A 
ATOM     63  C   UNL A   1      41.617  24.941  27.574  1.00  0.00     0.031 A 
ATOM     64  C   UNL A   1      42.880  26.765  26.637  1.00  0.00     0.131 A 
ATOM     65  C   UNL A   1      42.047  24.132  26.511  1.00  0.00     0.055 A 
ATOM     66  C   UNL A   1      43.236  25.980  25.539  1.00  0.00     0.041 A 
ATOM     67  F   UNL A   1      43.358  28.019  26.684  1.00  0.00    -0.206 F 
ATOM     68  C   UNL A   1      42.833  24.650  25.479  1.00  0.00     0.022 A 
BRANCH  65  69
ATOM     69  S   UNL A   1      41.686  22.355  26.571  1.00  0.00     0.124 S 
ATOM     70  O   UNL A   1      40.226  22.350  26.536  1.00  0.00    -0.237 OA
ATOM     71  O   UNL A   1      42.357  21.856  25.377  1.00  0.00    -0.237 OA
ATOM     72  O   UNL A   1      42.272  21.928  27.840  1.00  0.00    -0.744 OA
ENDBRANCH  65  69
ENDBRANCH  48  62
BRANCH  49  73
ATOM     73  C   UNL A   1      39.276  32.070  35.355  1.00  0.00     0.023 A 
ATOM     74  C   UNL A   1      39.736  33.381  35.550  1.00  0.00     0.031 A 
ATOM     75  C   UNL A   1      38.423  31.520  36.329  1.00  0.00     0.131 A 
ATOM     76  C   UNL A   1      39.377  34.084  36.711  1.00  0.00     0.055 A 
ATOM     77  C   UNL A   1      38.026  32.240  37.457  1.00  0.00     0.041 A 
ATOM     78  F   UNL A   1      37.955  30.268  36.193  1.00  0.00    -0.206 F 
ATOM     79  C   UNL A   1      38.514  33.526  37.659  1.00  0.00     0.022 A 
BRANCH  76  80
ATOM     80  S   UNL A   1      40.121  35.711  37.011  1.00  0.00     0.124 S 
ATOM     81  O   UNL A   1      39.551  36.063  38.306  1.00  0.00    -0.237 OA
ATOM     82  O   UNL A   1      41.546  35.397  37.000  1.00  0.00    -0.237 OA
ATOM     83  O   UNL A   1      39.652  36.512  35.883  1.00  0.00    -0.744 OA
ENDBRANCH  76  80
ENDBRANCH  49  73
BRANCH  61  84
ATOM     84  C   UNL A   1      44.628  27.714  34.303  1.00  0.00     0.023 A 
ATOM     85  C   UNL A   1      44.555  26.672  35.245  1.00  0.00     0.031 A 
ATOM     86  C   UNL A   1      45.845  28.411  34.182  1.00  0.00     0.131 A 
ATOM     87  C   UNL A   1      45.659  26.394  36.066  1.00  0.00     0.055 A 
ATOM     88  C   UNL A   1      46.958  28.089  34.960  1.00  0.00     0.041 A 
ATOM     89  F   UNL A   1      45.972  29.415  33.301  1.00  0.00    -0.206 F 
ATOM     90  C   UNL A   1      46.865  27.083  35.917  1.00  0.00     0.022 A 
BRANCH  87  91
ATOM     91  S   UNL A   1      45.471  25.174  37.396  1.00  0.00     0.124 S 
ATOM     92  O   UNL A   1      44.649  24.151  36.755  1.00  0.00    -0.237 OA
ATOM     93  O   UNL A   1      46.853  24.798  37.675  1.00  0.00    -0.237 OA
ATOM     94  O   UNL A   1      44.806  25.925  38.459  1.00  0.00    -0.744 OA
ENDBRANCH  87  91
ENDBRANCH  61  84
ENDBRANCH  35  36
ENDBRANCH  28  30
ENDBRANCH  27  28
ENDBRANCH  26  27
ENDBRANCH  25  26
ENDBRANCH  24  25
ENDBRANCH   1  24
TORSDOF 21
ENDMDL
MODEL 2
REMARK VINA RESULT:     -10.9      1.022      7.792
REMARK SMILES C[C@@H](C(=O)OCCOCCOC(=O)c1ccc(-c2c3nc(c(-c4cc(S(=O)(=O)[O-])ccc4F)c4ccc([nH]4)c(-c4cc(S(=O)(=O)[O-])ccc4F)c4nc(c(-c5cc(S(=O)(=O)[O-])ccc5F)c5ccc2[nH]5)C=C4)C=C3)cc1)c1ccc(N[C@H]2CCC[C@@H]2O)cc1F
REMARK SMILES IDX 7 1 6 2 5 3 3 4 4 5 2 6 1 7 77 8 78 9 89 10 79 11 88 12
REMARK SMILES IDX 90 13 80 14 81 15 82 17 83 18 86 19 84 20 85 21 87 22 8 24
REMARK SMILES IDX 9 25 10 26 11 27 12 28 13 29 14 30 15 31 76 32 16 33 75 34
REMARK SMILES IDX 17 35 18 36 19 37 69 38 20 39 74 40 68 41 70 42 21 43 73 44
REMARK SMILES IDX 67 45 66 46 22 48 54 49 34 50 53 51 35 52 38 53 52 54 71 55
REMARK SMILES IDX 36 56 37 57 51 59 72 60 39 61 23 62 24 63 32 64 25 65 31 66
REMARK SMILES IDX 33 67 30 68 26 69 27 70 28 71 29 72 55 73 56 74 64 75 57 76
REMARK SMILES IDX 63 77 65 78 62 79 58 80 59 81 60 82 61 83 40 84 41 85 49 86
REMARK SMILES IDX 42 87 48 88 50 89 47 90 43 91 44 92 45 93 46 94
REMARK H PARENT 81 16 87 23 70 47 38 58
REMARK Flexibility Score: inf
ROOT
ATOM      1  C   UNL A   1      31.728  28.954  23.467  1.00  0.00     0.202 C 
ENDROOT
BRANCH   1   2
ATOM      2  C   UNL A   1      31.156  27.633  22.945  1.00  0.00     0.261 C 
BRANCH   2   3
ATOM      3  O   UNL A   1      31.913  26.502  23.405  1.00  0.00    -0.463 OA
BRANCH   3   4
ATOM      4  C   UNL A   1      31.382  25.825  24.464  1.00  0.00     0.313 C 
ATOM      5  O   UNL A   1      30.194  25.542  24.557  1.00  0.00    -0.252 OA
BRANCH   4   6
ATOM      6  C   UNL A   1      32.441  25.446  25.515  1.00  0.00     0.129 C 
ATOM      7  C   UNL A   1      33.559  26.500  25.596  1.00  0.00     0.025 C 
BRANCH   6   8
ATOM      8  C   UNL A   1      32.940  24.000  25.394  1.00  0.00     0.002 A 
ATOM      9  C   UNL A   1      34.155  23.651  24.783  1.00  0.00     0.010 A 
ATOM     10  C   UNL A   1      32.225  22.949  25.974  1.00  0.00     0.129 A 
ATOM     11  C   UNL A   1      34.607  22.315  24.751  1.00  0.00     0.026 A 
ATOM     12  C   UNL A   1      32.654  21.620  25.902  1.00  0.00     0.065 A 
ATOM     13  F   UNL A   1      31.117  23.186  26.686  1.00  0.00    -0.207 F 
ATOM     14  C   UNL A   1      33.861  21.271  25.294  1.00  0.00     0.037 A 
BRANCH  14  15
ATOM     15  N   UNL A   1      34.258  19.954  25.348  1.00  0.00    -0.380 N 
ATOM     16  H   UNL A   1      34.583  19.654  26.228  1.00  0.00     0.160 HD
BRANCH  15  17
ATOM     17  C   UNL A   1      34.274  18.931  24.310  1.00  0.00     0.107 C 
ATOM     18  C   UNL A   1      35.137  17.707  24.627  1.00  0.00     0.027 C 
ATOM     19  C   UNL A   1      32.886  18.389  23.927  1.00  0.00     0.136 C 
ATOM     20  C   UNL A   1      34.307  16.495  24.191  1.00  0.00     0.005 C 
ATOM     21  C   UNL A   1      33.225  17.056  23.279  1.00  0.00     0.034 C 
BRANCH  19  22
ATOM     22  O   UNL A   1      32.204  19.234  23.009  1.00  0.00    -0.391 OA
ATOM     23  H   UNL A   1      31.259  19.014  23.008  1.00  0.00     0.211 HD
ENDBRANCH  19  22
ENDBRANCH  15  17
ENDBRANCH  14  15
ENDBRANCH   6   8
ENDBRANCH   4   6
ENDBRANCH   3   4
ENDBRANCH   2   3
ENDBRANCH   1   2
BRANCH   1  24
ATOM     24  O   UNL A   1      31.325  29.369  24.769  1.00  0.00    -0.374 OA
BRANCH  24  25
ATOM     25  C   UNL A   1      32.277  30.067  25.574  1.00  0.00     0.202 C 
BRANCH  25  26
ATOM     26  C   UNL A   1      31.809  31.336  26.298  1.00  0.00     0.261 C 
BRANCH  26  27
ATOM     27  O   UNL A   1      32.427  31.501  27.590  1.00  0.00    -0.460 OA
BRANCH  27  28
ATOM     28  C   UNL A   1      33.368  32.478  27.645  1.00  0.00     0.338 C 
ATOM     29  O   UNL A   1      33.177  33.684  27.552  1.00  0.00    -0.246 OA
BRANCH  28  30
ATOM     30  C   UNL A   1      34.672  31.915  28.038  1.00  0.00     0.060 A 
ATOM     31  C   UNL A   1      34.731  30.542  28.310  1.00  0.00     0.016 A 
ATOM     32  C   UNL A   1      35.792  32.727  28.233  1.00  0.00     0.016 A 
ATOM     33  C   UNL A   1      35.900  29.981  28.821  1.00  0.00     0.010 A 
ATOM     34  C   UNL A   1      36.961  32.161  28.758  1.00  0.00     0.010 A 
ATOM     35  C   UNL A   1      37.009  30.794  29.087  1.00  0.00    -0.014 A 
BRANCH  35  36
ATOM     36  C   UNL A   1      38.152  30.238  29.855  1.00  0.00     0.031 A 
ATOM     37  C   UNL A   1      38.377  30.711  31.266  1.00  0.00     0.074 A 
ATOM     38  C   UNL A   1      38.949  29.295  29.322  1.00  0.00     0.049 A 
ATOM     39  N   UNL A   1      39.323  30.390  32.110  1.00  0.00    -0.248 NA
ATOM     40  C   UNL A   1      37.401  31.677  31.792  1.00  0.00     0.031 C 
ATOM     41  C   UNL A   1      38.799  28.722  27.985  1.00  0.00     0.029 A 
ATOM     42  N   UNL A   1      40.048  28.657  29.839  1.00  0.00    -0.354 N 
ATOM     43  C   UNL A   1      39.058  31.114  33.269  1.00  0.00     0.074 A 
ATOM     44  C   UNL A   1      37.887  31.922  32.999  1.00  0.00     0.031 C 
ATOM     45  C   UNL A   1      39.778  27.824  27.783  1.00  0.00     0.029 A 
ATOM     46  C   UNL A   1      40.646  27.786  28.959  1.00  0.00     0.049 A 
ATOM     47  H   UNL A   1      40.378  28.808  30.756  1.00  0.00     0.167 HD
ATOM     48  C   UNL A   1      39.724  31.098  34.451  1.00  0.00     0.034 A 
ATOM     49  C   UNL A   1      41.778  27.062  29.079  1.00  0.00     0.034 A 
ATOM     50  C   UNL A   1      40.901  30.300  34.698  1.00  0.00     0.049 A 
ATOM     51  C   UNL A   1      42.559  27.131  30.371  1.00  0.00     0.074 A 
ATOM     52  C   UNL A   1      41.653  30.206  35.857  1.00  0.00     0.029 A 
ATOM     53  N   UNL A   1      41.506  29.467  33.766  1.00  0.00    -0.354 N 
ATOM     54  N   UNL A   1      42.298  27.819  31.459  1.00  0.00    -0.248 NA
ATOM     55  C   UNL A   1      43.779  26.316  30.452  1.00  0.00     0.031 C 
ATOM     56  C   UNL A   1      42.749  29.374  35.603  1.00  0.00     0.029 A 
ATOM     57  C   UNL A   1      42.639  28.882  34.312  1.00  0.00     0.049 A 
ATOM     58  H   UNL A   1      41.179  29.312  32.850  1.00  0.00     0.167 HD
ATOM     59  C   UNL A   1      43.308  27.497  32.364  1.00  0.00     0.074 A 
ATOM     60  C   UNL A   1      44.171  26.544  31.697  1.00  0.00     0.031 C 
ATOM     61  C   UNL A   1      43.501  27.943  33.631  1.00  0.00     0.034 A 
BRANCH  48  62
ATOM     62  C   UNL A   1      39.219  32.015  35.540  1.00  0.00     0.023 A 
ATOM     63  C   UNL A   1      39.643  33.351  35.639  1.00  0.00     0.031 A 
ATOM     64  C   UNL A   1      38.328  31.535  36.516  1.00  0.00     0.131 A 
ATOM     65  C   UNL A   1      39.238  34.136  36.730  1.00  0.00     0.055 A 
ATOM     66  C   UNL A   1      37.863  32.345  37.553  1.00  0.00     0.041 A 
ATOM     67  F   UNL A   1      37.905  30.261  36.488  1.00  0.00    -0.206 F 
ATOM     68  C   UNL A   1      38.330  33.650  37.674  1.00  0.00     0.022 A 
BRANCH  65  69
ATOM     69  S   UNL A   1      40.027  35.750  36.978  1.00  0.00     0.124 S 
ATOM     70  O   UNL A   1      39.655  36.453  35.753  1.00  0.00    -0.237 OA
ATOM     71  O   UNL A   1      39.397  36.225  38.204  1.00  0.00    -0.237 OA
ATOM     72  O   UNL A   1      41.447  35.425  37.092  1.00  0.00    -0.744 OA
ENDBRANCH  65  69
ENDBRANCH  48  62
BRANCH  49  73
ATOM     73  C   UNL A   1      42.276  26.248  27.933  1.00  0.00     0.023 A 
ATOM     74  C   UNL A   1      41.874  24.916  27.753  1.00  0.00     0.031 A 
ATOM     75  C   UNL A   1      43.209  26.782  27.025  1.00  0.00     0.131 A 
ATOM     76  C   UNL A   1      42.434  24.149  26.718  1.00  0.00     0.055 A 
ATOM     77  C   UNL A   1      43.723  26.033  25.966  1.00  0.00     0.041 A 
ATOM     78  F   UNL A   1      43.629  28.052  27.153  1.00  0.00    -0.206 F 
ATOM     79  C   UNL A   1      43.346  24.704  25.816  1.00  0.00     0.022 A 
BRANCH  76  80
ATOM     80  S   UNL A   1      42.017  22.387  26.616  1.00  0.00     0.124 S 
ATOM     81  O   UNL A   1      42.689  21.995  25.382  1.00  0.00    -0.237 OA
ATOM     82  O   UNL A   1      42.592  21.868  27.853  1.00  0.00    -0.237 OA
ATOM     83  O   UNL A   1      40.557  22.385  26.560  1.00  0.00    -0.744 OA
ENDBRANCH  76  80
ENDBRANCH  49  73
BRANCH  61  84
ATOM     84  C   UNL A   1      44.669  27.365  34.394  1.00  0.00     0.023 A 
ATOM     85  C   UNL A   1      44.553  26.182  35.146  1.00  0.00     0.031 A 
ATOM     86  C   UNL A   1      45.918  28.014  34.373  1.00  0.00     0.131 A 
ATOM     87  C   UNL A   1      45.649  25.716  35.890  1.00  0.00     0.055 A 
ATOM     88  C   UNL A   1      47.020  27.512  35.066  1.00  0.00     0.041 A 
ATOM     89  F   UNL A   1      46.085  29.147  33.673  1.00  0.00    -0.206 F 
ATOM     90  C   UNL A   1      46.886  26.364  35.840  1.00  0.00     0.022 A 
BRANCH  87  91
ATOM     91  S   UNL A   1      45.413  24.297  36.996  1.00  0.00     0.124 S 
ATOM     92  O   UNL A   1      44.632  23.389  36.161  1.00  0.00    -0.237 OA
ATOM     93  O   UNL A   1      46.785  23.886  37.275  1.00  0.00    -0.237 OA
ATOM     94  O   UNL A   1      44.693  24.866  38.134  1.00  0.00    -0.744 OA
ENDBRANCH  87  91
ENDBRANCH  61  84
ENDBRANCH  35  36
ENDBRANCH  28  30
ENDBRANCH  27  28
ENDBRANCH  26  27
ENDBRANCH  25  26
ENDBRANCH  24  25
ENDBRANCH   1  24
TORSDOF 21
ENDMDL
MODEL 3
REMARK VINA RESULT:     -10.9      1.873      2.238
REMARK SMILES C[C@@H](C(=O)OCCOCCOC(=O)c1ccc(-c2c3nc(c(-c4cc(S(=O)(=O)[O-])ccc4F)c4ccc([nH]4)c(-c4cc(S(=O)(=O)[O-])ccc4F)c4nc(c(-c5cc(S(=O)(=O)[O-])ccc5F)c5ccc2[nH]5)C=C4)C=C3)cc1)c1ccc(N[C@H]2CCC[C@@H]2O)cc1F
REMARK SMILES IDX 7 1 6 2 5 3 3 4 4 5 2 6 1 7 77 8 78 9 89 10 79 11 88 12
REMARK SMILES IDX 90 13 80 14 81 15 82 17 83 18 86 19 84 20 85 21 87 22 8 24
REMARK SMILES IDX 9 25 10 26 11 27 12 28 13 29 14 30 15 31 76 32 16 33 75 34
REMARK SMILES IDX 17 35 18 36 19 37 69 38 20 39 74 40 68 41 70 42 21 43 73 44
REMARK SMILES IDX 67 45 66 46 22 48 54 49 34 50 53 51 35 52 38 53 52 54 71 55
REMARK SMILES IDX 36 56 37 57 51 59 72 60 39 61 23 62 24 63 32 64 25 65 31 66
REMARK SMILES IDX 33 67 30 68 26 69 27 70 28 71 29 72 55 73 56 74 64 75 57 76
REMARK SMILES IDX 63 77 65 78 62 79 58 80 59 81 60 82 61 83 40 84 41 85 49 86
REMARK SMILES IDX 42 87 48 88 50 89 47 90 43 91 44 92 45 93 46 94
REMARK H PARENT 81 16 87 23 70 47 38 58
REMARK Flexibility Score: inf
ROOT
ATOM      1  C   UNL A   1      32.730  29.029  26.006  1.00  0.00     0.202 C 
ENDROOT
BRANCH   1   2
ATOM      2  C   UNL A   1      31.608  28.148  25.449  1.00  0.00     0.261 C 
BRANCH   2   3
ATOM      3  O   UNL A   1      32.106  27.157  24.537  1.00  0.00    -0.463 OA
BRANCH   3   4
ATOM      4  C   UNL A   1      32.733  26.089  25.109  1.00  0.00     0.313 C 
ATOM      5  O   UNL A   1      32.443  25.647  26.214  1.00  0.00    -0.252 OA
BRANCH   4   6
ATOM      6  C   UNL A   1      33.830  25.494  24.206  1.00  0.00     0.129 C 
ATOM      7  C   UNL A   1      33.650  25.925  22.740  1.00  0.00     0.025 C 
BRANCH   6   8
ATOM      8  C   UNL A   1      34.040  23.987  24.403  1.00  0.00     0.002 A 
ATOM      9  C   UNL A   1      33.266  23.008  23.760  1.00  0.00     0.010 A 
ATOM     10  C   UNL A   1      35.092  23.511  25.191  1.00  0.00     0.129 A 
ATOM     11  C   UNL A   1      33.534  21.633  23.918  1.00  0.00     0.026 A 
ATOM     12  C   UNL A   1      35.328  22.147  25.382  1.00  0.00     0.065 A 
ATOM     13  F   UNL A   1      35.964  24.358  25.751  1.00  0.00    -0.207 F 
ATOM     14  C   UNL A   1      34.559  21.173  24.743  1.00  0.00     0.037 A 
BRANCH  14  15
ATOM     15  N   UNL A   1      34.915  19.853  24.908  1.00  0.00    -0.380 N 
ATOM     16  H   UNL A   1      35.806  19.710  25.302  1.00  0.00     0.160 HD
BRANCH  15  17
ATOM     17  C   UNL A   1      34.183  18.633  24.591  1.00  0.00     0.107 C 
ATOM     18  C   UNL A   1      35.061  17.402  24.347  1.00  0.00     0.027 C 
ATOM     19  C   UNL A   1      33.148  18.217  25.650  1.00  0.00     0.136 C 
ATOM     20  C   UNL A   1      34.368  16.251  25.083  1.00  0.00     0.005 C 
ATOM     21  C   UNL A   1      32.952  16.739  25.351  1.00  0.00     0.034 C 
BRANCH  19  22
ATOM     22  O   UNL A   1      31.921  18.922  25.520  1.00  0.00    -0.391 OA
ATOM     23  H   UNL A   1      31.265  18.353  25.088  1.00  0.00     0.211 HD
ENDBRANCH  19  22
ENDBRANCH  15  17
ENDBRANCH  14  15
ENDBRANCH   6   8
ENDBRANCH   4   6
ENDBRANCH   3   4
ENDBRANCH   2   3
ENDBRANCH   1   2
BRANCH   1  24
ATOM     24  O   UNL A   1      32.601  30.438  25.826  1.00  0.00    -0.374 OA
BRANCH  24  25
ATOM     25  C   UNL A   1      31.373  31.053  26.220  1.00  0.00     0.202 C 
BRANCH  25  26
ATOM     26  C   UNL A   1      31.452  32.347  27.042  1.00  0.00     0.261 C 
BRANCH  26  27
ATOM     27  O   UNL A   1      32.639  33.114  26.761  1.00  0.00    -0.460 OA
BRANCH  27  28
ATOM     28  C   UNL A   1      33.175  33.740  27.839  1.00  0.00     0.338 C 
ATOM     29  O   UNL A   1      32.651  34.621  28.510  1.00  0.00    -0.246 OA
BRANCH  28  30
ATOM     30  C   UNL A   1      34.428  33.080  28.248  1.00  0.00     0.060 A 
ATOM     31  C   UNL A   1      34.334  31.801  28.810  1.00  0.00     0.016 A 
ATOM     32  C   UNL A   1      35.659  33.736  28.177  1.00  0.00     0.016 A 
ATOM     33  C   UNL A   1      35.467  31.187  29.344  1.00  0.00     0.010 A 
ATOM     34  C   UNL A   1      36.792  33.122  28.725  1.00  0.00     0.010 A 
ATOM     35  C   UNL A   1      36.695  31.861  29.342  1.00  0.00    -0.014 A 
BRANCH  35  36
ATOM     36  C   UNL A   1      37.829  31.310  30.126  1.00  0.00     0.031 A 
ATOM     37  C   UNL A   1      38.707  30.264  29.495  1.00  0.00     0.074 A 
ATOM     38  C   UNL A   1      38.100  31.765  31.362  1.00  0.00     0.049 A 
ATOM     39  N   UNL A   1      39.729  29.621  29.998  1.00  0.00    -0.248 NA
ATOM     40  C   UNL A   1      38.386  29.895  28.108  1.00  0.00     0.031 C 
ATOM     41  C   UNL A   1      37.351  32.812  32.058  1.00  0.00     0.029 A 
ATOM     42  N   UNL A   1      39.076  31.401  32.255  1.00  0.00    -0.354 N 
ATOM     43  C   UNL A   1      40.175  28.770  28.990  1.00  0.00     0.074 A 
ATOM     44  C   UNL A   1      39.282  28.951  27.864  1.00  0.00     0.031 C 
ATOM     45  C   UNL A   1      37.890  32.996  33.275  1.00  0.00     0.029 A 
ATOM     46  C   UNL A   1      38.996  32.057  33.460  1.00  0.00     0.049 A 
ATOM     47  H   UNL A   1      39.770  30.731  32.051  1.00  0.00     0.167 HD
ATOM     48  C   UNL A   1      41.236  27.926  29.000  1.00  0.00     0.034 A 
ATOM     49  C   UNL A   1      39.713  31.899  34.591  1.00  0.00     0.034 A 
ATOM     50  C   UNL A   1      42.106  27.744  30.138  1.00  0.00     0.049 A 
ATOM     51  C   UNL A   1      40.832  30.884  34.613  1.00  0.00     0.074 A 
ATOM     52  C   UNL A   1      43.210  26.917  30.257  1.00  0.00     0.029 A 
ATOM     53  N   UNL A   1      41.964  28.391  31.359  1.00  0.00    -0.354 N 
ATOM     54  N   UNL A   1      41.244  30.085  33.655  1.00  0.00    -0.248 NA
ATOM     55  C   UNL A   1      41.588  30.758  35.867  1.00  0.00     0.031 C 
ATOM     56  C   UNL A   1      43.689  27.010  31.568  1.00  0.00     0.029 A 
ATOM     57  C   UNL A   1      42.937  27.956  32.246  1.00  0.00     0.049 A 
ATOM     58  H   UNL A   1      41.272  29.061  31.565  1.00  0.00     0.167 HD
ATOM     59  C   UNL A   1      42.326  29.383  34.183  1.00  0.00     0.074 A 
ATOM     60  C   UNL A   1      42.509  29.864  35.537  1.00  0.00     0.031 C 
ATOM     61  C   UNL A   1      43.101  28.433  33.601  1.00  0.00     0.034 A 
BRANCH  48  62
ATOM     62  C   UNL A   1      41.472  27.098  27.758  1.00  0.00     0.023 A 
ATOM     63  C   UNL A   1      41.159  25.729  27.711  1.00  0.00     0.031 A 
ATOM     64  C   UNL A   1      42.052  27.680  26.617  1.00  0.00     0.131 A 
ATOM     65  C   UNL A   1      41.497  24.972  26.578  1.00  0.00     0.055 A 
ATOM     66  C   UNL A   1      42.310  26.939  25.463  1.00  0.00     0.041 A 
ATOM     67  F   UNL A   1      42.394  28.978  26.610  1.00  0.00    -0.206 F 
ATOM     68  C   UNL A   1      42.047  25.573  25.444  1.00  0.00     0.022 A 
BRANCH  65  69
ATOM     69  S   UNL A   1      41.343  23.166  26.663  1.00  0.00     0.124 S 
ATOM     70  O   UNL A   1      39.939  22.973  26.309  1.00  0.00    -0.237 OA
ATOM     71  O   UNL A   1      42.319  22.720  25.676  1.00  0.00    -0.237 OA
ATOM     72  O   UNL A   1      41.674  22.858  28.052  1.00  0.00    -0.744 OA
ENDBRANCH  65  69
ENDBRANCH  48  62
BRANCH  49  73
ATOM     73  C   UNL A   1      39.371  32.680  35.815  1.00  0.00     0.023 A 
ATOM     74  C   UNL A   1      38.512  32.162  36.797  1.00  0.00     0.031 A 
ATOM     75  C   UNL A   1      39.862  33.986  35.992  1.00  0.00     0.131 A 
ATOM     76  C   UNL A   1      38.137  32.960  37.889  1.00  0.00     0.055 A 
ATOM     77  C   UNL A   1      39.527  34.757  37.106  1.00  0.00     0.041 A 
ATOM     78  F   UNL A   1      40.685  34.531  35.081  1.00  0.00    -0.206 F 
ATOM     79  C   UNL A   1      38.649  34.250  38.057  1.00  0.00     0.022 A 
BRANCH  76  80
ATOM     80  S   UNL A   1      36.898  32.320  39.050  1.00  0.00     0.124 S 
ATOM     81  O   UNL A   1      35.664  32.869  38.499  1.00  0.00    -0.237 OA
ATOM     82  O   UNL A   1      37.075  30.878  38.917  1.00  0.00    -0.237 OA
ATOM     83  O   UNL A   1      37.312  32.882  40.334  1.00  0.00    -0.744 OA
ENDBRANCH  76  80
ENDBRANCH  49  73
BRANCH  61  84
ATOM     84  C   UNL A   1      44.248  27.886  34.416  1.00  0.00     0.023 A 
ATOM     85  C   UNL A   1      44.093  26.774  35.262  1.00  0.00     0.031 A 
ATOM     86  C   UNL A   1      45.516  28.493  34.348  1.00  0.00     0.131 A 
ATOM     87  C   UNL A   1      45.172  26.338  36.049  1.00  0.00     0.055 A 
ATOM     88  C   UNL A   1      46.600  28.018  35.087  1.00  0.00     0.041 A 
ATOM     89  F   UNL A   1      45.720  29.559  33.559  1.00  0.00    -0.206 F 
ATOM     90  C   UNL A   1      46.428  26.942  35.953  1.00  0.00     0.022 A 
BRANCH  87  91
ATOM     91  S   UNL A   1      44.889  25.024  37.267  1.00  0.00     0.124 S 
ATOM     92  O   UNL A   1      43.434  24.901  37.247  1.00  0.00    -0.237 OA
ATOM     93  O   UNL A   1      45.630  23.903  36.696  1.00  0.00    -0.237 OA
ATOM     94  O   UNL A   1      45.448  25.573  38.500  1.00  0.00    -0.744 OA
ENDBRANCH  87  91
ENDBRANCH  61  84
ENDBRANCH  35  36
ENDBRANCH  28  30
ENDBRANCH  27  28
ENDBRANCH  26  27
ENDBRANCH  25  26
ENDBRANCH  24  25
ENDBRANCH   1  24
TORSDOF 21
ENDMDL
