MODEL 1
REMARK VINA RESULT:     -10.9      0.000      0.000
REMARK SMILES CCn1ccc([C@@H](C)NC(=O)c2cnn([C@H](C)C(=O)OCCOCCOC(=O)c3ccc(-c4c5nc(c(-c6cc(S(=O)(=O)[O-])ccc6F)c6ccc([nH]6)c(-c6cc(S(=O)(=O)[O-])ccc6F)c6nc(c(-c7cc(S(=O)(=O)[O-])ccc7F)c7ccc4[nH]7)C=C6)C=C5)cc3)c2)n1
REMARK SMILES IDX 22 1 21 2 20 3 18 4 19 5 16 6 17 7 15 8 12 9 13 10 92 11
REMARK SMILES IDX 14 12 10 13 9 14 11 16 7 17 8 18 6 19 3 20 4 21 93 22 5 23
REMARK SMILES IDX 2 24 1 25 23 26 24 27 25 28 26 29 27 30 28 31 29 32 30 33
REMARK SMILES IDX 91 34 31 35 90 36 32 37 33 38 34 39 84 40 35 41 89 42 83 43
REMARK SMILES IDX 85 44 36 45 88 46 82 47 81 48 37 50 69 51 49 52 68 53 50 54
REMARK SMILES IDX 53 55 67 56 86 57 51 58 52 59 66 61 87 62 54 63 38 64 39 65
REMARK SMILES IDX 47 66 40 67 46 68 48 69 45 70 41 71 42 72 43 73 44 74 70 75
REMARK SMILES IDX 71 76 79 77 72 78 78 79 80 80 77 81 73 82 74 83 75 84 76 85
REMARK SMILES IDX 55 86 56 87 64 88 57 89 63 90 65 91 62 92 58 93 59 94 60 95
REMARK SMILES IDX 61 96
REMARK H PARENT 9 15 85 49 53 60
REMARK Flexibility Score: inf
ROOT
ATOM      1  C   UNL A   1      32.309  29.762  26.942  1.00  0.00     0.202 C 
ENDROOT
BRANCH   1   2
ATOM      2  C   UNL A   1      31.588  29.426  25.640  1.00  0.00     0.261 C 
BRANCH   2   3
ATOM      3  O   UNL A   1      31.961  28.132  25.145  1.00  0.00    -0.462 OA
BRANCH   3   4
ATOM      4  C   UNL A   1      31.097  27.121  25.434  1.00  0.00     0.330 C 
ATOM      5  O   UNL A   1      30.815  26.747  26.569  1.00  0.00    -0.250 OA
BRANCH   4   6
ATOM      6  C   UNL A   1      30.464  26.515  24.198  1.00  0.00     0.213 C 
ATOM      7  C   UNL A   1      30.434  27.374  22.940  1.00  0.00     0.046 C 
BRANCH   6   8
ATOM      8  N   UNL A   1      31.064  25.216  23.963  1.00  0.00    -0.258 N 
ATOM      9  C   UNL A   1      32.562  23.659  23.614  1.00  0.00     0.077 A 
ATOM     10  C   UNL A   1      31.287  23.298  23.129  1.00  0.00     0.149 A 
ATOM     11  C   UNL A   1      32.355  24.873  24.234  1.00  0.00     0.123 A 
ATOM     12  N   UNL A   1      30.365  24.234  23.360  1.00  0.00    -0.180 NA
BRANCH   9  13
ATOM     13  C   UNL A   1      33.826  22.974  23.522  1.00  0.00     0.254 C 
ATOM     14  N   UNL A   1      34.116  22.014  24.452  1.00  0.00    -0.344 N 
ATOM     15  H   UNL A   1      35.044  21.684  24.453  1.00  0.00     0.164 HD
ATOM     16  O   UNL A   1      34.630  23.197  22.620  1.00  0.00    -0.269 OA
BRANCH  14  17
ATOM     17  C   UNL A   1      33.228  21.413  25.445  1.00  0.00     0.130 C 
ATOM     18  C   UNL A   1      33.844  21.533  26.834  1.00  0.00     0.038 C 
BRANCH  17  19
ATOM     19  C   UNL A   1      32.960  19.982  25.057  1.00  0.00     0.084 A 
ATOM     20  N   UNL A   1      32.765  17.881  25.308  1.00  0.00    -0.273 N 
ATOM     21  C   UNL A   1      32.459  18.103  23.994  1.00  0.00     0.109 A 
ATOM     22  N   UNL A   1      33.097  19.004  25.965  1.00  0.00    -0.176 NA
ATOM     23  C   UNL A   1      32.573  19.458  23.798  1.00  0.00     0.047 A 
BRANCH  20  24
ATOM     24  C   UNL A   1      32.818  16.586  25.961  1.00  0.00     0.141 C 
ATOM     25  C   UNL A   1      32.793  15.381  25.033  1.00  0.00     0.029 C 
ENDBRANCH  20  24
ENDBRANCH  17  19
ENDBRANCH  14  17
ENDBRANCH   9  13
ENDBRANCH   6   8
ENDBRANCH   4   6
ENDBRANCH   3   4
ENDBRANCH   2   3
ENDBRANCH   1   2
BRANCH   1  26
ATOM     26  O   UNL A   1      32.812  31.086  27.109  1.00  0.00    -0.374 OA
BRANCH  26  27
ATOM     27  C   UNL A   1      34.116  31.307  27.638  1.00  0.00     0.202 C 
BRANCH  27  28
ATOM     28  C   UNL A   1      35.042  30.116  27.840  1.00  0.00     0.261 C 
BRANCH  28  29
ATOM     29  O   UNL A   1      36.390  30.436  27.529  1.00  0.00    -0.460 OA
BRANCH  29  30
ATOM     30  C   UNL A   1      37.244  30.226  28.562  1.00  0.00     0.338 C 
ATOM     31  O   UNL A   1      37.297  30.849  29.602  1.00  0.00    -0.246 OA
BRANCH  30  32
ATOM     32  C   UNL A   1      38.218  29.206  28.163  1.00  0.00     0.060 A 
ATOM     33  C   UNL A   1      38.566  28.300  29.164  1.00  0.00     0.016 A 
ATOM     34  C   UNL A   1      39.010  29.410  27.025  1.00  0.00     0.016 A 
ATOM     35  C   UNL A   1      39.857  27.834  29.177  1.00  0.00     0.010 A 
ATOM     36  C   UNL A   1      40.303  28.951  27.046  1.00  0.00     0.010 A 
ATOM     37  C   UNL A   1      40.736  28.265  28.177  1.00  0.00    -0.014 A 
BRANCH  37  38
ATOM     38  C   UNL A   1      42.114  27.837  28.257  1.00  0.00     0.031 A 
ATOM     39  C   UNL A   1      42.282  26.553  27.551  1.00  0.00     0.074 A 
ATOM     40  C   UNL A   1      43.090  28.569  28.829  1.00  0.00     0.049 A 
ATOM     41  N   UNL A   1      42.282  25.374  28.075  1.00  0.00    -0.248 NA
ATOM     42  C   UNL A   1      42.108  26.555  26.087  1.00  0.00     0.031 C 
ATOM     43  C   UNL A   1      43.016  29.955  29.302  1.00  0.00     0.029 A 
ATOM     44  N   UNL A   1      44.395  28.247  29.042  1.00  0.00    -0.354 N 
ATOM     45  C   UNL A   1      42.445  24.516  26.995  1.00  0.00     0.074 A 
ATOM     46  C   UNL A   1      41.999  25.247  25.847  1.00  0.00     0.031 C 
ATOM     47  C   UNL A   1      44.268  30.420  29.532  1.00  0.00     0.029 A 
ATOM     48  C   UNL A   1      45.215  29.327  29.372  1.00  0.00     0.049 A 
ATOM     49  H   UNL A   1      44.735  27.326  28.969  1.00  0.00     0.167 HD
ATOM     50  C   UNL A   1      43.306  23.466  27.091  1.00  0.00     0.034 A 
ATOM     51  C   UNL A   1      46.574  29.314  29.471  1.00  0.00     0.034 A 
ATOM     52  C   UNL A   1      43.640  23.226  28.478  1.00  0.00     0.049 A 
ATOM     53  C   UNL A   1      46.962  27.902  29.706  1.00  0.00     0.074 A 
ATOM     54  C   UNL A   1      43.003  22.697  29.580  1.00  0.00     0.029 A 
ATOM     55  N   UNL A   1      44.689  23.986  28.939  1.00  0.00    -0.354 N 
ATOM     56  N   UNL A   1      46.629  27.250  30.787  1.00  0.00    -0.248 NA
ATOM     57  C   UNL A   1      47.344  27.062  28.575  1.00  0.00     0.031 C 
ATOM     58  C   UNL A   1      43.594  23.326  30.717  1.00  0.00     0.029 A 
ATOM     59  C   UNL A   1      44.619  24.173  30.294  1.00  0.00     0.049 A 
ATOM     60  H   UNL A   1      45.402  24.351  28.365  1.00  0.00     0.167 HD
ATOM     61  C   UNL A   1      46.347  25.968  30.356  1.00  0.00     0.074 A 
ATOM     62  C   UNL A   1      46.963  25.865  29.037  1.00  0.00     0.031 C 
ATOM     63  C   UNL A   1      45.374  25.224  30.961  1.00  0.00     0.034 A 
BRANCH  50  64
ATOM     64  C   UNL A   1      44.236  23.015  25.974  1.00  0.00     0.023 A 
ATOM     65  C   UNL A   1      44.045  21.710  25.476  1.00  0.00     0.031 A 
ATOM     66  C   UNL A   1      45.440  23.644  25.573  1.00  0.00     0.131 A 
ATOM     67  C   UNL A   1      45.036  21.073  24.708  1.00  0.00     0.055 A 
ATOM     68  C   UNL A   1      46.402  23.022  24.774  1.00  0.00     0.041 A 
ATOM     69  F   UNL A   1      45.814  24.858  25.987  1.00  0.00    -0.206 F 
ATOM     70  C   UNL A   1      46.217  21.720  24.357  1.00  0.00     0.022 A 
BRANCH  67  71
ATOM     71  S   UNL A   1      44.822  19.326  24.288  1.00  0.00     0.124 S 
ATOM     72  O   UNL A   1      46.111  18.764  24.671  1.00  0.00    -0.237 OA
ATOM     73  O   UNL A   1      43.681  18.956  25.119  1.00  0.00    -0.237 OA
ATOM     74  O   UNL A   1      44.558  19.355  22.850  1.00  0.00    -0.744 OA
ENDBRANCH  67  71
ENDBRANCH  50  64
BRANCH  51  75
ATOM     75  C   UNL A   1      47.539  30.357  29.012  1.00  0.00     0.023 A 
ATOM     76  C   UNL A   1      48.458  31.013  29.866  1.00  0.00     0.031 A 
ATOM     77  C   UNL A   1      47.740  30.525  27.623  1.00  0.00     0.131 A 
ATOM     78  C   UNL A   1      49.519  31.782  29.320  1.00  0.00     0.055 A 
ATOM     79  C   UNL A   1      48.792  31.276  27.093  1.00  0.00     0.041 A 
ATOM     80  F   UNL A   1      46.965  29.887  26.731  1.00  0.00    -0.206 F 
ATOM     81  C   UNL A   1      49.693  31.899  27.940  1.00  0.00     0.022 A 
BRANCH  78  82
ATOM     82  S   UNL A   1      50.745  32.603  30.401  1.00  0.00     0.124 S 
ATOM     83  O   UNL A   1      51.916  31.746  30.253  1.00  0.00    -0.237 OA
ATOM     84  O   UNL A   1      50.836  33.935  29.816  1.00  0.00    -0.237 OA
ATOM     85  O   UNL A   1      50.121  32.558  31.724  1.00  0.00    -0.744 OA
ENDBRANCH  78  82
ENDBRANCH  51  75
BRANCH  63  86
ATOM     86  C   UNL A   1      45.010  25.576  32.385  1.00  0.00     0.023 A 
ATOM     87  C   UNL A   1      43.855  26.278  32.797  1.00  0.00     0.031 A 
ATOM     88  C   UNL A   1      45.889  25.119  33.383  1.00  0.00     0.131 A 
ATOM     89  C   UNL A   1      43.624  26.500  34.171  1.00  0.00     0.055 A 
ATOM     90  C   UNL A   1      45.644  25.317  34.738  1.00  0.00     0.041 A 
ATOM     91  F   UNL A   1      47.002  24.443  33.049  1.00  0.00    -0.206 F 
ATOM     92  C   UNL A   1      44.513  26.014  35.137  1.00  0.00     0.022 A 
BRANCH  89  93
ATOM     93  S   UNL A   1      42.179  27.456  34.738  1.00  0.00     0.124 S 
ATOM     94  O   UNL A   1      41.255  26.429  35.208  1.00  0.00    -0.237 OA
ATOM     95  O   UNL A   1      42.754  28.317  35.767  1.00  0.00    -0.237 OA
ATOM     96  O   UNL A   1      41.742  28.161  33.531  1.00  0.00    -0.744 OA
ENDBRANCH  89  93
ENDBRANCH  63  86
ENDBRANCH  37  38
ENDBRANCH  30  32
ENDBRANCH  29  30
ENDBRANCH  28  29
ENDBRANCH  27  28
ENDBRANCH  26  27
ENDBRANCH   1  26
TORSDOF 22
ENDMDL
MODEL 2
REMARK VINA RESULT:     -10.8      1.903      2.695
REMARK SMILES CCn1ccc([C@@H](C)NC(=O)c2cnn([C@H](C)C(=O)OCCOCCOC(=O)c3ccc(-c4c5nc(c(-c6cc(S(=O)(=O)[O-])ccc6F)c6ccc([nH]6)c(-c6cc(S(=O)(=O)[O-])ccc6F)c6nc(c(-c7cc(S(=O)(=O)[O-])ccc7F)c7ccc4[nH]7)C=C6)C=C5)cc3)c2)n1
REMARK SMILES IDX 22 1 21 2 20 3 18 4 19 5 16 6 17 7 15 8 12 9 13 10 92 11
REMARK SMILES IDX 14 12 10 13 9 14 11 16 7 17 8 18 6 19 3 20 4 21 93 22 5 23
REMARK SMILES IDX 2 24 1 25 23 26 24 27 25 28 26 29 27 30 28 31 29 32 30 33
REMARK SMILES IDX 91 34 31 35 90 36 32 37 33 38 34 39 84 40 35 41 89 42 83 43
REMARK SMILES IDX 85 44 36 45 88 46 82 47 81 48 37 50 69 51 49 52 68 53 50 54
REMARK SMILES IDX 53 55 67 56 86 57 51 58 52 59 66 61 87 62 54 63 38 64 39 65
REMARK SMILES IDX 47 66 40 67 46 68 48 69 45 70 41 71 42 72 43 73 44 74 70 75
REMARK SMILES IDX 71 76 79 77 72 78 78 79 80 80 77 81 73 82 74 83 75 84 76 85
REMARK SMILES IDX 55 86 56 87 64 88 57 89 63 90 65 91 62 92 58 93 59 94 60 95
REMARK SMILES IDX 61 96
REMARK H PARENT 9 15 85 49 53 60
REMARK Flexibility Score: inf
ROOT
ATOM      1  C   UNL A   1      32.798  29.815  26.154  1.00  0.00     0.202 C 
ENDROOT
BRANCH   1   2
ATOM      2  C   UNL A   1      31.553  29.375  25.389  1.00  0.00     0.261 C 
BRANCH   2   3
ATOM      3  O   UNL A   1      31.587  27.974  25.082  1.00  0.00    -0.462 OA
BRANCH   3   4
ATOM      4  C   UNL A   1      31.011  27.156  26.005  1.00  0.00     0.330 C 
ATOM      5  O   UNL A   1      31.020  27.355  27.217  1.00  0.00    -0.250 OA
BRANCH   4   6
ATOM      6  C   UNL A   1      30.300  25.973  25.382  1.00  0.00     0.213 C 
ATOM      7  C   UNL A   1      30.522  25.733  23.894  1.00  0.00     0.046 C 
BRANCH   6   8
ATOM      8  N   UNL A   1      30.582  24.794  26.177  1.00  0.00    -0.258 N 
ATOM      9  C   UNL A   1      31.614  23.045  26.993  1.00  0.00     0.077 A 
ATOM     10  C   UNL A   1      30.213  22.958  27.135  1.00  0.00     0.149 A 
ATOM     11  C   UNL A   1      31.821  24.295  26.452  1.00  0.00     0.123 A 
ATOM     12  N   UNL A   1      29.581  24.032  26.660  1.00  0.00    -0.180 NA
BRANCH   9  13
ATOM     13  C   UNL A   1      32.648  22.093  27.315  1.00  0.00     0.254 C 
ATOM     14  N   UNL A   1      32.898  21.080  26.431  1.00  0.00    -0.344 N 
ATOM     15  H   UNL A   1      33.493  20.366  26.755  1.00  0.00     0.164 HD
ATOM     16  O   UNL A   1      33.332  22.185  28.332  1.00  0.00    -0.269 OA
BRANCH  14  17
ATOM     17  C   UNL A   1      32.396  20.918  25.068  1.00  0.00     0.130 C 
ATOM     18  C   UNL A   1      32.459  19.451  24.661  1.00  0.00     0.038 C 
BRANCH  17  19
ATOM     19  C   UNL A   1      33.194  21.804  24.147  1.00  0.00     0.084 A 
ATOM     20  N   UNL A   1      34.916  22.726  23.308  1.00  0.00    -0.273 N 
ATOM     21  C   UNL A   1      33.871  23.214  22.575  1.00  0.00     0.109 A 
ATOM     22  N   UNL A   1      34.526  21.889  24.283  1.00  0.00    -0.176 NA
ATOM     23  C   UNL A   1      32.737  22.633  23.091  1.00  0.00     0.047 A 
BRANCH  20  24
ATOM     24  C   UNL A   1      36.311  23.093  23.149  1.00  0.00     0.141 C 
ATOM     25  C   UNL A   1      37.098  23.258  24.440  1.00  0.00     0.029 C 
ENDBRANCH  20  24
ENDBRANCH  17  19
ENDBRANCH  14  17
ENDBRANCH   9  13
ENDBRANCH   6   8
ENDBRANCH   4   6
ENDBRANCH   3   4
ENDBRANCH   2   3
ENDBRANCH   1   2
BRANCH   1  26
ATOM     26  O   UNL A   1      33.923  28.938  26.169  1.00  0.00    -0.374 OA
BRANCH  26  27
ATOM     27  C   UNL A   1      35.152  29.344  26.764  1.00  0.00     0.202 C 
BRANCH  27  28
ATOM     28  C   UNL A   1      35.120  30.104  28.081  1.00  0.00     0.261 C 
BRANCH  28  29
ATOM     29  O   UNL A   1      35.936  29.489  29.066  1.00  0.00    -0.460 OA
BRANCH  29  30
ATOM     30  C   UNL A   1      37.181  30.021  29.141  1.00  0.00     0.338 C 
ATOM     31  O   UNL A   1      37.474  31.142  29.498  1.00  0.00    -0.246 OA
BRANCH  30  32
ATOM     32  C   UNL A   1      38.133  29.064  28.568  1.00  0.00     0.060 A 
ATOM     33  C   UNL A   1      38.648  28.133  29.470  1.00  0.00     0.016 A 
ATOM     34  C   UNL A   1      38.757  29.352  27.346  1.00  0.00     0.016 A 
ATOM     35  C   UNL A   1      39.947  27.727  29.289  1.00  0.00     0.010 A 
ATOM     36  C   UNL A   1      40.058  28.953  27.175  1.00  0.00     0.010 A 
ATOM     37  C   UNL A   1      40.666  28.240  28.204  1.00  0.00    -0.014 A 
BRANCH  37  38
ATOM     38  C   UNL A   1      42.058  27.872  28.081  1.00  0.00     0.031 A 
ATOM     39  C   UNL A   1      42.171  26.532  27.476  1.00  0.00     0.074 A 
ATOM     40  C   UNL A   1      43.077  28.693  28.405  1.00  0.00     0.049 A 
ATOM     41  N   UNL A   1      42.324  25.411  28.096  1.00  0.00    -0.248 NA
ATOM     42  C   UNL A   1      41.750  26.383  26.071  1.00  0.00     0.031 C 
ATOM     43  C   UNL A   1      43.011  30.115  28.754  1.00  0.00     0.029 A 
ATOM     44  N   UNL A   1      44.415  28.442  28.414  1.00  0.00    -0.354 N 
ATOM     45  C   UNL A   1      42.345  24.457  27.087  1.00  0.00     0.074 A 
ATOM     46  C   UNL A   1      41.672  25.055  25.973  1.00  0.00     0.031 C 
ATOM     47  C   UNL A   1      44.257  30.646  28.720  1.00  0.00     0.029 A 
ATOM     48  C   UNL A   1      45.220  29.578  28.496  1.00  0.00     0.049 A 
ATOM     49  H   UNL A   1      44.785  27.531  28.367  1.00  0.00     0.167 HD
ATOM     50  C   UNL A   1      43.264  23.455  27.126  1.00  0.00     0.034 A 
ATOM     51  C   UNL A   1      46.575  29.625  28.357  1.00  0.00     0.034 A 
ATOM     52  C   UNL A   1      43.842  23.365  28.450  1.00  0.00     0.049 A 
ATOM     53  C   UNL A   1      47.072  28.258  28.648  1.00  0.00     0.074 A 
ATOM     54  C   UNL A   1      43.432  22.925  29.690  1.00  0.00     0.029 A 
ATOM     55  N   UNL A   1      44.913  24.204  28.649  1.00  0.00    -0.354 N 
ATOM     56  N   UNL A   1      46.963  27.704  29.825  1.00  0.00    -0.248 NA
ATOM     57  C   UNL A   1      47.300  27.325  27.549  1.00  0.00     0.031 C 
ATOM     58  C   UNL A   1      44.174  23.684  30.644  1.00  0.00     0.029 A 
ATOM     59  C   UNL A   1      45.065  24.522  29.973  1.00  0.00     0.049 A 
ATOM     60  H   UNL A   1      45.497  24.537  27.929  1.00  0.00     0.167 HD
ATOM     61  C   UNL A   1      46.680  26.376  29.568  1.00  0.00     0.074 A 
ATOM     62  C   UNL A   1      47.067  26.167  28.177  1.00  0.00     0.031 C 
ATOM     63  C   UNL A   1      45.866  25.660  30.399  1.00  0.00     0.034 A 
BRANCH  50  64
ATOM     64  C   UNL A   1      44.013  22.929  25.909  1.00  0.00     0.023 A 
ATOM     65  C   UNL A   1      44.033  21.532  25.730  1.00  0.00     0.031 A 
ATOM     66  C   UNL A   1      44.920  23.656  25.098  1.00  0.00     0.131 A 
ATOM     67  C   UNL A   1      44.959  20.923  24.863  1.00  0.00     0.055 A 
ATOM     68  C   UNL A   1      45.807  23.049  24.207  1.00  0.00     0.041 A 
ATOM     69  F   UNL A   1      45.076  24.981  25.168  1.00  0.00    -0.206 F 
ATOM     70  C   UNL A   1      45.850  21.674  24.102  1.00  0.00     0.022 A 
BRANCH  67  71
ATOM     71  S   UNL A   1      45.078  19.118  24.845  1.00  0.00     0.124 S 
ATOM     72  O   UNL A   1      45.014  18.827  23.418  1.00  0.00    -0.237 OA
ATOM     73  O   UNL A   1      46.366  18.898  25.494  1.00  0.00    -0.237 OA
ATOM     74  O   UNL A   1      43.913  18.695  25.620  1.00  0.00    -0.744 OA
ENDBRANCH  67  71
ENDBRANCH  50  64
BRANCH  51  75
ATOM     75  C   UNL A   1      47.390  30.652  27.644  1.00  0.00     0.023 A 
ATOM     76  C   UNL A   1      46.843  31.800  27.022  1.00  0.00     0.031 A 
ATOM     77  C   UNL A   1      48.793  30.634  27.809  1.00  0.00     0.131 A 
ATOM     78  C   UNL A   1      47.691  32.862  26.608  1.00  0.00     0.055 A 
ATOM     79  C   UNL A   1      49.619  31.687  27.408  1.00  0.00     0.041 A 
ATOM     80  F   UNL A   1      49.399  29.622  28.451  1.00  0.00    -0.206 F 
ATOM     81  C   UNL A   1      49.070  32.810  26.815  1.00  0.00     0.022 A 
BRANCH  78  82
ATOM     82  S   UNL A   1      47.006  34.375  25.842  1.00  0.00     0.124 S 
ATOM     83  O   UNL A   1      45.793  33.879  25.200  1.00  0.00    -0.237 OA
ATOM     84  O   UNL A   1      46.821  35.252  26.991  1.00  0.00    -0.237 OA
ATOM     85  O   UNL A   1      48.057  34.796  24.914  1.00  0.00    -0.744 OA
ENDBRANCH  78  82
ENDBRANCH  51  75
BRANCH  63  86
ATOM     86  C   UNL A   1      45.731  26.138  31.827  1.00  0.00     0.023 A 
ATOM     87  C   UNL A   1      44.620  26.818  32.374  1.00  0.00     0.031 A 
ATOM     88  C   UNL A   1      46.800  25.832  32.688  1.00  0.00     0.131 A 
ATOM     89  C   UNL A   1      44.617  27.167  33.741  1.00  0.00     0.055 A 
ATOM     90  C   UNL A   1      46.782  26.155  34.041  1.00  0.00     0.041 A 
ATOM     91  F   UNL A   1      47.883  25.185  32.223  1.00  0.00    -0.206 F 
ATOM     92  C   UNL A   1      45.692  26.830  34.572  1.00  0.00     0.022 A 
BRANCH  89  93
ATOM     93  S   UNL A   1      43.230  28.099  34.468  1.00  0.00     0.124 S 
ATOM     94  O   UNL A   1      43.819  28.720  35.650  1.00  0.00    -0.237 OA
ATOM     95  O   UNL A   1      42.859  29.007  33.387  1.00  0.00    -0.237 OA
ATOM     96  O   UNL A   1      42.236  27.063  34.758  1.00  0.00    -0.744 OA
ENDBRANCH  89  93
ENDBRANCH  63  86
ENDBRANCH  37  38
ENDBRANCH  30  32
ENDBRANCH  29  30
ENDBRANCH  28  29
ENDBRANCH  27  28
ENDBRANCH  26  27
ENDBRANCH   1  26
TORSDOF 22
ENDMDL
MODEL 3
REMARK VINA RESULT:     -10.7      3.444      8.583
REMARK SMILES CCn1ccc([C@@H](C)NC(=O)c2cnn([C@H](C)C(=O)OCCOCCOC(=O)c3ccc(-c4c5nc(c(-c6cc(S(=O)(=O)[O-])ccc6F)c6ccc([nH]6)c(-c6cc(S(=O)(=O)[O-])ccc6F)c6nc(c(-c7cc(S(=O)(=O)[O-])ccc7F)c7ccc4[nH]7)C=C6)C=C5)cc3)c2)n1
REMARK SMILES IDX 22 1 21 2 20 3 18 4 19 5 16 6 17 7 15 8 12 9 13 10 92 11
REMARK SMILES IDX 14 12 10 13 9 14 11 16 7 17 8 18 6 19 3 20 4 21 93 22 5 23
REMARK SMILES IDX 2 24 1 25 23 26 24 27 25 28 26 29 27 30 28 31 29 32 30 33
REMARK SMILES IDX 91 34 31 35 90 36 32 37 33 38 34 39 84 40 35 41 89 42 83 43
REMARK SMILES IDX 85 44 36 45 88 46 82 47 81 48 37 50 69 51 49 52 68 53 50 54
REMARK SMILES IDX 53 55 67 56 86 57 51 58 52 59 66 61 87 62 54 63 38 64 39 65
REMARK SMILES IDX 47 66 40 67 46 68 48 69 45 70 41 71 42 72 43 73 44 74 70 75
REMARK SMILES IDX 71 76 79 77 72 78 78 79 80 80 77 81 73 82 74 83 75 84 76 85
REMARK SMILES IDX 55 86 56 87 64 88 57 89 63 90 65 91 62 92 58 93 59 94 60 95
REMARK SMILES IDX 61 96
REMARK H PARENT 9 15 85 49 53 60
REMARK Flexibility Score: inf
ROOT
ATOM      1  C   UNL A   1      34.899  22.160  23.932  1.00  0.00     0.202 C 
ENDROOT
BRANCH   1   2
ATOM      2  C   UNL A   1      34.318  20.935  24.630  1.00  0.00     0.261 C 
BRANCH   2   3
ATOM      3  O   UNL A   1      32.894  21.034  24.779  1.00  0.00    -0.462 OA
BRANCH   3   4
ATOM      4  C   UNL A   1      32.464  21.804  25.816  1.00  0.00     0.330 C 
ATOM      5  O   UNL A   1      33.008  21.861  26.915  1.00  0.00    -0.250 OA
BRANCH   4   6
ATOM      6  C   UNL A   1      31.252  22.642  25.465  1.00  0.00     0.213 C 
ATOM      7  C   UNL A   1      30.292  22.984  26.597  1.00  0.00     0.046 C 
BRANCH   6   8
ATOM      8  N   UNL A   1      31.698  23.820  24.747  1.00  0.00    -0.258 N 
ATOM      9  C   UNL A   1      31.999  25.277  23.142  1.00  0.00     0.077 A 
ATOM     10  C   UNL A   1      33.019  25.330  24.116  1.00  0.00     0.149 A 
ATOM     11  C   UNL A   1      31.109  24.348  23.637  1.00  0.00     0.123 A 
ATOM     12  N   UNL A   1      32.827  24.460  25.108  1.00  0.00    -0.180 NA
BRANCH   9  13
ATOM     13  C   UNL A   1      31.854  25.992  21.899  1.00  0.00     0.254 C 
ATOM     14  N   UNL A   1      31.002  27.060  21.859  1.00  0.00    -0.344 N 
ATOM     15  H   UNL A   1      30.809  27.421  20.963  1.00  0.00     0.164 HD
ATOM     16  O   UNL A   1      32.496  25.698  20.893  1.00  0.00    -0.269 OA
BRANCH  14  17
ATOM     17  C   UNL A   1      30.338  27.736  22.971  1.00  0.00     0.130 C 
ATOM     18  C   UNL A   1      29.403  28.816  22.440  1.00  0.00     0.038 C 
BRANCH  17  19
ATOM     19  C   UNL A   1      31.387  28.291  23.899  1.00  0.00     0.084 A 
ATOM     20  N   UNL A   1      32.382  28.673  25.738  1.00  0.00    -0.273 N 
ATOM     21  C   UNL A   1      33.146  29.302  24.794  1.00  0.00     0.109 A 
ATOM     22  N   UNL A   1      31.296  28.076  25.220  1.00  0.00    -0.176 NA
ATOM     23  C   UNL A   1      32.530  29.071  23.588  1.00  0.00     0.047 A 
BRANCH  20  24
ATOM     24  C   UNL A   1      32.623  28.681  27.170  1.00  0.00     0.141 C 
ATOM     25  C   UNL A   1      34.015  29.119  27.598  1.00  0.00     0.029 C 
ENDBRANCH  20  24
ENDBRANCH  17  19
ENDBRANCH  14  17
ENDBRANCH   9  13
ENDBRANCH   6   8
ENDBRANCH   4   6
ENDBRANCH   3   4
ENDBRANCH   2   3
ENDBRANCH   1   2
BRANCH   1  26
ATOM     26  O   UNL A   1      36.243  22.532  24.234  1.00  0.00    -0.374 OA
BRANCH  26  27
ATOM     27  C   UNL A   1      36.927  21.948  25.339  1.00  0.00     0.202 C 
BRANCH  27  28
ATOM     28  C   UNL A   1      38.054  20.960  25.072  1.00  0.00     0.261 C 
BRANCH  28  29
ATOM     29  O   UNL A   1      38.846  20.738  26.228  1.00  0.00    -0.460 OA
BRANCH  29  30
ATOM     30  C   UNL A   1      40.043  20.160  25.957  1.00  0.00     0.338 C 
ATOM     31  O   UNL A   1      40.230  19.077  25.445  1.00  0.00    -0.246 OA
BRANCH  30  32
ATOM     32  C   UNL A   1      41.105  20.996  26.526  1.00  0.00     0.060 A 
ATOM     33  C   UNL A   1      41.231  20.924  27.912  1.00  0.00     0.016 A 
ATOM     34  C   UNL A   1      41.630  22.058  25.777  1.00  0.00     0.016 A 
ATOM     35  C   UNL A   1      41.605  22.067  28.575  1.00  0.00     0.010 A 
ATOM     36  C   UNL A   1      41.992  23.201  26.442  1.00  0.00     0.010 A 
ATOM     37  C   UNL A   1      41.865  23.221  27.828  1.00  0.00    -0.014 A 
BRANCH  37  38
ATOM     38  C   UNL A   1      42.168  24.438  28.547  1.00  0.00     0.031 A 
ATOM     39  C   UNL A   1      41.112  25.438  28.307  1.00  0.00     0.074 A 
ATOM     40  C   UNL A   1      43.226  24.572  29.371  1.00  0.00     0.049 A 
ATOM     41  N   UNL A   1      41.131  26.395  27.442  1.00  0.00    -0.248 NA
ATOM     42  C   UNL A   1      39.771  25.155  28.853  1.00  0.00     0.031 C 
ATOM     43  C   UNL A   1      44.141  23.527  29.839  1.00  0.00     0.029 A 
ATOM     44  N   UNL A   1      43.665  25.677  30.034  1.00  0.00    -0.354 N 
ATOM     45  C   UNL A   1      39.903  27.025  27.595  1.00  0.00     0.074 A 
ATOM     46  C   UNL A   1      39.038  26.051  28.190  1.00  0.00     0.031 C 
ATOM     47  C   UNL A   1      44.876  24.002  30.874  1.00  0.00     0.029 A 
ATOM     48  C   UNL A   1      44.595  25.419  31.042  1.00  0.00     0.049 A 
ATOM     49  H   UNL A   1      43.352  26.586  29.820  1.00  0.00     0.167 HD
ATOM     50  C   UNL A   1      39.839  28.385  27.608  1.00  0.00     0.034 A 
ATOM     51  C   UNL A   1      45.065  26.311  31.959  1.00  0.00     0.034 A 
ATOM     52  C   UNL A   1      41.068  28.942  27.084  1.00  0.00     0.049 A 
ATOM     53  C   UNL A   1      44.853  27.660  31.379  1.00  0.00     0.074 A 
ATOM     54  C   UNL A   1      41.660  29.064  25.846  1.00  0.00     0.029 A 
ATOM     55  N   UNL A   1      42.059  29.090  28.026  1.00  0.00    -0.354 N 
ATOM     56  N   UNL A   1      45.467  28.067  30.300  1.00  0.00    -0.248 NA
ATOM     57  C   UNL A   1      43.650  28.411  31.721  1.00  0.00     0.031 C 
ATOM     58  C   UNL A   1      43.067  29.096  26.083  1.00  0.00     0.029 A 
ATOM     59  C   UNL A   1      43.305  29.060  27.457  1.00  0.00     0.049 A 
ATOM     60  H   UNL A   1      41.893  29.202  28.991  1.00  0.00     0.167 HD
ATOM     61  C   UNL A   1      44.525  28.810  29.615  1.00  0.00     0.074 A 
ATOM     62  C   UNL A   1      43.499  29.129  30.603  1.00  0.00     0.031 C 
ATOM     63  C   UNL A   1      44.502  28.823  28.249  1.00  0.00     0.034 A 
BRANCH  50  64
ATOM     64  C   UNL A   1      38.950  29.193  28.542  1.00  0.00     0.023 A 
ATOM     65  C   UNL A   1      39.214  29.085  29.922  1.00  0.00     0.031 A 
ATOM     66  C   UNL A   1      37.722  29.816  28.208  1.00  0.00     0.131 A 
ATOM     67  C   UNL A   1      38.267  29.499  30.877  1.00  0.00     0.055 A 
ATOM     68  C   UNL A   1      36.806  30.264  29.161  1.00  0.00     0.041 A 
ATOM     69  F   UNL A   1      37.282  29.959  26.954  1.00  0.00    -0.206 F 
ATOM     70  C   UNL A   1      37.061  30.084  30.505  1.00  0.00     0.022 A 
BRANCH  67  71
ATOM     71  S   UNL A   1      38.575  29.132  32.622  1.00  0.00     0.124 S 
ATOM     72  O   UNL A   1      37.472  28.233  32.939  1.00  0.00    -0.237 OA
ATOM     73  O   UNL A   1      39.904  28.533  32.572  1.00  0.00    -0.237 OA
ATOM     74  O   UNL A   1      38.510  30.446  33.260  1.00  0.00    -0.744 OA
ENDBRANCH  67  71
ENDBRANCH  50  64
BRANCH  51  75
ATOM     75  C   UNL A   1      45.327  26.083  33.411  1.00  0.00     0.023 A 
ATOM     76  C   UNL A   1      44.353  26.251  34.425  1.00  0.00     0.031 A 
ATOM     77  C   UNL A   1      46.516  25.418  33.786  1.00  0.00     0.131 A 
ATOM     78  C   UNL A   1      44.589  25.756  35.734  1.00  0.00     0.055 A 
ATOM     79  C   UNL A   1      46.738  24.925  35.074  1.00  0.00     0.041 A 
ATOM     80  F   UNL A   1      47.470  25.147  32.880  1.00  0.00    -0.206 F 
ATOM     81  C   UNL A   1      45.771  25.083  36.052  1.00  0.00     0.022 A 
BRANCH  78  82
ATOM     82  S   UNL A   1      43.330  25.922  37.050  1.00  0.00     0.124 S 
ATOM     83  O   UNL A   1      43.233  27.368  37.210  1.00  0.00    -0.237 OA
ATOM     84  O   UNL A   1      42.174  25.254  36.463  1.00  0.00    -0.237 OA
ATOM     85  O   UNL A   1      43.928  25.221  38.188  1.00  0.00    -0.744 OA
ENDBRANCH  78  82
ENDBRANCH  51  75
BRANCH  63  86
ATOM     86  C   UNL A   1      45.786  28.487  27.526  1.00  0.00     0.023 A 
ATOM     87  C   UNL A   1      46.098  27.251  26.918  1.00  0.00     0.031 A 
ATOM     88  C   UNL A   1      46.730  29.525  27.420  1.00  0.00     0.131 A 
ATOM     89  C   UNL A   1      47.325  27.095  26.238  1.00  0.00     0.055 A 
ATOM     90  C   UNL A   1      47.926  29.375  26.727  1.00  0.00     0.041 A 
ATOM     91  F   UNL A   1      46.486  30.724  27.977  1.00  0.00    -0.206 F 
ATOM     92  C   UNL A   1      48.231  28.156  26.138  1.00  0.00     0.022 A 
BRANCH  89  93
ATOM     93  S   UNL A   1      47.789  25.496  25.495  1.00  0.00     0.124 S 
ATOM     94  O   UNL A   1      47.822  24.587  26.636  1.00  0.00    -0.237 OA
ATOM     95  O   UNL A   1      46.716  25.273  24.531  1.00  0.00    -0.237 OA
ATOM     96  O   UNL A   1      49.097  25.766  24.895  1.00  0.00    -0.744 OA
ENDBRANCH  89  93
ENDBRANCH  63  86
ENDBRANCH  37  38
ENDBRANCH  30  32
ENDBRANCH  29  30
ENDBRANCH  28  29
ENDBRANCH  27  28
ENDBRANCH  26  27
ENDBRANCH   1  26
TORSDOF 22
ENDMDL
