MODEL 1
REMARK VINA RESULT:     -10.3      0.000      0.000
REMARK SMILES CCCc1nsc(N2CCO[C@H](CC(=O)OCCOCCOC(=O)c3ccc(-c4c5nc(c(-c6cc(S(=O)(=O)[O-])ccc6F)c6ccc([nH]6)c(-c6cc(S(=O)(=O)[O-])ccc6F)c6nc(c(-c7cc(S(=O)(=O)[O-])ccc7F)c7ccc4[nH]7)C=C6)C=C5)cc3)C2)n1
REMARK SMILES IDX 18 1 17 2 16 3 14 4 15 5 13 6 12 7 8 8 9 9 88 10 10 11 11 12
REMARK SMILES IDX 7 13 4 14 5 15 89 16 6 17 3 18 2 19 1 20 19 21 20 22 21 23
REMARK SMILES IDX 22 24 23 25 24 26 25 27 26 28 87 29 27 30 86 31 28 32 29 33
REMARK SMILES IDX 30 34 80 35 31 36 85 37 79 38 81 39 32 40 84 41 78 42 77 43
REMARK SMILES IDX 33 45 65 46 45 47 64 48 46 49 49 50 63 51 82 52 47 53 48 54
REMARK SMILES IDX 62 56 83 57 50 58 34 59 35 60 43 61 36 62 42 63 44 64 41 65
REMARK SMILES IDX 37 66 38 67 39 68 40 69 66 70 67 71 75 72 68 73 74 74 76 75
REMARK SMILES IDX 73 76 69 77 70 78 71 79 72 80 51 81 52 82 60 83 53 84 59 85
REMARK SMILES IDX 61 86 58 87 54 88 55 89 56 90 57 91
REMARK H PARENT 81 44 49 55
REMARK Flexibility Score: inf
ROOT
ATOM      1  C   UNL A   1      32.286  29.240  24.814  1.00  0.00     0.202 C 
ENDROOT
BRANCH   1   2
ATOM      2  C   UNL A   1      31.749  27.806  24.817  1.00  0.00     0.261 C 
BRANCH   2   3
ATOM      3  O   UNL A   1      32.172  27.028  25.959  1.00  0.00    -0.463 OA
BRANCH   3   4
ATOM      4  C   UNL A   1      31.527  25.845  26.110  1.00  0.00     0.308 C 
ATOM      5  O   UNL A   1      30.361  25.726  26.478  1.00  0.00    -0.252 OA
BRANCH   4   6
ATOM      6  C   UNL A   1      32.368  24.626  25.841  1.00  0.00     0.156 C 
BRANCH   6   7
ATOM      7  C   UNL A   1      33.861  24.769  25.541  1.00  0.00     0.148 C 
ATOM      8  N   UNL A   1      34.397  22.565  24.515  1.00  0.00    -0.342 N 
ATOM      9  C   UNL A   1      34.998  22.098  25.762  1.00  0.00     0.147 C 
ATOM     10  C   UNL A   1      34.396  24.011  24.311  1.00  0.00     0.151 C 
ATOM     11  C   UNL A   1      34.533  22.944  26.958  1.00  0.00     0.182 C 
ATOM     12  O   UNL A   1      34.626  24.360  26.709  1.00  0.00    -0.374 OA
BRANCH   8  13
ATOM     13  C   UNL A   1      33.527  21.768  23.856  1.00  0.00     0.205 A 
ATOM     14  C   UNL A   1      32.448  19.993  23.128  1.00  0.00     0.144 A 
ATOM     15  N   UNL A   1      31.870  20.832  22.265  1.00  0.00    -0.174 NA
ATOM     16  N   UNL A   1      33.352  20.484  24.066  1.00  0.00    -0.203 NA
ATOM     17  S   UNL A   1      32.515  22.339  22.572  1.00  0.00     0.004 S 
BRANCH  14  18
ATOM     18  C   UNL A   1      32.150  18.531  23.070  1.00  0.00     0.078 C 
BRANCH  18  19
ATOM     19  C   UNL A   1      33.082  17.696  23.953  1.00  0.00     0.005 C 
ATOM     20  C   UNL A   1      34.117  16.910  23.158  1.00  0.00     0.004 C 
ENDBRANCH  18  19
ENDBRANCH  14  18
ENDBRANCH   8  13
ENDBRANCH   6   7
ENDBRANCH   4   6
ENDBRANCH   3   4
ENDBRANCH   2   3
ENDBRANCH   1   2
BRANCH   1  21
ATOM     21  O   UNL A   1      31.492  30.226  25.471  1.00  0.00    -0.374 OA
BRANCH  21  22
ATOM     22  C   UNL A   1      32.043  30.821  26.646  1.00  0.00     0.202 C 
BRANCH  22  23
ATOM     23  C   UNL A   1      31.750  32.316  26.844  1.00  0.00     0.261 C 
BRANCH  23  24
ATOM     24  O   UNL A   1      32.947  33.114  26.782  1.00  0.00    -0.460 OA
BRANCH  24  25
ATOM     25  C   UNL A   1      33.428  33.485  27.994  1.00  0.00     0.338 C 
ATOM     26  O   UNL A   1      32.844  34.153  28.841  1.00  0.00    -0.246 OA
BRANCH  25  27
ATOM     27  C   UNL A   1      34.704  32.804  28.271  1.00  0.00     0.060 A 
ATOM     28  C   UNL A   1      34.638  31.484  28.737  1.00  0.00     0.016 A 
ATOM     29  C   UNL A   1      35.933  33.458  28.168  1.00  0.00     0.016 A 
ATOM     30  C   UNL A   1      35.796  30.831  29.152  1.00  0.00     0.010 A 
ATOM     31  C   UNL A   1      37.097  32.801  28.591  1.00  0.00     0.010 A 
ATOM     32  C   UNL A   1      37.028  31.498  29.122  1.00  0.00    -0.014 A 
BRANCH  32  33
ATOM     33  C   UNL A   1      38.196  30.876  29.798  1.00  0.00     0.031 A 
ATOM     34  C   UNL A   1      38.483  31.228  31.234  1.00  0.00     0.074 A 
ATOM     35  C   UNL A   1      38.954  29.963  29.165  1.00  0.00     0.049 A 
ATOM     36  N   UNL A   1      39.416  30.774  32.032  1.00  0.00    -0.248 NA
ATOM     37  C   UNL A   1      37.597  32.228  31.845  1.00  0.00     0.031 C 
ATOM     38  C   UNL A   1      38.758  29.520  27.786  1.00  0.00     0.029 A 
ATOM     39  N   UNL A   1      40.038  29.245  29.601  1.00  0.00    -0.354 N 
ATOM     40  C   UNL A   1      39.223  31.425  33.246  1.00  0.00     0.074 A 
ATOM     41  C   UNL A   1      38.120  32.345  33.055  1.00  0.00     0.031 C 
ATOM     42  C   UNL A   1      39.701  28.610  27.484  1.00  0.00     0.029 A 
ATOM     43  C   UNL A   1      40.580  28.427  28.638  1.00  0.00     0.049 A 
ATOM     44  H   UNL A   1      40.394  29.309  30.517  1.00  0.00     0.167 HD
ATOM     45  C   UNL A   1      39.891  31.261  34.416  1.00  0.00     0.034 A 
ATOM     46  C   UNL A   1      41.672  27.636  28.676  1.00  0.00     0.034 A 
ATOM     47  C   UNL A   1      41.006  30.358  34.583  1.00  0.00     0.049 A 
ATOM     48  C   UNL A   1      42.461  27.530  29.956  1.00  0.00     0.074 A 
ATOM     49  C   UNL A   1      41.740  30.091  35.725  1.00  0.00     0.029 A 
ATOM     50  N   UNL A   1      41.567  29.592  33.567  1.00  0.00    -0.354 N 
ATOM     51  N   UNL A   1      42.248  28.126  31.108  1.00  0.00    -0.248 NA
ATOM     52  C   UNL A   1      43.627  26.639  29.944  1.00  0.00     0.031 C 
ATOM     53  C   UNL A   1      42.788  29.226  35.385  1.00  0.00     0.029 A 
ATOM     54  C   UNL A   1      42.663  28.889  34.046  1.00  0.00     0.049 A 
ATOM     55  H   UNL A   1      41.233  29.553  32.642  1.00  0.00     0.167 HD
ATOM     56  C   UNL A   1      43.250  27.671  31.962  1.00  0.00     0.074 A 
ATOM     57  C   UNL A   1      44.052  26.737  31.196  1.00  0.00     0.031 C 
ATOM     58  C   UNL A   1      43.481  27.990  33.261  1.00  0.00     0.034 A 
BRANCH  45  59
ATOM     59  C   UNL A   1      39.458  32.122  35.580  1.00  0.00     0.023 A 
ATOM     60  C   UNL A   1      38.759  31.586  36.677  1.00  0.00     0.031 A 
ATOM     61  C   UNL A   1      39.685  33.510  35.563  1.00  0.00     0.131 A 
ATOM     62  C   UNL A   1      38.230  32.441  37.657  1.00  0.00     0.055 A 
ATOM     63  C   UNL A   1      39.232  34.344  36.587  1.00  0.00     0.041 A 
ATOM     64  F   UNL A   1      40.328  34.084  34.534  1.00  0.00    -0.206 F 
ATOM     65  C   UNL A   1      38.481  33.814  37.632  1.00  0.00     0.022 A 
BRANCH  62  66
ATOM     66  S   UNL A   1      37.057  31.755  38.862  1.00  0.00     0.124 S 
ATOM     67  O   UNL A   1      36.757  30.452  38.274  1.00  0.00    -0.237 OA
ATOM     68  O   UNL A   1      37.842  31.739  40.090  1.00  0.00    -0.237 OA
ATOM     69  O   UNL A   1      35.949  32.709  38.840  1.00  0.00    -0.744 OA
ENDBRANCH  62  66
ENDBRANCH  45  59
BRANCH  46  70
ATOM     70  C   UNL A   1      42.112  26.925  27.442  1.00  0.00     0.023 A 
ATOM     71  C   UNL A   1      41.981  25.536  27.305  1.00  0.00     0.031 A 
ATOM     72  C   UNL A   1      42.682  27.646  26.377  1.00  0.00     0.131 A 
ATOM     73  C   UNL A   1      42.434  24.906  26.134  1.00  0.00     0.055 A 
ATOM     74  C   UNL A   1      43.094  27.021  25.199  1.00  0.00     0.041 A 
ATOM     75  F   UNL A   1      42.826  28.979  26.459  1.00  0.00    -0.206 F 
ATOM     76  C   UNL A   1      42.976  25.641  25.076  1.00  0.00     0.022 A 
BRANCH  73  77
ATOM     77  S   UNL A   1      42.338  23.098  26.021  1.00  0.00     0.124 S 
ATOM     78  O   UNL A   1      42.896  22.852  24.696  1.00  0.00    -0.237 OA
ATOM     79  O   UNL A   1      43.159  22.679  27.153  1.00  0.00    -0.237 OA
ATOM     80  O   UNL A   1      40.909  22.823  26.157  1.00  0.00    -0.744 OA
ENDBRANCH  73  77
ENDBRANCH  46  70
BRANCH  58  81
ATOM     81  C   UNL A   1      44.650  27.311  33.936  1.00  0.00     0.023 A 
ATOM     82  C   UNL A   1      44.527  26.038  34.519  1.00  0.00     0.031 A 
ATOM     83  C   UNL A   1      45.900  27.952  34.006  1.00  0.00     0.131 A 
ATOM     84  C   UNL A   1      45.620  25.467  35.191  1.00  0.00     0.055 A 
ATOM     85  C   UNL A   1      47.000  27.355  34.625  1.00  0.00     0.041 A 
ATOM     86  F   UNL A   1      46.075  29.170  33.469  1.00  0.00    -0.206 F 
ATOM     87  C   UNL A   1      46.859  26.110  35.232  1.00  0.00     0.022 A 
BRANCH  84  88
ATOM     88  S   UNL A   1      45.377  23.908  36.086  1.00  0.00     0.124 S 
ATOM     89  O   UNL A   1      45.877  24.242  37.416  1.00  0.00    -0.237 OA
ATOM     90  O   UNL A   1      43.936  23.707  35.978  1.00  0.00    -0.237 OA
ATOM     91  O   UNL A   1      46.193  22.953  35.339  1.00  0.00    -0.744 OA
ENDBRANCH  84  88
ENDBRANCH  58  81
ENDBRANCH  32  33
ENDBRANCH  25  27
ENDBRANCH  24  25
ENDBRANCH  23  24
ENDBRANCH  22  23
ENDBRANCH  21  22
ENDBRANCH   1  21
TORSDOF 21
ENDMDL
MODEL 2
REMARK VINA RESULT:     -10.3      1.406      7.697
REMARK SMILES CCCc1nsc(N2CCO[C@H](CC(=O)OCCOCCOC(=O)c3ccc(-c4c5nc(c(-c6cc(S(=O)(=O)[O-])ccc6F)c6ccc([nH]6)c(-c6cc(S(=O)(=O)[O-])ccc6F)c6nc(c(-c7cc(S(=O)(=O)[O-])ccc7F)c7ccc4[nH]7)C=C6)C=C5)cc3)C2)n1
REMARK SMILES IDX 18 1 17 2 16 3 14 4 15 5 13 6 12 7 8 8 9 9 88 10 10 11 11 12
REMARK SMILES IDX 7 13 4 14 5 15 89 16 6 17 3 18 2 19 1 20 19 21 20 22 21 23
REMARK SMILES IDX 22 24 23 25 24 26 25 27 26 28 87 29 27 30 86 31 28 32 29 33
REMARK SMILES IDX 30 34 80 35 31 36 85 37 79 38 81 39 32 40 84 41 78 42 77 43
REMARK SMILES IDX 33 45 65 46 45 47 64 48 46 49 49 50 63 51 82 52 47 53 48 54
REMARK SMILES IDX 62 56 83 57 50 58 34 59 35 60 43 61 36 62 42 63 44 64 41 65
REMARK SMILES IDX 37 66 38 67 39 68 40 69 66 70 67 71 75 72 68 73 74 74 76 75
REMARK SMILES IDX 73 76 69 77 70 78 71 79 72 80 51 81 52 82 60 83 53 84 59 85
REMARK SMILES IDX 61 86 58 87 54 88 55 89 56 90 57 91
REMARK H PARENT 81 44 49 55
REMARK Flexibility Score: inf
ROOT
ATOM      1  C   UNL A   1      33.476  30.293  26.618  1.00  0.00     0.202 C 
ENDROOT
BRANCH   1   2
ATOM      2  C   UNL A   1      33.019  29.020  25.899  1.00  0.00     0.261 C 
BRANCH   2   3
ATOM      3  O   UNL A   1      32.719  27.924  26.790  1.00  0.00    -0.463 OA
BRANCH   3   4
ATOM      4  C   UNL A   1      31.801  27.044  26.319  1.00  0.00     0.308 C 
ATOM      5  O   UNL A   1      30.733  26.785  26.869  1.00  0.00    -0.252 OA
BRANCH   4   6
ATOM      6  C   UNL A   1      32.199  26.329  25.056  1.00  0.00     0.156 C 
BRANCH   6   7
ATOM      7  C   UNL A   1      31.302  26.387  23.819  1.00  0.00     0.148 C 
ATOM      8  N   UNL A   1      32.080  24.410  22.520  1.00  0.00    -0.342 N 
ATOM      9  C   UNL A   1      32.858  25.266  21.628  1.00  0.00     0.147 C 
ATOM     10  C   UNL A   1      30.932  25.041  23.167  1.00  0.00     0.151 C 
ATOM     11  C   UNL A   1      33.116  26.643  22.259  1.00  0.00     0.182 C 
ATOM     12  O   UNL A   1      31.926  27.235  22.814  1.00  0.00    -0.374 OA
BRANCH   8  13
ATOM     13  C   UNL A   1      32.647  23.298  23.039  1.00  0.00     0.205 A 
ATOM     14  C   UNL A   1      32.952  21.238  23.751  1.00  0.00     0.144 A 
ATOM     15  N   UNL A   1      34.114  21.690  24.227  1.00  0.00    -0.174 NA
ATOM     16  N   UNL A   1      32.118  22.097  23.040  1.00  0.00    -0.203 NA
ATOM     17  S   UNL A   1      34.185  23.310  23.835  1.00  0.00     0.004 S 
BRANCH  14  18
ATOM     18  C   UNL A   1      32.534  19.827  24.003  1.00  0.00     0.078 C 
BRANCH  18  19
ATOM     19  C   UNL A   1      33.589  19.016  24.761  1.00  0.00     0.005 C 
ATOM     20  C   UNL A   1      33.378  17.511  24.657  1.00  0.00     0.004 C 
ENDBRANCH  18  19
ENDBRANCH  14  18
ENDBRANCH   8  13
ENDBRANCH   6   7
ENDBRANCH   4   6
ENDBRANCH   3   4
ENDBRANCH   2   3
ENDBRANCH   1   2
BRANCH   1  21
ATOM     21  O   UNL A   1      32.487  31.003  27.361  1.00  0.00    -0.374 OA
BRANCH  21  22
ATOM     22  C   UNL A   1      31.692  31.946  26.644  1.00  0.00     0.202 C 
BRANCH  22  23
ATOM     23  C   UNL A   1      32.010  33.427  26.899  1.00  0.00     0.261 C 
BRANCH  23  24
ATOM     24  O   UNL A   1      32.232  33.700  28.296  1.00  0.00    -0.460 OA
BRANCH  24  25
ATOM     25  C   UNL A   1      33.284  34.520  28.539  1.00  0.00     0.338 C 
ATOM     26  O   UNL A   1      33.255  35.743  28.622  1.00  0.00    -0.246 OA
BRANCH  25  27
ATOM     27  C   UNL A   1      34.475  33.734  28.903  1.00  0.00     0.060 A 
ATOM     28  C   UNL A   1      34.264  32.521  29.571  1.00  0.00     0.016 A 
ATOM     29  C   UNL A   1      35.771  34.205  28.682  1.00  0.00     0.016 A 
ATOM     30  C   UNL A   1      35.346  31.800  30.068  1.00  0.00     0.010 A 
ATOM     31  C   UNL A   1      36.859  33.479  29.188  1.00  0.00     0.010 A 
ATOM     32  C   UNL A   1      36.648  32.293  29.917  1.00  0.00    -0.014 A 
BRANCH  32  33
ATOM     33  C   UNL A   1      37.753  31.642  30.667  1.00  0.00     0.031 A 
ATOM     34  C   UNL A   1      38.571  30.577  29.986  1.00  0.00     0.074 A 
ATOM     35  C   UNL A   1      38.068  32.036  31.914  1.00  0.00     0.049 A 
ATOM     36  N   UNL A   1      39.607  29.910  30.430  1.00  0.00    -0.248 NA
ATOM     37  C   UNL A   1      38.161  30.218  28.621  1.00  0.00     0.031 C 
ATOM     38  C   UNL A   1      37.369  33.075  32.668  1.00  0.00     0.029 A 
ATOM     39  N   UNL A   1      39.056  31.608  32.764  1.00  0.00    -0.354 N 
ATOM     40  C   UNL A   1      39.980  29.059  29.394  1.00  0.00     0.074 A 
ATOM     41  C   UNL A   1      39.022  29.257  28.326  1.00  0.00     0.031 C 
ATOM     42  C   UNL A   1      37.945  33.198  33.876  1.00  0.00     0.029 A 
ATOM     43  C   UNL A   1      39.035  32.230  33.989  1.00  0.00     0.049 A 
ATOM     44  H   UNL A   1      39.718  30.922  32.519  1.00  0.00     0.167 HD
ATOM     45  C   UNL A   1      41.032  28.203  29.333  1.00  0.00     0.034 A 
ATOM     46  C   UNL A   1      39.794  32.028  35.086  1.00  0.00     0.034 A 
ATOM     47  C   UNL A   1      41.963  27.997  30.417  1.00  0.00     0.049 A 
ATOM     48  C   UNL A   1      40.904  31.009  35.035  1.00  0.00     0.074 A 
ATOM     49  C   UNL A   1      43.077  27.178  30.457  1.00  0.00     0.029 A 
ATOM     50  N   UNL A   1      41.872  28.599  31.668  1.00  0.00    -0.354 N 
ATOM     51  N   UNL A   1      41.268  30.235  34.039  1.00  0.00    -0.248 NA
ATOM     52  C   UNL A   1      41.711  30.847  36.251  1.00  0.00     0.031 C 
ATOM     53  C   UNL A   1      43.613  27.225  31.750  1.00  0.00     0.029 A 
ATOM     54  C   UNL A   1      42.882  28.135  32.498  1.00  0.00     0.049 A 
ATOM     55  H   UNL A   1      41.190  29.261  31.925  1.00  0.00     0.167 HD
ATOM     56  C   UNL A   1      42.355  29.499  34.506  1.00  0.00     0.074 A 
ATOM     57  C   UNL A   1      42.597  29.940  35.866  1.00  0.00     0.031 C 
ATOM     58  C   UNL A   1      43.090  28.553  33.867  1.00  0.00     0.034 A 
BRANCH  45  59
ATOM     59  C   UNL A   1      41.183  27.393  28.066  1.00  0.00     0.023 A 
ATOM     60  C   UNL A   1      40.781  26.046  27.997  1.00  0.00     0.031 A 
ATOM     61  C   UNL A   1      41.800  27.950  26.932  1.00  0.00     0.131 A 
ATOM     62  C   UNL A   1      41.087  25.280  26.862  1.00  0.00     0.055 A 
ATOM     63  C   UNL A   1      42.022  27.205  25.772  1.00  0.00     0.041 A 
ATOM     64  F   UNL A   1      42.225  29.223  26.942  1.00  0.00    -0.206 F 
ATOM     65  C   UNL A   1      41.684  25.856  25.739  1.00  0.00     0.022 A 
BRANCH  62  66
ATOM     66  S   UNL A   1      40.858  23.480  26.945  1.00  0.00     0.124 S 
ATOM     67  O   UNL A   1      41.579  23.036  25.754  1.00  0.00    -0.237 OA
ATOM     68  O   UNL A   1      41.468  23.145  28.226  1.00  0.00    -0.237 OA
ATOM     69  O   UNL A   1      39.406  23.317  26.880  1.00  0.00    -0.744 OA
ENDBRANCH  62  66
ENDBRANCH  45  59
BRANCH  46  70
ATOM     70  C   UNL A   1      39.492  32.772  36.341  1.00  0.00     0.023 A 
ATOM     71  C   UNL A   1      38.603  32.267  37.301  1.00  0.00     0.031 A 
ATOM     72  C   UNL A   1      40.098  34.018  36.588  1.00  0.00     0.131 A 
ATOM     73  C   UNL A   1      38.328  33.016  38.458  1.00  0.00     0.055 A 
ATOM     74  C   UNL A   1      39.852  34.739  37.757  1.00  0.00     0.041 A 
ATOM     75  F   UNL A   1      40.958  34.542  35.701  1.00  0.00    -0.206 F 
ATOM     76  C   UNL A   1      38.957  34.241  38.698  1.00  0.00     0.022 A 
BRANCH  73  77
ATOM     77  S   UNL A   1      37.105  32.383  39.639  1.00  0.00     0.124 S 
ATOM     78  O   UNL A   1      37.743  31.156  40.101  1.00  0.00    -0.237 OA
ATOM     79  O   UNL A   1      37.027  33.472  40.607  1.00  0.00    -0.237 OA
ATOM     80  O   UNL A   1      35.908  32.195  38.821  1.00  0.00    -0.744 OA
ENDBRANCH  73  77
ENDBRANCH  46  70
BRANCH  58  81
ATOM     81  C   UNL A   1      44.233  27.937  34.638  1.00  0.00     0.023 A 
ATOM     82  C   UNL A   1      44.060  26.781  35.419  1.00  0.00     0.031 A 
ATOM     83  C   UNL A   1      45.512  28.523  34.601  1.00  0.00     0.131 A 
ATOM     84  C   UNL A   1      45.132  26.275  36.170  1.00  0.00     0.055 A 
ATOM     85  C   UNL A   1      46.590  27.982  35.305  1.00  0.00     0.041 A 
ATOM     86  F   UNL A   1      45.736  29.630  33.875  1.00  0.00    -0.206 F 
ATOM     87  C   UNL A   1      46.400  26.859  36.105  1.00  0.00     0.022 A 
BRANCH  84  88
ATOM     88  S   UNL A   1      44.828  24.892  37.305  1.00  0.00     0.124 S 
ATOM     89  O   UNL A   1      44.820  23.751  36.395  1.00  0.00    -0.237 OA
ATOM     90  O   UNL A   1      45.967  24.977  38.213  1.00  0.00    -0.237 OA
ATOM     91  O   UNL A   1      43.534  25.218  37.903  1.00  0.00    -0.744 OA
ENDBRANCH  84  88
ENDBRANCH  58  81
ENDBRANCH  32  33
ENDBRANCH  25  27
ENDBRANCH  24  25
ENDBRANCH  23  24
ENDBRANCH  22  23
ENDBRANCH  21  22
ENDBRANCH   1  21
TORSDOF 21
ENDMDL
MODEL 3
REMARK VINA RESULT:     -10.2      5.213     10.506
REMARK SMILES CCCc1nsc(N2CCO[C@H](CC(=O)OCCOCCOC(=O)c3ccc(-c4c5nc(c(-c6cc(S(=O)(=O)[O-])ccc6F)c6ccc([nH]6)c(-c6cc(S(=O)(=O)[O-])ccc6F)c6nc(c(-c7cc(S(=O)(=O)[O-])ccc7F)c7ccc4[nH]7)C=C6)C=C5)cc3)C2)n1
REMARK SMILES IDX 18 1 17 2 16 3 14 4 15 5 13 6 12 7 8 8 9 9 88 10 10 11 11 12
REMARK SMILES IDX 7 13 4 14 5 15 89 16 6 17 3 18 2 19 1 20 19 21 20 22 21 23
REMARK SMILES IDX 22 24 23 25 24 26 25 27 26 28 87 29 27 30 86 31 28 32 29 33
REMARK SMILES IDX 30 34 80 35 31 36 85 37 79 38 81 39 32 40 84 41 78 42 77 43
REMARK SMILES IDX 33 45 65 46 45 47 64 48 46 49 49 50 63 51 82 52 47 53 48 54
REMARK SMILES IDX 62 56 83 57 50 58 34 59 35 60 43 61 36 62 42 63 44 64 41 65
REMARK SMILES IDX 37 66 38 67 39 68 40 69 66 70 67 71 75 72 68 73 74 74 76 75
REMARK SMILES IDX 73 76 69 77 70 78 71 79 72 80 51 81 52 82 60 83 53 84 59 85
REMARK SMILES IDX 61 86 58 87 54 88 55 89 56 90 57 91
REMARK H PARENT 81 44 49 55
REMARK Flexibility Score: inf
ROOT
ATOM      1  C   UNL A   1      35.466  22.254  24.271  1.00  0.00     0.202 C 
ENDROOT
BRANCH   1   2
ATOM      2  C   UNL A   1      34.814  23.327  25.149  1.00  0.00     0.261 C 
BRANCH   2   3
ATOM      3  O   UNL A   1      34.995  24.672  24.655  1.00  0.00    -0.463 OA
BRANCH   3   4
ATOM      4  C   UNL A   1      34.173  25.016  23.632  1.00  0.00     0.308 C 
ATOM      5  O   UNL A   1      34.331  24.674  22.462  1.00  0.00    -0.252 OA
BRANCH   4   6
ATOM      6  C   UNL A   1      33.035  25.924  24.012  1.00  0.00     0.156 C 
BRANCH   6   7
ATOM      7  C   UNL A   1      32.736  26.213  25.484  1.00  0.00     0.148 C 
ATOM      8  N   UNL A   1      31.395  28.306  25.340  1.00  0.00    -0.342 N 
ATOM      9  C   UNL A   1      32.552  29.109  25.728  1.00  0.00     0.147 C 
ATOM     10  C   UNL A   1      31.401  26.918  25.795  1.00  0.00     0.151 C 
ATOM     11  C   UNL A   1      33.865  28.338  25.512  1.00  0.00     0.182 C 
ATOM     12  O   UNL A   1      33.821  27.002  26.048  1.00  0.00    -0.374 OA
BRANCH   8  13
ATOM     13  C   UNL A   1      30.641  28.690  24.287  1.00  0.00     0.205 A 
ATOM     14  C   UNL A   1      29.485  29.919  22.873  1.00  0.00     0.144 A 
ATOM     15  N   UNL A   1      29.124  28.756  22.325  1.00  0.00    -0.174 NA
ATOM     16  N   UNL A   1      30.369  29.929  23.949  1.00  0.00    -0.203 NA
ATOM     17  S   UNL A   1      29.870  27.563  23.221  1.00  0.00     0.004 S 
BRANCH  14  18
ATOM     18  C   UNL A   1      28.922  31.201  22.356  1.00  0.00     0.078 C 
BRANCH  18  19
ATOM     19  C   UNL A   1      28.130  31.026  21.056  1.00  0.00     0.005 C 
ATOM     20  C   UNL A   1      27.862  32.341  20.335  1.00  0.00     0.004 C 
ENDBRANCH  18  19
ENDBRANCH  14  18
ENDBRANCH   8  13
ENDBRANCH   6   7
ENDBRANCH   4   6
ENDBRANCH   3   4
ENDBRANCH   2   3
ENDBRANCH   1   2
BRANCH   1  21
ATOM     21  O   UNL A   1      35.118  20.899  24.547  1.00  0.00    -0.374 OA
BRANCH  21  22
ATOM     22  C   UNL A   1      36.178  20.027  24.939  1.00  0.00     0.202 C 
BRANCH  22  23
ATOM     23  C   UNL A   1      37.603  20.531  24.662  1.00  0.00     0.261 C 
BRANCH  23  24
ATOM     24  O   UNL A   1      38.005  21.553  25.594  1.00  0.00    -0.460 OA
BRANCH  24  25
ATOM     25  C   UNL A   1      39.221  21.341  26.155  1.00  0.00     0.338 C 
ATOM     26  O   UNL A   1      39.924  20.345  26.028  1.00  0.00    -0.246 OA
BRANCH  25  27
ATOM     27  C   UNL A   1      39.710  22.572  26.799  1.00  0.00     0.060 A 
ATOM     28  C   UNL A   1      39.147  23.784  26.378  1.00  0.00     0.016 A 
ATOM     29  C   UNL A   1      40.755  22.561  27.726  1.00  0.00     0.016 A 
ATOM     30  C   UNL A   1      39.663  24.992  26.841  1.00  0.00     0.010 A 
ATOM     31  C   UNL A   1      41.275  23.778  28.188  1.00  0.00     0.010 A 
ATOM     32  C   UNL A   1      40.756  25.000  27.716  1.00  0.00    -0.014 A 
BRANCH  32  33
ATOM     33  C   UNL A   1      41.441  26.289  27.996  1.00  0.00     0.031 A 
ATOM     34  C   UNL A   1      42.853  26.487  27.512  1.00  0.00     0.074 A 
ATOM     35  C   UNL A   1      40.795  27.293  28.614  1.00  0.00     0.049 A 
ATOM     36  N   UNL A   1      43.624  27.541  27.602  1.00  0.00    -0.248 NA
ATOM     37  C   UNL A   1      43.474  25.338  26.838  1.00  0.00     0.031 C 
ATOM     38  C   UNL A   1      39.419  27.232  29.103  1.00  0.00     0.029 A 
ATOM     39  N   UNL A   1      41.212  28.560  28.935  1.00  0.00    -0.354 N 
ATOM     40  C   UNL A   1      44.821  27.187  26.986  1.00  0.00     0.074 A 
ATOM     41  C   UNL A   1      44.687  25.802  26.581  1.00  0.00     0.031 C 
ATOM     42  C   UNL A   1      39.108  28.409  29.673  1.00  0.00     0.029 A 
ATOM     43  C   UNL A   1      40.268  29.296  29.612  1.00  0.00     0.049 A 
ATOM     44  H   UNL A   1      42.102  28.910  28.702  1.00  0.00     0.167 HD
ATOM     45  C   UNL A   1      45.922  27.948  26.765  1.00  0.00     0.034 A 
ATOM     46  C   UNL A   1      40.339  30.535  30.141  1.00  0.00     0.034 A 
ATOM     47  C   UNL A   1      46.050  29.320  27.199  1.00  0.00     0.049 A 
ATOM     48  C   UNL A   1      41.602  31.338  29.966  1.00  0.00     0.074 A 
ATOM     49  C   UNL A   1      47.106  30.193  27.008  1.00  0.00     0.029 A 
ATOM     50  N   UNL A   1      45.097  30.011  27.938  1.00  0.00    -0.354 N 
ATOM     51  N   UNL A   1      42.714  31.005  29.352  1.00  0.00    -0.248 NA
ATOM     52  C   UNL A   1      41.614  32.687  30.545  1.00  0.00     0.031 C 
ATOM     53  C   UNL A   1      46.825  31.381  27.694  1.00  0.00     0.029 A 
ATOM     54  C   UNL A   1      45.559  31.281  28.249  1.00  0.00     0.049 A 
ATOM     55  H   UNL A   1      44.219  29.651  28.202  1.00  0.00     0.167 HD
ATOM     56  C   UNL A   1      43.556  32.109  29.463  1.00  0.00     0.074 A 
ATOM     57  C   UNL A   1      42.812  33.124  30.184  1.00  0.00     0.031 C 
ATOM     58  C   UNL A   1      44.824  32.272  29.004  1.00  0.00     0.034 A 
BRANCH  45  59
ATOM     59  C   UNL A   1      47.088  27.282  26.070  1.00  0.00     0.023 A 
ATOM     60  C   UNL A   1      48.031  26.515  26.778  1.00  0.00     0.031 A 
ATOM     61  C   UNL A   1      47.299  27.472  24.692  1.00  0.00     0.131 A 
ATOM     62  C   UNL A   1      49.187  26.052  26.130  1.00  0.00     0.055 A 
ATOM     63  C   UNL A   1      48.407  26.932  24.035  1.00  0.00     0.041 A 
ATOM     64  F   UNL A   1      46.446  28.211  23.966  1.00  0.00    -0.206 F 
ATOM     65  C   UNL A   1      49.370  26.235  24.758  1.00  0.00     0.022 A 
BRANCH  62  66
ATOM     66  S   UNL A   1      50.530  25.366  27.141  1.00  0.00     0.124 S 
ATOM     67  O   UNL A   1      50.885  26.510  27.976  1.00  0.00    -0.237 OA
ATOM     68  O   UNL A   1      49.875  24.255  27.821  1.00  0.00    -0.237 OA
ATOM     69  O   UNL A   1      51.541  24.988  26.154  1.00  0.00    -0.744 OA
ENDBRANCH  62  66
ENDBRANCH  45  59
BRANCH  46  70
ATOM     70  C   UNL A   1      39.194  31.066  30.932  1.00  0.00     0.023 A 
ATOM     71  C   UNL A   1      38.111  31.713  30.319  1.00  0.00     0.031 A 
ATOM     72  C   UNL A   1      39.180  30.932  32.333  1.00  0.00     0.131 A 
ATOM     73  C   UNL A   1      37.065  32.221  31.109  1.00  0.00     0.055 A 
ATOM     74  C   UNL A   1      38.121  31.403  33.109  1.00  0.00     0.041 A 
ATOM     75  F   UNL A   1      40.193  30.319  32.966  1.00  0.00    -0.206 F 
ATOM     76  C   UNL A   1      37.057  32.058  32.497  1.00  0.00     0.022 A 
BRANCH  73  77
ATOM     77  S   UNL A   1      35.723  33.134  30.300  1.00  0.00     0.124 S 
ATOM     78  O   UNL A   1      36.451  33.920  29.310  1.00  0.00    -0.237 OA
ATOM     79  O   UNL A   1      34.893  32.053  29.777  1.00  0.00    -0.237 OA
ATOM     80  O   UNL A   1      35.126  33.900  31.391  1.00  0.00    -0.744 OA
ENDBRANCH  73  77
ENDBRANCH  46  70
BRANCH  58  81
ATOM     81  C   UNL A   1      45.480  33.607  29.265  1.00  0.00     0.023 A 
ATOM     82  C   UNL A   1      46.260  33.834  30.412  1.00  0.00     0.031 A 
ATOM     83  C   UNL A   1      45.313  34.671  28.359  1.00  0.00     0.131 A 
ATOM     84  C   UNL A   1      46.802  35.107  30.650  1.00  0.00     0.055 A 
ATOM     85  C   UNL A   1      45.903  35.918  28.572  1.00  0.00     0.041 A 
ATOM     86  F   UNL A   1      44.577  34.512  27.248  1.00  0.00    -0.206 F 
ATOM     87  C   UNL A   1      46.642  36.145  29.729  1.00  0.00     0.022 A 
BRANCH  84  88
ATOM     88  S   UNL A   1      47.650  35.415  32.225  1.00  0.00     0.124 S 
ATOM     89  O   UNL A   1      48.787  34.504  32.139  1.00  0.00    -0.237 OA
ATOM     90  O   UNL A   1      47.963  36.838  32.139  1.00  0.00    -0.237 OA
ATOM     91  O   UNL A   1      46.647  35.062  33.228  1.00  0.00    -0.744 OA
ENDBRANCH  84  88
ENDBRANCH  58  81
ENDBRANCH  32  33
ENDBRANCH  25  27
ENDBRANCH  24  25
ENDBRANCH  23  24
ENDBRANCH  22  23
ENDBRANCH  21  22
ENDBRANCH   1  21
TORSDOF 21
ENDMDL
