MODEL 1
REMARK VINA RESULT:     -11.1      0.000      0.000
REMARK SMILES Cc1cc(C)cc(CSc2cc(C(=O)OCCOCCOC(=O)c3ccc(-c4c5nc(c(-c6cc(S(=O)(=O)[O-])ccc6F)c6ccc([nH]6)c(-c6cc(S(=O)(=O)[O-])ccc6F)c6nc(c(-c7cc(S(=O)(=O)[O-])ccc7F)c7ccc4[nH]7)C=C6)C=C5)cc3)cc(Cl)n2)c1
REMARK SMILES IDX 18 1 17 2 16 3 15 4 13 5 14 6 12 7 10 8 11 9 90 10 88 11
REMARK SMILES IDX 87 12 89 13 9 14 8 15 7 16 1 17 2 18 3 19 91 20 4 21 5 22
REMARK SMILES IDX 6 23 19 24 20 25 21 26 22 27 23 28 24 29 25 30 86 31 26 32
REMARK SMILES IDX 85 33 27 34 28 35 29 36 79 37 30 38 84 39 78 40 80 41 31 42
REMARK SMILES IDX 83 43 77 44 76 45 32 47 64 48 44 49 63 50 45 51 48 52 62 53
REMARK SMILES IDX 81 54 46 55 47 56 61 58 82 59 49 60 33 61 34 62 42 63 35 64
REMARK SMILES IDX 41 65 43 66 40 67 36 68 37 69 38 70 39 71 65 72 66 73 74 74
REMARK SMILES IDX 67 75 73 76 75 77 72 78 68 79 69 80 70 81 71 82 50 83 51 84
REMARK SMILES IDX 59 85 52 86 58 87 60 88 57 89 53 90 54 91 55 92 56 93
REMARK H PARENT 80 46 48 57
REMARK Flexibility Score: inf
ROOT
ATOM      1  O   UNL A   1      31.163  30.058  26.567  1.00  0.00    -0.374 OA
ENDROOT
BRANCH   1   2
ATOM      2  C   UNL A   1      32.002  29.114  27.232  1.00  0.00     0.202 C 
BRANCH   2   3
ATOM      3  C   UNL A   1      31.332  27.846  27.770  1.00  0.00     0.261 C 
BRANCH   3   4
ATOM      4  O   UNL A   1      31.709  26.683  27.012  1.00  0.00    -0.460 OA
BRANCH   4   5
ATOM      5  C   UNL A   1      30.729  26.154  26.245  1.00  0.00     0.338 C 
ATOM      6  O   UNL A   1      29.686  25.641  26.617  1.00  0.00    -0.246 OA
BRANCH   5   7
ATOM      7  C   UNL A   1      30.991  26.465  24.826  1.00  0.00     0.065 A 
ATOM      8  C   UNL A   1      31.896  25.740  22.745  1.00  0.00     0.099 A 
ATOM      9  C   UNL A   1      31.685  25.504  24.089  1.00  0.00     0.051 A 
ATOM     10  N   UNL A   1      31.460  26.852  22.122  1.00  0.00    -0.230 NA
ATOM     11  C   UNL A   1      30.810  27.765  22.871  1.00  0.00     0.131 A 
ATOM     12  C   UNL A   1      30.533  27.626  24.216  1.00  0.00     0.056 A 
ATOM     13  Cl  UNL A   1      30.337  29.173  22.015  1.00  0.00    -0.062 Cl
BRANCH   8  14
ATOM     14  S   UNL A   1      32.734  24.525  21.757  1.00  0.00    -0.102 SA
BRANCH  14  15
ATOM     15  C   UNL A   1      32.423  23.054  22.788  1.00  0.00     0.112 C 
BRANCH  15  16
ATOM     16  C   UNL A   1      33.480  22.796  23.834  1.00  0.00    -0.037 A 
ATOM     17  C   UNL A   1      37.273  22.995  24.188  1.00  0.00     0.044 C 
ATOM     18  C   UNL A   1      35.823  22.769  24.500  1.00  0.00    -0.051 A 
ATOM     19  C   UNL A   1      35.453  22.260  25.750  1.00  0.00     0.006 A 
ATOM     20  C   UNL A   1      34.832  23.033  23.547  1.00  0.00     0.008 A 
ATOM     21  C   UNL A   1      34.108  22.023  26.059  1.00  0.00    -0.051 A 
ATOM     22  C   UNL A   1      33.733  21.438  27.388  1.00  0.00     0.044 C 
ATOM     23  C   UNL A   1      33.129  22.308  25.102  1.00  0.00     0.008 A 
ENDBRANCH  15  16
ENDBRANCH  14  15
ENDBRANCH   8  14
ENDBRANCH   5   7
ENDBRANCH   4   5
ENDBRANCH   3   4
ENDBRANCH   2   3
ENDBRANCH   1   2
BRANCH   1  24
ATOM     24  C   UNL A   1      31.745  31.295  26.157  1.00  0.00     0.202 C 
BRANCH  24  25
ATOM     25  C   UNL A   1      31.553  32.523  27.055  1.00  0.00     0.261 C 
BRANCH  25  26
ATOM     26  O   UNL A   1      32.633  33.466  26.958  1.00  0.00    -0.460 OA
BRANCH  26  27
ATOM     27  C   UNL A   1      33.188  33.786  28.154  1.00  0.00     0.338 C 
ATOM     28  O   UNL A   1      32.669  34.434  29.048  1.00  0.00    -0.246 OA
BRANCH  27  29
ATOM     29  C   UNL A   1      34.468  33.076  28.337  1.00  0.00     0.060 A 
ATOM     30  C   UNL A   1      34.400  31.754  28.795  1.00  0.00     0.016 A 
ATOM     31  C   UNL A   1      35.703  33.706  28.167  1.00  0.00     0.016 A 
ATOM     32  C   UNL A   1      35.560  31.086  29.167  1.00  0.00     0.010 A 
ATOM     33  C   UNL A   1      36.871  33.030  28.540  1.00  0.00     0.010 A 
ATOM     34  C   UNL A   1      36.799  31.737  29.094  1.00  0.00    -0.014 A 
BRANCH  34  35
ATOM     35  C   UNL A   1      37.968  31.122  29.773  1.00  0.00     0.031 A 
ATOM     36  C   UNL A   1      38.237  31.471  31.214  1.00  0.00     0.074 A 
ATOM     37  C   UNL A   1      38.726  30.205  29.145  1.00  0.00     0.049 A 
ATOM     38  N   UNL A   1      39.171  31.029  32.017  1.00  0.00    -0.248 NA
ATOM     39  C   UNL A   1      37.333  32.454  31.829  1.00  0.00     0.031 C 
ATOM     40  C   UNL A   1      38.533  29.756  27.767  1.00  0.00     0.029 A 
ATOM     41  N   UNL A   1      39.801  29.478  29.589  1.00  0.00    -0.354 N 
ATOM     42  C   UNL A   1      38.970  31.682  33.230  1.00  0.00     0.074 A 
ATOM     43  C   UNL A   1      37.857  32.586  33.038  1.00  0.00     0.031 C 
ATOM     44  C   UNL A   1      39.458  28.823  27.480  1.00  0.00     0.029 A 
ATOM     45  C   UNL A   1      40.328  28.635  28.638  1.00  0.00     0.049 A 
ATOM     46  H   UNL A   1      40.162  29.553  30.501  1.00  0.00     0.167 HD
ATOM     47  C   UNL A   1      39.641  31.530  34.399  1.00  0.00     0.034 A 
ATOM     48  C   UNL A   1      41.398  27.817  28.694  1.00  0.00     0.034 A 
ATOM     49  C   UNL A   1      40.753  30.625  34.572  1.00  0.00     0.049 A 
ATOM     50  C   UNL A   1      42.174  27.716  29.985  1.00  0.00     0.074 A 
ATOM     51  C   UNL A   1      41.497  30.382  35.714  1.00  0.00     0.029 A 
ATOM     52  N   UNL A   1      41.291  29.824  33.572  1.00  0.00    -0.354 N 
ATOM     53  N   UNL A   1      41.965  28.328  31.128  1.00  0.00    -0.248 NA
ATOM     54  C   UNL A   1      43.319  26.797  29.996  1.00  0.00     0.031 C 
ATOM     55  C   UNL A   1      42.532  29.499  35.384  1.00  0.00     0.029 A 
ATOM     56  C   UNL A   1      42.378  29.114  34.061  1.00  0.00     0.049 A 
ATOM     57  H   UNL A   1      40.951  29.768  32.650  1.00  0.00     0.167 HD
ATOM     58  C   UNL A   1      42.932  27.839  32.004  1.00  0.00     0.074 A 
ATOM     59  C   UNL A   1      43.708  26.868  31.261  1.00  0.00     0.031 C 
ATOM     60  C   UNL A   1      43.155  28.156  33.306  1.00  0.00     0.034 A 
BRANCH  47  61
ATOM     61  C   UNL A   1      39.219  32.401  35.561  1.00  0.00     0.023 A 
ATOM     62  C   UNL A   1      39.639  33.738  35.681  1.00  0.00     0.031 A 
ATOM     63  C   UNL A   1      38.414  31.873  36.586  1.00  0.00     0.131 A 
ATOM     64  C   UNL A   1      39.317  34.474  36.833  1.00  0.00     0.055 A 
ATOM     65  C   UNL A   1      38.023  32.638  37.687  1.00  0.00     0.041 A 
ATOM     66  F   UNL A   1      38.002  30.596  36.543  1.00  0.00    -0.206 F 
ATOM     67  C   UNL A   1      38.489  33.943  37.823  1.00  0.00     0.022 A 
BRANCH  64  68
ATOM     68  S   UNL A   1      40.125  36.077  37.093  1.00  0.00     0.124 S 
ATOM     69  O   UNL A   1      41.501  35.672  37.371  1.00  0.00    -0.237 OA
ATOM     70  O   UNL A   1      39.902  36.753  35.820  1.00  0.00    -0.237 OA
ATOM     71  O   UNL A   1      39.408  36.643  38.234  1.00  0.00    -0.744 OA
ENDBRANCH  64  68
ENDBRANCH  47  61
BRANCH  48  72
ATOM     72  C   UNL A   1      41.822  27.047  27.489  1.00  0.00     0.023 A 
ATOM     73  C   UNL A   1      41.613  25.661  27.394  1.00  0.00     0.031 A 
ATOM     74  C   UNL A   1      42.497  27.683  26.431  1.00  0.00     0.131 A 
ATOM     75  C   UNL A   1      42.118  24.951  26.293  1.00  0.00     0.055 A 
ATOM     76  C   UNL A   1      42.946  26.982  25.310  1.00  0.00     0.041 A 
ATOM     77  F   UNL A   1      42.726  29.006  26.469  1.00  0.00    -0.206 F 
ATOM     78  C   UNL A   1      42.769  25.603  25.244  1.00  0.00     0.022 A 
BRANCH  75  79
ATOM     79  S   UNL A   1      41.992  23.141  26.294  1.00  0.00     0.124 S 
ATOM     80  O   UNL A   1      40.553  22.944  26.419  1.00  0.00    -0.237 OA
ATOM     81  O   UNL A   1      42.579  22.797  25.004  1.00  0.00    -0.237 OA
ATOM     82  O   UNL A   1      42.781  22.746  27.459  1.00  0.00    -0.744 OA
ENDBRANCH  75  79
ENDBRANCH  48  72
BRANCH  60  83
ATOM     83  C   UNL A   1      44.253  27.400  34.021  1.00  0.00     0.023 A 
ATOM     84  C   UNL A   1      44.028  26.147  34.618  1.00  0.00     0.031 A 
ATOM     85  C   UNL A   1      45.539  27.960  34.135  1.00  0.00     0.131 A 
ATOM     86  C   UNL A   1      45.045  25.535  35.368  1.00  0.00     0.055 A 
ATOM     87  C   UNL A   1      46.569  27.310  34.816  1.00  0.00     0.041 A 
ATOM     88  F   UNL A   1      45.816  29.156  33.589  1.00  0.00    -0.206 F 
ATOM     89  C   UNL A   1      46.319  26.099  35.455  1.00  0.00     0.022 A 
BRANCH  86  90
ATOM     90  S   UNL A   1      44.638  24.060  36.342  1.00  0.00     0.124 S 
ATOM     91  O   UNL A   1      43.386  23.627  35.730  1.00  0.00    -0.237 OA
ATOM     92  O   UNL A   1      45.794  23.201  36.105  1.00  0.00    -0.237 OA
ATOM     93  O   UNL A   1      44.515  24.573  37.706  1.00  0.00    -0.744 OA
ENDBRANCH  86  90
ENDBRANCH  60  83
ENDBRANCH  34  35
ENDBRANCH  27  29
ENDBRANCH  26  27
ENDBRANCH  25  26
ENDBRANCH  24  25
ENDBRANCH   1  24
TORSDOF 20
ENDMDL
MODEL 2
REMARK VINA RESULT:     -11.0      2.228      2.738
REMARK SMILES Cc1cc(C)cc(CSc2cc(C(=O)OCCOCCOC(=O)c3ccc(-c4c5nc(c(-c6cc(S(=O)(=O)[O-])ccc6F)c6ccc([nH]6)c(-c6cc(S(=O)(=O)[O-])ccc6F)c6nc(c(-c7cc(S(=O)(=O)[O-])ccc7F)c7ccc4[nH]7)C=C6)C=C5)cc3)cc(Cl)n2)c1
REMARK SMILES IDX 18 1 17 2 16 3 15 4 13 5 14 6 12 7 10 8 11 9 90 10 88 11
REMARK SMILES IDX 87 12 89 13 9 14 8 15 7 16 1 17 2 18 3 19 91 20 4 21 5 22
REMARK SMILES IDX 6 23 19 24 20 25 21 26 22 27 23 28 24 29 25 30 86 31 26 32
REMARK SMILES IDX 85 33 27 34 28 35 29 36 79 37 30 38 84 39 78 40 80 41 31 42
REMARK SMILES IDX 83 43 77 44 76 45 32 47 64 48 44 49 63 50 45 51 48 52 62 53
REMARK SMILES IDX 81 54 46 55 47 56 61 58 82 59 49 60 33 61 34 62 42 63 35 64
REMARK SMILES IDX 41 65 43 66 40 67 36 68 37 69 38 70 39 71 65 72 66 73 74 74
REMARK SMILES IDX 67 75 73 76 75 77 72 78 68 79 69 80 70 81 71 82 50 83 51 84
REMARK SMILES IDX 59 85 52 86 58 87 60 88 57 89 53 90 54 91 55 92 56 93
REMARK H PARENT 80 46 48 57
REMARK Flexibility Score: inf
ROOT
ATOM      1  O   UNL A   1      32.287  29.578  24.469  1.00  0.00    -0.374 OA
ENDROOT
BRANCH   1   2
ATOM      2  C   UNL A   1      31.813  29.257  23.161  1.00  0.00     0.202 C 
BRANCH   2   3
ATOM      3  C   UNL A   1      30.359  28.787  23.044  1.00  0.00     0.261 C 
BRANCH   3   4
ATOM      4  O   UNL A   1      30.278  27.414  22.624  1.00  0.00    -0.460 OA
BRANCH   4   5
ATOM      5  C   UNL A   1      29.891  26.541  23.582  1.00  0.00     0.338 C 
ATOM      6  O   UNL A   1      28.767  26.373  24.028  1.00  0.00    -0.246 OA
BRANCH   5   7
ATOM      7  C   UNL A   1      31.008  25.630  23.899  1.00  0.00     0.065 A 
ATOM      8  C   UNL A   1      32.006  23.490  23.584  1.00  0.00     0.099 A 
ATOM      9  C   UNL A   1      30.949  24.347  23.353  1.00  0.00     0.051 A 
ATOM     10  N   UNL A   1      33.085  23.841  24.308  1.00  0.00    -0.230 NA
ATOM     11  C   UNL A   1      33.099  25.082  24.835  1.00  0.00     0.131 A 
ATOM     12  C   UNL A   1      32.105  26.022  24.657  1.00  0.00     0.056 A 
ATOM     13  Cl  UNL A   1      34.481  25.430  25.787  1.00  0.00    -0.062 Cl
BRANCH   8  14
ATOM     14  S   UNL A   1      31.995  21.863  22.870  1.00  0.00    -0.102 SA
BRANCH  14  15
ATOM     15  C   UNL A   1      32.151  20.881  24.398  1.00  0.00     0.112 C 
BRANCH  15  16
ATOM     16  C   UNL A   1      33.388  20.018  24.456  1.00  0.00    -0.037 A 
ATOM     17  C   UNL A   1      34.316  16.320  24.310  1.00  0.00     0.044 C 
ATOM     18  C   UNL A   1      34.424  17.813  24.414  1.00  0.00    -0.051 A 
ATOM     19  C   UNL A   1      35.674  18.406  24.626  1.00  0.00     0.006 A 
ATOM     20  C   UNL A   1      33.286  18.625  24.332  1.00  0.00     0.008 A 
ATOM     21  C   UNL A   1      35.799  19.796  24.745  1.00  0.00    -0.051 A 
ATOM     22  C   UNL A   1      37.140  20.410  25.012  1.00  0.00     0.044 C 
ATOM     23  C   UNL A   1      34.654  20.593  24.644  1.00  0.00     0.008 A 
ENDBRANCH  15  16
ENDBRANCH  14  15
ENDBRANCH   8  14
ENDBRANCH   5   7
ENDBRANCH   4   5
ENDBRANCH   3   4
ENDBRANCH   2   3
ENDBRANCH   1   2
BRANCH   1  24
ATOM     24  C   UNL A   1      31.330  29.994  25.441  1.00  0.00     0.202 C 
BRANCH  24  25
ATOM     25  C   UNL A   1      31.709  31.133  26.397  1.00  0.00     0.261 C 
BRANCH  25  26
ATOM     26  O   UNL A   1      32.831  30.814  27.235  1.00  0.00    -0.460 OA
BRANCH  26  27
ATOM     27  C   UNL A   1      33.565  31.896  27.601  1.00  0.00     0.338 C 
ATOM     28  O   UNL A   1      33.144  33.019  27.824  1.00  0.00    -0.246 OA
BRANCH  27  29
ATOM     29  C   UNL A   1      34.956  31.504  27.894  1.00  0.00     0.060 A 
ATOM     30  C   UNL A   1      35.231  30.132  27.943  1.00  0.00     0.016 A 
ATOM     31  C   UNL A   1      35.945  32.438  28.212  1.00  0.00     0.016 A 
ATOM     32  C   UNL A   1      36.468  29.685  28.393  1.00  0.00     0.010 A 
ATOM     33  C   UNL A   1      37.191  31.986  28.663  1.00  0.00     0.010 A 
ATOM     34  C   UNL A   1      37.437  30.607  28.808  1.00  0.00    -0.014 A 
BRANCH  34  35
ATOM     35  C   UNL A   1      38.617  30.109  29.561  1.00  0.00     0.031 A 
ATOM     36  C   UNL A   1      38.836  30.593  30.971  1.00  0.00     0.074 A 
ATOM     37  C   UNL A   1      39.431  29.180  29.029  1.00  0.00     0.049 A 
ATOM     38  N   UNL A   1      39.771  30.266  31.827  1.00  0.00    -0.248 NA
ATOM     39  C   UNL A   1      37.873  31.580  31.481  1.00  0.00     0.031 C 
ATOM     40  C   UNL A   1      39.292  28.605  27.691  1.00  0.00     0.029 A 
ATOM     41  N   UNL A   1      40.528  28.545  29.555  1.00  0.00    -0.354 N 
ATOM     42  C   UNL A   1      39.511  31.010  32.975  1.00  0.00     0.074 A 
ATOM     43  C   UNL A   1      38.362  31.840  32.683  1.00  0.00     0.031 C 
ATOM     44  C   UNL A   1      40.265  27.697  27.504  1.00  0.00     0.029 A 
ATOM     45  C   UNL A   1      41.116  27.651  28.691  1.00  0.00     0.049 A 
ATOM     46  H   UNL A   1      40.863  28.716  30.464  1.00  0.00     0.167 HD
ATOM     47  C   UNL A   1      40.160  30.991  34.165  1.00  0.00     0.034 A 
ATOM     48  C   UNL A   1      42.221  26.892  28.839  1.00  0.00     0.034 A 
ATOM     49  C   UNL A   1      41.309  30.159  34.437  1.00  0.00     0.049 A 
ATOM     50  C   UNL A   1      42.970  26.940  30.148  1.00  0.00     0.074 A 
ATOM     51  C   UNL A   1      42.036  30.050  35.610  1.00  0.00     0.029 A 
ATOM     52  N   UNL A   1      41.907  29.302  33.521  1.00  0.00    -0.354 N 
ATOM     53  N   UNL A   1      42.707  27.637  31.230  1.00  0.00    -0.248 NA
ATOM     54  C   UNL A   1      44.155  26.081  30.261  1.00  0.00     0.031 C 
ATOM     55  C   UNL A   1      43.118  29.193  35.379  1.00  0.00     0.029 A 
ATOM     56  C   UNL A   1      43.013  28.689  34.091  1.00  0.00     0.049 A 
ATOM     57  H   UNL A   1      41.591  29.151  32.602  1.00  0.00     0.167 HD
ATOM     58  C   UNL A   1      43.674  27.271  32.164  1.00  0.00     0.074 A 
ATOM     59  C   UNL A   1      44.511  26.279  31.522  1.00  0.00     0.031 C 
ATOM     60  C   UNL A   1      43.851  27.709  33.437  1.00  0.00     0.034 A 
BRANCH  47  61
ATOM     61  C   UNL A   1      39.672  31.937  35.240  1.00  0.00     0.023 A 
ATOM     62  C   UNL A   1      38.967  31.483  36.368  1.00  0.00     0.031 A 
ATOM     63  C   UNL A   1      39.884  33.322  35.114  1.00  0.00     0.131 A 
ATOM     64  C   UNL A   1      38.434  32.407  37.282  1.00  0.00     0.055 A 
ATOM     65  C   UNL A   1      39.428  34.229  36.071  1.00  0.00     0.041 A 
ATOM     66  F   UNL A   1      40.529  33.820  34.046  1.00  0.00    -0.206 F 
ATOM     67  C   UNL A   1      38.685  33.775  37.156  1.00  0.00     0.022 A 
BRANCH  64  68
ATOM     68  S   UNL A   1      37.279  31.811  38.547  1.00  0.00     0.124 S 
ATOM     69  O   UNL A   1      36.164  32.741  38.389  1.00  0.00    -0.237 OA
ATOM     70  O   UNL A   1      37.031  30.437  38.126  1.00  0.00    -0.237 OA
ATOM     71  O   UNL A   1      38.029  31.956  39.793  1.00  0.00    -0.744 OA
ENDBRANCH  64  68
ENDBRANCH  47  61
BRANCH  48  72
ATOM     72  C   UNL A   1      42.708  26.043  27.713  1.00  0.00     0.023 A 
ATOM     73  C   UNL A   1      42.169  24.769  27.470  1.00  0.00     0.031 A 
ATOM     74  C   UNL A   1      43.766  26.476  26.892  1.00  0.00     0.131 A 
ATOM     75  C   UNL A   1      42.722  23.954  26.469  1.00  0.00     0.055 A 
ATOM     76  C   UNL A   1      44.274  25.685  25.860  1.00  0.00     0.041 A 
ATOM     77  F   UNL A   1      44.320  27.685  27.081  1.00  0.00    -0.206 F 
ATOM     78  C   UNL A   1      43.760  24.409  25.653  1.00  0.00     0.022 A 
BRANCH  75  79
ATOM     79  S   UNL A   1      42.125  22.249  26.308  1.00  0.00     0.124 S 
ATOM     80  O   UNL A   1      42.745  21.607  27.461  1.00  0.00    -0.237 OA
ATOM     81  O   UNL A   1      40.678  22.428  26.372  1.00  0.00    -0.237 OA
ATOM     82  O   UNL A   1      42.641  21.831  25.006  1.00  0.00    -0.744 OA
ENDBRANCH  75  79
ENDBRANCH  48  72
BRANCH  60  83
ATOM     83  C   UNL A   1      44.966  27.070  34.236  1.00  0.00     0.023 A 
ATOM     84  C   UNL A   1      44.756  25.925  35.024  1.00  0.00     0.031 A 
ATOM     85  C   UNL A   1      46.253  27.639  34.234  1.00  0.00     0.131 A 
ATOM     86  C   UNL A   1      45.790  25.434  35.837  1.00  0.00     0.055 A 
ATOM     87  C   UNL A   1      47.299  27.100  34.985  1.00  0.00     0.041 A 
ATOM     88  F   UNL A   1      46.516  28.735  33.504  1.00  0.00    -0.206 F 
ATOM     89  C   UNL A   1      47.065  26.002  35.808  1.00  0.00     0.022 A 
BRANCH  86  90
ATOM     90  S   UNL A   1      45.407  24.128  37.036  1.00  0.00     0.124 S 
ATOM     91  O   UNL A   1      46.710  23.886  37.648  1.00  0.00    -0.237 OA
ATOM     92  O   UNL A   1      44.411  24.770  37.889  1.00  0.00    -0.237 OA
ATOM     93  O   UNL A   1      44.900  23.037  36.204  1.00  0.00    -0.744 OA
ENDBRANCH  86  90
ENDBRANCH  60  83
ENDBRANCH  34  35
ENDBRANCH  27  29
ENDBRANCH  26  27
ENDBRANCH  25  26
ENDBRANCH  24  25
ENDBRANCH   1  24
TORSDOF 20
ENDMDL
MODEL 3
REMARK VINA RESULT:     -10.9      1.888      2.790
REMARK SMILES Cc1cc(C)cc(CSc2cc(C(=O)OCCOCCOC(=O)c3ccc(-c4c5nc(c(-c6cc(S(=O)(=O)[O-])ccc6F)c6ccc([nH]6)c(-c6cc(S(=O)(=O)[O-])ccc6F)c6nc(c(-c7cc(S(=O)(=O)[O-])ccc7F)c7ccc4[nH]7)C=C6)C=C5)cc3)cc(Cl)n2)c1
REMARK SMILES IDX 18 1 17 2 16 3 15 4 13 5 14 6 12 7 10 8 11 9 90 10 88 11
REMARK SMILES IDX 87 12 89 13 9 14 8 15 7 16 1 17 2 18 3 19 91 20 4 21 5 22
REMARK SMILES IDX 6 23 19 24 20 25 21 26 22 27 23 28 24 29 25 30 86 31 26 32
REMARK SMILES IDX 85 33 27 34 28 35 29 36 79 37 30 38 84 39 78 40 80 41 31 42
REMARK SMILES IDX 83 43 77 44 76 45 32 47 64 48 44 49 63 50 45 51 48 52 62 53
REMARK SMILES IDX 81 54 46 55 47 56 61 58 82 59 49 60 33 61 34 62 42 63 35 64
REMARK SMILES IDX 41 65 43 66 40 67 36 68 37 69 38 70 39 71 65 72 66 73 74 74
REMARK SMILES IDX 67 75 73 76 75 77 72 78 68 79 69 80 70 81 71 82 50 83 51 84
REMARK SMILES IDX 59 85 52 86 58 87 60 88 57 89 53 90 54 91 55 92 56 93
REMARK H PARENT 80 46 48 57
REMARK Flexibility Score: inf
ROOT
ATOM      1  O   UNL A   1      32.230  29.403  24.206  1.00  0.00    -0.374 OA
ENDROOT
BRANCH   1   2
ATOM      2  C   UNL A   1      31.727  28.732  23.050  1.00  0.00     0.202 C 
BRANCH   2   3
ATOM      3  C   UNL A   1      31.457  27.229  23.181  1.00  0.00     0.261 C 
BRANCH   3   4
ATOM      4  O   UNL A   1      31.794  26.522  21.975  1.00  0.00    -0.460 OA
BRANCH   4   5
ATOM      5  C   UNL A   1      33.101  26.197  21.845  1.00  0.00     0.338 C 
ATOM      6  O   UNL A   1      34.029  26.937  21.561  1.00  0.00    -0.246 OA
BRANCH   5   7
ATOM      7  C   UNL A   1      33.312  24.811  22.307  1.00  0.00     0.065 A 
ATOM      8  C   UNL A   1      34.536  23.326  23.710  1.00  0.00     0.099 A 
ATOM      9  C   UNL A   1      34.349  24.601  23.216  1.00  0.00     0.051 A 
ATOM     10  N   UNL A   1      33.760  22.284  23.354  1.00  0.00    -0.230 NA
ATOM     11  C   UNL A   1      32.779  22.522  22.460  1.00  0.00     0.131 A 
ATOM     12  C   UNL A   1      32.496  23.757  21.913  1.00  0.00     0.056 A 
ATOM     13  Cl  UNL A   1      31.873  21.134  22.020  1.00  0.00    -0.062 Cl
BRANCH   8  14
ATOM     14  S   UNL A   1      35.816  23.021  24.904  1.00  0.00    -0.102 SA
BRANCH  14  15
ATOM     15  C   UNL A   1      34.779  22.469  26.299  1.00  0.00     0.112 C 
BRANCH  15  16
ATOM     16  C   UNL A   1      33.507  23.262  26.476  1.00  0.00    -0.037 A 
ATOM     17  C   UNL A   1      29.768  22.631  26.893  1.00  0.00     0.044 C 
ATOM     18  C   UNL A   1      31.088  23.330  26.761  1.00  0.00    -0.051 A 
ATOM     19  C   UNL A   1      31.135  24.730  26.742  1.00  0.00     0.006 A 
ATOM     20  C   UNL A   1      32.278  22.604  26.625  1.00  0.00     0.008 A 
ATOM     21  C   UNL A   1      32.352  25.406  26.601  1.00  0.00    -0.051 A 
ATOM     22  C   UNL A   1      32.378  26.904  26.542  1.00  0.00     0.044 C 
ATOM     23  C   UNL A   1      33.533  24.665  26.484  1.00  0.00     0.008 A 
ENDBRANCH  15  16
ENDBRANCH  14  15
ENDBRANCH   8  14
ENDBRANCH   5   7
ENDBRANCH   4   5
ENDBRANCH   3   4
ENDBRANCH   2   3
ENDBRANCH   1   2
BRANCH   1  24
ATOM     24  C   UNL A   1      31.287  29.855  25.176  1.00  0.00     0.202 C 
BRANCH  24  25
ATOM     25  C   UNL A   1      31.686  31.020  26.092  1.00  0.00     0.261 C 
BRANCH  25  26
ATOM     26  O   UNL A   1      32.731  30.677  27.016  1.00  0.00    -0.460 OA
BRANCH  26  27
ATOM     27  C   UNL A   1      33.456  31.743  27.440  1.00  0.00     0.338 C 
ATOM     28  O   UNL A   1      33.028  32.853  27.713  1.00  0.00    -0.246 OA
BRANCH  27  29
ATOM     29  C   UNL A   1      34.847  31.343  27.726  1.00  0.00     0.060 A 
ATOM     30  C   UNL A   1      35.098  29.971  27.852  1.00  0.00     0.016 A 
ATOM     31  C   UNL A   1      35.858  32.275  27.966  1.00  0.00     0.016 A 
ATOM     32  C   UNL A   1      36.337  29.529  28.302  1.00  0.00     0.010 A 
ATOM     33  C   UNL A   1      37.106  31.828  28.418  1.00  0.00     0.010 A 
ATOM     34  C   UNL A   1      37.332  30.456  28.640  1.00  0.00    -0.014 A 
BRANCH  34  35
ATOM     35  C   UNL A   1      38.519  29.982  29.397  1.00  0.00     0.031 A 
ATOM     36  C   UNL A   1      38.743  30.497  30.795  1.00  0.00     0.074 A 
ATOM     37  C   UNL A   1      39.336  29.046  28.880  1.00  0.00     0.049 A 
ATOM     38  N   UNL A   1      39.685  30.195  31.653  1.00  0.00    -0.248 NA
ATOM     39  C   UNL A   1      37.777  31.489  31.289  1.00  0.00     0.031 C 
ATOM     40  C   UNL A   1      39.192  28.442  27.557  1.00  0.00     0.029 A 
ATOM     41  N   UNL A   1      40.440  28.430  29.413  1.00  0.00    -0.354 N 
ATOM     42  C   UNL A   1      39.427  30.962  32.785  1.00  0.00     0.074 A 
ATOM     43  C   UNL A   1      38.271  31.779  32.482  1.00  0.00     0.031 C 
ATOM     44  C   UNL A   1      40.170  27.535  27.383  1.00  0.00     0.029 A 
ATOM     45  C   UNL A   1      41.028  27.520  28.566  1.00  0.00     0.049 A 
ATOM     46  H   UNL A   1      40.779  28.622  30.317  1.00  0.00     0.167 HD
ATOM     47  C   UNL A   1      40.083  30.973  33.972  1.00  0.00     0.034 A 
ATOM     48  C   UNL A   1      42.138  26.772  28.723  1.00  0.00     0.034 A 
ATOM     49  C   UNL A   1      41.239  30.154  34.255  1.00  0.00     0.049 A 
ATOM     50  C   UNL A   1      42.895  26.852  30.027  1.00  0.00     0.074 A 
ATOM     51  C   UNL A   1      41.973  30.075  35.426  1.00  0.00     0.029 A 
ATOM     52  N   UNL A   1      41.836  29.281  33.354  1.00  0.00    -0.354 N 
ATOM     53  N   UNL A   1      42.633  27.571  31.095  1.00  0.00    -0.248 NA
ATOM     54  C   UNL A   1      44.086  26.003  30.152  1.00  0.00     0.031 C 
ATOM     55  C   UNL A   1      43.059  29.220  35.206  1.00  0.00     0.029 A 
ATOM     56  C   UNL A   1      42.950  28.687  33.931  1.00  0.00     0.049 A 
ATOM     57  H   UNL A   1      41.517  29.108  32.440  1.00  0.00     0.167 HD
ATOM     58  C   UNL A   1      43.609  27.232  32.031  1.00  0.00     0.074 A 
ATOM     59  C   UNL A   1      44.448  26.231  31.406  1.00  0.00     0.031 C 
ATOM     60  C   UNL A   1      43.791  27.699  33.293  1.00  0.00     0.034 A 
BRANCH  47  61
ATOM     61  C   UNL A   1      39.595  31.939  35.028  1.00  0.00     0.023 A 
ATOM     62  C   UNL A   1      40.105  33.245  35.136  1.00  0.00     0.031 A 
ATOM     63  C   UNL A   1      38.630  31.534  35.967  1.00  0.00     0.131 A 
ATOM     64  C   UNL A   1      39.706  34.069  36.200  1.00  0.00     0.055 A 
ATOM     65  C   UNL A   1      38.171  32.389  36.971  1.00  0.00     0.041 A 
ATOM     66  F   UNL A   1      38.123  30.291  35.933  1.00  0.00    -0.206 F 
ATOM     67  C   UNL A   1      38.721  33.660  37.102  1.00  0.00     0.022 A 
BRANCH  64  68
ATOM     68  S   UNL A   1      40.604  35.620  36.483  1.00  0.00     0.124 S 
ATOM     69  O   UNL A   1      41.799  35.420  35.667  1.00  0.00    -0.237 OA
ATOM     70  O   UNL A   1      39.661  36.623  36.004  1.00  0.00    -0.237 OA
ATOM     71  O   UNL A   1      40.839  35.622  37.926  1.00  0.00    -0.744 OA
ENDBRANCH  64  68
ENDBRANCH  47  61
BRANCH  48  72
ATOM     72  C   UNL A   1      42.624  25.901  27.613  1.00  0.00     0.023 A 
ATOM     73  C   UNL A   1      42.133  24.598  27.436  1.00  0.00     0.031 A 
ATOM     74  C   UNL A   1      43.636  26.346  26.742  1.00  0.00     0.131 A 
ATOM     75  C   UNL A   1      42.686  23.769  26.447  1.00  0.00     0.055 A 
ATOM     76  C   UNL A   1      44.142  25.539  25.722  1.00  0.00     0.041 A 
ATOM     77  F   UNL A   1      44.143  27.583  26.867  1.00  0.00    -0.206 F 
ATOM     78  C   UNL A   1      43.677  24.236  25.580  1.00  0.00     0.022 A 
BRANCH  75  79
ATOM     79  S   UNL A   1      42.158  22.035  26.369  1.00  0.00     0.124 S 
ATOM     80  O   UNL A   1      42.987  21.522  25.285  1.00  0.00    -0.237 OA
ATOM     81  O   UNL A   1      42.484  21.560  27.709  1.00  0.00    -0.237 OA
ATOM     82  O   UNL A   1      40.730  22.129  26.074  1.00  0.00    -0.744 OA
ENDBRANCH  75  79
ENDBRANCH  48  72
BRANCH  60  83
ATOM     83  C   UNL A   1      44.914  27.084  34.099  1.00  0.00     0.023 A 
ATOM     84  C   UNL A   1      44.713  25.964  34.924  1.00  0.00     0.031 A 
ATOM     85  C   UNL A   1      46.201  27.652  34.065  1.00  0.00     0.131 A 
ATOM     86  C   UNL A   1      45.755  25.498  35.741  1.00  0.00     0.055 A 
ATOM     87  C   UNL A   1      47.255  27.136  34.821  1.00  0.00     0.041 A 
ATOM     88  F   UNL A   1      46.456  28.725  33.299  1.00  0.00    -0.206 F 
ATOM     89  C   UNL A   1      47.029  26.064  35.680  1.00  0.00     0.022 A 
BRANCH  86  90
ATOM     90  S   UNL A   1      45.385  24.230  36.984  1.00  0.00     0.124 S 
ATOM     91  O   UNL A   1      44.371  24.891  37.799  1.00  0.00    -0.237 OA
ATOM     92  O   UNL A   1      44.918  23.116  36.164  1.00  0.00    -0.237 OA
ATOM     93  O   UNL A   1      46.670  24.015  37.648  1.00  0.00    -0.744 OA
ENDBRANCH  86  90
ENDBRANCH  60  83
ENDBRANCH  34  35
ENDBRANCH  27  29
ENDBRANCH  26  27
ENDBRANCH  25  26
ENDBRANCH  24  25
ENDBRANCH   1  24
TORSDOF 20
ENDMDL
