MODEL 1
REMARK VINA RESULT:     -10.2      0.000      0.000
REMARK SMILES CC(C)CN(C)c1ccc([N+](=O)[O-])cc1C(=O)OCCOCCOC(=O)c1ccc(-c2c3nc(c(-c4cc(S(=O)(=O)[O-])ccc4F)c4ccc([nH]4)c(-c4cc(S(=O)(=O)[O-])ccc4F)c4nc(c(-c5cc(S(=O)(=O)[O-])ccc5F)c5ccc2[nH]5)C=C4)C=C3)cc1
REMARK SMILES IDX 21 1 20 2 19 3 18 4 16 5 17 6 15 7 7 8 8 9 9 10 14 11 10 12
REMARK SMILES IDX 5 13 6 14 4 15 2 16 1 17 3 18 11 19 12 20 13 21 22 22 23 23
REMARK SMILES IDX 24 24 25 25 26 26 27 27 28 28 89 29 29 30 88 31 30 32 31 33
REMARK SMILES IDX 32 34 82 35 33 36 87 37 81 38 83 39 34 40 86 41 80 42 79 43
REMARK SMILES IDX 35 45 67 46 47 47 66 48 48 49 51 50 65 51 84 52 49 53 50 54
REMARK SMILES IDX 64 56 85 57 52 58 36 59 37 60 45 61 38 62 44 63 46 64 43 65
REMARK SMILES IDX 39 66 40 67 41 68 42 69 68 70 69 71 77 72 70 73 76 74 78 75
REMARK SMILES IDX 75 76 71 77 72 78 73 79 74 80 53 81 54 82 62 83 55 84 61 85
REMARK SMILES IDX 63 86 60 87 56 88 57 89 58 90 59 91
REMARK H PARENT 83 44 51 55
REMARK Flexibility Score: inf
ROOT
ATOM      1  O   UNL A   1      36.397  22.544  23.637  1.00  0.00    -0.374 OA
ENDROOT
BRANCH   1   2
ATOM      2  C   UNL A   1      35.312  23.070  22.874  1.00  0.00     0.202 C 
BRANCH   2   3
ATOM      3  C   UNL A   1      34.053  23.419  23.665  1.00  0.00     0.261 C 
BRANCH   3   4
ATOM      4  O   UNL A   1      34.039  24.801  24.074  1.00  0.00    -0.460 OA
BRANCH   4   5
ATOM      5  C   UNL A   1      33.921  24.978  25.409  1.00  0.00     0.340 C 
ATOM      6  O   UNL A   1      34.467  24.302  26.273  1.00  0.00    -0.246 OA
BRANCH   5   7
ATOM      7  C   UNL A   1      33.149  26.184  25.795  1.00  0.00     0.090 A 
ATOM      8  C   UNL A   1      31.741  26.296  25.800  1.00  0.00     0.052 A 
ATOM      9  C   UNL A   1      31.189  27.469  26.364  1.00  0.00     0.034 A 
ATOM     10  C   UNL A   1      31.984  28.502  26.873  1.00  0.00     0.088 A 
ATOM     11  C   UNL A   1      33.955  27.232  26.288  1.00  0.00     0.103 A 
ATOM     12  C   UNL A   1      33.371  28.383  26.818  1.00  0.00     0.270 A 
BRANCH   8  13
ATOM     13  N   UNL A   1      30.878  25.323  25.291  1.00  0.00    -0.374 N 
ATOM     14  C   UNL A   1      30.455  25.505  23.900  1.00  0.00     0.143 C 
BRANCH  13  15
ATOM     15  C   UNL A   1      29.869  24.738  26.197  1.00  0.00     0.119 C 
BRANCH  15  16
ATOM     16  C   UNL A   1      30.361  23.403  26.780  1.00  0.00     0.002 C 
ATOM     17  C   UNL A   1      29.205  22.605  27.384  1.00  0.00     0.009 C 
ATOM     18  C   UNL A   1      31.081  22.552  25.734  1.00  0.00     0.009 C 
ENDBRANCH  15  16
ENDBRANCH  13  15
ENDBRANCH   8  13
BRANCH  12  19
ATOM     19  N   UNL A   1      34.222  29.459  27.339  1.00  0.00     0.062 N 
ATOM     20  O   UNL A   1      35.364  29.161  27.716  1.00  0.00    -0.258 OA
ATOM     21  O   UNL A   1      33.747  30.603  27.378  1.00  0.00    -0.258 OA
ENDBRANCH  12  19
ENDBRANCH   5   7
ENDBRANCH   4   5
ENDBRANCH   3   4
ENDBRANCH   2   3
ENDBRANCH   1   2
BRANCH   1  22
ATOM     22  C   UNL A   1      36.090  21.551  24.612  1.00  0.00     0.202 C 
BRANCH  22  23
ATOM     23  C   UNL A   1      37.196  21.189  25.612  1.00  0.00     0.261 C 
BRANCH  23  24
ATOM     24  O   UNL A   1      38.535  21.489  25.171  1.00  0.00    -0.460 OA
BRANCH  24  25
ATOM     25  C   UNL A   1      39.487  21.314  26.124  1.00  0.00     0.338 C 
ATOM     26  O   UNL A   1      40.128  20.299  26.340  1.00  0.00    -0.246 OA
BRANCH  25  27
ATOM     27  C   UNL A   1      39.749  22.565  26.862  1.00  0.00     0.060 A 
ATOM     28  C   UNL A   1      39.040  23.713  26.489  1.00  0.00     0.016 A 
ATOM     29  C   UNL A   1      40.822  22.654  27.752  1.00  0.00     0.016 A 
ATOM     30  C   UNL A   1      39.439  24.966  26.959  1.00  0.00     0.010 A 
ATOM     31  C   UNL A   1      41.225  23.913  28.217  1.00  0.00     0.010 A 
ATOM     32  C   UNL A   1      40.565  25.079  27.785  1.00  0.00    -0.014 A 
BRANCH  32  33
ATOM     33  C   UNL A   1      41.160  26.417  28.046  1.00  0.00     0.031 A 
ATOM     34  C   UNL A   1      42.567  26.696  27.582  1.00  0.00     0.074 A 
ATOM     35  C   UNL A   1      40.457  27.384  28.665  1.00  0.00     0.049 A 
ATOM     36  N   UNL A   1      43.304  27.764  27.752  1.00  0.00    -0.248 NA
ATOM     37  C   UNL A   1      43.230  25.621  26.828  1.00  0.00     0.031 C 
ATOM     38  C   UNL A   1      39.074  27.261  29.122  1.00  0.00     0.029 A 
ATOM     39  N   UNL A   1      40.820  28.658  29.025  1.00  0.00    -0.354 N 
ATOM     40  C   UNL A   1      44.518  27.492  27.130  1.00  0.00     0.074 A 
ATOM     41  C   UNL A   1      44.428  26.144  26.608  1.00  0.00     0.031 C 
ATOM     42  C   UNL A   1      38.709  28.411  29.716  1.00  0.00     0.029 A 
ATOM     43  C   UNL A   1      39.842  29.337  29.712  1.00  0.00     0.049 A 
ATOM     44  H   UNL A   1      41.697  29.049  28.809  1.00  0.00     0.167 HD
ATOM     45  C   UNL A   1      45.606  28.292  26.996  1.00  0.00     0.034 A 
ATOM     46  C   UNL A   1      39.866  30.554  30.294  1.00  0.00     0.034 A 
ATOM     47  C   UNL A   1      45.695  29.632  27.520  1.00  0.00     0.049 A 
ATOM     48  C   UNL A   1      41.116  31.395  30.206  1.00  0.00     0.074 A 
ATOM     49  C   UNL A   1      46.747  30.529  27.423  1.00  0.00     0.029 A 
ATOM     50  N   UNL A   1      44.699  30.268  28.248  1.00  0.00    -0.354 N 
ATOM     51  N   UNL A   1      42.258  31.121  29.618  1.00  0.00    -0.248 NA
ATOM     52  C   UNL A   1      41.077  32.711  30.859  1.00  0.00     0.031 C 
ATOM     53  C   UNL A   1      46.409  31.682  28.143  1.00  0.00     0.029 A 
ATOM     54  C   UNL A   1      45.123  31.531  28.635  1.00  0.00     0.049 A 
ATOM     55  H   UNL A   1      43.820  29.879  28.460  1.00  0.00     0.167 HD
ATOM     56  C   UNL A   1      43.061  32.245  29.809  1.00  0.00     0.074 A 
ATOM     57  C   UNL A   1      42.272  33.199  30.559  1.00  0.00     0.031 C 
ATOM     58  C   UNL A   1      44.333  32.469  29.395  1.00  0.00     0.034 A 
BRANCH  45  59
ATOM     59  C   UNL A   1      46.806  27.711  26.292  1.00  0.00     0.023 A 
ATOM     60  C   UNL A   1      47.095  28.013  24.951  1.00  0.00     0.031 A 
ATOM     61  C   UNL A   1      47.662  26.822  26.969  1.00  0.00     0.131 A 
ATOM     62  C   UNL A   1      48.174  27.385  24.310  1.00  0.00     0.055 A 
ATOM     63  C   UNL A   1      48.773  26.254  26.345  1.00  0.00     0.041 A 
ATOM     64  F   UNL A   1      47.421  26.482  28.246  1.00  0.00    -0.206 F 
ATOM     65  C   UNL A   1      49.028  26.523  25.005  1.00  0.00     0.022 A 
BRANCH  62  66
ATOM     66  S   UNL A   1      48.377  27.615  22.522  1.00  0.00     0.124 S 
ATOM     67  O   UNL A   1      47.166  28.358  22.181  1.00  0.00    -0.237 OA
ATOM     68  O   UNL A   1      49.629  28.358  22.440  1.00  0.00    -0.237 OA
ATOM     69  O   UNL A   1      48.427  26.249  22.005  1.00  0.00    -0.744 OA
ENDBRANCH  62  66
ENDBRANCH  45  59
BRANCH  46  70
ATOM     70  C   UNL A   1      38.688  31.041  31.065  1.00  0.00     0.023 A 
ATOM     71  C   UNL A   1      37.682  31.803  30.451  1.00  0.00     0.031 A 
ATOM     72  C   UNL A   1      38.590  30.804  32.448  1.00  0.00     0.131 A 
ATOM     73  C   UNL A   1      36.642  32.337  31.227  1.00  0.00     0.055 A 
ATOM     74  C   UNL A   1      37.530  31.301  33.207  1.00  0.00     0.041 A 
ATOM     75  F   UNL A   1      39.528  30.080  33.080  1.00  0.00    -0.206 F 
ATOM     76  C   UNL A   1      36.554  32.083  32.598  1.00  0.00     0.022 A 
BRANCH  73  77
ATOM     77  S   UNL A   1      35.441  33.439  30.430  1.00  0.00     0.124 S 
ATOM     78  O   UNL A   1      34.391  32.503  30.042  1.00  0.00    -0.237 OA
ATOM     79  O   UNL A   1      35.113  34.360  31.513  1.00  0.00    -0.237 OA
ATOM     80  O   UNL A   1      36.197  34.023  29.325  1.00  0.00    -0.744 OA
ENDBRANCH  73  77
ENDBRANCH  46  70
BRANCH  58  81
ATOM     81  C   UNL A   1      44.931  33.818  29.711  1.00  0.00     0.023 A 
ATOM     82  C   UNL A   1      44.772  34.916  28.848  1.00  0.00     0.031 A 
ATOM     83  C   UNL A   1      45.681  34.000  30.886  1.00  0.00     0.131 A 
ATOM     84  C   UNL A   1      45.395  36.137  29.150  1.00  0.00     0.055 A 
ATOM     85  C   UNL A   1      46.258  35.229  31.205  1.00  0.00     0.041 A 
ATOM     86  F   UNL A   1      45.863  32.983  31.743  1.00  0.00    -0.206 F 
ATOM     87  C   UNL A   1      46.127  36.304  30.330  1.00  0.00     0.022 A 
BRANCH  84  88
ATOM     88  S   UNL A   1      45.301  37.488  27.943  1.00  0.00     0.124 S 
ATOM     89  O   UNL A   1      46.117  38.520  28.576  1.00  0.00    -0.237 OA
ATOM     90  O   UNL A   1      45.866  36.875  26.745  1.00  0.00    -0.237 OA
ATOM     91  O   UNL A   1      43.872  37.786  27.870  1.00  0.00    -0.744 OA
ENDBRANCH  84  88
ENDBRANCH  58  81
ENDBRANCH  32  33
ENDBRANCH  25  27
ENDBRANCH  24  25
ENDBRANCH  23  24
ENDBRANCH  22  23
ENDBRANCH   1  22
TORSDOF 21
ENDMDL
MODEL 2
REMARK VINA RESULT:     -10.0      4.871     10.229
REMARK SMILES CC(C)CN(C)c1ccc([N+](=O)[O-])cc1C(=O)OCCOCCOC(=O)c1ccc(-c2c3nc(c(-c4cc(S(=O)(=O)[O-])ccc4F)c4ccc([nH]4)c(-c4cc(S(=O)(=O)[O-])ccc4F)c4nc(c(-c5cc(S(=O)(=O)[O-])ccc5F)c5ccc2[nH]5)C=C4)C=C3)cc1
REMARK SMILES IDX 21 1 20 2 19 3 18 4 16 5 17 6 15 7 7 8 8 9 9 10 14 11 10 12
REMARK SMILES IDX 5 13 6 14 4 15 2 16 1 17 3 18 11 19 12 20 13 21 22 22 23 23
REMARK SMILES IDX 24 24 25 25 26 26 27 27 28 28 89 29 29 30 88 31 30 32 31 33
REMARK SMILES IDX 32 34 82 35 33 36 87 37 81 38 83 39 34 40 86 41 80 42 79 43
REMARK SMILES IDX 35 45 67 46 47 47 66 48 48 49 51 50 65 51 84 52 49 53 50 54
REMARK SMILES IDX 64 56 85 57 52 58 36 59 37 60 45 61 38 62 44 63 46 64 43 65
REMARK SMILES IDX 39 66 40 67 41 68 42 69 68 70 69 71 77 72 70 73 76 74 78 75
REMARK SMILES IDX 75 76 71 77 72 78 73 79 74 80 53 81 54 82 62 83 55 84 61 85
REMARK SMILES IDX 63 86 60 87 56 88 57 89 58 90 59 91
REMARK H PARENT 83 44 51 55
REMARK Flexibility Score: inf
ROOT
ATOM      1  O   UNL A   1      32.106  30.683  27.023  1.00  0.00    -0.374 OA
ENDROOT
BRANCH   1   2
ATOM      2  C   UNL A   1      32.774  29.922  26.017  1.00  0.00     0.202 C 
BRANCH   2   3
ATOM      3  C   UNL A   1      32.576  28.410  26.090  1.00  0.00     0.261 C 
BRANCH   3   4
ATOM      4  O   UNL A   1      33.777  27.691  25.749  1.00  0.00    -0.460 OA
BRANCH   4   5
ATOM      5  C   UNL A   1      33.784  27.198  24.490  1.00  0.00     0.340 C 
ATOM      6  O   UNL A   1      33.983  27.844  23.468  1.00  0.00    -0.246 OA
BRANCH   5   7
ATOM      7  C   UNL A   1      33.654  25.723  24.416  1.00  0.00     0.090 A 
ATOM      8  C   UNL A   1      32.764  25.014  23.577  1.00  0.00     0.052 A 
ATOM      9  C   UNL A   1      32.909  23.608  23.525  1.00  0.00     0.034 A 
ATOM     10  C   UNL A   1      33.865  22.924  24.285  1.00  0.00     0.088 A 
ATOM     11  C   UNL A   1      34.605  25.035  25.200  1.00  0.00     0.103 A 
ATOM     12  C   UNL A   1      34.702  23.645  25.134  1.00  0.00     0.270 A 
BRANCH   8  13
ATOM     13  N   UNL A   1      31.769  25.617  22.806  1.00  0.00    -0.374 N 
ATOM     14  C   UNL A   1      32.133  25.936  21.423  1.00  0.00     0.143 C 
BRANCH  13  15
ATOM     15  C   UNL A   1      30.854  26.571  23.465  1.00  0.00     0.119 C 
BRANCH  15  16
ATOM     16  C   UNL A   1      29.689  25.835  24.146  1.00  0.00     0.002 C 
ATOM     17  C   UNL A   1      29.926  25.698  25.650  1.00  0.00     0.009 C 
ATOM     18  C   UNL A   1      28.349  26.530  23.900  1.00  0.00     0.009 C 
ENDBRANCH  15  16
ENDBRANCH  13  15
ENDBRANCH   8  13
BRANCH  12  19
ATOM     19  N   UNL A   1      35.704  22.945  25.946  1.00  0.00     0.062 N 
ATOM     20  O   UNL A   1      35.433  21.800  26.335  1.00  0.00    -0.258 OA
ATOM     21  O   UNL A   1      36.760  23.540  26.202  1.00  0.00    -0.258 OA
ENDBRANCH  12  19
ENDBRANCH   5   7
ENDBRANCH   4   5
ENDBRANCH   3   4
ENDBRANCH   2   3
ENDBRANCH   1   2
BRANCH   1  22
ATOM     22  C   UNL A   1      31.324  31.793  26.591  1.00  0.00     0.202 C 
BRANCH  22  23
ATOM     23  C   UNL A   1      31.794  33.189  27.024  1.00  0.00     0.261 C 
BRANCH  23  24
ATOM     24  O   UNL A   1      33.220  33.387  26.989  1.00  0.00    -0.460 OA
BRANCH  24  25
ATOM     25  C   UNL A   1      33.793  33.525  28.213  1.00  0.00     0.338 C 
ATOM     26  O   UNL A   1      33.355  34.160  29.158  1.00  0.00    -0.246 OA
BRANCH  25  27
ATOM     27  C   UNL A   1      35.024  32.719  28.328  1.00  0.00     0.060 A 
ATOM     28  C   UNL A   1      34.900  31.370  28.683  1.00  0.00     0.016 A 
ATOM     29  C   UNL A   1      36.279  33.330  28.299  1.00  0.00     0.016 A 
ATOM     30  C   UNL A   1      36.027  30.641  29.069  1.00  0.00     0.010 A 
ATOM     31  C   UNL A   1      37.408  32.598  28.694  1.00  0.00     0.010 A 
ATOM     32  C   UNL A   1      37.280  31.265  29.127  1.00  0.00    -0.014 A 
BRANCH  32  33
ATOM     33  C   UNL A   1      38.414  30.585  29.808  1.00  0.00     0.031 A 
ATOM     34  C   UNL A   1      38.751  30.968  31.227  1.00  0.00     0.074 A 
ATOM     35  C   UNL A   1      39.124  29.624  29.189  1.00  0.00     0.049 A 
ATOM     36  N   UNL A   1      39.728  30.552  31.992  1.00  0.00    -0.248 NA
ATOM     37  C   UNL A   1      37.866  31.957  31.864  1.00  0.00     0.031 C 
ATOM     38  C   UNL A   1      38.873  29.127  27.838  1.00  0.00     0.029 A 
ATOM     39  N   UNL A   1      40.210  28.902  29.619  1.00  0.00    -0.354 N 
ATOM     40  C   UNL A   1      39.580  31.228  33.199  1.00  0.00     0.074 A 
ATOM     41  C   UNL A   1      38.437  32.105  33.050  1.00  0.00     0.031 C 
ATOM     42  C   UNL A   1      39.791  28.189  27.542  1.00  0.00     0.029 A 
ATOM     43  C   UNL A   1      40.713  28.045  28.669  1.00  0.00     0.049 A 
ATOM     44  H   UNL A   1      40.591  28.988  30.522  1.00  0.00     0.167 HD
ATOM     45  C   UNL A   1      40.320  31.123  34.332  1.00  0.00     0.034 A 
ATOM     46  C   UNL A   1      41.806  27.255  28.695  1.00  0.00     0.034 A 
ATOM     47  C   UNL A   1      41.460  30.252  34.476  1.00  0.00     0.049 A 
ATOM     48  C   UNL A   1      42.665  27.216  29.936  1.00  0.00     0.074 A 
ATOM     49  C   UNL A   1      42.266  30.061  35.587  1.00  0.00     0.029 A 
ATOM     50  N   UNL A   1      41.965  29.432  33.476  1.00  0.00    -0.354 N 
ATOM     51  N   UNL A   1      42.514  27.864  31.067  1.00  0.00    -0.248 NA
ATOM     52  C   UNL A   1      43.841  26.334  29.900  1.00  0.00     0.031 C 
ATOM     53  C   UNL A   1      43.290  29.172  35.240  1.00  0.00     0.029 A 
ATOM     54  C   UNL A   1      43.089  28.759  33.933  1.00  0.00     0.049 A 
ATOM     55  H   UNL A   1      41.582  29.341  32.574  1.00  0.00     0.167 HD
ATOM     56  C   UNL A   1      43.562  27.446  31.886  1.00  0.00     0.074 A 
ATOM     57  C   UNL A   1      44.331  26.486  31.122  1.00  0.00     0.031 C 
ATOM     58  C   UNL A   1      43.857  27.816  33.157  1.00  0.00     0.034 A 
BRANCH  45  59
ATOM     59  C   UNL A   1      39.941  32.014  35.488  1.00  0.00     0.023 A 
ATOM     60  C   UNL A   1      39.024  31.601  36.469  1.00  0.00     0.031 A 
ATOM     61  C   UNL A   1      40.490  33.304  35.595  1.00  0.00     0.131 A 
ATOM     62  C   UNL A   1      38.638  32.493  37.482  1.00  0.00     0.055 A 
ATOM     63  C   UNL A   1      40.151  34.162  36.643  1.00  0.00     0.041 A 
ATOM     64  F   UNL A   1      41.354  33.757  34.673  1.00  0.00    -0.206 F 
ATOM     65  C   UNL A   1      39.210  33.763  37.587  1.00  0.00     0.022 A 
BRANCH  62  66
ATOM     66  S   UNL A   1      37.283  32.014  38.590  1.00  0.00     0.124 S 
ATOM     67  O   UNL A   1      37.201  30.575  38.352  1.00  0.00    -0.237 OA
ATOM     68  O   UNL A   1      37.787  32.420  39.896  1.00  0.00    -0.237 OA
ATOM     69  O   UNL A   1      36.145  32.786  38.093  1.00  0.00    -0.744 OA
ENDBRANCH  62  66
ENDBRANCH  45  59
BRANCH  46  70
ATOM     70  C   UNL A   1      42.195  26.471  27.490  1.00  0.00     0.023 A 
ATOM     71  C   UNL A   1      41.902  25.102  27.387  1.00  0.00     0.031 A 
ATOM     72  C   UNL A   1      42.927  27.072  26.450  1.00  0.00     0.131 A 
ATOM     73  C   UNL A   1      42.375  24.369  26.288  1.00  0.00     0.055 A 
ATOM     74  C   UNL A   1      43.358  26.347  25.338  1.00  0.00     0.041 A 
ATOM     75  F   UNL A   1      43.232  28.378  26.502  1.00  0.00    -0.206 F 
ATOM     76  C   UNL A   1      43.093  24.984  25.259  1.00  0.00     0.022 A 
BRANCH  73  77
ATOM     77  S   UNL A   1      42.106  22.575  26.260  1.00  0.00     0.124 S 
ATOM     78  O   UNL A   1      42.765  22.195  25.015  1.00  0.00    -0.237 OA
ATOM     79  O   UNL A   1      42.766  22.152  27.492  1.00  0.00    -0.237 OA
ATOM     80  O   UNL A   1      40.651  22.450  26.260  1.00  0.00    -0.744 OA
ENDBRANCH  73  77
ENDBRANCH  46  70
BRANCH  58  81
ATOM     81  C   UNL A   1      45.039  27.145  33.812  1.00  0.00     0.023 A 
ATOM     82  C   UNL A   1      44.904  25.939  34.521  1.00  0.00     0.031 A 
ATOM     83  C   UNL A   1      46.315  27.730  33.733  1.00  0.00     0.131 A 
ATOM     84  C   UNL A   1      46.019  25.380  35.166  1.00  0.00     0.055 A 
ATOM     85  C   UNL A   1      47.429  27.145  34.336  1.00  0.00     0.041 A 
ATOM     86  F   UNL A   1      46.498  28.882  33.069  1.00  0.00    -0.206 F 
ATOM     87  C   UNL A   1      47.283  25.969  35.068  1.00  0.00     0.022 A 
BRANCH  84  88
ATOM     88  S   UNL A   1      45.783  23.909  36.201  1.00  0.00     0.124 S 
ATOM     89  O   UNL A   1      45.220  24.481  37.420  1.00  0.00    -0.237 OA
ATOM     90  O   UNL A   1      44.871  23.104  35.395  1.00  0.00    -0.237 OA
ATOM     91  O   UNL A   1      47.133  23.365  36.338  1.00  0.00    -0.744 OA
ENDBRANCH  84  88
ENDBRANCH  58  81
ENDBRANCH  32  33
ENDBRANCH  25  27
ENDBRANCH  24  25
ENDBRANCH  23  24
ENDBRANCH  22  23
ENDBRANCH   1  22
TORSDOF 21
ENDMDL
MODEL 3
REMARK VINA RESULT:      -9.8      1.750      7.726
REMARK SMILES CC(C)CN(C)c1ccc([N+](=O)[O-])cc1C(=O)OCCOCCOC(=O)c1ccc(-c2c3nc(c(-c4cc(S(=O)(=O)[O-])ccc4F)c4ccc([nH]4)c(-c4cc(S(=O)(=O)[O-])ccc4F)c4nc(c(-c5cc(S(=O)(=O)[O-])ccc5F)c5ccc2[nH]5)C=C4)C=C3)cc1
REMARK SMILES IDX 21 1 20 2 19 3 18 4 16 5 17 6 15 7 7 8 8 9 9 10 14 11 10 12
REMARK SMILES IDX 5 13 6 14 4 15 2 16 1 17 3 18 11 19 12 20 13 21 22 22 23 23
REMARK SMILES IDX 24 24 25 25 26 26 27 27 28 28 89 29 29 30 88 31 30 32 31 33
REMARK SMILES IDX 32 34 82 35 33 36 87 37 81 38 83 39 34 40 86 41 80 42 79 43
REMARK SMILES IDX 35 45 67 46 47 47 66 48 48 49 51 50 65 51 84 52 49 53 50 54
REMARK SMILES IDX 64 56 85 57 52 58 36 59 37 60 45 61 38 62 44 63 46 64 43 65
REMARK SMILES IDX 39 66 40 67 41 68 42 69 68 70 69 71 77 72 70 73 76 74 78 75
REMARK SMILES IDX 75 76 71 77 72 78 73 79 74 80 53 81 54 82 62 83 55 84 61 85
REMARK SMILES IDX 63 86 60 87 56 88 57 89 58 90 59 91
REMARK H PARENT 83 44 51 55
REMARK Flexibility Score: inf
ROOT
ATOM      1  O   UNL A   1      35.836  22.574  23.238  1.00  0.00    -0.374 OA
ENDROOT
BRANCH   1   2
ATOM      2  C   UNL A   1      34.721  23.464  23.269  1.00  0.00     0.202 C 
BRANCH   2   3
ATOM      3  C   UNL A   1      34.000  23.575  24.611  1.00  0.00     0.261 C 
BRANCH   3   4
ATOM      4  O   UNL A   1      34.376  24.767  25.328  1.00  0.00    -0.460 OA
BRANCH   4   5
ATOM      5  C   UNL A   1      33.327  25.480  25.798  1.00  0.00     0.340 C 
ATOM      6  O   UNL A   1      32.446  25.054  26.536  1.00  0.00    -0.246 OA
BRANCH   5   7
ATOM      7  C   UNL A   1      33.370  26.921  25.456  1.00  0.00     0.090 A 
ATOM      8  C   UNL A   1      32.904  27.498  24.253  1.00  0.00     0.052 A 
ATOM      9  C   UNL A   1      32.875  28.910  24.184  1.00  0.00     0.034 A 
ATOM     10  C   UNL A   1      33.311  29.722  25.237  1.00  0.00     0.088 A 
ATOM     11  C   UNL A   1      33.832  27.736  26.512  1.00  0.00     0.103 A 
ATOM     12  C   UNL A   1      33.804  29.126  26.397  1.00  0.00     0.270 A 
BRANCH   8  13
ATOM     13  N   UNL A   1      32.473  26.761  23.149  1.00  0.00    -0.374 N 
ATOM     14  C   UNL A   1      33.407  26.687  22.022  1.00  0.00     0.143 C 
BRANCH  13  15
ATOM     15  C   UNL A   1      31.040  26.805  22.793  1.00  0.00     0.119 C 
BRANCH  15  16
ATOM     16  C   UNL A   1      30.193  26.047  23.828  1.00  0.00     0.002 C 
ATOM     17  C   UNL A   1      28.717  26.436  23.724  1.00  0.00     0.009 C 
ATOM     18  C   UNL A   1      30.335  24.532  23.687  1.00  0.00     0.009 C 
ENDBRANCH  15  16
ENDBRANCH  13  15
ENDBRANCH   8  13
BRANCH  12  19
ATOM     19  N   UNL A   1      34.276  29.960  27.507  1.00  0.00     0.062 N 
ATOM     20  O   UNL A   1      35.232  29.544  28.176  1.00  0.00    -0.258 OA
ATOM     21  O   UNL A   1      33.686  31.029  27.719  1.00  0.00    -0.258 OA
ENDBRANCH  12  19
ENDBRANCH   5   7
ENDBRANCH   4   5
ENDBRANCH   3   4
ENDBRANCH   2   3
ENDBRANCH   1   2
BRANCH   1  22
ATOM     22  C   UNL A   1      35.955  21.637  24.305  1.00  0.00     0.202 C 
BRANCH  22  23
ATOM     23  C   UNL A   1      36.912  22.000  25.449  1.00  0.00     0.261 C 
BRANCH  23  24
ATOM     24  O   UNL A   1      38.309  21.978  25.103  1.00  0.00    -0.460 OA
BRANCH  24  25
ATOM     25  C   UNL A   1      39.135  21.682  26.140  1.00  0.00     0.338 C 
ATOM     26  O   UNL A   1      39.528  20.575  26.469  1.00  0.00    -0.246 OA
BRANCH  25  27
ATOM     27  C   UNL A   1      39.609  22.903  26.819  1.00  0.00     0.060 A 
ATOM     28  C   UNL A   1      39.138  24.140  26.362  1.00  0.00     0.016 A 
ATOM     29  C   UNL A   1      40.656  22.843  27.742  1.00  0.00     0.016 A 
ATOM     30  C   UNL A   1      39.753  25.322  26.779  1.00  0.00     0.010 A 
ATOM     31  C   UNL A   1      41.277  24.030  28.154  1.00  0.00     0.010 A 
ATOM     32  C   UNL A   1      40.859  25.272  27.638  1.00  0.00    -0.014 A 
BRANCH  32  33
ATOM     33  C   UNL A   1      41.688  26.489  27.849  1.00  0.00     0.031 A 
ATOM     34  C   UNL A   1      41.113  27.637  28.639  1.00  0.00     0.074 A 
ATOM     35  C   UNL A   1      42.942  26.570  27.369  1.00  0.00     0.049 A 
ATOM     36  N   UNL A   1      41.629  28.812  28.897  1.00  0.00    -0.248 NA
ATOM     37  C   UNL A   1      39.773  27.430  29.211  1.00  0.00     0.031 C 
ATOM     38  C   UNL A   1      43.634  25.515  26.631  1.00  0.00     0.029 A 
ATOM     39  N   UNL A   1      43.853  27.595  27.425  1.00  0.00    -0.354 N 
ATOM     40  C   UNL A   1      40.680  29.486  29.658  1.00  0.00     0.074 A 
ATOM     41  C   UNL A   1      39.543  28.599  29.791  1.00  0.00     0.031 C 
ATOM     42  C   UNL A   1      44.858  25.955  26.289  1.00  0.00     0.029 A 
ATOM     43  C   UNL A   1      45.023  27.331  26.753  1.00  0.00     0.049 A 
ATOM     44  H   UNL A   1      43.685  28.439  27.903  1.00  0.00     0.167 HD
ATOM     45  C   UNL A   1      40.749  30.727  30.204  1.00  0.00     0.034 A 
ATOM     46  C   UNL A   1      46.093  28.119  26.517  1.00  0.00     0.034 A 
ATOM     47  C   UNL A   1      41.881  31.610  30.067  1.00  0.00     0.049 A 
ATOM     48  C   UNL A   1      46.115  29.526  27.063  1.00  0.00     0.074 A 
ATOM     49  C   UNL A   1      42.056  32.879  30.595  1.00  0.00     0.029 A 
ATOM     50  N   UNL A   1      43.029  31.323  29.341  1.00  0.00    -0.354 N 
ATOM     51  N   UNL A   1      45.207  30.151  27.776  1.00  0.00    -0.248 NA
ATOM     52  C   UNL A   1      47.309  30.331  26.771  1.00  0.00     0.031 C 
ATOM     53  C   UNL A   1      43.281  33.380  30.140  1.00  0.00     0.029 A 
ATOM     54  C   UNL A   1      43.901  32.402  29.380  1.00  0.00     0.049 A 
ATOM     55  H   UNL A   1      43.200  30.478  28.867  1.00  0.00     0.167 HD
ATOM     56  C   UNL A   1      45.736  31.414  28.040  1.00  0.00     0.074 A 
ATOM     57  C   UNL A   1      47.042  31.457  27.417  1.00  0.00     0.031 C 
ATOM     58  C   UNL A   1      45.194  32.440  28.742  1.00  0.00     0.034 A 
BRANCH  45  59
ATOM     59  C   UNL A   1      39.540  31.215  30.960  1.00  0.00     0.023 A 
ATOM     60  C   UNL A   1      39.517  31.264  32.365  1.00  0.00     0.031 A 
ATOM     61  C   UNL A   1      38.385  31.617  30.265  1.00  0.00     0.131 A 
ATOM     62  C   UNL A   1      38.343  31.647  33.030  1.00  0.00     0.055 A 
ATOM     63  C   UNL A   1      37.243  32.060  30.933  1.00  0.00     0.041 A 
ATOM     64  F   UNL A   1      38.346  31.570  28.924  1.00  0.00    -0.206 F 
ATOM     65  C   UNL A   1      37.212  32.065  32.323  1.00  0.00     0.022 A 
BRANCH  62  66
ATOM     66  S   UNL A   1      38.271  31.474  34.835  1.00  0.00     0.124 S 
ATOM     67  O   UNL A   1      38.032  30.040  34.985  1.00  0.00    -0.237 OA
ATOM     68  O   UNL A   1      39.584  31.951  35.250  1.00  0.00    -0.237 OA
ATOM     69  O   UNL A   1      37.147  32.327  35.217  1.00  0.00    -0.744 OA
ENDBRANCH  62  66
ENDBRANCH  45  59
BRANCH  46  70
ATOM     70  C   UNL A   1      47.219  27.624  25.677  1.00  0.00     0.023 A 
ATOM     71  C   UNL A   1      47.320  27.967  24.320  1.00  0.00     0.031 A 
ATOM     72  C   UNL A   1      48.177  26.743  26.211  1.00  0.00     0.131 A 
ATOM     73  C   UNL A   1      48.332  27.398  23.531  1.00  0.00     0.055 A 
ATOM     74  C   UNL A   1      49.208  26.216  25.433  1.00  0.00     0.041 A 
ATOM     75  F   UNL A   1      48.124  26.387  27.504  1.00  0.00    -0.206 F 
ATOM     76  C   UNL A   1      49.281  26.533  24.081  1.00  0.00     0.022 A 
BRANCH  73  77
ATOM     77  S   UNL A   1      48.343  27.745  21.751  1.00  0.00     0.124 S 
ATOM     78  O   UNL A   1      49.447  28.692  21.640  1.00  0.00    -0.237 OA
ATOM     79  O   UNL A   1      48.574  26.419  21.187  1.00  0.00    -0.237 OA
ATOM     80  O   UNL A   1      47.015  28.303  21.505  1.00  0.00    -0.744 OA
ENDBRANCH  73  77
ENDBRANCH  46  70
BRANCH  58  81
ATOM     81  C   UNL A   1      46.036  33.681  28.905  1.00  0.00     0.023 A 
ATOM     82  C   UNL A   1      46.069  34.686  27.923  1.00  0.00     0.031 A 
ATOM     83  C   UNL A   1      46.827  33.851  30.056  1.00  0.00     0.131 A 
ATOM     84  C   UNL A   1      46.913  35.796  28.088  1.00  0.00     0.055 A 
ATOM     85  C   UNL A   1      47.628  34.979  30.236  1.00  0.00     0.041 A 
ATOM     86  F   UNL A   1      46.833  32.920  31.023  1.00  0.00    -0.206 F 
ATOM     87  C   UNL A   1      47.683  35.955  29.244  1.00  0.00     0.022 A 
BRANCH  84  88
ATOM     88  S   UNL A   1      47.050  36.997  26.736  1.00  0.00     0.124 S 
ATOM     89  O   UNL A   1      48.308  37.667  27.049  1.00  0.00    -0.237 OA
ATOM     90  O   UNL A   1      47.063  36.138  25.556  1.00  0.00    -0.237 OA
ATOM     91  O   UNL A   1      45.854  37.823  26.886  1.00  0.00    -0.744 OA
ENDBRANCH  84  88
ENDBRANCH  58  81
ENDBRANCH  32  33
ENDBRANCH  25  27
ENDBRANCH  24  25
ENDBRANCH  23  24
ENDBRANCH  22  23
ENDBRANCH   1  22
TORSDOF 21
ENDMDL
