MODEL 1
REMARK VINA RESULT:     -11.8      0.000      0.000
REMARK SMILES CC1(C)S[C@@H]2[C@H]([NH2+]Cn3nnc4ccccc43)C(=O)N2[C@@H]1C(=O)OCCOCCOC(=O)c1ccc(-c2c3nc(c(-c4cc(S(=O)(=O)[O-])ccc4F)c4ccc([nH]4)c(-c4cc(S(=O)(=O)[O-])ccc4F)c4nc(c(-c5cc(S(=O)(=O)[O-])ccc5F)c5ccc2[nH]5)C=C4)C=C3)cc1
REMARK SMILES IDX 27 1 26 2 25 3 24 4 22 5 23 6 21 7 1 8 2 9 3 10 4 11 5 12
REMARK SMILES IDX 20 13 6 14 18 15 19 16 7 17 8 20 9 21 10 22 17 23 11 24
REMARK SMILES IDX 12 25 16 26 13 27 15 28 14 29 28 30 29 31 30 32 31 33 32 34
REMARK SMILES IDX 33 35 34 36 95 37 35 38 94 39 36 40 37 41 38 42 88 43 39 44
REMARK SMILES IDX 93 45 87 46 89 47 40 48 92 49 86 50 85 51 41 53 73 54 53 55
REMARK SMILES IDX 72 56 54 57 57 58 71 59 90 60 55 61 56 62 70 64 91 65 58 66
REMARK SMILES IDX 42 67 43 68 51 69 44 70 50 71 52 72 49 73 45 74 46 75 47 76
REMARK SMILES IDX 48 77 74 78 75 79 83 80 76 81 82 82 84 83 81 84 77 85 78 86
REMARK SMILES IDX 79 87 80 88 59 89 60 90 68 91 61 92 67 93 69 94 66 95 62 96
REMARK SMILES IDX 63 97 64 98 65 99
REMARK H PARENT 7 18 7 19 89 52 57 63
REMARK Flexibility Score: inf
ROOT
ATOM      1  O   UNL A   1      37.148  23.083  24.081  1.00  0.00    -0.374 OA
ENDROOT
BRANCH   1   2
ATOM      2  C   UNL A   1      36.026  23.865  24.478  1.00  0.00     0.202 C 
BRANCH   2   3
ATOM      3  C   UNL A   1      34.821  23.931  23.533  1.00  0.00     0.261 C 
BRANCH   3   4
ATOM      4  O   UNL A   1      33.872  24.957  23.862  1.00  0.00    -0.462 OA
BRANCH   4   5
ATOM      5  C   UNL A   1      33.486  25.722  22.804  1.00  0.00     0.330 C 
ATOM      6  O   UNL A   1      34.117  25.854  21.759  1.00  0.00    -0.250 OA
BRANCH   5   7
ATOM      7  C   UNL A   1      32.218  26.530  23.073  1.00  0.00     0.212 C 
ATOM      8  C   UNL A   1      34.035  28.124  24.129  1.00  0.00     0.026 C 
ATOM      9  C   UNL A   1      32.572  27.914  23.710  1.00  0.00     0.044 C 
ATOM     10  C   UNL A   1      32.136  29.039  22.767  1.00  0.00     0.026 C 
ATOM     11  S   UNL A   1      31.535  28.089  25.278  1.00  0.00    -0.121 SA
ATOM     12  C   UNL A   1      30.382  26.819  24.756  1.00  0.00     0.213 C 
ATOM     13  N   UNL A   1      31.241  25.948  23.965  1.00  0.00    -0.304 N 
ATOM     14  C   UNL A   1      29.872  25.511  25.442  1.00  0.00     0.307 C 
ATOM     15  C   UNL A   1      30.388  24.918  24.027  1.00  0.00     0.285 C 
ATOM     16  O   UNL A   1      30.156  24.005  23.267  1.00  0.00    -0.268 OA
BRANCH  14  17
ATOM     17  N   UNL A   1      30.551  24.877  26.606  1.00  0.00    -0.315 N 
ATOM     18  H   UNL A   1      30.165  25.276  27.462  1.00  0.00     0.348 HD
ATOM     19  H   UNL A   1      31.549  25.063  26.508  1.00  0.00     0.348 HD
BRANCH  17  20
ATOM     20  C   UNL A   1      30.388  23.438  26.657  1.00  0.00     0.415 C 
BRANCH  20  21
ATOM     21  N   UNL A   1      31.607  22.695  26.961  1.00  0.00    -0.194 N 
ATOM     22  N   UNL A   1      32.392  22.890  28.037  1.00  0.00    -0.061 NA
ATOM     23  C   UNL A   1      32.186  21.858  26.042  1.00  0.00     0.095 A 
ATOM     24  N   UNL A   1      33.515  22.204  27.826  1.00  0.00    -0.130 NA
ATOM     25  C   UNL A   1      33.427  21.595  26.596  1.00  0.00     0.113 A 
ATOM     26  C   UNL A   1      31.758  21.377  24.800  1.00  0.00     0.030 A 
ATOM     27  C   UNL A   1      34.341  20.834  25.855  1.00  0.00     0.032 A 
ATOM     28  C   UNL A   1      32.680  20.633  24.071  1.00  0.00     0.002 A 
ATOM     29  C   UNL A   1      33.957  20.390  24.577  1.00  0.00     0.002 A 
ENDBRANCH  20  21
ENDBRANCH  17  20
ENDBRANCH  14  17
ENDBRANCH   5   7
ENDBRANCH   4   5
ENDBRANCH   3   4
ENDBRANCH   2   3
ENDBRANCH   1   2
BRANCH   1  30
ATOM     30  C   UNL A   1      37.338  21.815  24.718  1.00  0.00     0.202 C 
BRANCH  30  31
ATOM     31  C   UNL A   1      38.603  21.619  25.574  1.00  0.00     0.261 C 
BRANCH  31  32
ATOM     32  O   UNL A   1      38.877  22.788  26.362  1.00  0.00    -0.460 OA
BRANCH  32  33
ATOM     33  C   UNL A   1      40.037  22.719  27.073  1.00  0.00     0.338 C 
ATOM     34  O   UNL A   1      40.822  21.791  27.116  1.00  0.00    -0.246 OA
BRANCH  33  35
ATOM     35  C   UNL A   1      40.343  24.120  27.419  1.00  0.00     0.060 A 
ATOM     36  C   UNL A   1      41.532  24.444  28.072  1.00  0.00     0.016 A 
ATOM     37  C   UNL A   1      39.273  25.025  27.366  1.00  0.00     0.016 A 
ATOM     38  C   UNL A   1      41.615  25.647  28.761  1.00  0.00     0.010 A 
ATOM     39  C   UNL A   1      39.349  26.215  28.083  1.00  0.00     0.010 A 
ATOM     40  C   UNL A   1      40.504  26.507  28.814  1.00  0.00    -0.014 A 
BRANCH  40  41
ATOM     41  C   UNL A   1      40.667  27.781  29.523  1.00  0.00     0.031 A 
ATOM     42  C   UNL A   1      41.621  28.723  28.863  1.00  0.00     0.074 A 
ATOM     43  C   UNL A   1      39.935  28.182  30.583  1.00  0.00     0.049 A 
ATOM     44  N   UNL A   1      42.662  29.315  29.355  1.00  0.00    -0.248 NA
ATOM     45  C   UNL A   1      41.419  28.951  27.424  1.00  0.00     0.031 C 
ATOM     46  C   UNL A   1      38.737  27.554  31.145  1.00  0.00     0.029 A 
ATOM     47  N   UNL A   1      40.052  29.331  31.317  1.00  0.00    -0.354 N 
ATOM     48  C   UNL A   1      43.177  30.100  28.320  1.00  0.00     0.074 A 
ATOM     49  C   UNL A   1      42.449  29.740  27.130  1.00  0.00     0.031 C 
ATOM     50  C   UNL A   1      38.117  28.433  31.966  1.00  0.00     0.029 A 
ATOM     51  C   UNL A   1      38.933  29.630  32.084  1.00  0.00     0.049 A 
ATOM     52  H   UNL A   1      40.857  29.896  31.301  1.00  0.00     0.167 HD
ATOM     53  C   UNL A   1      44.072  31.108  28.516  1.00  0.00     0.034 A 
ATOM     54  C   UNL A   1      38.648  30.817  32.679  1.00  0.00     0.034 A 
ATOM     55  C   UNL A   1      44.705  31.030  29.795  1.00  0.00     0.049 A 
ATOM     56  C   UNL A   1      39.890  31.614  32.763  1.00  0.00     0.074 A 
ATOM     57  C   UNL A   1      45.646  30.209  30.367  1.00  0.00     0.029 A 
ATOM     58  N   UNL A   1      44.214  31.793  30.817  1.00  0.00    -0.354 N 
ATOM     59  N   UNL A   1      40.893  31.360  33.551  1.00  0.00    -0.248 NA
ATOM     60  C   UNL A   1      40.163  32.537  31.674  1.00  0.00     0.031 C 
ATOM     61  C   UNL A   1      45.311  30.165  31.748  1.00  0.00     0.029 A 
ATOM     62  C   UNL A   1      44.226  31.022  31.950  1.00  0.00     0.049 A 
ATOM     63  H   UNL A   1      43.907  32.726  30.751  1.00  0.00     0.167 HD
ATOM     64  C   UNL A   1      42.009  31.716  32.813  1.00  0.00     0.074 A 
ATOM     65  C   UNL A   1      41.495  32.556  31.734  1.00  0.00     0.031 C 
ATOM     66  C   UNL A   1      43.206  31.077  32.979  1.00  0.00     0.034 A 
BRANCH  53  67
ATOM     67  C   UNL A   1      44.199  32.322  27.636  1.00  0.00     0.023 A 
ATOM     68  C   UNL A   1      43.675  33.575  28.000  1.00  0.00     0.031 A 
ATOM     69  C   UNL A   1      45.056  32.308  26.516  1.00  0.00     0.131 A 
ATOM     70  C   UNL A   1      43.977  34.732  27.274  1.00  0.00     0.055 A 
ATOM     71  C   UNL A   1      45.414  33.476  25.833  1.00  0.00     0.041 A 
ATOM     72  F   UNL A   1      45.618  31.168  26.086  1.00  0.00    -0.206 F 
ATOM     73  C   UNL A   1      44.872  34.698  26.210  1.00  0.00     0.022 A 
BRANCH  70  74
ATOM     74  S   UNL A   1      43.209  36.312  27.718  1.00  0.00     0.124 S 
ATOM     75  O   UNL A   1      42.368  36.572  26.555  1.00  0.00    -0.237 OA
ATOM     76  O   UNL A   1      42.501  35.964  28.947  1.00  0.00    -0.237 OA
ATOM     77  O   UNL A   1      44.349  37.207  27.895  1.00  0.00    -0.744 OA
ENDBRANCH  70  74
ENDBRANCH  53  67
BRANCH  54  78
ATOM     78  C   UNL A   1      37.326  31.492  32.732  1.00  0.00     0.023 A 
ATOM     79  C   UNL A   1      36.660  31.817  31.538  1.00  0.00     0.031 A 
ATOM     80  C   UNL A   1      36.889  32.130  33.909  1.00  0.00     0.131 A 
ATOM     81  C   UNL A   1      35.655  32.792  31.527  1.00  0.00     0.055 A 
ATOM     82  C   UNL A   1      35.876  33.096  33.897  1.00  0.00     0.041 A 
ATOM     83  F   UNL A   1      37.500  31.892  35.081  1.00  0.00    -0.206 F 
ATOM     84  C   UNL A   1      35.264  33.443  32.697  1.00  0.00     0.022 A 
BRANCH  81  85
ATOM     85  S   UNL A   1      34.900  33.288  29.955  1.00  0.00     0.124 S 
ATOM     86  O   UNL A   1      35.981  34.029  29.311  1.00  0.00    -0.237 OA
ATOM     87  O   UNL A   1      34.578  31.996  29.361  1.00  0.00    -0.237 OA
ATOM     88  O   UNL A   1      33.759  34.101  30.370  1.00  0.00    -0.744 OA
ENDBRANCH  81  85
ENDBRANCH  54  78
BRANCH  66  89
ATOM     89  C   UNL A   1      43.393  30.151  34.168  1.00  0.00     0.023 A 
ATOM     90  C   UNL A   1      42.778  28.887  34.108  1.00  0.00     0.031 A 
ATOM     91  C   UNL A   1      43.953  30.532  35.405  1.00  0.00     0.131 A 
ATOM     92  C   UNL A   1      42.686  28.083  35.251  1.00  0.00     0.055 A 
ATOM     93  C   UNL A   1      43.943  29.685  36.518  1.00  0.00     0.041 A 
ATOM     94  F   UNL A   1      44.445  31.761  35.610  1.00  0.00    -0.206 F 
ATOM     95  C   UNL A   1      43.288  28.461  36.452  1.00  0.00     0.022 A 
BRANCH  92  96
ATOM     96  S   UNL A   1      41.613  26.622  35.261  1.00  0.00     0.124 S 
ATOM     97  O   UNL A   1      40.599  26.974  34.271  1.00  0.00    -0.237 OA
ATOM     98  O   UNL A   1      42.538  25.561  34.862  1.00  0.00    -0.237 OA
ATOM     99  O   UNL A   1      41.142  26.537  36.640  1.00  0.00    -0.744 OA
ENDBRANCH  92  96
ENDBRANCH  66  89
ENDBRANCH  40  41
ENDBRANCH  33  35
ENDBRANCH  32  33
ENDBRANCH  31  32
ENDBRANCH  30  31
ENDBRANCH   1  30
TORSDOF 20
ENDMDL
MODEL 2
REMARK VINA RESULT:     -11.7      3.070      8.985
REMARK SMILES CC1(C)S[C@@H]2[C@H]([NH2+]Cn3nnc4ccccc43)C(=O)N2[C@@H]1C(=O)OCCOCCOC(=O)c1ccc(-c2c3nc(c(-c4cc(S(=O)(=O)[O-])ccc4F)c4ccc([nH]4)c(-c4cc(S(=O)(=O)[O-])ccc4F)c4nc(c(-c5cc(S(=O)(=O)[O-])ccc5F)c5ccc2[nH]5)C=C4)C=C3)cc1
REMARK SMILES IDX 27 1 26 2 25 3 24 4 22 5 23 6 21 7 1 8 2 9 3 10 4 11 5 12
REMARK SMILES IDX 20 13 6 14 18 15 19 16 7 17 8 20 9 21 10 22 17 23 11 24
REMARK SMILES IDX 12 25 16 26 13 27 15 28 14 29 28 30 29 31 30 32 31 33 32 34
REMARK SMILES IDX 33 35 34 36 95 37 35 38 94 39 36 40 37 41 38 42 88 43 39 44
REMARK SMILES IDX 93 45 87 46 89 47 40 48 92 49 86 50 85 51 41 53 73 54 53 55
REMARK SMILES IDX 72 56 54 57 57 58 71 59 90 60 55 61 56 62 70 64 91 65 58 66
REMARK SMILES IDX 42 67 43 68 51 69 44 70 50 71 52 72 49 73 45 74 46 75 47 76
REMARK SMILES IDX 48 77 74 78 75 79 83 80 76 81 82 82 84 83 81 84 77 85 78 86
REMARK SMILES IDX 79 87 80 88 59 89 60 90 68 91 61 92 67 93 69 94 66 95 62 96
REMARK SMILES IDX 63 97 64 98 65 99
REMARK H PARENT 7 18 7 19 89 52 57 63
REMARK Flexibility Score: inf
ROOT
ATOM      1  O   UNL A   1      33.646  29.310  25.542  1.00  0.00    -0.374 OA
ENDROOT
BRANCH   1   2
ATOM      2  C   UNL A   1      33.165  28.614  24.396  1.00  0.00     0.202 C 
BRANCH   2   3
ATOM      3  C   UNL A   1      34.021  27.474  23.833  1.00  0.00     0.261 C 
BRANCH   3   4
ATOM      4  O   UNL A   1      33.476  26.165  24.055  1.00  0.00    -0.462 OA
BRANCH   4   5
ATOM      5  C   UNL A   1      33.974  25.530  25.151  1.00  0.00     0.330 C 
ATOM      6  O   UNL A   1      35.166  25.430  25.430  1.00  0.00    -0.250 OA
BRANCH   5   7
ATOM      7  C   UNL A   1      32.904  24.821  25.978  1.00  0.00     0.212 C 
ATOM      8  C   UNL A   1      33.713  22.837  24.439  1.00  0.00     0.026 C 
ATOM      9  C   UNL A   1      32.863  23.295  25.635  1.00  0.00     0.044 C 
ATOM     10  C   UNL A   1      33.234  22.480  26.878  1.00  0.00     0.026 C 
ATOM     11  S   UNL A   1      31.074  22.863  25.218  1.00  0.00    -0.121 SA
ATOM     12  C   UNL A   1      30.444  24.336  26.023  1.00  0.00     0.213 C 
ATOM     13  N   UNL A   1      31.540  25.274  25.820  1.00  0.00    -0.304 N 
ATOM     14  C   UNL A   1      29.512  25.489  25.531  1.00  0.00     0.307 C 
ATOM     15  C   UNL A   1      30.775  26.344  26.070  1.00  0.00     0.285 C 
ATOM     16  O   UNL A   1      31.024  27.431  26.541  1.00  0.00    -0.268 OA
BRANCH  14  17
ATOM     17  N   UNL A   1      29.219  25.751  24.094  1.00  0.00    -0.315 N 
ATOM     18  H   UNL A   1      28.746  24.935  23.707  1.00  0.00     0.348 HD
ATOM     19  H   UNL A   1      30.111  25.936  23.636  1.00  0.00     0.348 HD
BRANCH  17  20
ATOM     20  C   UNL A   1      28.379  26.912  23.878  1.00  0.00     0.415 C 
BRANCH  20  21
ATOM     21  N   UNL A   1      28.965  27.941  23.023  1.00  0.00    -0.194 N 
ATOM     22  N   UNL A   1      30.114  27.819  22.333  1.00  0.00    -0.061 NA
ATOM     23  C   UNL A   1      28.493  29.228  23.021  1.00  0.00     0.095 A 
ATOM     24  N   UNL A   1      30.429  29.035  21.889  1.00  0.00    -0.130 NA
ATOM     25  C   UNL A   1      29.471  29.919  22.329  1.00  0.00     0.113 A 
ATOM     26  C   UNL A   1      27.362  29.821  23.593  1.00  0.00     0.030 A 
ATOM     27  C   UNL A   1      29.356  31.312  22.224  1.00  0.00     0.032 A 
ATOM     28  C   UNL A   1      27.267  31.205  23.491  1.00  0.00     0.002 A 
ATOM     29  C   UNL A   1      28.260  31.940  22.842  1.00  0.00     0.002 A 
ENDBRANCH  20  21
ENDBRANCH  17  20
ENDBRANCH  14  17
ENDBRANCH   5   7
ENDBRANCH   4   5
ENDBRANCH   3   4
ENDBRANCH   2   3
ENDBRANCH   1   2
BRANCH   1  30
ATOM     30  C   UNL A   1      32.776  30.271  26.153  1.00  0.00     0.202 C 
BRANCH  30  31
ATOM     31  C   UNL A   1      33.344  31.137  27.292  1.00  0.00     0.261 C 
BRANCH  31  32
ATOM     32  O   UNL A   1      34.762  30.949  27.424  1.00  0.00    -0.460 OA
BRANCH  32  33
ATOM     33  C   UNL A   1      35.370  31.860  28.233  1.00  0.00     0.338 C 
ATOM     34  O   UNL A   1      34.894  32.888  28.676  1.00  0.00    -0.246 OA
BRANCH  33  35
ATOM     35  C   UNL A   1      36.533  31.143  28.789  1.00  0.00     0.060 A 
ATOM     36  C   UNL A   1      37.616  31.849  29.313  1.00  0.00     0.016 A 
ATOM     37  C   UNL A   1      36.641  29.782  28.468  1.00  0.00     0.016 A 
ATOM     38  C   UNL A   1      38.845  31.212  29.426  1.00  0.00     0.010 A 
ATOM     39  C   UNL A   1      37.881  29.156  28.554  1.00  0.00     0.010 A 
ATOM     40  C   UNL A   1      38.991  29.883  28.993  1.00  0.00    -0.014 A 
BRANCH  40  41
ATOM     41  C   UNL A   1      40.303  29.252  29.176  1.00  0.00     0.031 A 
ATOM     42  C   UNL A   1      40.608  28.889  30.593  1.00  0.00     0.074 A 
ATOM     43  C   UNL A   1      41.128  28.866  28.180  1.00  0.00     0.049 A 
ATOM     44  N   UNL A   1      41.630  29.208  31.320  1.00  0.00    -0.248 NA
ATOM     45  C   UNL A   1      39.565  28.140  31.312  1.00  0.00     0.031 C 
ATOM     46  C   UNL A   1      40.850  28.820  26.742  1.00  0.00     0.029 A 
ATOM     47  N   UNL A   1      42.374  28.310  28.271  1.00  0.00    -0.354 N 
ATOM     48  C   UNL A   1      41.427  28.589  32.556  1.00  0.00     0.074 A 
ATOM     49  C   UNL A   1      40.089  28.054  32.531  1.00  0.00     0.031 C 
ATOM     50  C   UNL A   1      41.793  28.065  26.132  1.00  0.00     0.029 A 
ATOM     51  C   UNL A   1      42.800  27.682  27.107  1.00  0.00     0.049 A 
ATOM     52  H   UNL A   1      42.920  28.350  29.088  1.00  0.00     0.167 HD
ATOM     53  C   UNL A   1      42.412  28.418  33.481  1.00  0.00     0.034 A 
ATOM     54  C   UNL A   1      43.842  26.819  26.982  1.00  0.00     0.034 A 
ATOM     55  C   UNL A   1      43.543  29.254  33.230  1.00  0.00     0.049 A 
ATOM     56  C   UNL A   1      44.725  26.971  28.158  1.00  0.00     0.074 A 
ATOM     57  C   UNL A   1      43.804  30.598  33.338  1.00  0.00     0.029 A 
ATOM     58  N   UNL A   1      44.614  28.725  32.565  1.00  0.00    -0.354 N 
ATOM     59  N   UNL A   1      45.489  27.996  28.395  1.00  0.00    -0.248 NA
ATOM     60  C   UNL A   1      44.485  26.090  29.289  1.00  0.00     0.031 C 
ATOM     61  C   UNL A   1      44.744  30.879  32.311  1.00  0.00     0.029 A 
ATOM     62  C   UNL A   1      45.059  29.672  31.680  1.00  0.00     0.049 A 
ATOM     63  H   UNL A   1      44.996  27.828  32.698  1.00  0.00     0.167 HD
ATOM     64  C   UNL A   1      45.452  28.141  29.771  1.00  0.00     0.074 A 
ATOM     65  C   UNL A   1      44.939  26.868  30.271  1.00  0.00     0.031 C 
ATOM     66  C   UNL A   1      45.579  29.368  30.361  1.00  0.00     0.034 A 
BRANCH  53  67
ATOM     67  C   UNL A   1      42.453  27.302  34.489  1.00  0.00     0.023 A 
ATOM     68  C   UNL A   1      43.218  26.138  34.294  1.00  0.00     0.031 A 
ATOM     69  C   UNL A   1      41.913  27.480  35.779  1.00  0.00     0.131 A 
ATOM     70  C   UNL A   1      43.408  25.207  35.321  1.00  0.00     0.055 A 
ATOM     71  C   UNL A   1      42.162  26.587  36.826  1.00  0.00     0.041 A 
ATOM     72  F   UNL A   1      41.173  28.559  36.078  1.00  0.00    -0.206 F 
ATOM     73  C   UNL A   1      42.914  25.441  36.600  1.00  0.00     0.022 A 
BRANCH  70  74
ATOM     74  S   UNL A   1      44.322  23.675  35.005  1.00  0.00     0.124 S 
ATOM     75  O   UNL A   1      45.419  24.149  34.169  1.00  0.00    -0.237 OA
ATOM     76  O   UNL A   1      44.687  23.263  36.358  1.00  0.00    -0.237 OA
ATOM     77  O   UNL A   1      43.338  22.821  34.345  1.00  0.00    -0.744 OA
ENDBRANCH  70  74
ENDBRANCH  53  67
BRANCH  54  78
ATOM     78  C   UNL A   1      43.868  25.562  26.190  1.00  0.00     0.023 A 
ATOM     79  C   UNL A   1      42.965  24.529  26.492  1.00  0.00     0.031 A 
ATOM     80  C   UNL A   1      44.983  25.234  25.396  1.00  0.00     0.131 A 
ATOM     81  C   UNL A   1      43.220  23.217  26.072  1.00  0.00     0.055 A 
ATOM     82  C   UNL A   1      45.230  23.924  24.968  1.00  0.00     0.041 A 
ATOM     83  F   UNL A   1      45.904  26.164  25.095  1.00  0.00    -0.206 F 
ATOM     84  C   UNL A   1      44.353  22.904  25.320  1.00  0.00     0.022 A 
BRANCH  81  85
ATOM     85  S   UNL A   1      42.110  21.877  26.582  1.00  0.00     0.124 S 
ATOM     86  O   UNL A   1      40.800  22.522  26.533  1.00  0.00    -0.237 OA
ATOM     87  O   UNL A   1      42.361  20.877  25.552  1.00  0.00    -0.237 OA
ATOM     88  O   UNL A   1      42.580  21.542  27.924  1.00  0.00    -0.744 OA
ENDBRANCH  81  85
ENDBRANCH  54  78
BRANCH  66  89
ATOM     89  C   UNL A   1      46.031  30.551  29.523  1.00  0.00     0.023 A 
ATOM     90  C   UNL A   1      45.089  31.123  28.648  1.00  0.00     0.031 A 
ATOM     91  C   UNL A   1      47.367  30.984  29.397  1.00  0.00     0.131 A 
ATOM     92  C   UNL A   1      45.490  32.038  27.666  1.00  0.00     0.055 A 
ATOM     93  C   UNL A   1      47.746  31.970  28.479  1.00  0.00     0.041 A 
ATOM     94  F   UNL A   1      48.364  30.413  30.086  1.00  0.00    -0.206 F 
ATOM     95  C   UNL A   1      46.810  32.487  27.592  1.00  0.00     0.022 A 
BRANCH  92  96
ATOM     96  S   UNL A   1      44.353  32.515  26.337  1.00  0.00     0.124 S 
ATOM     97  O   UNL A   1      43.684  33.681  26.907  1.00  0.00    -0.237 OA
ATOM     98  O   UNL A   1      45.273  32.795  25.235  1.00  0.00    -0.237 OA
ATOM     99  O   UNL A   1      43.513  31.337  26.150  1.00  0.00    -0.744 OA
ENDBRANCH  92  96
ENDBRANCH  66  89
ENDBRANCH  40  41
ENDBRANCH  33  35
ENDBRANCH  32  33
ENDBRANCH  31  32
ENDBRANCH  30  31
ENDBRANCH   1  30
TORSDOF 20
ENDMDL
MODEL 3
REMARK VINA RESULT:     -11.7      2.874      8.467
REMARK SMILES CC1(C)S[C@@H]2[C@H]([NH2+]Cn3nnc4ccccc43)C(=O)N2[C@@H]1C(=O)OCCOCCOC(=O)c1ccc(-c2c3nc(c(-c4cc(S(=O)(=O)[O-])ccc4F)c4ccc([nH]4)c(-c4cc(S(=O)(=O)[O-])ccc4F)c4nc(c(-c5cc(S(=O)(=O)[O-])ccc5F)c5ccc2[nH]5)C=C4)C=C3)cc1
REMARK SMILES IDX 27 1 26 2 25 3 24 4 22 5 23 6 21 7 1 8 2 9 3 10 4 11 5 12
REMARK SMILES IDX 20 13 6 14 18 15 19 16 7 17 8 20 9 21 10 22 17 23 11 24
REMARK SMILES IDX 12 25 16 26 13 27 15 28 14 29 28 30 29 31 30 32 31 33 32 34
REMARK SMILES IDX 33 35 34 36 95 37 35 38 94 39 36 40 37 41 38 42 88 43 39 44
REMARK SMILES IDX 93 45 87 46 89 47 40 48 92 49 86 50 85 51 41 53 73 54 53 55
REMARK SMILES IDX 72 56 54 57 57 58 71 59 90 60 55 61 56 62 70 64 91 65 58 66
REMARK SMILES IDX 42 67 43 68 51 69 44 70 50 71 52 72 49 73 45 74 46 75 47 76
REMARK SMILES IDX 48 77 74 78 75 79 83 80 76 81 82 82 84 83 81 84 77 85 78 86
REMARK SMILES IDX 79 87 80 88 59 89 60 90 68 91 61 92 67 93 69 94 66 95 62 96
REMARK SMILES IDX 63 97 64 98 65 99
REMARK H PARENT 7 18 7 19 89 52 57 63
REMARK Flexibility Score: inf
ROOT
ATOM      1  O   UNL A   1      33.509  29.173  27.431  1.00  0.00    -0.374 OA
ENDROOT
BRANCH   1   2
ATOM      2  C   UNL A   1      34.252  28.637  26.340  1.00  0.00     0.202 C 
BRANCH   2   3
ATOM      3  C   UNL A   1      33.668  27.434  25.591  1.00  0.00     0.261 C 
BRANCH   3   4
ATOM      4  O   UNL A   1      34.057  27.355  24.212  1.00  0.00    -0.462 OA
BRANCH   4   5
ATOM      5  C   UNL A   1      33.273  28.081  23.368  1.00  0.00     0.330 C 
ATOM      6  O   UNL A   1      33.434  29.268  23.098  1.00  0.00    -0.250 OA
BRANCH   5   7
ATOM      7  C   UNL A   1      32.061  27.308  22.853  1.00  0.00     0.212 C 
ATOM      8  C   UNL A   1      30.904  28.898  24.611  1.00  0.00     0.026 C 
ATOM      9  C   UNL A   1      30.743  27.866  23.483  1.00  0.00     0.044 C 
ATOM     10  C   UNL A   1      29.849  28.439  22.380  1.00  0.00     0.026 C 
ATOM     11  S   UNL A   1      29.814  26.400  24.227  1.00  0.00    -0.121 SA
ATOM     12  C   UNL A   1      30.740  25.214  23.253  1.00  0.00     0.213 C 
ATOM     13  N   UNL A   1      32.025  25.886  23.114  1.00  0.00    -0.304 N 
ATOM     14  C   UNL A   1      31.569  23.948  23.643  1.00  0.00     0.307 C 
ATOM     15  C   UNL A   1      32.667  24.760  22.775  1.00  0.00     0.285 C 
ATOM     16  O   UNL A   1      33.632  24.552  22.076  1.00  0.00    -0.268 OA
BRANCH  14  17
ATOM     17  N   UNL A   1      32.034  23.667  25.030  1.00  0.00    -0.315 N 
ATOM     18  H   UNL A   1      31.664  24.390  25.647  1.00  0.00     0.348 HD
ATOM     19  H   UNL A   1      33.053  23.660  25.008  1.00  0.00     0.348 HD
BRANCH  17  20
ATOM     20  C   UNL A   1      31.608  22.376  25.531  1.00  0.00     0.415 C 
BRANCH  20  21
ATOM     21  N   UNL A   1      32.443  21.252  25.115  1.00  0.00    -0.194 N 
ATOM     22  N   UNL A   1      32.028  19.979  24.987  1.00  0.00    -0.061 NA
ATOM     23  C   UNL A   1      33.806  21.365  25.025  1.00  0.00     0.095 A 
ATOM     24  N   UNL A   1      33.120  19.229  24.838  1.00  0.00    -0.130 NA
ATOM     25  C   UNL A   1      34.221  20.052  24.895  1.00  0.00     0.113 A 
ATOM     26  C   UNL A   1      34.671  22.463  25.098  1.00  0.00     0.030 A 
ATOM     27  C   UNL A   1      35.597  19.785  24.878  1.00  0.00     0.032 A 
ATOM     28  C   UNL A   1      36.033  22.182  25.092  1.00  0.00     0.002 A 
ATOM     29  C   UNL A   1      36.488  20.865  25.011  1.00  0.00     0.002 A 
ENDBRANCH  20  21
ENDBRANCH  17  20
ENDBRANCH  14  17
ENDBRANCH   5   7
ENDBRANCH   4   5
ENDBRANCH   3   4
ENDBRANCH   2   3
ENDBRANCH   1   2
BRANCH   1  30
ATOM     30  C   UNL A   1      32.882  30.448  27.250  1.00  0.00     0.202 C 
BRANCH  30  31
ATOM     31  C   UNL A   1      33.744  31.710  27.440  1.00  0.00     0.261 C 
BRANCH  31  32
ATOM     32  O   UNL A   1      34.607  31.577  28.580  1.00  0.00    -0.460 OA
BRANCH  32  33
ATOM     33  C   UNL A   1      35.730  32.344  28.518  1.00  0.00     0.338 C 
ATOM     34  O   UNL A   1      35.793  33.556  28.439  1.00  0.00    -0.246 OA
BRANCH  33  35
ATOM     35  C   UNL A   1      36.811  31.458  28.990  1.00  0.00     0.060 A 
ATOM     36  C   UNL A   1      37.977  31.993  29.537  1.00  0.00     0.016 A 
ATOM     37  C   UNL A   1      36.754  30.122  28.566  1.00  0.00     0.016 A 
ATOM     38  C   UNL A   1      39.125  31.212  29.572  1.00  0.00     0.010 A 
ATOM     39  C   UNL A   1      37.913  29.353  28.574  1.00  0.00     0.010 A 
ATOM     40  C   UNL A   1      39.108  29.911  29.038  1.00  0.00    -0.014 A 
BRANCH  40  41
ATOM     41  C   UNL A   1      40.340  29.121  29.140  1.00  0.00     0.031 A 
ATOM     42  C   UNL A   1      40.718  28.769  30.542  1.00  0.00     0.074 A 
ATOM     43  C   UNL A   1      41.020  28.599  28.098  1.00  0.00     0.049 A 
ATOM     44  N   UNL A   1      41.832  28.976  31.168  1.00  0.00    -0.248 NA
ATOM     45  C   UNL A   1      39.656  28.186  31.376  1.00  0.00     0.031 C 
ATOM     46  C   UNL A   1      40.615  28.542  26.691  1.00  0.00     0.029 A 
ATOM     47  N   UNL A   1      42.188  27.889  28.110  1.00  0.00    -0.354 N 
ATOM     48  C   UNL A   1      41.660  28.430  32.443  1.00  0.00     0.074 A 
ATOM     49  C   UNL A   1      40.268  28.073  32.551  1.00  0.00     0.031 C 
ATOM     50  C   UNL A   1      41.398  27.651  26.039  1.00  0.00     0.029 A 
ATOM     51  C   UNL A   1      42.429  27.173  26.944  1.00  0.00     0.049 A 
ATOM     52  H   UNL A   1      42.804  27.884  28.878  1.00  0.00     0.167 HD
ATOM     53  C   UNL A   1      42.693  28.162  33.290  1.00  0.00     0.034 A 
ATOM     54  C   UNL A   1      43.338  26.178  26.772  1.00  0.00     0.034 A 
ATOM     55  C   UNL A   1      43.894  28.835  32.912  1.00  0.00     0.049 A 
ATOM     56  C   UNL A   1      44.332  26.252  27.864  1.00  0.00     0.074 A 
ATOM     57  C   UNL A   1      44.331  30.137  32.939  1.00  0.00     0.029 A 
ATOM     58  N   UNL A   1      44.828  28.150  32.185  1.00  0.00    -0.354 N 
ATOM     59  N   UNL A   1      45.238  27.177  27.993  1.00  0.00    -0.248 NA
ATOM     60  C   UNL A   1      44.082  25.448  29.049  1.00  0.00     0.031 C 
ATOM     61  C   UNL A   1      45.207  30.260  31.826  1.00  0.00     0.029 A 
ATOM     62  C   UNL A   1      45.310  29.002  31.225  1.00  0.00     0.049 A 
ATOM     63  H   UNL A   1      45.103  27.216  32.325  1.00  0.00     0.167 HD
ATOM     64  C   UNL A   1      45.339  27.371  29.359  1.00  0.00     0.074 A 
ATOM     65  C   UNL A   1      44.715  26.193  29.955  1.00  0.00     0.031 C 
ATOM     66  C   UNL A   1      45.671  28.589  29.883  1.00  0.00     0.034 A 
BRANCH  53  67
ATOM     67  C   UNL A   1      42.679  27.084  34.340  1.00  0.00     0.023 A 
ATOM     68  C   UNL A   1      43.474  25.928  34.242  1.00  0.00     0.031 A 
ATOM     69  C   UNL A   1      42.045  27.299  35.580  1.00  0.00     0.131 A 
ATOM     70  C   UNL A   1      43.606  25.039  35.315  1.00  0.00     0.055 A 
ATOM     71  C   UNL A   1      42.233  26.448  36.675  1.00  0.00     0.041 A 
ATOM     72  F   UNL A   1      41.268  28.374  35.786  1.00  0.00    -0.206 F 
ATOM     73  C   UNL A   1      43.017  25.309  36.545  1.00  0.00     0.022 A 
BRANCH  70  74
ATOM     74  S   UNL A   1      44.564  23.514  35.122  1.00  0.00     0.124 S 
ATOM     75  O   UNL A   1      45.759  23.997  34.439  1.00  0.00    -0.237 OA
ATOM     76  O   UNL A   1      44.751  23.103  36.511  1.00  0.00    -0.237 OA
ATOM     77  O   UNL A   1      43.683  22.654  34.337  1.00  0.00    -0.744 OA
ENDBRANCH  70  74
ENDBRANCH  53  67
BRANCH  54  78
ATOM     78  C   UNL A   1      43.136  24.904  26.037  1.00  0.00     0.023 A 
ATOM     79  C   UNL A   1      42.095  24.038  26.414  1.00  0.00     0.031 A 
ATOM     80  C   UNL A   1      44.153  24.372  25.221  1.00  0.00     0.131 A 
ATOM     81  C   UNL A   1      42.125  22.687  26.045  1.00  0.00     0.055 A 
ATOM     82  C   UNL A   1      44.175  23.025  24.844  1.00  0.00     0.041 A 
ATOM     83  F   UNL A   1      45.195  25.134  24.849  1.00  0.00    -0.206 F 
ATOM     84  C   UNL A   1      43.164  22.171  25.270  1.00  0.00     0.022 A 
BRANCH  81  85
ATOM     85  S   UNL A   1      40.840  21.560  26.651  1.00  0.00     0.124 S 
ATOM     86  O   UNL A   1      39.625  22.140  26.084  1.00  0.00    -0.237 OA
ATOM     87  O   UNL A   1      41.264  20.291  26.072  1.00  0.00    -0.237 OA
ATOM     88  O   UNL A   1      40.954  21.669  28.103  1.00  0.00    -0.744 OA
ENDBRANCH  81  85
ENDBRANCH  54  78
BRANCH  66  89
ATOM     89  C   UNL A   1      46.195  29.675  28.959  1.00  0.00     0.023 A 
ATOM     90  C   UNL A   1      45.249  30.519  28.349  1.00  0.00     0.031 A 
ATOM     91  C   UNL A   1      47.526  29.771  28.504  1.00  0.00     0.131 A 
ATOM     92  C   UNL A   1      45.622  31.368  27.299  1.00  0.00     0.055 A 
ATOM     93  C   UNL A   1      47.912  30.689  27.521  1.00  0.00     0.041 A 
ATOM     94  F   UNL A   1      48.479  28.927  28.920  1.00  0.00    -0.206 F 
ATOM     95  C   UNL A   1      46.954  31.480  26.897  1.00  0.00     0.022 A 
BRANCH  92  96
ATOM     96  S   UNL A   1      44.359  32.199  26.298  1.00  0.00     0.124 S 
ATOM     97  O   UNL A   1      43.406  31.122  26.046  1.00  0.00    -0.237 OA
ATOM     98  O   UNL A   1      43.895  33.250  27.204  1.00  0.00    -0.237 OA
ATOM     99  O   UNL A   1      45.091  32.676  25.129  1.00  0.00    -0.744 OA
ENDBRANCH  92  96
ENDBRANCH  66  89
ENDBRANCH  40  41
ENDBRANCH  33  35
ENDBRANCH  32  33
ENDBRANCH  31  32
ENDBRANCH  30  31
ENDBRANCH   1  30
TORSDOF 20
ENDMDL
