MODEL 1
REMARK VINA RESULT:     -12.5      0.000      0.000
REMARK SMILES CO[C@H]1C[C@@H](C(=O)OCCOCCOC(=O)c2ccc(-c3c4nc(c(-c5cc(S(=O)(=O)[O-])ccc5F)c5ccc([nH]5)c(-c5cc(S(=O)(=O)[O-])ccc5F)c5nc(c(-c6cc(S(=O)(=O)[O-])ccc6F)c6ccc3[nH]6)C=C5)C=C4)cc2)N(C(=O)Nc2cc(C)cc(F)c2)C1
REMARK SMILES IDX 12 1 11 2 10 3 9 4 8 5 6 6 7 7 5 8 3 9 4 10 92 11 80 12 2 13
REMARK SMILES IDX 1 14 81 15 82 16 83 17 84 19 85 20 91 21 86 22 89 23 87 24
REMARK SMILES IDX 88 25 90 26 13 27 14 28 15 29 16 30 17 31 18 32 79 33 19 34
REMARK SMILES IDX 78 35 20 36 21 37 22 38 72 39 23 40 77 41 71 42 73 43 24 44
REMARK SMILES IDX 76 45 70 46 69 47 25 49 57 50 37 51 56 52 38 53 41 54 55 55
REMARK SMILES IDX 74 56 39 57 40 58 54 60 75 61 42 62 26 63 27 64 35 65 28 66
REMARK SMILES IDX 34 67 36 68 33 69 29 70 30 71 31 72 32 73 58 74 59 75 67 76
REMARK SMILES IDX 60 77 66 78 68 79 65 80 61 81 62 82 63 83 64 84 43 85 44 86
REMARK SMILES IDX 52 87 45 88 51 89 53 90 50 91 46 92 47 93 48 94 49 95
REMARK H PARENT 83 18 73 48 41 59
REMARK Flexibility Score: inf
ROOT
ATOM      1  C   UNL A   1      30.221  31.705  24.733  1.00  0.00     0.202 C 
ENDROOT
BRANCH   1   2
ATOM      2  O   UNL A   1      29.161  32.233  23.877  1.00  0.00    -0.374 OA
BRANCH   2   3
ATOM      3  C   UNL A   1      27.960  31.660  23.268  1.00  0.00     0.202 C 
BRANCH   3   4
ATOM      4  C   UNL A   1      27.484  29.978  22.706  1.00  0.00     0.261 C 
BRANCH   4   5
ATOM      5  O   UNL A   1      28.542  28.254  22.887  1.00  0.00    -0.462 OA
BRANCH   5   6
ATOM      6  C   UNL A   1      29.460  27.401  23.645  1.00  0.00     0.329 C 
ATOM      7  O   UNL A   1      29.285  26.191  23.831  1.00  0.00    -0.250 OA
BRANCH   6   8
ATOM      8  C   UNL A   1      30.697  28.100  24.272  1.00  0.00     0.199 C 
ATOM      9  C   UNL A   1      32.954  28.924  23.568  1.00  0.00     0.140 C 
ATOM     10  C   UNL A   1      31.574  28.538  23.043  1.00  0.00     0.071 C 
ATOM     11  C   UNL A   1      32.905  28.523  25.034  1.00  0.00     0.154 C 
ATOM     12  N   UNL A   1      31.764  27.624  25.184  1.00  0.00    -0.308 N 
BRANCH   9  13
ATOM     13  O   UNL A   1      34.025  28.197  22.949  1.00  0.00    -0.380 OA
ATOM     14  C   UNL A   1      33.652  26.955  22.374  1.00  0.00     0.195 C 
ENDBRANCH   9  13
BRANCH  12  15
ATOM     15  C   UNL A   1      31.730  26.941  26.364  1.00  0.00     0.322 C 
ATOM     16  O   UNL A   1      31.184  27.411  27.368  1.00  0.00    -0.248 OA
ATOM     17  N   UNL A   1      32.329  25.739  26.516  1.00  0.00    -0.308 N 
ATOM     18  H   UNL A   1      32.507  25.431  27.434  1.00  0.00     0.171 HD
BRANCH  17  19
ATOM     19  C   UNL A   1      32.708  24.913  25.482  1.00  0.00     0.046 A 
ATOM     20  C   UNL A   1      34.480  24.714  25.377  1.00  0.00     0.029 A 
ATOM     21  C   UNL A   1      31.614  23.709  24.707  1.00  0.00     0.065 A 
ATOM     22  C   UNL A   1      35.194  23.311  24.591  1.00  0.00    -0.046 A 
ATOM     23  C   UNL A   1      32.422  22.254  23.896  1.00  0.00     0.125 A 
ATOM     24  C   UNL A   1      36.654  23.253  24.288  1.00  0.00     0.044 C 
ATOM     25  C   UNL A   1      34.192  22.066  23.870  1.00  0.00     0.042 A 
ATOM     26  F   UNL A   1      31.920  21.621  22.886  1.00  0.00    -0.207 F 
ENDBRANCH  17  19
ENDBRANCH  12  15
ENDBRANCH   6   8
ENDBRANCH   5   6
ENDBRANCH   4   5
ENDBRANCH   3   4
ENDBRANCH   2   3
ENDBRANCH   1   2
BRANCH   1  27
ATOM     27  C   UNL A   1      30.897  32.164  26.158  1.00  0.00     0.261 C 
BRANCH  27  28
ATOM     28  O   UNL A   1      32.209  31.737  26.665  1.00  0.00    -0.460 OA
BRANCH  28  29
ATOM     29  C   UNL A   1      32.922  32.693  27.320  1.00  0.00     0.338 C 
ATOM     30  O   UNL A   1      32.444  33.764  27.667  1.00  0.00    -0.246 OA
BRANCH  29  31
ATOM     31  C   UNL A   1      34.293  32.256  27.793  1.00  0.00     0.060 A 
ATOM     32  C   UNL A   1      34.424  30.899  28.140  1.00  0.00     0.016 A 
ATOM     33  C   UNL A   1      35.420  33.074  27.957  1.00  0.00     0.016 A 
ATOM     34  C   UNL A   1      35.612  30.377  28.694  1.00  0.00     0.010 A 
ATOM     35  C   UNL A   1      36.617  32.549  28.532  1.00  0.00     0.010 A 
ATOM     36  C   UNL A   1      36.717  31.200  28.944  1.00  0.00    -0.014 A 
BRANCH  36  37
ATOM     37  C   UNL A   1      37.838  30.697  29.826  1.00  0.00     0.031 A 
ATOM     38  C   UNL A   1      38.834  29.726  29.232  1.00  0.00     0.074 A 
ATOM     39  C   UNL A   1      38.062  31.113  31.092  1.00  0.00     0.049 A 
ATOM     40  N   UNL A   1      39.888  29.169  29.777  1.00  0.00    -0.248 NA
ATOM     41  C   UNL A   1      38.598  29.335  27.838  1.00  0.00     0.031 C 
ATOM     42  C   UNL A   1      37.236  32.070  31.811  1.00  0.00     0.029 A 
ATOM     43  N   UNL A   1      39.052  30.795  32.004  1.00  0.00    -0.354 N 
ATOM     44  C   UNL A   1      40.443  28.359  28.791  1.00  0.00     0.074 A 
ATOM     45  C   UNL A   1      39.580  28.472  27.632  1.00  0.00     0.031 C 
ATOM     46  C   UNL A   1      37.751  32.280  33.037  1.00  0.00     0.029 A 
ATOM     47  C   UNL A   1      38.927  31.430  33.225  1.00  0.00     0.049 A 
ATOM     48  H   UNL A   1      39.784  30.168  31.801  1.00  0.00     0.167 HD
ATOM     49  C   UNL A   1      41.566  27.598  28.832  1.00  0.00     0.034 A 
ATOM     50  C   UNL A   1      39.646  31.328  34.370  1.00  0.00     0.034 A 
ATOM     51  C   UNL A   1      42.422  27.454  29.985  1.00  0.00     0.049 A 
ATOM     52  C   UNL A   1      40.830  30.382  34.431  1.00  0.00     0.074 A 
ATOM     53  C   UNL A   1      43.577  26.698  30.107  1.00  0.00     0.029 A 
ATOM     54  N   UNL A   1      42.215  28.054  31.219  1.00  0.00    -0.354 N 
ATOM     55  N   UNL A   1      41.339  29.629  33.483  1.00  0.00    -0.248 NA
ATOM     56  C   UNL A   1      41.535  30.267  35.719  1.00  0.00     0.031 C 
ATOM     57  C   UNL A   1      44.019  26.774  31.432  1.00  0.00     0.029 A 
ATOM     58  C   UNL A   1      43.196  27.653  32.116  1.00  0.00     0.049 A 
ATOM     59  H   UNL A   1      41.479  28.673  31.429  1.00  0.00     0.167 HD
ATOM     60  C   UNL A   1      42.439  28.986  34.052  1.00  0.00     0.074 A 
ATOM     61  C   UNL A   1      42.530  29.445  35.420  1.00  0.00     0.031 C 
ATOM     62  C   UNL A   1      43.298  28.101  33.485  1.00  0.00     0.034 A 
BRANCH  49  63
ATOM     63  C   UNL A   1      41.898  26.809  27.589  1.00  0.00     0.023 A 
ATOM     64  C   UNL A   1      41.591  25.442  27.481  1.00  0.00     0.031 A 
ATOM     65  C   UNL A   1      42.567  27.423  26.515  1.00  0.00     0.131 A 
ATOM     66  C   UNL A   1      42.026  24.716  26.363  1.00  0.00     0.055 A 
ATOM     67  C   UNL A   1      42.919  26.714  25.366  1.00  0.00     0.041 A 
ATOM     68  F   UNL A   1      42.905  28.721  26.572  1.00  0.00    -0.206 F 
ATOM     69  C   UNL A   1      42.665  25.347  25.293  1.00  0.00     0.022 A 
BRANCH  66  70
ATOM     70  S   UNL A   1      41.894  22.908  26.404  1.00  0.00     0.124 S 
ATOM     71  O   UNL A   1      42.455  22.542  25.106  1.00  0.00    -0.237 OA
ATOM     72  O   UNL A   1      42.699  22.560  27.569  1.00  0.00    -0.237 OA
ATOM     73  O   UNL A   1      40.459  22.673  26.543  1.00  0.00    -0.744 OA
ENDBRANCH  66  70
ENDBRANCH  49  63
BRANCH  50  74
ATOM     74  C   UNL A   1      39.254  32.083  35.606  1.00  0.00     0.023 A 
ATOM     75  C   UNL A   1      38.548  31.466  36.656  1.00  0.00     0.031 A 
ATOM     76  C   UNL A   1      39.483  33.469  35.703  1.00  0.00     0.131 A 
ATOM     77  C   UNL A   1      38.055  32.240  37.724  1.00  0.00     0.055 A 
ATOM     78  C   UNL A   1      39.044  34.220  36.796  1.00  0.00     0.041 A 
ATOM     79  F   UNL A   1      40.134  34.119  34.726  1.00  0.00    -0.206 F 
ATOM     80  C   UNL A   1      38.312  33.608  37.808  1.00  0.00     0.022 A 
BRANCH  77  81
ATOM     81  S   UNL A   1      36.976  31.451  38.955  1.00  0.00     0.124 S 
ATOM     82  O   UNL A   1      36.838  30.106  38.410  1.00  0.00    -0.237 OA
ATOM     83  O   UNL A   1      37.768  31.573  40.175  1.00  0.00    -0.237 OA
ATOM     84  O   UNL A   1      35.765  32.268  38.919  1.00  0.00    -0.744 OA
ENDBRANCH  77  81
ENDBRANCH  50  74
BRANCH  62  85
ATOM     85  C   UNL A   1      44.460  27.608  34.321  1.00  0.00     0.023 A 
ATOM     86  C   UNL A   1      44.386  26.439  35.099  1.00  0.00     0.031 A 
ATOM     87  C   UNL A   1      45.673  28.324  34.328  1.00  0.00     0.131 A 
ATOM     88  C   UNL A   1      45.483  26.047  35.885  1.00  0.00     0.055 A 
ATOM     89  C   UNL A   1      46.779  27.896  35.064  1.00  0.00     0.041 A 
ATOM     90  F   UNL A   1      45.805  29.451  33.610  1.00  0.00    -0.206 F 
ATOM     91  C   UNL A   1      46.685  26.758  35.857  1.00  0.00     0.022 A 
BRANCH  88  92
ATOM     92  S   UNL A   1      45.295  24.639  37.016  1.00  0.00     0.124 S 
ATOM     93  O   UNL A   1      45.338  23.504  36.098  1.00  0.00    -0.237 OA
ATOM     94  O   UNL A   1      46.446  24.790  37.898  1.00  0.00    -0.237 OA
ATOM     95  O   UNL A   1      43.997  24.874  37.646  1.00  0.00    -0.744 OA
ENDBRANCH  88  92
ENDBRANCH  62  85
ENDBRANCH  36  37
ENDBRANCH  29  31
ENDBRANCH  28  29
ENDBRANCH  27  28
ENDBRANCH   1  27
TORSDOF 20
ENDMDL
MODEL 2
REMARK VINA RESULT:     -12.4      1.731      3.041
REMARK SMILES CO[C@H]1C[C@@H](C(=O)OCCOCCOC(=O)c2ccc(-c3c4nc(c(-c5cc(S(=O)(=O)[O-])ccc5F)c5ccc([nH]5)c(-c5cc(S(=O)(=O)[O-])ccc5F)c5nc(c(-c6cc(S(=O)(=O)[O-])ccc6F)c6ccc3[nH]6)C=C5)C=C4)cc2)N(C(=O)Nc2cc(C)cc(F)c2)C1
REMARK SMILES IDX 12 1 11 2 10 3 9 4 8 5 6 6 7 7 5 8 3 9 4 10 92 11 80 12 2 13
REMARK SMILES IDX 1 14 81 15 82 16 83 17 84 19 85 20 91 21 86 22 89 23 87 24
REMARK SMILES IDX 88 25 90 26 13 27 14 28 15 29 16 30 17 31 18 32 79 33 19 34
REMARK SMILES IDX 78 35 20 36 21 37 22 38 72 39 23 40 77 41 71 42 73 43 24 44
REMARK SMILES IDX 76 45 70 46 69 47 25 49 57 50 37 51 56 52 38 53 41 54 55 55
REMARK SMILES IDX 74 56 39 57 40 58 54 60 75 61 42 62 26 63 27 64 35 65 28 66
REMARK SMILES IDX 34 67 36 68 33 69 29 70 30 71 31 72 32 73 58 74 59 75 67 76
REMARK SMILES IDX 60 77 66 78 68 79 65 80 61 81 62 82 63 83 64 84 43 85 44 86
REMARK SMILES IDX 52 87 45 88 51 89 53 90 50 91 46 92 47 93 48 94 49 95
REMARK H PARENT 83 18 73 48 41 59
REMARK Flexibility Score: inf
ROOT
ATOM      1  C   UNL A   1      31.592  30.547  26.491  1.00  0.00     0.202 C 
ENDROOT
BRANCH   1   2
ATOM      2  O   UNL A   1      31.955  29.352  27.249  1.00  0.00    -0.374 OA
BRANCH   2   3
ATOM      3  C   UNL A   1      33.013  28.348  27.126  1.00  0.00     0.202 C 
BRANCH   3   4
ATOM      4  C   UNL A   1      33.169  26.751  26.232  1.00  0.00     0.261 C 
BRANCH   4   5
ATOM      5  O   UNL A   1      31.935  25.141  26.325  1.00  0.00    -0.462 OA
BRANCH   5   6
ATOM      6  C   UNL A   1      31.708  23.733  26.659  1.00  0.00     0.329 C 
ATOM      7  O   UNL A   1      30.788  23.334  27.384  1.00  0.00    -0.250 OA
BRANCH   6   8
ATOM      8  C   UNL A   1      32.724  22.711  26.081  1.00  0.00     0.199 C 
ATOM      9  C   UNL A   1      35.204  22.421  25.891  1.00  0.00     0.140 C 
ATOM     10  C   UNL A   1      34.114  23.154  26.667  1.00  0.00     0.071 C 
ATOM     11  C   UNL A   1      34.443  21.734  24.767  1.00  0.00     0.154 C 
ATOM     12  N   UNL A   1      33.133  22.375  24.696  1.00  0.00    -0.308 N 
BRANCH   9  13
ATOM     13  O   UNL A   1      36.170  23.299  25.295  1.00  0.00    -0.380 OA
ATOM     14  C   UNL A   1      36.784  22.802  24.116  1.00  0.00     0.195 C 
ENDBRANCH   9  13
BRANCH  12  15
ATOM     15  C   UNL A   1      32.420  22.087  23.570  1.00  0.00     0.322 C 
ATOM     16  O   UNL A   1      32.218  20.922  23.211  1.00  0.00    -0.248 OA
ATOM     17  N   UNL A   1      31.935  23.055  22.760  1.00  0.00    -0.308 N 
ATOM     18  H   UNL A   1      31.679  22.797  21.845  1.00  0.00     0.171 HD
BRANCH  17  19
ATOM     19  C   UNL A   1      31.774  24.373  23.119  1.00  0.00     0.046 A 
ATOM     20  C   UNL A   1      33.116  25.408  22.556  1.00  0.00     0.029 A 
ATOM     21  C   UNL A   1      30.186  25.107  23.554  1.00  0.00     0.065 A 
ATOM     22  C   UNL A   1      32.901  27.141  22.339  1.00  0.00    -0.046 A 
ATOM     23  C   UNL A   1      30.019  26.934  23.304  1.00  0.00     0.125 A 
ATOM     24  C   UNL A   1      34.068  28.042  22.104  1.00  0.00     0.044 C 
ATOM     25  C   UNL A   1      31.367  27.917  22.682  1.00  0.00     0.042 A 
ATOM     26  F   UNL A   1      29.242  27.690  24.010  1.00  0.00    -0.207 F 
ENDBRANCH  17  19
ENDBRANCH  12  15
ENDBRANCH   6   8
ENDBRANCH   5   6
ENDBRANCH   4   5
ENDBRANCH   3   4
ENDBRANCH   2   3
ENDBRANCH   1   2
BRANCH   1  27
ATOM     27  C   UNL A   1      31.506  32.152  26.830  1.00  0.00     0.261 C 
BRANCH  27  28
ATOM     28  O   UNL A   1      32.581  33.134  26.622  1.00  0.00    -0.460 OA
BRANCH  28  29
ATOM     29  C   UNL A   1      33.134  33.644  27.756  1.00  0.00     0.338 C 
ATOM     30  O   UNL A   1      32.546  34.421  28.496  1.00  0.00    -0.246 OA
BRANCH  29  31
ATOM     31  C   UNL A   1      34.449  33.014  28.165  1.00  0.00     0.060 A 
ATOM     32  C   UNL A   1      34.370  31.721  28.715  1.00  0.00     0.016 A 
ATOM     33  C   UNL A   1      35.718  33.604  28.089  1.00  0.00     0.016 A 
ATOM     34  C   UNL A   1      35.501  31.056  29.234  1.00  0.00     0.010 A 
ATOM     35  C   UNL A   1      36.860  32.938  28.629  1.00  0.00     0.010 A 
ATOM     36  C   UNL A   1      36.760  31.669  29.243  1.00  0.00    -0.014 A 
BRANCH  36  37
ATOM     37  C   UNL A   1      37.870  31.082  30.088  1.00  0.00     0.031 A 
ATOM     38  C   UNL A   1      38.800  30.076  29.449  1.00  0.00     0.074 A 
ATOM     39  C   UNL A   1      38.141  31.451  31.360  1.00  0.00     0.049 A 
ATOM     40  N   UNL A   1      39.832  29.448  29.956  1.00  0.00    -0.248 NA
ATOM     41  C   UNL A   1      38.515  29.735  28.050  1.00  0.00     0.031 C 
ATOM     42  C   UNL A   1      37.383  32.431  32.121  1.00  0.00     0.029 A 
ATOM     43  N   UNL A   1      39.130  31.055  32.242  1.00  0.00    -0.354 N 
ATOM     44  C   UNL A   1      40.323  28.637  28.938  1.00  0.00     0.074 A 
ATOM     45  C   UNL A   1      39.445  28.827  27.801  1.00  0.00     0.031 C 
ATOM     46  C   UNL A   1      37.932  32.580  33.340  1.00  0.00     0.029 A 
ATOM     47  C   UNL A   1      39.064  31.662  33.482  1.00  0.00     0.049 A 
ATOM     48  H   UNL A   1      39.822  30.396  32.008  1.00  0.00     0.167 HD
ATOM     49  C   UNL A   1      41.404  27.816  28.936  1.00  0.00     0.034 A 
ATOM     50  C   UNL A   1      39.798  31.491  34.608  1.00  0.00     0.034 A 
ATOM     51  C   UNL A   1      42.273  27.594  30.067  1.00  0.00     0.049 A 
ATOM     52  C   UNL A   1      40.930  30.481  34.620  1.00  0.00     0.074 A 
ATOM     53  C   UNL A   1      43.387  26.774  30.144  1.00  0.00     0.029 A 
ATOM     54  N   UNL A   1      42.123  28.170  31.319  1.00  0.00    -0.354 N 
ATOM     55  N   UNL A   1      41.378  29.728  33.642  1.00  0.00    -0.248 NA
ATOM     56  C   UNL A   1      41.653  30.294  35.889  1.00  0.00     0.031 C 
ATOM     57  C   UNL A   1      43.859  26.790  31.461  1.00  0.00     0.029 A 
ATOM     58  C   UNL A   1      43.098  27.692  32.185  1.00  0.00     0.049 A 
ATOM     59  H   UNL A   1      41.426  28.822  31.561  1.00  0.00     0.167 HD
ATOM     60  C   UNL A   1      42.453  29.012  34.171  1.00  0.00     0.074 A 
ATOM     61  C   UNL A   1      42.596  29.428  35.548  1.00  0.00     0.031 C 
ATOM     62  C   UNL A   1      43.251  28.097  33.563  1.00  0.00     0.034 A 
BRANCH  49  63
ATOM     63  C   UNL A   1      41.668  27.043  27.665  1.00  0.00     0.023 A 
ATOM     64  C   UNL A   1      41.380  25.672  27.564  1.00  0.00     0.031 A 
ATOM     65  C   UNL A   1      42.254  27.680  26.557  1.00  0.00     0.131 A 
ATOM     66  C   UNL A   1      41.754  24.964  26.413  1.00  0.00     0.055 A 
ATOM     67  C   UNL A   1      42.542  26.988  25.380  1.00  0.00     0.041 A 
ATOM     68  F   UNL A   1      42.570  28.983  26.604  1.00  0.00    -0.206 F 
ATOM     69  C   UNL A   1      42.309  25.617  25.310  1.00  0.00     0.022 A 
BRANCH  66  70
ATOM     70  S   UNL A   1      41.659  23.153  26.444  1.00  0.00     0.124 S 
ATOM     71  O   UNL A   1      40.217  22.936  26.532  1.00  0.00    -0.237 OA
ATOM     72  O   UNL A   1      42.286  22.784  25.181  1.00  0.00    -0.237 OA
ATOM     73  O   UNL A   1      42.411  22.792  27.644  1.00  0.00    -0.744 OA
ENDBRANCH  66  70
ENDBRANCH  49  63
BRANCH  50  74
ATOM     74  C   UNL A   1      39.472  32.233  35.872  1.00  0.00     0.023 A 
ATOM     75  C   UNL A   1      38.618  31.687  36.849  1.00  0.00     0.031 A 
ATOM     76  C   UNL A   1      39.923  33.551  36.066  1.00  0.00     0.131 A 
ATOM     77  C   UNL A   1      38.205  32.472  37.942  1.00  0.00     0.055 A 
ATOM     78  C   UNL A   1      39.558  34.305  37.185  1.00  0.00     0.041 A 
ATOM     79  F   UNL A   1      40.724  34.135  35.161  1.00  0.00    -0.206 F 
ATOM     80  C   UNL A   1      38.681  33.771  38.123  1.00  0.00     0.022 A 
BRANCH  77  81
ATOM     81  S   UNL A   1      36.945  31.811  39.072  1.00  0.00     0.124 S 
ATOM     82  O   UNL A   1      36.831  30.431  38.615  1.00  0.00    -0.237 OA
ATOM     83  O   UNL A   1      37.575  32.007  40.375  1.00  0.00    -0.237 OA
ATOM     84  O   UNL A   1      35.780  32.654  38.814  1.00  0.00    -0.744 OA
ENDBRANCH  77  81
ENDBRANCH  50  74
BRANCH  62  85
ATOM     85  C   UNL A   1      44.401  27.520  34.361  1.00  0.00     0.023 A 
ATOM     86  C   UNL A   1      44.265  26.362  35.147  1.00  0.00     0.031 A 
ATOM     87  C   UNL A   1      45.664  28.143  34.324  1.00  0.00     0.131 A 
ATOM     88  C   UNL A   1      45.356  25.889  35.897  1.00  0.00     0.055 A 
ATOM     89  C   UNL A   1      46.759  27.634  35.023  1.00  0.00     0.041 A 
ATOM     90  F   UNL A   1      45.856  29.254  33.596  1.00  0.00    -0.206 F 
ATOM     91  C   UNL A   1      46.607  26.508  35.825  1.00  0.00     0.022 A 
BRANCH  88  92
ATOM     92  S   UNL A   1      45.102  24.502  37.040  1.00  0.00     0.124 S 
ATOM     93  O   UNL A   1      44.751  23.418  36.128  1.00  0.00    -0.237 OA
ATOM     94  O   UNL A   1      46.402  24.392  37.692  1.00  0.00    -0.237 OA
ATOM     95  O   UNL A   1      44.014  24.961  37.901  1.00  0.00    -0.744 OA
ENDBRANCH  88  92
ENDBRANCH  62  85
ENDBRANCH  36  37
ENDBRANCH  29  31
ENDBRANCH  28  29
ENDBRANCH  27  28
ENDBRANCH   1  27
TORSDOF 20
ENDMDL
MODEL 3
REMARK VINA RESULT:     -12.3      1.556      2.792
REMARK SMILES CO[C@H]1C[C@@H](C(=O)OCCOCCOC(=O)c2ccc(-c3c4nc(c(-c5cc(S(=O)(=O)[O-])ccc5F)c5ccc([nH]5)c(-c5cc(S(=O)(=O)[O-])ccc5F)c5nc(c(-c6cc(S(=O)(=O)[O-])ccc6F)c6ccc3[nH]6)C=C5)C=C4)cc2)N(C(=O)Nc2cc(C)cc(F)c2)C1
REMARK SMILES IDX 12 1 11 2 10 3 9 4 8 5 6 6 7 7 5 8 3 9 4 10 92 11 80 12 2 13
REMARK SMILES IDX 1 14 81 15 82 16 83 17 84 19 85 20 91 21 86 22 89 23 87 24
REMARK SMILES IDX 88 25 90 26 13 27 14 28 15 29 16 30 17 31 18 32 79 33 19 34
REMARK SMILES IDX 78 35 20 36 21 37 22 38 72 39 23 40 77 41 71 42 73 43 24 44
REMARK SMILES IDX 76 45 70 46 69 47 25 49 57 50 37 51 56 52 38 53 41 54 55 55
REMARK SMILES IDX 74 56 39 57 40 58 54 60 75 61 42 62 26 63 27 64 35 65 28 66
REMARK SMILES IDX 34 67 36 68 33 69 29 70 30 71 31 72 32 73 58 74 59 75 67 76
REMARK SMILES IDX 60 77 66 78 68 79 65 80 61 81 62 82 63 83 64 84 43 85 44 86
REMARK SMILES IDX 52 87 45 88 51 89 53 90 50 91 46 92 47 93 48 94 49 95
REMARK H PARENT 83 18 73 48 41 59
REMARK Flexibility Score: inf
ROOT
ATOM      1  C   UNL A   1      31.292  29.579  24.776  1.00  0.00     0.202 C 
ENDROOT
BRANCH   1   2
ATOM      2  O   UNL A   1      30.319  29.117  23.789  1.00  0.00    -0.374 OA
BRANCH   2   3
ATOM      3  C   UNL A   1      29.868  27.798  23.340  1.00  0.00     0.202 C 
BRANCH   3   4
ATOM      4  C   UNL A   1      30.389  26.074  23.699  1.00  0.00     0.261 C 
BRANCH   4   5
ATOM      5  O   UNL A   1      32.064  25.449  24.661  1.00  0.00    -0.462 OA
BRANCH   5   6
ATOM      6  C   UNL A   1      33.446  25.684  25.088  1.00  0.00     0.329 C 
ATOM      7  O   UNL A   1      34.093  26.700  24.806  1.00  0.00    -0.250 OA
BRANCH   6   8
ATOM      8  C   UNL A   1      34.119  24.550  25.908  1.00  0.00     0.199 C 
ATOM      9  C   UNL A   1      36.040  22.958  25.700  1.00  0.00     0.140 C 
ATOM     10  C   UNL A   1      35.477  24.272  25.167  1.00  0.00     0.071 C 
ATOM     11  C   UNL A   1      34.921  22.419  26.577  1.00  0.00     0.154 C 
ATOM     12  N   UNL A   1      33.714  23.159  26.219  1.00  0.00    -0.308 N 
BRANCH   9  13
ATOM     13  O   UNL A   1      36.299  21.990  24.673  1.00  0.00    -0.380 OA
ATOM     14  C   UNL A   1      36.049  20.643  25.043  1.00  0.00     0.195 C 
ENDBRANCH   9  13
BRANCH  12  15
ATOM     15  C   UNL A   1      32.556  22.622  26.697  1.00  0.00     0.322 C 
ATOM     16  O   UNL A   1      31.932  23.149  27.625  1.00  0.00    -0.248 OA
ATOM     17  N   UNL A   1      32.049  21.464  26.217  1.00  0.00    -0.308 N 
ATOM     18  H   UNL A   1      31.384  20.994  26.771  1.00  0.00     0.171 HD
BRANCH  17  19
ATOM     19  C   UNL A   1      32.394  20.894  25.014  1.00  0.00     0.046 A 
ATOM     20  C   UNL A   1      32.816  19.165  25.168  1.00  0.00     0.029 A 
ATOM     21  C   UNL A   1      31.922  21.570  23.411  1.00  0.00     0.065 A 
ATOM     22  C   UNL A   1      32.707  18.074  23.792  1.00  0.00    -0.046 A 
ATOM     23  C   UNL A   1      31.824  20.375  22.001  1.00  0.00     0.125 A 
ATOM     24  C   UNL A   1      33.281  16.697  23.848  1.00  0.00     0.044 C 
ATOM     25  C   UNL A   1      32.195  18.647  22.216  1.00  0.00     0.042 A 
ATOM     26  F   UNL A   1      32.038  20.697  20.766  1.00  0.00    -0.207 F 
ENDBRANCH  17  19
ENDBRANCH  12  15
ENDBRANCH   6   8
ENDBRANCH   5   6
ENDBRANCH   4   5
ENDBRANCH   3   4
ENDBRANCH   2   3
ENDBRANCH   1   2
BRANCH   1  27
ATOM     27  C   UNL A   1      31.407  30.884  25.766  1.00  0.00     0.261 C 
BRANCH  27  28
ATOM     28  O   UNL A   1      32.097  30.922  27.064  1.00  0.00    -0.460 OA
BRANCH  28  29
ATOM     29  C   UNL A   1      32.898  32.003  27.269  1.00  0.00     0.338 C 
ATOM     30  O   UNL A   1      32.484  33.154  27.253  1.00  0.00    -0.246 OA
BRANCH  29  31
ATOM     31  C   UNL A   1      34.300  31.680  27.743  1.00  0.00     0.060 A 
ATOM     32  C   UNL A   1      34.567  30.323  28.003  1.00  0.00     0.016 A 
ATOM     33  C   UNL A   1      35.333  32.597  27.985  1.00  0.00     0.016 A 
ATOM     34  C   UNL A   1      35.795  29.890  28.546  1.00  0.00     0.010 A 
ATOM     35  C   UNL A   1      36.569  32.161  28.551  1.00  0.00     0.010 A 
ATOM     36  C   UNL A   1      36.803  30.805  28.875  1.00  0.00    -0.014 A 
BRANCH  36  37
ATOM     37  C   UNL A   1      37.958  30.362  29.746  1.00  0.00     0.031 A 
ATOM     38  C   UNL A   1      38.939  29.360  29.180  1.00  0.00     0.074 A 
ATOM     39  C   UNL A   1      38.223  30.858  30.976  1.00  0.00     0.049 A 
ATOM     40  N   UNL A   1      40.014  28.843  29.721  1.00  0.00    -0.248 NA
ATOM     41  C   UNL A   1      38.656  28.882  27.822  1.00  0.00     0.031 C 
ATOM     42  C   UNL A   1      37.417  31.854  31.663  1.00  0.00     0.029 A 
ATOM     43  N   UNL A   1      39.246  30.601  31.870  1.00  0.00    -0.354 N 
ATOM     44  C   UNL A   1      40.539  27.975  28.768  1.00  0.00     0.074 A 
ATOM     45  C   UNL A   1      39.636  28.012  27.635  1.00  0.00     0.031 C 
ATOM     46  C   UNL A   1      37.973  32.143  32.854  1.00  0.00     0.029 A 
ATOM     47  C   UNL A   1      39.161  31.310  33.053  1.00  0.00     0.049 A 
ATOM     48  H   UNL A   1      39.975  29.965  31.681  1.00  0.00     0.167 HD
ATOM     49  C   UNL A   1      41.668  27.223  28.817  1.00  0.00     0.034 A 
ATOM     50  C   UNL A   1      39.920  31.282  34.176  1.00  0.00     0.034 A 
ATOM     51  C   UNL A   1      42.564  27.154  29.946  1.00  0.00     0.049 A 
ATOM     52  C   UNL A   1      41.111  30.347  34.254  1.00  0.00     0.074 A 
ATOM     53  C   UNL A   1      43.727  26.411  30.074  1.00  0.00     0.029 A 
ATOM     54  N   UNL A   1      42.397  27.829  31.146  1.00  0.00    -0.354 N 
ATOM     55  N   UNL A   1      41.590  29.538  33.337  1.00  0.00    -0.248 NA
ATOM     56  C   UNL A   1      41.861  30.315  35.521  1.00  0.00     0.031 C 
ATOM     57  C   UNL A   1      44.215  26.572  31.375  1.00  0.00     0.029 A 
ATOM     58  C   UNL A   1      43.411  27.488  32.032  1.00  0.00     0.049 A 
ATOM     59  H   UNL A   1      41.665  28.457  31.343  1.00  0.00     0.167 HD
ATOM     60  C   UNL A   1      42.714  28.937  33.906  1.00  0.00     0.074 A 
ATOM     61  C   UNL A   1      42.850  29.480  35.239  1.00  0.00     0.031 C 
ATOM     62  C   UNL A   1      43.558  28.021  33.366  1.00  0.00     0.034 A 
BRANCH  49  63
ATOM     63  C   UNL A   1      41.961  26.358  27.614  1.00  0.00     0.023 A 
ATOM     64  C   UNL A   1      41.535  25.021  27.547  1.00  0.00     0.031 A 
ATOM     65  C   UNL A   1      42.713  26.868  26.540  1.00  0.00     0.131 A 
ATOM     66  C   UNL A   1      41.933  24.216  26.470  1.00  0.00     0.055 A 
ATOM     67  C   UNL A   1      43.030  26.086  25.429  1.00  0.00     0.041 A 
ATOM     68  F   UNL A   1      43.165  28.131  26.560  1.00  0.00    -0.206 F 
ATOM     69  C   UNL A   1      42.656  24.745  25.398  1.00  0.00     0.022 A 
BRANCH  66  70
ATOM     70  S   UNL A   1      41.637  22.430  26.573  1.00  0.00     0.124 S 
ATOM     71  O   UNL A   1      42.286  22.096  27.837  1.00  0.00    -0.237 OA
ATOM     72  O   UNL A   1      40.181  22.352  26.561  1.00  0.00    -0.237 OA
ATOM     73  O   UNL A   1      42.300  21.904  25.382  1.00  0.00    -0.744 OA
ENDBRANCH  66  70
ENDBRANCH  49  63
BRANCH  50  74
ATOM     74  C   UNL A   1      39.566  32.112  35.376  1.00  0.00     0.023 A 
ATOM     75  C   UNL A   1      38.804  31.588  36.438  1.00  0.00     0.031 A 
ATOM     76  C   UNL A   1      39.891  33.480  35.423  1.00  0.00     0.131 A 
ATOM     77  C   UNL A   1      38.354  32.436  37.468  1.00  0.00     0.055 A 
ATOM     78  C   UNL A   1      39.493  34.304  36.479  1.00  0.00     0.041 A 
ATOM     79  F   UNL A   1      40.599  34.044  34.432  1.00  0.00    -0.206 F 
ATOM     80  C   UNL A   1      38.707  33.785  37.502  1.00  0.00     0.022 A 
BRANCH  77  81
ATOM     81  S   UNL A   1      37.206  31.774  38.711  1.00  0.00     0.124 S 
ATOM     82  O   UNL A   1      36.063  32.668  38.566  1.00  0.00    -0.237 OA
ATOM     83  O   UNL A   1      37.015  30.403  38.248  1.00  0.00    -0.237 OA
ATOM     84  O   UNL A   1      37.949  31.907  39.963  1.00  0.00    -0.744 OA
ENDBRANCH  77  81
ENDBRANCH  50  74
BRANCH  62  85
ATOM     85  C   UNL A   1      44.751  27.586  34.189  1.00  0.00     0.023 A 
ATOM     86  C   UNL A   1      44.715  26.460  35.032  1.00  0.00     0.031 A 
ATOM     87  C   UNL A   1      45.956  28.313  34.119  1.00  0.00     0.131 A 
ATOM     88  C   UNL A   1      45.841  26.122  35.802  1.00  0.00     0.055 A 
ATOM     89  C   UNL A   1      47.090  27.937  34.841  1.00  0.00     0.041 A 
ATOM     90  F   UNL A   1      46.052  29.400  33.337  1.00  0.00    -0.206 F 
ATOM     91  C   UNL A   1      47.033  26.843  35.697  1.00  0.00     0.022 A 
BRANCH  88  92
ATOM     92  S   UNL A   1      45.705  24.776  37.013  1.00  0.00     0.124 S 
ATOM     93  O   UNL A   1      46.807  25.074  37.923  1.00  0.00    -0.237 OA
ATOM     94  O   UNL A   1      44.363  24.973  37.550  1.00  0.00    -0.237 OA
ATOM     95  O   UNL A   1      45.878  23.569  36.207  1.00  0.00    -0.744 OA
ENDBRANCH  88  92
ENDBRANCH  62  85
ENDBRANCH  36  37
ENDBRANCH  29  31
ENDBRANCH  28  29
ENDBRANCH  27  28
ENDBRANCH   1  27
TORSDOF 20
ENDMDL
