MODEL 1
REMARK VINA RESULT:     -10.5      0.000      0.000
REMARK SMILES C[N@@H+]1CC2(CC[NH+](C(=O)c3cc(-c4ccncc4)n[nH]3)CC2)C[C@H]1C(=O)OCCOCCOC(=O)c1ccc(-c2c3nc(c(-c4cc(S(=O)(=O)[O-])ccc4F)c4ccc([nH]4)c(-c4cc(S(=O)(=O)[O-])ccc4F)c4nc(c(-c5cc(S(=O)(=O)[O-])ccc5F)c5ccc2[nH]5)C=C4)C=C3)cc1
REMARK SMILES IDX 30 1 29 2 28 3 27 4 25 5 26 6 24 7 1 8 2 9 3 10 4 12 23 13
REMARK SMILES IDX 5 14 22 15 6 16 21 17 7 18 8 20 9 21 10 22 11 23 20 24 12 25
REMARK SMILES IDX 19 26 13 28 14 29 18 30 15 31 17 32 16 33 31 34 32 35 33 36
REMARK SMILES IDX 34 37 35 38 36 39 37 40 98 41 38 42 97 43 39 44 40 45 41 46
REMARK SMILES IDX 91 47 42 48 96 49 90 50 92 51 43 52 95 53 89 54 88 55 44 57
REMARK SMILES IDX 76 58 56 59 75 60 57 61 60 62 74 63 93 64 58 65 59 66 73 68
REMARK SMILES IDX 94 69 61 70 45 71 46 72 54 73 47 74 53 75 55 76 52 77 48 78
REMARK SMILES IDX 49 79 50 80 51 81 77 82 78 83 86 84 79 85 85 86 87 87 84 88
REMARK SMILES IDX 80 89 81 90 82 91 83 92 62 93 63 94 71 95 64 96 70 97 72 98
REMARK SMILES IDX 69 99 65 100 66 101 67 102 68 103
REMARK H PARENT 2 11 7 19 20 27 92 56 60 67
REMARK Flexibility Score: inf
ROOT
ATOM      1  O   UNL A   1      41.675  19.502  26.784  1.00  0.00    -0.374 OA
ENDROOT
BRANCH   1   2
ATOM      2  C   UNL A   1      40.545  19.262  25.945  1.00  0.00     0.202 C 
BRANCH   2   3
ATOM      3  C   UNL A   1      39.466  20.348  25.943  1.00  0.00     0.261 C 
BRANCH   3   4
ATOM      4  O   UNL A   1      38.543  20.152  24.859  1.00  0.00    -0.459 OA
BRANCH   4   5
ATOM      5  C   UNL A   1      37.246  20.466  25.119  1.00  0.00     0.365 C 
ATOM      6  O   UNL A   1      36.282  19.785  24.780  1.00  0.00    -0.245 OA
BRANCH   5   7
ATOM      7  C   UNL A   1      37.063  21.797  25.859  1.00  0.00     0.295 C 
ATOM      8  C   UNL A   1      38.019  24.034  25.985  1.00  0.00     0.333 C 
ATOM      9  N   UNL A   1      37.477  23.006  25.100  1.00  0.00    -0.325 N 
ATOM     10  C   UNL A   1      36.282  23.478  24.388  1.00  0.00     0.270 C 
ATOM     11  H   UNL A   1      38.225  22.784  24.445  1.00  0.00     0.348 HD
ATOM     12  C   UNL A   1      35.044  22.992  25.170  1.00  0.00     0.036 C 
ATOM     13  C   UNL A   1      35.600  22.001  26.211  1.00  0.00     0.091 C 
ATOM     14  C   UNL A   1      34.051  22.288  24.212  1.00  0.00     0.075 C 
ATOM     15  C   UNL A   1      34.317  24.145  25.909  1.00  0.00     0.075 C 
ATOM     16  C   UNL A   1      33.356  23.293  23.296  1.00  0.00     0.271 C 
ATOM     17  C   UNL A   1      33.537  25.073  24.977  1.00  0.00     0.271 C 
ATOM     18  N   UNL A   1      32.666  24.294  24.108  1.00  0.00    -0.266 N 
ATOM     19  H   UNL A   1      33.575  24.669  24.063  1.00  0.00     0.357 HD
BRANCH  18  20
ATOM     20  C   UNL A   1      31.311  24.609  24.035  1.00  0.00     0.362 C 
ATOM     21  O   UNL A   1      30.446  23.821  24.414  1.00  0.00    -0.224 OA
BRANCH  20  22
ATOM     22  C   UNL A   1      30.941  25.896  23.510  1.00  0.00     0.163 A 
ATOM     23  C   UNL A   1      30.199  26.940  24.027  1.00  0.00     0.068 A 
ATOM     24  N   UNL A   1      31.383  26.349  22.299  1.00  0.00    -0.269 N 
ATOM     25  C   UNL A   1      30.155  27.921  23.005  1.00  0.00     0.093 A 
ATOM     26  N   UNL A   1      30.884  27.545  21.948  1.00  0.00    -0.175 NA
ATOM     27  H   UNL A   1      32.012  25.844  21.733  1.00  0.00     0.190 HD
BRANCH  25  28
ATOM     28  C   UNL A   1      29.432  29.180  23.031  1.00  0.00     0.005 A 
ATOM     29  C   UNL A   1      29.871  30.224  23.844  1.00  0.00     0.030 A 
ATOM     30  C   UNL A   1      28.283  29.346  22.260  1.00  0.00     0.030 A 
ATOM     31  C   UNL A   1      29.135  31.394  23.852  1.00  0.00     0.111 A 
ATOM     32  C   UNL A   1      27.611  30.554  22.342  1.00  0.00     0.111 A 
ATOM     33  N   UNL A   1      28.010  31.576  23.133  1.00  0.00    -0.265 NA
ENDBRANCH  25  28
ENDBRANCH  20  22
ENDBRANCH  18  20
ENDBRANCH   5   7
ENDBRANCH   4   5
ENDBRANCH   3   4
ENDBRANCH   2   3
ENDBRANCH   1   2
BRANCH   1  34
ATOM     34  C   UNL A   1      42.025  20.864  27.031  1.00  0.00     0.202 C 
BRANCH  34  35
ATOM     35  C   UNL A   1      42.979  21.532  26.032  1.00  0.00     0.261 C 
BRANCH  35  36
ATOM     36  O   UNL A   1      42.430  22.722  25.437  1.00  0.00    -0.460 OA
BRANCH  36  37
ATOM     37  C   UNL A   1      43.289  23.767  25.368  1.00  0.00     0.338 C 
ATOM     38  O   UNL A   1      44.156  23.949  24.524  1.00  0.00    -0.246 OA
BRANCH  37  39
ATOM     39  C   UNL A   1      42.935  24.789  26.372  1.00  0.00     0.060 A 
ATOM     40  C   UNL A   1      43.726  25.944  26.424  1.00  0.00     0.016 A 
ATOM     41  C   UNL A   1      41.910  24.591  27.301  1.00  0.00     0.016 A 
ATOM     42  C   UNL A   1      43.527  26.883  27.434  1.00  0.00     0.010 A 
ATOM     43  C   UNL A   1      41.720  25.532  28.322  1.00  0.00     0.010 A 
ATOM     44  C   UNL A   1      42.552  26.663  28.414  1.00  0.00    -0.014 A 
BRANCH  44  45
ATOM     45  C   UNL A   1      42.520  27.532  29.618  1.00  0.00     0.031 A 
ATOM     46  C   UNL A   1      43.391  27.177  30.794  1.00  0.00     0.074 A 
ATOM     47  C   UNL A   1      41.756  28.640  29.652  1.00  0.00     0.049 A 
ATOM     48  N   UNL A   1      43.506  27.770  31.955  1.00  0.00    -0.248 NA
ATOM     49  C   UNL A   1      44.243  25.987  30.639  1.00  0.00     0.031 C 
ATOM     50  C   UNL A   1      40.893  29.110  28.567  1.00  0.00     0.029 A 
ATOM     51  N   UNL A   1      41.581  29.569  30.645  1.00  0.00    -0.354 N 
ATOM     52  C   UNL A   1      44.437  27.025  32.672  1.00  0.00     0.074 A 
ATOM     53  C   UNL A   1      44.830  25.918  31.824  1.00  0.00     0.031 C 
ATOM     54  C   UNL A   1      40.266  30.231  28.964  1.00  0.00     0.029 A 
ATOM     55  C   UNL A   1      40.664  30.545  30.334  1.00  0.00     0.049 A 
ATOM     56  H   UNL A   1      42.066  29.540  31.502  1.00  0.00     0.167 HD
ATOM     57  C   UNL A   1      44.925  27.245  33.918  1.00  0.00     0.034 A 
ATOM     58  C   UNL A   1      40.187  31.561  31.080  1.00  0.00     0.034 A 
ATOM     59  C   UNL A   1      44.523  28.348  34.757  1.00  0.00     0.049 A 
ATOM     60  C   UNL A   1      40.700  31.751  32.487  1.00  0.00     0.074 A 
ATOM     61  C   UNL A   1      44.972  28.676  36.026  1.00  0.00     0.029 A 
ATOM     62  N   UNL A   1      43.568  29.296  34.419  1.00  0.00    -0.354 N 
ATOM     63  N   UNL A   1      41.585  31.042  33.149  1.00  0.00    -0.248 NA
ATOM     64  C   UNL A   1      40.151  32.886  33.242  1.00  0.00     0.031 C 
ATOM     65  C   UNL A   1      44.241  29.780  36.479  1.00  0.00     0.029 A 
ATOM     66  C   UNL A   1      43.390  30.188  35.466  1.00  0.00     0.049 A 
ATOM     67  H   UNL A   1      43.086  29.331  33.560  1.00  0.00     0.167 HD
ATOM     68  C   UNL A   1      41.709  31.658  34.392  1.00  0.00     0.074 A 
ATOM     69  C   UNL A   1      40.824  32.805  34.379  1.00  0.00     0.031 C 
ATOM     70  C   UNL A   1      42.487  31.313  35.448  1.00  0.00     0.034 A 
BRANCH  57  71
ATOM     71  C   UNL A   1      45.911  26.243  34.466  1.00  0.00     0.023 A 
ATOM     72  C   UNL A   1      45.493  25.091  35.156  1.00  0.00     0.031 A 
ATOM     73  C   UNL A   1      47.292  26.452  34.310  1.00  0.00     0.131 A 
ATOM     74  C   UNL A   1      46.446  24.227  35.716  1.00  0.00     0.055 A 
ATOM     75  C   UNL A   1      48.235  25.550  34.807  1.00  0.00     0.041 A 
ATOM     76  F   UNL A   1      47.751  27.546  33.680  1.00  0.00    -0.206 F 
ATOM     77  C   UNL A   1      47.814  24.436  35.525  1.00  0.00     0.022 A 
BRANCH  74  78
ATOM     78  S   UNL A   1      45.875  22.894  36.806  1.00  0.00     0.124 S 
ATOM     79  O   UNL A   1      45.275  23.647  37.904  1.00  0.00    -0.237 OA
ATOM     80  O   UNL A   1      44.950  22.161  35.951  1.00  0.00    -0.237 OA
ATOM     81  O   UNL A   1      47.105  22.182  37.148  1.00  0.00    -0.744 OA
ENDBRANCH  74  78
ENDBRANCH  57  71
BRANCH  58  82
ATOM     82  C   UNL A   1      39.116  32.454  30.561  1.00  0.00     0.023 A 
ATOM     83  C   UNL A   1      37.780  32.029  30.511  1.00  0.00     0.031 A 
ATOM     84  C   UNL A   1      39.441  33.700  29.997  1.00  0.00     0.131 A 
ATOM     85  C   UNL A   1      36.825  32.817  29.850  1.00  0.00     0.055 A 
ATOM     86  C   UNL A   1      38.479  34.497  29.375  1.00  0.00     0.041 A 
ATOM     87  F   UNL A   1      40.703  34.153  30.037  1.00  0.00    -0.206 F 
ATOM     88  C   UNL A   1      37.164  34.050  29.287  1.00  0.00     0.022 A 
BRANCH  85  89
ATOM     89  S   UNL A   1      35.144  32.161  29.662  1.00  0.00     0.124 S 
ATOM     90  O   UNL A   1      34.622  32.992  28.583  1.00  0.00    -0.237 OA
ATOM     91  O   UNL A   1      35.403  30.764  29.327  1.00  0.00    -0.237 OA
ATOM     92  O   UNL A   1      34.544  32.385  30.974  1.00  0.00    -0.744 OA
ENDBRANCH  85  89
ENDBRANCH  58  82
BRANCH  70  93
ATOM     93  C   UNL A   1      42.435  32.213  36.659  1.00  0.00     0.023 A 
ATOM     94  C   UNL A   1      41.398  32.122  37.603  1.00  0.00     0.031 A 
ATOM     95  C   UNL A   1      43.428  33.188  36.855  1.00  0.00     0.131 A 
ATOM     96  C   UNL A   1      41.348  33.028  38.674  1.00  0.00     0.055 A 
ATOM     97  C   UNL A   1      43.404  34.050  37.953  1.00  0.00     0.041 A 
ATOM     98  F   UNL A   1      44.439  33.319  35.983  1.00  0.00    -0.206 F 
ATOM     99  C   UNL A   1      42.352  33.981  38.863  1.00  0.00     0.022 A 
BRANCH  96 100
ATOM    100  S   UNL A   1      39.903  33.001  39.771  1.00  0.00     0.124 S 
ATOM    101  O   UNL A   1      38.884  32.404  38.916  1.00  0.00    -0.237 OA
ATOM    102  O   UNL A   1      40.368  32.175  40.880  1.00  0.00    -0.237 OA
ATOM    103  O   UNL A   1      39.694  34.412  40.096  1.00  0.00    -0.744 OA
ENDBRANCH  96 100
ENDBRANCH  70  93
ENDBRANCH  44  45
ENDBRANCH  37  39
ENDBRANCH  36  37
ENDBRANCH  35  36
ENDBRANCH  34  35
ENDBRANCH   1  34
TORSDOF 20
ENDMDL
MODEL 2
REMARK VINA RESULT:     -10.4      5.025      7.968
REMARK SMILES C[N@@H+]1CC2(CC[NH+](C(=O)c3cc(-c4ccncc4)n[nH]3)CC2)C[C@H]1C(=O)OCCOCCOC(=O)c1ccc(-c2c3nc(c(-c4cc(S(=O)(=O)[O-])ccc4F)c4ccc([nH]4)c(-c4cc(S(=O)(=O)[O-])ccc4F)c4nc(c(-c5cc(S(=O)(=O)[O-])ccc5F)c5ccc2[nH]5)C=C4)C=C3)cc1
REMARK SMILES IDX 30 1 29 2 28 3 27 4 25 5 26 6 24 7 1 8 2 9 3 10 4 12 23 13
REMARK SMILES IDX 5 14 22 15 6 16 21 17 7 18 8 20 9 21 10 22 11 23 20 24 12 25
REMARK SMILES IDX 19 26 13 28 14 29 18 30 15 31 17 32 16 33 31 34 32 35 33 36
REMARK SMILES IDX 34 37 35 38 36 39 37 40 98 41 38 42 97 43 39 44 40 45 41 46
REMARK SMILES IDX 91 47 42 48 96 49 90 50 92 51 43 52 95 53 89 54 88 55 44 57
REMARK SMILES IDX 76 58 56 59 75 60 57 61 60 62 74 63 93 64 58 65 59 66 73 68
REMARK SMILES IDX 94 69 61 70 45 71 46 72 54 73 47 74 53 75 55 76 52 77 48 78
REMARK SMILES IDX 49 79 50 80 51 81 77 82 78 83 86 84 79 85 85 86 87 87 84 88
REMARK SMILES IDX 80 89 81 90 82 91 83 92 62 93 63 94 71 95 64 96 70 97 72 98
REMARK SMILES IDX 69 99 65 100 66 101 67 102 68 103
REMARK H PARENT 2 11 7 19 20 27 92 56 60 67
REMARK Flexibility Score: inf
ROOT
ATOM      1  O   UNL A   1      42.459  20.753  26.415  1.00  0.00    -0.374 OA
ENDROOT
BRANCH   1   2
ATOM      2  C   UNL A   1      41.247  20.015  26.569  1.00  0.00     0.202 C 
BRANCH   2   3
ATOM      3  C   UNL A   1      39.950  20.793  26.334  1.00  0.00     0.261 C 
BRANCH   3   4
ATOM      4  O   UNL A   1      39.055  20.057  25.484  1.00  0.00    -0.459 OA
BRANCH   4   5
ATOM      5  C   UNL A   1      37.951  20.727  25.061  1.00  0.00     0.365 C 
ATOM      6  O   UNL A   1      37.294  20.430  24.067  1.00  0.00    -0.245 OA
BRANCH   5   7
ATOM      7  C   UNL A   1      37.594  21.946  25.921  1.00  0.00     0.295 C 
ATOM      8  C   UNL A   1      38.304  24.240  26.331  1.00  0.00     0.333 C 
ATOM      9  N   UNL A   1      37.916  23.264  25.315  1.00  0.00    -0.325 N 
ATOM     10  C   UNL A   1      36.715  23.691  24.585  1.00  0.00     0.270 C 
ATOM     11  H   UNL A   1      38.715  23.189  24.686  1.00  0.00     0.348 HD
ATOM     12  C   UNL A   1      35.497  23.003  25.238  1.00  0.00     0.036 C 
ATOM     13  C   UNL A   1      36.102  21.966  26.204  1.00  0.00     0.091 C 
ATOM     14  C   UNL A   1      34.631  22.312  24.155  1.00  0.00     0.075 C 
ATOM     15  C   UNL A   1      34.619  23.993  26.046  1.00  0.00     0.075 C 
ATOM     16  C   UNL A   1      33.881  23.336  23.307  1.00  0.00     0.271 C 
ATOM     17  C   UNL A   1      33.793  24.934  25.169  1.00  0.00     0.271 C 
ATOM     18  N   UNL A   1      33.052  24.171  24.174  1.00  0.00    -0.266 N 
ATOM     19  H   UNL A   1      33.918  24.637  24.222  1.00  0.00     0.357 HD
BRANCH  18  20
ATOM     20  C   UNL A   1      31.676  24.357  24.053  1.00  0.00     0.362 C 
ATOM     21  O   UNL A   1      30.874  23.531  24.487  1.00  0.00    -0.224 OA
BRANCH  20  22
ATOM     22  C   UNL A   1      31.208  25.555  23.411  1.00  0.00     0.163 A 
ATOM     23  C   UNL A   1      30.387  26.583  23.832  1.00  0.00     0.068 A 
ATOM     24  N   UNL A   1      31.613  25.924  22.159  1.00  0.00    -0.269 N 
ATOM     25  C   UNL A   1      30.267  27.457  22.722  1.00  0.00     0.093 A 
ATOM     26  N   UNL A   1      31.022  27.039  21.701  1.00  0.00    -0.175 NA
ATOM     27  H   UNL A   1      32.279  25.417  21.640  1.00  0.00     0.190 HD
BRANCH  25  28
ATOM     28  C   UNL A   1      29.449  28.653  22.634  1.00  0.00     0.005 A 
ATOM     29  C   UNL A   1      28.138  28.642  23.110  1.00  0.00     0.030 A 
ATOM     30  C   UNL A   1      29.961  29.813  22.055  1.00  0.00     0.030 A 
ATOM     31  C   UNL A   1      27.392  29.799  22.982  1.00  0.00     0.111 A 
ATOM     32  C   UNL A   1      29.132  30.919  21.967  1.00  0.00     0.111 A 
ATOM     33  N   UNL A   1      27.854  30.929  22.409  1.00  0.00    -0.265 NA
ENDBRANCH  25  28
ENDBRANCH  20  22
ENDBRANCH  18  20
ENDBRANCH   5   7
ENDBRANCH   4   5
ENDBRANCH   3   4
ENDBRANCH   2   3
ENDBRANCH   1   2
BRANCH   1  34
ATOM     34  C   UNL A   1      43.492  20.154  25.632  1.00  0.00     0.202 C 
BRANCH  34  35
ATOM     35  C   UNL A   1      44.267  21.071  24.678  1.00  0.00     0.261 C 
BRANCH  35  36
ATOM     36  O   UNL A   1      44.165  22.463  25.026  1.00  0.00    -0.460 OA
BRANCH  36  37
ATOM     37  C   UNL A   1      45.182  22.930  25.791  1.00  0.00     0.338 C 
ATOM     38  O   UNL A   1      46.320  22.482  25.850  1.00  0.00    -0.246 OA
BRANCH  37  39
ATOM     39  C   UNL A   1      44.794  24.195  26.445  1.00  0.00     0.060 A 
ATOM     40  C   UNL A   1      44.414  25.259  25.617  1.00  0.00     0.016 A 
ATOM     41  C   UNL A   1      44.880  24.369  27.828  1.00  0.00     0.016 A 
ATOM     42  C   UNL A   1      44.167  26.516  26.164  1.00  0.00     0.010 A 
ATOM     43  C   UNL A   1      44.642  25.638  28.374  1.00  0.00     0.010 A 
ATOM     44  C   UNL A   1      44.320  26.725  27.540  1.00  0.00    -0.014 A 
BRANCH  44  45
ATOM     45  C   UNL A   1      44.303  28.111  28.073  1.00  0.00     0.031 A 
ATOM     46  C   UNL A   1      43.001  28.680  28.576  1.00  0.00     0.074 A 
ATOM     47  C   UNL A   1      45.432  28.840  28.142  1.00  0.00     0.049 A 
ATOM     48  N   UNL A   1      42.743  29.869  29.056  1.00  0.00    -0.248 NA
ATOM     49  C   UNL A   1      41.834  27.785  28.524  1.00  0.00     0.031 C 
ATOM     50  C   UNL A   1      46.759  28.393  27.717  1.00  0.00     0.029 A 
ATOM     51  N   UNL A   1      45.638  30.119  28.592  1.00  0.00    -0.354 N 
ATOM     52  C   UNL A   1      41.385  29.870  29.358  1.00  0.00     0.074 A 
ATOM     53  C   UNL A   1      40.870  28.572  28.976  1.00  0.00     0.031 C 
ATOM     54  C   UNL A   1      47.638  29.391  27.912  1.00  0.00     0.029 A 
ATOM     55  C   UNL A   1      46.935  30.552  28.452  1.00  0.00     0.049 A 
ATOM     56  H   UNL A   1      44.924  30.676  28.979  1.00  0.00     0.167 HD
ATOM     57  C   UNL A   1      40.636  30.858  29.910  1.00  0.00     0.034 A 
ATOM     58  C   UNL A   1      47.484  31.755  28.710  1.00  0.00     0.034 A 
ATOM     59  C   UNL A   1      41.158  32.151  30.282  1.00  0.00     0.049 A 
ATOM     60  C   UNL A   1      46.618  32.860  29.266  1.00  0.00     0.074 A 
ATOM     61  C   UNL A   1      40.491  33.214  30.868  1.00  0.00     0.029 A 
ATOM     62  N   UNL A   1      42.470  32.563  30.093  1.00  0.00    -0.354 N 
ATOM     63  N   UNL A   1      45.337  32.844  29.552  1.00  0.00    -0.248 NA
ATOM     64  C   UNL A   1      47.280  34.143  29.539  1.00  0.00     0.031 C 
ATOM     65  C   UNL A   1      41.383  34.289  30.971  1.00  0.00     0.029 A 
ATOM     66  C   UNL A   1      42.624  33.873  30.520  1.00  0.00     0.049 A 
ATOM     67  H   UNL A   1      43.187  32.006  29.712  1.00  0.00     0.167 HD
ATOM     68  C   UNL A   1      45.047  34.110  30.056  1.00  0.00     0.074 A 
ATOM     69  C   UNL A   1      46.289  34.855  30.052  1.00  0.00     0.031 C 
ATOM     70  C   UNL A   1      43.863  34.611  30.488  1.00  0.00     0.034 A 
BRANCH  57  71
ATOM     71  C   UNL A   1      39.162  30.593  30.094  1.00  0.00     0.023 A 
ATOM     72  C   UNL A   1      38.197  31.126  29.222  1.00  0.00     0.031 A 
ATOM     73  C   UNL A   1      38.716  29.808  31.171  1.00  0.00     0.131 A 
ATOM     74  C   UNL A   1      36.834  30.919  29.477  1.00  0.00     0.055 A 
ATOM     75  C   UNL A   1      37.360  29.544  31.378  1.00  0.00     0.041 A 
ATOM     76  F   UNL A   1      39.590  29.292  32.049  1.00  0.00    -0.206 F 
ATOM     77  C   UNL A   1      36.410  30.111  30.535  1.00  0.00     0.022 A 
BRANCH  74  78
ATOM     78  S   UNL A   1      35.616  31.822  28.482  1.00  0.00     0.124 S 
ATOM     79  O   UNL A   1      36.406  32.955  28.006  1.00  0.00    -0.237 OA
ATOM     80  O   UNL A   1      35.237  30.838  27.476  1.00  0.00    -0.237 OA
ATOM     81  O   UNL A   1      34.570  32.162  29.445  1.00  0.00    -0.744 OA
ENDBRANCH  74  78
ENDBRANCH  57  71
BRANCH  58  82
ATOM     82  C   UNL A   1      48.911  32.030  28.391  1.00  0.00     0.023 A 
ATOM     83  C   UNL A   1      49.271  32.756  27.246  1.00  0.00     0.031 A 
ATOM     84  C   UNL A   1      49.935  31.463  29.169  1.00  0.00     0.131 A 
ATOM     85  C   UNL A   1      50.622  32.840  26.873  1.00  0.00     0.055 A 
ATOM     86  C   UNL A   1      51.279  31.583  28.814  1.00  0.00     0.041 A 
ATOM     87  F   UNL A   1      49.637  30.774  30.282  1.00  0.00    -0.206 F 
ATOM     88  C   UNL A   1      51.628  32.264  27.652  1.00  0.00     0.022 A 
BRANCH  85  89
ATOM     89  S   UNL A   1      51.035  33.645  25.300  1.00  0.00     0.124 S 
ATOM     90  O   UNL A   1      52.142  34.508  25.693  1.00  0.00    -0.237 OA
ATOM     91  O   UNL A   1      51.379  32.503  24.460  1.00  0.00    -0.237 OA
ATOM     92  O   UNL A   1      49.799  34.334  24.937  1.00  0.00    -0.744 OA
ENDBRANCH  85  89
ENDBRANCH  58  82
BRANCH  70  93
ATOM     93  C   UNL A   1      43.873  36.023  31.023  1.00  0.00     0.023 A 
ATOM     94  C   UNL A   1      43.815  37.137  30.169  1.00  0.00     0.031 A 
ATOM     95  C   UNL A   1      43.962  36.251  32.408  1.00  0.00     0.131 A 
ATOM     96  C   UNL A   1      43.903  38.432  30.705  1.00  0.00     0.055 A 
ATOM     97  C   UNL A   1      43.992  37.541  32.938  1.00  0.00     0.041 A 
ATOM     98  F   UNL A   1      44.022  35.222  33.267  1.00  0.00    -0.206 F 
ATOM     99  C   UNL A   1      43.976  38.641  32.084  1.00  0.00     0.022 A 
BRANCH  96 100
ATOM    100  S   UNL A   1      44.008  39.841  29.566  1.00  0.00     0.124 S 
ATOM    101  O   UNL A   1      44.576  39.224  28.373  1.00  0.00    -0.237 OA
ATOM    102  O   UNL A   1      42.617  40.265  29.464  1.00  0.00    -0.237 OA
ATOM    103  O   UNL A   1      44.892  40.777  30.261  1.00  0.00    -0.744 OA
ENDBRANCH  96 100
ENDBRANCH  70  93
ENDBRANCH  44  45
ENDBRANCH  37  39
ENDBRANCH  36  37
ENDBRANCH  35  36
ENDBRANCH  34  35
ENDBRANCH   1  34
TORSDOF 20
ENDMDL
MODEL 3
REMARK VINA RESULT:     -10.3      5.574     12.048
REMARK SMILES C[N@@H+]1CC2(CC[NH+](C(=O)c3cc(-c4ccncc4)n[nH]3)CC2)C[C@H]1C(=O)OCCOCCOC(=O)c1ccc(-c2c3nc(c(-c4cc(S(=O)(=O)[O-])ccc4F)c4ccc([nH]4)c(-c4cc(S(=O)(=O)[O-])ccc4F)c4nc(c(-c5cc(S(=O)(=O)[O-])ccc5F)c5ccc2[nH]5)C=C4)C=C3)cc1
REMARK SMILES IDX 30 1 29 2 28 3 27 4 25 5 26 6 24 7 1 8 2 9 3 10 4 12 23 13
REMARK SMILES IDX 5 14 22 15 6 16 21 17 7 18 8 20 9 21 10 22 11 23 20 24 12 25
REMARK SMILES IDX 19 26 13 28 14 29 18 30 15 31 17 32 16 33 31 34 32 35 33 36
REMARK SMILES IDX 34 37 35 38 36 39 37 40 98 41 38 42 97 43 39 44 40 45 41 46
REMARK SMILES IDX 91 47 42 48 96 49 90 50 92 51 43 52 95 53 89 54 88 55 44 57
REMARK SMILES IDX 76 58 56 59 75 60 57 61 60 62 74 63 93 64 58 65 59 66 73 68
REMARK SMILES IDX 94 69 61 70 45 71 46 72 54 73 47 74 53 75 55 76 52 77 48 78
REMARK SMILES IDX 49 79 50 80 51 81 77 82 78 83 86 84 79 85 85 86 87 87 84 88
REMARK SMILES IDX 80 89 81 90 82 91 83 92 62 93 63 94 71 95 64 96 70 97 72 98
REMARK SMILES IDX 69 99 65 100 66 101 67 102 68 103
REMARK H PARENT 2 11 7 19 20 27 92 56 60 67
REMARK Flexibility Score: inf
ROOT
ATOM      1  O   UNL A   1      47.119  36.692  34.057  1.00  0.00    -0.374 OA
ENDROOT
BRANCH   1   2
ATOM      2  C   UNL A   1      47.320  35.877  35.212  1.00  0.00     0.202 C 
BRANCH   2   3
ATOM      3  C   UNL A   1      46.159  34.957  35.597  1.00  0.00     0.261 C 
BRANCH   3   4
ATOM      4  O   UNL A   1      45.787  34.110  34.497  1.00  0.00    -0.459 OA
BRANCH   4   5
ATOM      5  C   UNL A   1      44.521  34.266  34.027  1.00  0.00     0.365 C 
ATOM      6  O   UNL A   1      43.943  35.345  33.925  1.00  0.00    -0.245 OA
BRANCH   5   7
ATOM      7  C   UNL A   1      43.827  32.948  33.659  1.00  0.00     0.295 C 
ATOM      8  C   UNL A   1      43.872  30.574  34.203  1.00  0.00     0.333 C 
ATOM      9  N   UNL A   1      43.785  31.931  34.740  1.00  0.00    -0.325 N 
ATOM     10  C   UNL A   1      42.527  32.147  35.466  1.00  0.00     0.270 C 
ATOM     11  H   UNL A   1      44.586  32.031  35.364  1.00  0.00     0.348 HD
ATOM     12  C   UNL A   1      41.533  32.822  34.498  1.00  0.00     0.036 C 
ATOM     13  C   UNL A   1      42.382  33.211  33.272  1.00  0.00     0.091 C 
ATOM     14  C   UNL A   1      40.911  34.076  35.161  1.00  0.00     0.075 C 
ATOM     15  C   UNL A   1      40.403  31.864  34.045  1.00  0.00     0.075 C 
ATOM     16  C   UNL A   1      39.924  33.691  36.260  1.00  0.00     0.271 C 
ATOM     17  C   UNL A   1      39.366  31.583  35.132  1.00  0.00     0.271 C 
ATOM     18  N   UNL A   1      38.882  32.834  35.698  1.00  0.00    -0.266 N 
ATOM     19  H   UNL A   1      39.585  32.178  35.906  1.00  0.00     0.357 HD
BRANCH  18  20
ATOM     20  C   UNL A   1      37.510  33.075  35.757  1.00  0.00     0.362 C 
ATOM     21  O   UNL A   1      36.845  32.768  36.746  1.00  0.00    -0.224 OA
BRANCH  20  22
ATOM     22  C   UNL A   1      36.883  33.707  34.629  1.00  0.00     0.163 A 
ATOM     23  C   UNL A   1      35.753  34.491  34.503  1.00  0.00     0.068 A 
ATOM     24  N   UNL A   1      37.423  33.671  33.374  1.00  0.00    -0.269 N 
ATOM     25  C   UNL A   1      35.635  34.775  33.119  1.00  0.00     0.093 A 
ATOM     26  N   UNL A   1      36.665  34.263  32.437  1.00  0.00    -0.175 NA
ATOM     27  H   UNL A   1      38.290  33.249  33.174  1.00  0.00     0.190 HD
BRANCH  25  28
ATOM     28  C   UNL A   1      34.566  35.507  32.464  1.00  0.00     0.005 A 
ATOM     29  C   UNL A   1      33.958  34.986  31.323  1.00  0.00     0.030 A 
ATOM     30  C   UNL A   1      34.155  36.744  32.959  1.00  0.00     0.030 A 
ATOM     31  C   UNL A   1      32.961  35.733  30.721  1.00  0.00     0.111 A 
ATOM     32  C   UNL A   1      33.153  37.417  32.281  1.00  0.00     0.111 A 
ATOM     33  N   UNL A   1      32.557  36.939  31.165  1.00  0.00    -0.265 NA
ENDBRANCH  25  28
ENDBRANCH  20  22
ENDBRANCH  18  20
ENDBRANCH   5   7
ENDBRANCH   4   5
ENDBRANCH   3   4
ENDBRANCH   2   3
ENDBRANCH   1   2
BRANCH   1  34
ATOM     34  C   UNL A   1      48.134  36.659  33.053  1.00  0.00     0.202 C 
BRANCH  34  35
ATOM     35  C   UNL A   1      47.734  37.106  31.641  1.00  0.00     0.261 C 
BRANCH  35  36
ATOM     36  O   UNL A   1      46.373  36.776  31.309  1.00  0.00    -0.460 OA
BRANCH  36  37
ATOM     37  C   UNL A   1      46.136  36.628  29.983  1.00  0.00     0.338 C 
ATOM     38  O   UNL A   1      46.266  37.481  29.115  1.00  0.00    -0.246 OA
BRANCH  37  39
ATOM     39  C   UNL A   1      45.852  35.215  29.667  1.00  0.00     0.060 A 
ATOM     40  C   UNL A   1      45.369  34.925  28.384  1.00  0.00     0.016 A 
ATOM     41  C   UNL A   1      45.971  34.204  30.624  1.00  0.00     0.016 A 
ATOM     42  C   UNL A   1      44.957  33.632  28.068  1.00  0.00     0.010 A 
ATOM     43  C   UNL A   1      45.545  32.907  30.305  1.00  0.00     0.010 A 
ATOM     44  C   UNL A   1      45.002  32.624  29.039  1.00  0.00    -0.014 A 
BRANCH  44  45
ATOM     45  C   UNL A   1      44.330  31.327  28.773  1.00  0.00     0.031 A 
ATOM     46  C   UNL A   1      45.097  30.245  28.059  1.00  0.00     0.074 A 
ATOM     47  C   UNL A   1      43.071  31.101  29.190  1.00  0.00     0.049 A 
ATOM     48  N   UNL A   1      44.708  29.049  27.696  1.00  0.00    -0.248 NA
ATOM     49  C   UNL A   1      46.489  30.559  27.701  1.00  0.00     0.031 C 
ATOM     50  C   UNL A   1      42.234  32.055  29.919  1.00  0.00     0.029 A 
ATOM     51  N   UNL A   1      42.274  29.993  29.054  1.00  0.00    -0.354 N 
ATOM     52  C   UNL A   1      45.803  28.469  27.064  1.00  0.00     0.074 A 
ATOM     53  C   UNL A   1      46.860  29.458  27.064  1.00  0.00     0.031 C 
ATOM     54  C   UNL A   1      41.033  31.495  30.150  1.00  0.00     0.029 A 
ATOM     55  C   UNL A   1      41.009  30.156  29.567  1.00  0.00     0.049 A 
ATOM     56  H   UNL A   1      42.579  29.159  28.629  1.00  0.00     0.167 HD
ATOM     57  C   UNL A   1      45.920  27.224  26.537  1.00  0.00     0.034 A 
ATOM     58  C   UNL A   1      39.948  29.325  29.546  1.00  0.00     0.034 A 
ATOM     59  C   UNL A   1      44.858  26.247  26.536  1.00  0.00     0.049 A 
ATOM     60  C   UNL A   1      40.083  27.967  28.900  1.00  0.00     0.074 A 
ATOM     61  C   UNL A   1      44.879  24.950  26.049  1.00  0.00     0.029 A 
ATOM     62  N   UNL A   1      43.581  26.461  27.035  1.00  0.00    -0.354 N 
ATOM     63  N   UNL A   1      41.126  27.431  28.311  1.00  0.00    -0.248 NA
ATOM     64  C   UNL A   1      38.895  27.104  28.924  1.00  0.00     0.031 C 
ATOM     65  C   UNL A   1      43.597  24.406  26.193  1.00  0.00     0.029 A 
ATOM     66  C   UNL A   1      42.797  25.334  26.837  1.00  0.00     0.049 A 
ATOM     67  H   UNL A   1      43.275  27.292  27.467  1.00  0.00     0.167 HD
ATOM     68  C   UNL A   1      40.721  26.159  27.911  1.00  0.00     0.074 A 
ATOM     69  C   UNL A   1      39.348  26.004  28.343  1.00  0.00     0.031 C 
ATOM     70  C   UNL A   1      41.422  25.202  27.252  1.00  0.00     0.034 A 
BRANCH  57  71
ATOM     71  C   UNL A   1      47.227  26.870  25.872  1.00  0.00     0.023 A 
ATOM     72  C   UNL A   1      48.259  26.213  26.564  1.00  0.00     0.031 A 
ATOM     73  C   UNL A   1      47.450  27.213  24.527  1.00  0.00     0.131 A 
ATOM     74  C   UNL A   1      49.486  25.974  25.929  1.00  0.00     0.055 A 
ATOM     75  C   UNL A   1      48.648  26.907  23.877  1.00  0.00     0.041 A 
ATOM     76  F   UNL A   1      46.510  27.862  23.822  1.00  0.00    -0.206 F 
ATOM     77  C   UNL A   1      49.680  26.295  24.583  1.00  0.00     0.022 A 
BRANCH  74  78
ATOM     78  S   UNL A   1      50.872  25.353  26.921  1.00  0.00     0.124 S 
ATOM     79  O   UNL A   1      50.187  24.483  27.873  1.00  0.00    -0.237 OA
ATOM     80  O   UNL A   1      51.700  24.686  25.924  1.00  0.00    -0.237 OA
ATOM     81  O   UNL A   1      51.450  26.566  27.500  1.00  0.00    -0.744 OA
ENDBRANCH  74  78
ENDBRANCH  57  71
BRANCH  58  82
ATOM     82  C   UNL A   1      38.630  29.752  30.090  1.00  0.00     0.023 A 
ATOM     83  C   UNL A   1      37.673  30.365  29.269  1.00  0.00     0.031 A 
ATOM     84  C   UNL A   1      38.366  29.659  31.467  1.00  0.00     0.131 A 
ATOM     85  C   UNL A   1      36.519  30.923  29.844  1.00  0.00     0.055 A 
ATOM     86  C   UNL A   1      37.200  30.181  32.028  1.00  0.00     0.041 A 
ATOM     87  F   UNL A   1      39.248  29.065  32.288  1.00  0.00    -0.206 F 
ATOM     88  C   UNL A   1      36.274  30.830  31.216  1.00  0.00     0.022 A 
BRANCH  85  89
ATOM     89  S   UNL A   1      35.384  31.851  28.776  1.00  0.00     0.124 S 
ATOM     90  O   UNL A   1      34.934  30.815  27.854  1.00  0.00    -0.237 OA
ATOM     91  O   UNL A   1      34.393  32.329  29.735  1.00  0.00    -0.237 OA
ATOM     92  O   UNL A   1      36.236  32.884  28.194  1.00  0.00    -0.744 OA
ENDBRANCH  85  89
ENDBRANCH  58  82
BRANCH  70  93
ATOM     93  C   UNL A   1      40.715  23.894  26.994  1.00  0.00     0.023 A 
ATOM     94  C   UNL A   1      39.498  23.837  26.294  1.00  0.00     0.031 A 
ATOM     95  C   UNL A   1      41.261  22.691  27.475  1.00  0.00     0.131 A 
ATOM     96  C   UNL A   1      38.837  22.607  26.142  1.00  0.00     0.055 A 
ATOM     97  C   UNL A   1      40.628  21.464  27.271  1.00  0.00     0.041 A 
ATOM     98  F   UNL A   1      42.420  22.689  28.151  1.00  0.00    -0.206 F 
ATOM     99  C   UNL A   1      39.402  21.419  26.613  1.00  0.00     0.022 A 
BRANCH  96 100
ATOM    100  S   UNL A   1      37.184  22.593  25.394  1.00  0.00     0.124 S 
ATOM    101  O   UNL A   1      37.469  22.990  24.020  1.00  0.00    -0.237 OA
ATOM    102  O   UNL A   1      36.766  21.209  25.584  1.00  0.00    -0.237 OA
ATOM    103  O   UNL A   1      36.443  23.577  26.183  1.00  0.00    -0.744 OA
ENDBRANCH  96 100
ENDBRANCH  70  93
ENDBRANCH  44  45
ENDBRANCH  37  39
ENDBRANCH  36  37
ENDBRANCH  35  36
ENDBRANCH  34  35
ENDBRANCH   1  34
TORSDOF 20
ENDMDL
