MODEL 1
REMARK VINA RESULT:      -9.2      0.000      0.000
REMARK SMILES COc1ccc(/C=C/c2cc(OC)cc(OC)c2/C=C/C(=O)OCCOCCOC(=O)c2ccc(-c3c4nc(c(-c5cc(S(=O)(=O)[O-])ccc5F)c5ccc([nH]5)c(-c5cc(S(=O)(=O)[O-])ccc5F)c5nc(c(-c6cc(S(=O)(=O)[O-])ccc6F)c6ccc3[nH]6)C=C5)C=C4)cc2)cc1
REMARK SMILES IDX 25 1 24 2 23 3 21 4 22 5 20 6 19 7 18 8 9 9 10 10 11 11
REMARK SMILES IDX 15 12 14 13 8 14 7 15 6 16 3 17 4 18 96 19 5 20 95 21 2 22
REMARK SMILES IDX 1 23 12 24 13 25 16 26 17 27 26 28 27 29 28 30 29 31 30 32
REMARK SMILES IDX 31 33 32 34 33 35 94 36 34 37 93 38 35 39 36 40 37 41 87 42
REMARK SMILES IDX 38 43 92 44 86 45 88 46 39 47 91 48 85 49 84 50 40 52 72 53
REMARK SMILES IDX 52 54 71 55 53 56 56 57 70 58 89 59 54 60 55 61 69 63 90 64
REMARK SMILES IDX 57 65 41 66 42 67 50 68 43 69 49 70 51 71 48 72 44 73 45 74
REMARK SMILES IDX 46 75 47 76 73 77 74 78 82 79 75 80 81 81 83 82 80 83 76 84
REMARK SMILES IDX 77 85 78 86 79 87 58 88 59 89 67 90 60 91 66 92 68 93 65 94
REMARK SMILES IDX 61 95 62 96 63 97 64 98
REMARK H PARENT 88 51 56 62
REMARK Flexibility Score: inf
ROOT
ATOM      1  C   UNL A   1      41.181  21.590  26.312  1.00  0.00     0.202 C 
ENDROOT
BRANCH   1   2
ATOM      2  C   UNL A   1      40.177  22.207  27.292  1.00  0.00     0.261 C 
BRANCH   2   3
ATOM      3  O   UNL A   1      40.379  23.618  27.474  1.00  0.00    -0.460 OA
BRANCH   3   4
ATOM      4  C   UNL A   1      39.279  24.387  27.289  1.00  0.00     0.330 C 
ATOM      5  O   UNL A   1      39.206  25.599  27.425  1.00  0.00    -0.247 OA
BRANCH   4   6
ATOM      6  C   UNL A   1      38.110  23.612  26.831  1.00  0.00     0.094 C 
ATOM      7  C   UNL A   1      37.185  24.026  25.952  1.00  0.00     0.020 C 
BRANCH   7   8
ATOM      8  C   UNL A   1      36.014  23.187  25.624  1.00  0.00     0.024 A 
ATOM      9  C   UNL A   1      34.764  23.816  25.397  1.00  0.00    -0.011 A 
ATOM     10  C   UNL A   1      33.651  23.050  25.010  1.00  0.00     0.055 A 
ATOM     11  C   UNL A   1      33.740  21.668  24.857  1.00  0.00     0.123 A 
ATOM     12  C   UNL A   1      36.088  21.782  25.494  1.00  0.00     0.130 A 
ATOM     13  C   UNL A   1      34.959  21.043  25.099  1.00  0.00     0.093 A 
BRANCH   9  14
ATOM     14  C   UNL A   1      34.516  25.258  25.582  1.00  0.00     0.009 C 
ATOM     15  C   UNL A   1      33.368  25.764  26.061  1.00  0.00     0.009 C 
BRANCH  15  16
ATOM     16  C   UNL A   1      33.087  27.199  26.228  1.00  0.00    -0.025 A 
ATOM     17  C   UNL A   1      32.520  29.915  26.686  1.00  0.00     0.118 A 
ATOM     18  C   UNL A   1      33.571  29.552  25.852  1.00  0.00     0.047 A 
ATOM     19  C   UNL A   1      31.719  28.932  27.263  1.00  0.00     0.047 A 
ATOM     20  C   UNL A   1      33.865  28.203  25.637  1.00  0.00     0.012 A 
ATOM     21  C   UNL A   1      32.008  27.581  27.040  1.00  0.00     0.012 A 
BRANCH  17  22
ATOM     22  O   UNL A   1      32.319  31.256  26.848  1.00  0.00    -0.497 OA
ATOM     23  C   UNL A   1      31.072  31.708  26.327  1.00  0.00     0.278 C 
ENDBRANCH  17  22
ENDBRANCH  15  16
ENDBRANCH   9  14
BRANCH  11  24
ATOM     24  O   UNL A   1      32.583  21.054  24.463  1.00  0.00    -0.497 OA
ATOM     25  C   UNL A   1      32.650  19.654  24.222  1.00  0.00     0.278 C 
ENDBRANCH  11  24
BRANCH  12  26
ATOM     26  O   UNL A   1      37.204  20.991  25.628  1.00  0.00    -0.496 OA
ATOM     27  C   UNL A   1      37.550  20.140  24.543  1.00  0.00     0.278 C 
ENDBRANCH  12  26
ENDBRANCH   7   8
ENDBRANCH   4   6
ENDBRANCH   3   4
ENDBRANCH   2   3
ENDBRANCH   1   2
BRANCH   1  28
ATOM     28  O   UNL A   1      42.127  20.669  26.850  1.00  0.00    -0.374 OA
BRANCH  28  29
ATOM     29  C   UNL A   1      42.885  19.888  25.926  1.00  0.00     0.202 C 
BRANCH  29  30
ATOM     30  C   UNL A   1      44.085  20.558  25.244  1.00  0.00     0.261 C 
BRANCH  30  31
ATOM     31  O   UNL A   1      44.496  21.773  25.899  1.00  0.00    -0.460 OA
BRANCH  31  32
ATOM     32  C   UNL A   1      45.745  22.196  25.566  1.00  0.00     0.338 C 
ATOM     33  O   UNL A   1      46.576  21.579  24.923  1.00  0.00    -0.246 OA
BRANCH  32  34
ATOM     34  C   UNL A   1      45.920  23.616  25.926  1.00  0.00     0.060 A 
ATOM     35  C   UNL A   1      46.287  23.905  27.246  1.00  0.00     0.016 A 
ATOM     36  C   UNL A   1      45.632  24.647  25.029  1.00  0.00     0.016 A 
ATOM     37  C   UNL A   1      46.320  25.226  27.688  1.00  0.00     0.010 A 
ATOM     38  C   UNL A   1      45.659  25.974  25.478  1.00  0.00     0.010 A 
ATOM     39  C   UNL A   1      45.968  26.267  26.819  1.00  0.00    -0.014 A 
BRANCH  39  40
ATOM     40  C   UNL A   1      45.786  27.633  27.373  1.00  0.00     0.031 A 
ATOM     41  C   UNL A   1      44.447  28.021  27.945  1.00  0.00     0.074 A 
ATOM     42  C   UNL A   1      46.820  28.493  27.430  1.00  0.00     0.049 A 
ATOM     43  N   UNL A   1      44.074  29.142  28.507  1.00  0.00    -0.248 NA
ATOM     44  C   UNL A   1      43.387  27.004  27.870  1.00  0.00     0.031 C 
ATOM     45  C   UNL A   1      48.169  28.220  26.937  1.00  0.00     0.029 A 
ATOM     46  N   UNL A   1      46.897  29.768  27.934  1.00  0.00    -0.354 N 
ATOM     47  C   UNL A   1      42.736  28.970  28.850  1.00  0.00     0.074 A 
ATOM     48  C   UNL A   1      42.356  27.649  28.396  1.00  0.00     0.031 C 
ATOM     49  C   UNL A   1      48.942  29.296  27.164  1.00  0.00     0.029 A 
ATOM     50  C   UNL A   1      48.136  30.345  27.787  1.00  0.00     0.049 A 
ATOM     51  H   UNL A   1      46.136  30.225  28.360  1.00  0.00     0.167 HD
ATOM     52  C   UNL A   1      41.907  29.830  29.493  1.00  0.00     0.034 A 
ATOM     53  C   UNL A   1      48.564  31.585  28.099  1.00  0.00     0.034 A 
ATOM     54  C   UNL A   1      42.299  31.151  29.926  1.00  0.00     0.049 A 
ATOM     55  C   UNL A   1      47.603  32.551  28.746  1.00  0.00     0.074 A 
ATOM     56  C   UNL A   1      41.546  32.097  30.602  1.00  0.00     0.029 A 
ATOM     57  N   UNL A   1      43.547  31.723  29.712  1.00  0.00    -0.354 N 
ATOM     58  N   UNL A   1      46.345  32.371  29.079  1.00  0.00    -0.248 NA
ATOM     59  C   UNL A   1      48.126  33.885  29.066  1.00  0.00     0.031 C 
ATOM     60  C   UNL A   1      42.312  33.261  30.728  1.00  0.00     0.029 A 
ATOM     61  C   UNL A   1      43.574  33.018  30.210  1.00  0.00     0.049 A 
ATOM     62  H   UNL A   1      44.304  31.273  29.271  1.00  0.00     0.167 HD
ATOM     63  C   UNL A   1      45.935  33.562  29.672  1.00  0.00     0.074 A 
ATOM     64  C   UNL A   1      47.086  34.442  29.668  1.00  0.00     0.031 C 
ATOM     65  C   UNL A   1      44.721  33.896  30.181  1.00  0.00     0.034 A 
BRANCH  52  66
ATOM     66  C   UNL A   1      40.480  29.384  29.711  1.00  0.00     0.023 A 
ATOM     67  C   UNL A   1      39.423  29.852  28.908  1.00  0.00     0.031 A 
ATOM     68  C   UNL A   1      40.165  28.499  30.758  1.00  0.00     0.131 A 
ATOM     69  C   UNL A   1      38.100  29.492  29.212  1.00  0.00     0.055 A 
ATOM     70  C   UNL A   1      38.856  28.082  31.005  1.00  0.00     0.041 A 
ATOM     71  F   UNL A   1      41.127  28.036  31.573  1.00  0.00    -0.206 F 
ATOM     72  C   UNL A   1      37.811  28.592  30.240  1.00  0.00     0.022 A 
BRANCH  69  73
ATOM     73  S   UNL A   1      36.748  30.333  28.340  1.00  0.00     0.124 S 
ATOM     74  O   UNL A   1      37.138  31.735  28.473  1.00  0.00    -0.237 OA
ATOM     75  O   UNL A   1      36.839  29.769  27.000  1.00  0.00    -0.237 OA
ATOM     76  O   UNL A   1      35.559  29.950  29.100  1.00  0.00    -0.744 OA
ENDBRANCH  69  73
ENDBRANCH  52  66
BRANCH  53  77
ATOM     77  C   UNL A   1      49.949  32.015  27.752  1.00  0.00     0.023 A 
ATOM     78  C   UNL A   1      50.273  32.534  26.490  1.00  0.00     0.031 A 
ATOM     79  C   UNL A   1      50.990  31.843  28.681  1.00  0.00     0.131 A 
ATOM     80  C   UNL A   1      51.611  32.833  26.183  1.00  0.00     0.055 A 
ATOM     81  C   UNL A   1      52.308  32.198  28.393  1.00  0.00     0.041 A 
ATOM     82  F   UNL A   1      50.732  31.324  29.888  1.00  0.00    -0.206 F 
ATOM     83  C   UNL A   1      52.626  32.686  27.131  1.00  0.00     0.022 A 
BRANCH  80  84
ATOM     84  S   UNL A   1      52.025  33.337  24.490  1.00  0.00     0.124 S 
ATOM     85  O   UNL A   1      53.428  33.709  24.627  1.00  0.00    -0.237 OA
ATOM     86  O   UNL A   1      51.754  32.117  23.737  1.00  0.00    -0.237 OA
ATOM     87  O   UNL A   1      51.107  34.443  24.231  1.00  0.00    -0.744 OA
ENDBRANCH  80  84
ENDBRANCH  53  77
BRANCH  65  88
ATOM     88  C   UNL A   1      44.599  35.263  30.815  1.00  0.00     0.023 A 
ATOM     89  C   UNL A   1      44.695  35.448  32.206  1.00  0.00     0.031 A 
ATOM     90  C   UNL A   1      44.343  36.392  30.016  1.00  0.00     0.131 A 
ATOM     91  C   UNL A   1      44.463  36.716  32.761  1.00  0.00     0.055 A 
ATOM     92  C   UNL A   1      44.182  37.664  30.569  1.00  0.00     0.041 A 
ATOM     93  F   UNL A   1      44.237  36.277  28.683  1.00  0.00    -0.206 F 
ATOM     94  C   UNL A   1      44.225  37.828  31.950  1.00  0.00     0.022 A 
BRANCH  91  95
ATOM     95  S   UNL A   1      44.352  36.870  34.566  1.00  0.00     0.124 S 
ATOM     96  O   UNL A   1      45.317  37.929  34.840  1.00  0.00    -0.237 OA
ATOM     97  O   UNL A   1      42.949  37.218  34.763  1.00  0.00    -0.237 OA
ATOM     98  O   UNL A   1      44.734  35.543  35.046  1.00  0.00    -0.744 OA
ENDBRANCH  91  95
ENDBRANCH  65  88
ENDBRANCH  39  40
ENDBRANCH  32  34
ENDBRANCH  31  32
ENDBRANCH  30  31
ENDBRANCH  29  30
ENDBRANCH  28  29
ENDBRANCH   1  28
TORSDOF 23
ENDMDL
MODEL 2
REMARK VINA RESULT:      -8.7      8.113     14.903
REMARK SMILES COc1ccc(/C=C/c2cc(OC)cc(OC)c2/C=C/C(=O)OCCOCCOC(=O)c2ccc(-c3c4nc(c(-c5cc(S(=O)(=O)[O-])ccc5F)c5ccc([nH]5)c(-c5cc(S(=O)(=O)[O-])ccc5F)c5nc(c(-c6cc(S(=O)(=O)[O-])ccc6F)c6ccc3[nH]6)C=C5)C=C4)cc2)cc1
REMARK SMILES IDX 25 1 24 2 23 3 21 4 22 5 20 6 19 7 18 8 9 9 10 10 11 11
REMARK SMILES IDX 15 12 14 13 8 14 7 15 6 16 3 17 4 18 96 19 5 20 95 21 2 22
REMARK SMILES IDX 1 23 12 24 13 25 16 26 17 27 26 28 27 29 28 30 29 31 30 32
REMARK SMILES IDX 31 33 32 34 33 35 94 36 34 37 93 38 35 39 36 40 37 41 87 42
REMARK SMILES IDX 38 43 92 44 86 45 88 46 39 47 91 48 85 49 84 50 40 52 72 53
REMARK SMILES IDX 52 54 71 55 53 56 56 57 70 58 89 59 54 60 55 61 69 63 90 64
REMARK SMILES IDX 57 65 41 66 42 67 50 68 43 69 49 70 51 71 48 72 44 73 45 74
REMARK SMILES IDX 46 75 47 76 73 77 74 78 82 79 75 80 81 81 83 82 80 83 76 84
REMARK SMILES IDX 77 85 78 86 79 87 58 88 59 89 67 90 60 91 66 92 68 93 65 94
REMARK SMILES IDX 61 95 62 96 63 97 64 98
REMARK H PARENT 88 51 56 62
REMARK Flexibility Score: inf
ROOT
ATOM      1  C   UNL A   1      51.369  39.275  31.548  1.00  0.00     0.202 C 
ENDROOT
BRANCH   1   2
ATOM      2  C   UNL A   1      50.006  38.793  31.038  1.00  0.00     0.261 C 
BRANCH   2   3
ATOM      3  O   UNL A   1      50.119  37.716  30.094  1.00  0.00    -0.460 OA
BRANCH   3   4
ATOM      4  C   UNL A   1      48.961  37.073  29.809  1.00  0.00     0.330 C 
ATOM      5  O   UNL A   1      48.699  35.903  30.045  1.00  0.00    -0.247 OA
BRANCH   4   6
ATOM      6  C   UNL A   1      47.950  37.959  29.200  1.00  0.00     0.094 C 
ATOM      7  C   UNL A   1      46.661  37.653  28.984  1.00  0.00     0.020 C 
BRANCH   7   8
ATOM      8  C   UNL A   1      45.758  38.599  28.298  1.00  0.00     0.024 A 
ATOM      9  C   UNL A   1      44.860  39.374  29.075  1.00  0.00    -0.011 A 
ATOM     10  C   UNL A   1      44.042  40.335  28.455  1.00  0.00     0.055 A 
ATOM     11  C   UNL A   1      44.079  40.538  27.077  1.00  0.00     0.123 A 
ATOM     12  C   UNL A   1      45.768  38.792  26.898  1.00  0.00     0.130 A 
ATOM     13  C   UNL A   1      44.942  39.766  26.308  1.00  0.00     0.093 A 
BRANCH   9  14
ATOM     14  C   UNL A   1      44.677  39.219  30.530  1.00  0.00     0.009 C 
ATOM     15  C   UNL A   1      44.868  40.208  31.418  1.00  0.00     0.009 C 
BRANCH  15  16
ATOM     16  C   UNL A   1      44.719  40.070  32.876  1.00  0.00    -0.025 A 
ATOM     17  C   UNL A   1      44.448  39.661  35.644  1.00  0.00     0.118 A 
ATOM     18  C   UNL A   1      45.186  40.738  35.166  1.00  0.00     0.047 A 
ATOM     19  C   UNL A   1      43.807  38.807  34.751  1.00  0.00     0.047 A 
ATOM     20  C   UNL A   1      45.337  40.933  33.791  1.00  0.00     0.012 A 
ATOM     21  C   UNL A   1      43.950  39.007  33.373  1.00  0.00     0.012 A 
BRANCH  17  22
ATOM     22  O   UNL A   1      44.370  39.545  37.002  1.00  0.00    -0.497 OA
ATOM     23  C   UNL A   1      45.425  38.770  37.566  1.00  0.00     0.278 C 
ENDBRANCH  17  22
ENDBRANCH  15  16
ENDBRANCH   9  14
BRANCH  11  24
ATOM     24  O   UNL A   1      43.240  41.514  26.615  1.00  0.00    -0.497 OA
ATOM     25  C   UNL A   1      43.161  41.675  25.204  1.00  0.00     0.278 C 
ENDBRANCH  11  24
BRANCH  12  26
ATOM     26  O   UNL A   1      46.584  38.179  25.978  1.00  0.00    -0.496 OA
ATOM     27  C   UNL A   1      47.222  38.996  25.005  1.00  0.00     0.278 C 
ENDBRANCH  12  26
ENDBRANCH   7   8
ENDBRANCH   4   6
ENDBRANCH   3   4
ENDBRANCH   2   3
ENDBRANCH   1   2
BRANCH   1  28
ATOM     28  O   UNL A   1      51.361  40.243  32.594  1.00  0.00    -0.374 OA
BRANCH  28  29
ATOM     29  C   UNL A   1      51.679  39.792  33.911  1.00  0.00     0.202 C 
BRANCH  29  30
ATOM     30  C   UNL A   1      52.042  38.311  34.088  1.00  0.00     0.261 C 
BRANCH  30  31
ATOM     31  O   UNL A   1      51.124  37.608  34.946  1.00  0.00    -0.460 OA
BRANCH  31  32
ATOM     32  C   UNL A   1      50.748  36.385  34.485  1.00  0.00     0.338 C 
ATOM     33  O   UNL A   1      51.484  35.480  34.134  1.00  0.00    -0.246 OA
BRANCH  32  34
ATOM     34  C   UNL A   1      49.291  36.202  34.639  1.00  0.00     0.060 A 
ATOM     35  C   UNL A   1      48.797  34.894  34.578  1.00  0.00     0.016 A 
ATOM     36  C   UNL A   1      48.417  37.287  34.736  1.00  0.00     0.016 A 
ATOM     37  C   UNL A   1      47.422  34.668  34.564  1.00  0.00     0.010 A 
ATOM     38  C   UNL A   1      47.035  37.057  34.714  1.00  0.00     0.010 A 
ATOM     39  C   UNL A   1      46.531  35.749  34.592  1.00  0.00    -0.014 A 
BRANCH  39  40
ATOM     40  C   UNL A   1      45.089  35.496  34.343  1.00  0.00     0.031 A 
ATOM     41  C   UNL A   1      44.594  35.409  32.923  1.00  0.00     0.074 A 
ATOM     42  C   UNL A   1      44.245  35.278  35.368  1.00  0.00     0.049 A 
ATOM     43  N   UNL A   1      43.389  35.165  32.474  1.00  0.00    -0.248 NA
ATOM     44  C   UNL A   1      45.596  35.626  31.869  1.00  0.00     0.031 C 
ATOM     45  C   UNL A   1      44.613  35.308  36.783  1.00  0.00     0.029 A 
ATOM     46  N   UNL A   1      42.903  34.984  35.375  1.00  0.00    -0.354 N 
ATOM     47  C   UNL A   1      43.485  35.203  31.086  1.00  0.00     0.074 A 
ATOM     48  C   UNL A   1      44.859  35.532  30.771  1.00  0.00     0.031 C 
ATOM     49  C   UNL A   1      43.523  35.039  37.522  1.00  0.00     0.029 A 
ATOM     50  C   UNL A   1      42.374  34.853  36.638  1.00  0.00     0.049 A 
ATOM     51  H   UNL A   1      42.371  34.876  34.554  1.00  0.00     0.167 HD
ATOM     52  C   UNL A   1      42.518  34.975  30.162  1.00  0.00     0.034 A 
ATOM     53  C   UNL A   1      41.104  34.632  37.033  1.00  0.00     0.034 A 
ATOM     54  C   UNL A   1      41.148  34.662  30.493  1.00  0.00     0.049 A 
ATOM     55  C   UNL A   1      40.031  34.455  35.988  1.00  0.00     0.074 A 
ATOM     56  C   UNL A   1      40.092  34.394  29.638  1.00  0.00     0.029 A 
ATOM     57  N   UNL A   1      40.635  34.592  31.783  1.00  0.00    -0.354 N 
ATOM     58  N   UNL A   1      40.138  34.478  34.679  1.00  0.00    -0.248 NA
ATOM     59  C   UNL A   1      38.668  34.213  36.478  1.00  0.00     0.031 C 
ATOM     60  C   UNL A   1      38.933  34.238  30.405  1.00  0.00     0.029 A 
ATOM     61  C   UNL A   1      39.275  34.320  31.745  1.00  0.00     0.049 A 
ATOM     62  H   UNL A   1      41.162  34.716  32.606  1.00  0.00     0.167 HD
ATOM     63  C   UNL A   1      38.858  34.227  34.190  1.00  0.00     0.074 A 
ATOM     64  C   UNL A   1      38.005  34.036  35.346  1.00  0.00     0.031 C 
ATOM     65  C   UNL A   1      38.428  34.154  32.903  1.00  0.00     0.034 A 
BRANCH  52  66
ATOM     66  C   UNL A   1      42.904  35.114  28.707  1.00  0.00     0.023 A 
ATOM     67  C   UNL A   1      43.459  34.047  27.978  1.00  0.00     0.031 A 
ATOM     68  C   UNL A   1      42.742  36.345  28.046  1.00  0.00     0.131 A 
ATOM     69  C   UNL A   1      43.898  34.251  26.660  1.00  0.00     0.055 A 
ATOM     70  C   UNL A   1      43.107  36.520  26.709  1.00  0.00     0.041 A 
ATOM     71  F   UNL A   1      42.238  37.408  28.694  1.00  0.00    -0.206 F 
ATOM     72  C   UNL A   1      43.704  35.473  26.013  1.00  0.00     0.022 A 
BRANCH  69  73
ATOM     73  S   UNL A   1      44.861  32.942  25.852  1.00  0.00     0.124 S 
ATOM     74  O   UNL A   1      46.217  33.478  25.937  1.00  0.00    -0.237 OA
ATOM     75  O   UNL A   1      44.579  31.782  26.687  1.00  0.00    -0.237 OA
ATOM     76  O   UNL A   1      44.304  32.890  24.501  1.00  0.00    -0.744 OA
ENDBRANCH  69  73
ENDBRANCH  52  66
BRANCH  53  77
ATOM     77  C   UNL A   1      40.756  34.624  38.483  1.00  0.00     0.023 A 
ATOM     78  C   UNL A   1      40.407  35.796  39.171  1.00  0.00     0.031 A 
ATOM     79  C   UNL A   1      40.835  33.429  39.217  1.00  0.00     0.131 A 
ATOM     80  C   UNL A   1      40.182  35.749  40.557  1.00  0.00     0.055 A 
ATOM     81  C   UNL A   1      40.553  33.375  40.582  1.00  0.00     0.041 A 
ATOM     82  F   UNL A   1      41.193  32.291  38.608  1.00  0.00    -0.206 F 
ATOM     83  C   UNL A   1      40.235  34.544  41.263  1.00  0.00     0.022 A 
BRANCH  80  84
ATOM     84  S   UNL A   1      39.906  37.304  41.448  1.00  0.00     0.124 S 
ATOM     85  O   UNL A   1      39.535  36.824  42.774  1.00  0.00    -0.237 OA
ATOM     86  O   UNL A   1      41.210  37.951  41.340  1.00  0.00    -0.237 OA
ATOM     87  O   UNL A   1      38.832  37.943  40.691  1.00  0.00    -0.744 OA
ENDBRANCH  80  84
ENDBRANCH  53  77
BRANCH  65  88
ATOM     88  C   UNL A   1      36.972  33.808  32.689  1.00  0.00     0.023 A 
ATOM     89  C   UNL A   1      35.994  34.799  32.490  1.00  0.00     0.031 A 
ATOM     90  C   UNL A   1      36.551  32.466  32.727  1.00  0.00     0.131 A 
ATOM     91  C   UNL A   1      34.640  34.440  32.409  1.00  0.00     0.055 A 
ATOM     92  C   UNL A   1      35.210  32.110  32.577  1.00  0.00     0.041 A 
ATOM     93  F   UNL A   1      37.439  31.477  32.919  1.00  0.00    -0.206 F 
ATOM     94  C   UNL A   1      34.244  33.102  32.434  1.00  0.00     0.022 A 
BRANCH  91  95
ATOM     95  S   UNL A   1      33.390  35.756  32.398  1.00  0.00     0.124 S 
ATOM     96  O   UNL A   1      33.468  36.238  31.024  1.00  0.00    -0.237 OA
ATOM     97  O   UNL A   1      32.173  35.032  32.752  1.00  0.00    -0.237 OA
ATOM     98  O   UNL A   1      33.870  36.693  33.413  1.00  0.00    -0.744 OA
ENDBRANCH  91  95
ENDBRANCH  65  88
ENDBRANCH  39  40
ENDBRANCH  32  34
ENDBRANCH  31  32
ENDBRANCH  30  31
ENDBRANCH  29  30
ENDBRANCH  28  29
ENDBRANCH   1  28
TORSDOF 23
ENDMDL
MODEL 3
REMARK VINA RESULT:      -8.4      5.483     10.431
REMARK SMILES COc1ccc(/C=C/c2cc(OC)cc(OC)c2/C=C/C(=O)OCCOCCOC(=O)c2ccc(-c3c4nc(c(-c5cc(S(=O)(=O)[O-])ccc5F)c5ccc([nH]5)c(-c5cc(S(=O)(=O)[O-])ccc5F)c5nc(c(-c6cc(S(=O)(=O)[O-])ccc6F)c6ccc3[nH]6)C=C5)C=C4)cc2)cc1
REMARK SMILES IDX 25 1 24 2 23 3 21 4 22 5 20 6 19 7 18 8 9 9 10 10 11 11
REMARK SMILES IDX 15 12 14 13 8 14 7 15 6 16 3 17 4 18 96 19 5 20 95 21 2 22
REMARK SMILES IDX 1 23 12 24 13 25 16 26 17 27 26 28 27 29 28 30 29 31 30 32
REMARK SMILES IDX 31 33 32 34 33 35 94 36 34 37 93 38 35 39 36 40 37 41 87 42
REMARK SMILES IDX 38 43 92 44 86 45 88 46 39 47 91 48 85 49 84 50 40 52 72 53
REMARK SMILES IDX 52 54 71 55 53 56 56 57 70 58 89 59 54 60 55 61 69 63 90 64
REMARK SMILES IDX 57 65 41 66 42 67 50 68 43 69 49 70 51 71 48 72 44 73 45 74
REMARK SMILES IDX 46 75 47 76 73 77 74 78 82 79 75 80 81 81 83 82 80 83 76 84
REMARK SMILES IDX 77 85 78 86 79 87 58 88 59 89 67 90 60 91 66 92 68 93 65 94
REMARK SMILES IDX 61 95 62 96 63 97 64 98
REMARK H PARENT 88 51 56 62
REMARK Flexibility Score: inf
ROOT
ATOM      1  C   UNL A   1      39.483  27.454  29.239  1.00  0.00     0.202 C 
ENDROOT
BRANCH   1   2
ATOM      2  C   UNL A   1      39.025  26.045  28.845  1.00  0.00     0.261 C 
BRANCH   2   3
ATOM      3  O   UNL A   1      39.164  25.793  27.437  1.00  0.00    -0.460 OA
BRANCH   3   4
ATOM      4  C   UNL A   1      39.647  24.569  27.115  1.00  0.00     0.330 C 
ATOM      5  O   UNL A   1      40.809  24.200  27.195  1.00  0.00    -0.247 OA
BRANCH   4   6
ATOM      6  C   UNL A   1      38.591  23.634  26.680  1.00  0.00     0.094 C 
ATOM      7  C   UNL A   1      37.671  23.870  25.733  1.00  0.00     0.020 C 
BRANCH   7   8
ATOM      8  C   UNL A   1      36.614  22.882  25.433  1.00  0.00     0.024 A 
ATOM      9  C   UNL A   1      35.289  23.341  25.222  1.00  0.00    -0.011 A 
ATOM     10  C   UNL A   1      34.280  22.432  24.861  1.00  0.00     0.055 A 
ATOM     11  C   UNL A   1      34.546  21.072  24.718  1.00  0.00     0.123 A 
ATOM     12  C   UNL A   1      36.869  21.498  25.312  1.00  0.00     0.130 A 
ATOM     13  C   UNL A   1      35.839  20.614  24.944  1.00  0.00     0.093 A 
BRANCH   9  14
ATOM     14  C   UNL A   1      34.858  24.740  25.400  1.00  0.00     0.009 C 
ATOM     15  C   UNL A   1      33.613  25.176  25.152  1.00  0.00     0.009 C 
BRANCH  15  16
ATOM     16  C   UNL A   1      33.166  26.572  25.294  1.00  0.00    -0.025 A 
ATOM     17  C   UNL A   1      32.322  29.221  25.711  1.00  0.00     0.118 A 
ATOM     18  C   UNL A   1      33.201  28.923  24.675  1.00  0.00     0.047 A 
ATOM     19  C   UNL A   1      31.826  28.200  26.517  1.00  0.00     0.047 A 
ATOM     20  C   UNL A   1      33.635  27.610  24.478  1.00  0.00     0.012 A 
ATOM     21  C   UNL A   1      32.254  26.883  26.313  1.00  0.00     0.012 A 
BRANCH  17  22
ATOM     22  O   UNL A   1      31.966  30.533  25.835  1.00  0.00    -0.497 OA
ATOM     23  C   UNL A   1      32.410  31.128  27.051  1.00  0.00     0.278 C 
ENDBRANCH  17  22
ENDBRANCH  15  16
ENDBRANCH   9  14
BRANCH  11  24
ATOM     24  O   UNL A   1      33.473  20.309  24.350  1.00  0.00    -0.497 OA
ATOM     25  C   UNL A   1      32.245  20.563  25.021  1.00  0.00     0.278 C 
ENDBRANCH  11  24
BRANCH  12  26
ATOM     26  O   UNL A   1      38.081  20.861  25.433  1.00  0.00    -0.496 OA
ATOM     27  C   UNL A   1      38.181  19.526  24.953  1.00  0.00     0.278 C 
ENDBRANCH  12  26
ENDBRANCH   7   8
ENDBRANCH   4   6
ENDBRANCH   3   4
ENDBRANCH   2   3
ENDBRANCH   1   2
BRANCH   1  28
ATOM     28  O   UNL A   1      40.846  27.785  28.988  1.00  0.00    -0.374 OA
BRANCH  28  29
ATOM     29  C   UNL A   1      41.108  28.817  28.037  1.00  0.00     0.202 C 
BRANCH  29  30
ATOM     30  C   UNL A   1      41.002  28.458  26.549  1.00  0.00     0.261 C 
BRANCH  30  31
ATOM     31  O   UNL A   1      41.762  27.287  26.198  1.00  0.00    -0.460 OA
BRANCH  31  32
ATOM     32  C   UNL A   1      42.804  27.524  25.357  1.00  0.00     0.338 C 
ATOM     33  O   UNL A   1      42.749  28.053  24.261  1.00  0.00    -0.246 OA
BRANCH  32  34
ATOM     34  C   UNL A   1      44.085  27.225  26.026  1.00  0.00     0.060 A 
ATOM     35  C   UNL A   1      44.746  28.288  26.653  1.00  0.00     0.016 A 
ATOM     36  C   UNL A   1      44.678  25.963  25.956  1.00  0.00     0.016 A 
ATOM     37  C   UNL A   1      46.027  28.105  27.170  1.00  0.00     0.010 A 
ATOM     38  C   UNL A   1      45.970  25.784  26.470  1.00  0.00     0.010 A 
ATOM     39  C   UNL A   1      46.664  26.863  27.047  1.00  0.00    -0.014 A 
BRANCH  39  40
ATOM     40  C   UNL A   1      48.105  26.759  27.393  1.00  0.00     0.031 A 
ATOM     41  C   UNL A   1      49.137  27.096  26.349  1.00  0.00     0.074 A 
ATOM     42  C   UNL A   1      48.488  26.435  28.642  1.00  0.00     0.049 A 
ATOM     43  N   UNL A   1      50.442  27.105  26.440  1.00  0.00    -0.248 NA
ATOM     44  C   UNL A   1      48.623  27.472  25.023  1.00  0.00     0.031 C 
ATOM     45  C   UNL A   1      47.581  26.117  29.745  1.00  0.00     0.029 A 
ATOM     46  N   UNL A   1      49.740  26.327  29.194  1.00  0.00    -0.354 N 
ATOM     47  C   UNL A   1      50.909  27.484  25.185  1.00  0.00     0.074 A 
ATOM     48  C   UNL A   1      49.745  27.657  24.341  1.00  0.00     0.031 C 
ATOM     49  C   UNL A   1      48.307  25.851  30.843  1.00  0.00     0.029 A 
ATOM     50  C   UNL A   1      49.729  25.945  30.515  1.00  0.00     0.049 A 
ATOM     51  H   UNL A   1      50.567  26.505  28.692  1.00  0.00     0.167 HD
ATOM     52  C   UNL A   1      52.188  27.679  24.778  1.00  0.00     0.034 A 
ATOM     53  C   UNL A   1      50.750  25.681  31.356  1.00  0.00     0.034 A 
ATOM     54  C   UNL A   1      53.340  27.488  25.629  1.00  0.00     0.049 A 
ATOM     55  C   UNL A   1      52.166  25.833  30.860  1.00  0.00     0.074 A 
ATOM     56  C   UNL A   1      54.678  27.676  25.326  1.00  0.00     0.029 A 
ATOM     57  N   UNL A   1      53.293  27.049  26.947  1.00  0.00    -0.354 N 
ATOM     58  N   UNL A   1      52.594  26.207  29.675  1.00  0.00    -0.248 NA
ATOM     59  C   UNL A   1      53.236  25.535  31.821  1.00  0.00     0.031 C 
ATOM     60  C   UNL A   1      55.439  27.280  26.431  1.00  0.00     0.029 A 
ATOM     61  C   UNL A   1      54.578  26.927  27.457  1.00  0.00     0.049 A 
ATOM     62  H   UNL A   1      52.467  26.854  27.446  1.00  0.00     0.167 HD
ATOM     63  C   UNL A   1      53.984  26.213  29.759  1.00  0.00     0.074 A 
ATOM     64  C   UNL A   1      54.317  25.826  31.115  1.00  0.00     0.031 C 
ATOM     65  C   UNL A   1      54.902  26.518  28.805  1.00  0.00     0.034 A 
BRANCH  52  66
ATOM     66  C   UNL A   1      52.405  28.066  23.333  1.00  0.00     0.023 A 
ATOM     67  C   UNL A   1      52.315  29.400  22.897  1.00  0.00     0.031 A 
ATOM     68  C   UNL A   1      52.676  27.078  22.369  1.00  0.00     0.131 A 
ATOM     69  C   UNL A   1      52.421  29.700  21.529  1.00  0.00     0.055 A 
ATOM     70  C   UNL A   1      52.860  27.392  21.021  1.00  0.00     0.041 A 
ATOM     71  F   UNL A   1      52.752  25.784  22.718  1.00  0.00    -0.206 F 
ATOM     72  C   UNL A   1      52.716  28.708  20.591  1.00  0.00     0.022 A 
BRANCH  69  73
ATOM     73  S   UNL A   1      52.020  31.380  20.974  1.00  0.00     0.124 S 
ATOM     74  O   UNL A   1      51.993  32.111  22.238  1.00  0.00    -0.237 OA
ATOM     75  O   UNL A   1      53.128  31.689  20.080  1.00  0.00    -0.237 OA
ATOM     76  O   UNL A   1      50.718  31.226  20.325  1.00  0.00    -0.744 OA
ENDBRANCH  69  73
ENDBRANCH  52  66
BRANCH  53  77
ATOM     77  C   UNL A   1      50.481  25.186  32.736  1.00  0.00     0.023 A 
ATOM     78  C   UNL A   1      50.409  23.818  33.035  1.00  0.00     0.031 A 
ATOM     79  C   UNL A   1      50.226  26.101  33.773  1.00  0.00     0.131 A 
ATOM     80  C   UNL A   1      50.058  23.405  34.332  1.00  0.00     0.055 A 
ATOM     81  C   UNL A   1      49.936  25.688  35.073  1.00  0.00     0.041 A 
ATOM     82  F   UNL A   1      50.256  27.417  33.527  1.00  0.00    -0.206 F 
ATOM     83  C   UNL A   1      49.840  24.331  35.356  1.00  0.00     0.022 A 
BRANCH  80  84
ATOM     84  S   UNL A   1      49.801  21.638  34.645  1.00  0.00     0.124 S 
ATOM     85  O   UNL A   1      49.998  21.069  33.317  1.00  0.00    -0.237 OA
ATOM     86  O   UNL A   1      50.841  21.350  35.628  1.00  0.00    -0.237 OA
ATOM     87  O   UNL A   1      48.433  21.578  35.154  1.00  0.00    -0.744 OA
ENDBRANCH  80  84
ENDBRANCH  53  77
BRANCH  65  88
ATOM     88  C   UNL A   1      56.355  26.485  29.220  1.00  0.00     0.023 A 
ATOM     89  C   UNL A   1      57.003  27.617  29.746  1.00  0.00     0.031 A 
ATOM     90  C   UNL A   1      57.113  25.313  29.047  1.00  0.00     0.131 A 
ATOM     91  C   UNL A   1      58.380  27.574  30.012  1.00  0.00     0.055 A 
ATOM     92  C   UNL A   1      58.467  25.256  29.379  1.00  0.00     0.041 A 
ATOM     93  F   UNL A   1      56.549  24.202  28.545  1.00  0.00    -0.206 F 
ATOM     94  C   UNL A   1      59.112  26.397  29.847  1.00  0.00     0.022 A 
BRANCH  91  95
ATOM     95  S   UNL A   1      59.230  29.115  30.455  1.00  0.00     0.124 S 
ATOM     96  O   UNL A   1      58.144  29.910  31.018  1.00  0.00    -0.237 OA
ATOM     97  O   UNL A   1      60.240  28.653  31.402  1.00  0.00    -0.237 OA
ATOM     98  O   UNL A   1      59.754  29.597  29.178  1.00  0.00    -0.744 OA
ENDBRANCH  91  95
ENDBRANCH  65  88
ENDBRANCH  39  40
ENDBRANCH  32  34
ENDBRANCH  31  32
ENDBRANCH  30  31
ENDBRANCH  29  30
ENDBRANCH  28  29
ENDBRANCH   1  28
TORSDOF 23
ENDMDL
