MODEL 1
REMARK VINA RESULT:     -12.0      0.000      0.000
REMARK SMILES COc1ccc(-c2cc(Cl)cc3c2O[C@@H](C(F)(F)F)C(C(=O)OCCOCCOC(=O)c2ccc(-c4c5nc(c(-c6cc(S(=O)(=O)[O-])ccc6F)c6ccc([nH]6)c(-c6cc(S(=O)(=O)[O-])ccc6F)c6nc(c(-c7cc(S(=O)(=O)[O-])ccc7F)c7ccc4[nH]7)C=C6)C=C5)cc2)=C3)cc1C
REMARK SMILES IDX 27 1 26 2 25 3 24 4 23 5 21 6 22 7 20 8 7 9 8 10 13 11 9 12
REMARK SMILES IDX 12 13 14 14 10 15 11 16 95 17 15 18 6 19 3 20 4 21 97 22
REMARK SMILES IDX 5 23 96 24 98 25 2 26 1 27 16 28 17 29 18 30 19 31 28 32
REMARK SMILES IDX 29 33 30 34 31 35 32 36 33 37 94 38 34 39 93 40 35 41 36 42
REMARK SMILES IDX 37 43 87 44 38 45 92 46 86 47 88 48 39 49 91 50 85 51 84 52
REMARK SMILES IDX 40 54 72 55 52 56 71 57 53 58 56 59 70 60 89 61 54 62 55 63
REMARK SMILES IDX 69 65 90 66 57 67 41 68 42 69 50 70 43 71 49 72 51 73 48 74
REMARK SMILES IDX 44 75 45 76 46 77 47 78 73 79 74 80 82 81 75 82 81 83 83 84
REMARK SMILES IDX 80 85 76 86 77 87 78 88 79 89 58 90 59 91 67 92 60 93 66 94
REMARK SMILES IDX 68 95 65 96 61 97 62 98 63 99 64 100
REMARK H PARENT 88 53 56 64
REMARK Flexibility Score: inf
ROOT
ATOM      1  C   UNL A   1      38.075  21.659  25.266  1.00  0.00     0.202 C 
ENDROOT
BRANCH   1   2
ATOM      2  O   UNL A   1      37.325  22.709  25.867  1.00  0.00    -0.374 OA
BRANCH   2   3
ATOM      3  C   UNL A   1      36.971  23.765  24.975  1.00  0.00     0.202 C 
BRANCH   3   4
ATOM      4  C   UNL A   1      35.481  24.087  25.194  1.00  0.00     0.261 C 
BRANCH   4   5
ATOM      5  O   UNL A   1      35.175  25.487  25.272  1.00  0.00    -0.460 OA
BRANCH   5   6
ATOM      6  C   UNL A   1      33.979  25.846  25.802  1.00  0.00     0.338 C 
ATOM      7  O   UNL A   1      33.409  25.326  26.752  1.00  0.00    -0.246 OA
BRANCH   6   8
ATOM      8  C   UNL A   1      33.623  27.219  25.249  1.00  0.00     0.087 C 
ATOM      9  C   UNL A   1      31.780  24.492  23.054  1.00  0.00     0.026 A 
ATOM     10  C   UNL A   1      31.962  24.507  21.649  1.00  0.00     0.033 A 
ATOM     11  C   UNL A   1      32.066  25.723  23.712  1.00  0.00     0.135 A 
ATOM     12  C   UNL A   1      32.603  25.555  20.992  1.00  0.00     0.042 A 
ATOM     13  C   UNL A   1      33.003  26.600  23.091  1.00  0.00     0.019 A 
ATOM     14  O   UNL A   1      31.485  26.182  24.930  1.00  0.00    -0.475 OA
ATOM     15  Cl  UNL A   1      32.788  25.498  19.284  1.00  0.00    -0.084 Cl
ATOM     16  C   UNL A   1      33.205  26.565  21.719  1.00  0.00     0.032 A 
ATOM     17  C   UNL A   1      33.865  27.475  23.946  1.00  0.00     0.027 C 
ATOM     18  C   UNL A   1      32.142  27.428  25.487  1.00  0.00     0.316 C 
BRANCH   9  19
ATOM     19  C   UNL A   1      31.765  23.063  23.582  1.00  0.00    -0.014 A 
ATOM     20  C   UNL A   1      32.417  20.472  24.707  1.00  0.00     0.121 A 
ATOM     21  C   UNL A   1      32.201  20.653  23.339  1.00  0.00     0.047 A 
ATOM     22  C   UNL A   1      32.397  21.594  25.531  1.00  0.00    -0.008 A 
ATOM     23  C   UNL A   1      31.898  21.925  22.783  1.00  0.00     0.013 A 
ATOM     24  C   UNL A   1      31.987  22.844  24.980  1.00  0.00     0.016 A 
ATOM     25  C   UNL A   1      32.977  21.541  26.918  1.00  0.00     0.048 C 
BRANCH  20  26
ATOM     26  O   UNL A   1      32.824  19.228  25.124  1.00  0.00    -0.496 OA
ATOM     27  C   UNL A   1      34.036  18.773  24.515  1.00  0.00     0.278 C 
ENDBRANCH  20  26
ENDBRANCH   9  19
BRANCH  18  28
ATOM     28  C   UNL A   1      31.918  28.025  26.927  1.00  0.00     0.430 C 
ATOM     29  F   UNL A   1      31.383  29.279  26.798  1.00  0.00    -0.167 F 
ATOM     30  F   UNL A   1      30.989  27.298  27.595  1.00  0.00    -0.167 F 
ATOM     31  F   UNL A   1      32.988  28.165  27.714  1.00  0.00    -0.167 F 
ENDBRANCH  18  28
ENDBRANCH   6   8
ENDBRANCH   5   6
ENDBRANCH   4   5
ENDBRANCH   3   4
ENDBRANCH   2   3
ENDBRANCH   1   2
BRANCH   1  32
ATOM     32  C   UNL A   1      39.398  21.392  25.990  1.00  0.00     0.261 C 
BRANCH  32  33
ATOM     33  O   UNL A   1      39.683  22.496  26.875  1.00  0.00    -0.460 OA
BRANCH  33  34
ATOM     34  C   UNL A   1      40.641  23.345  26.409  1.00  0.00     0.338 C 
ATOM     35  O   UNL A   1      41.689  22.997  25.895  1.00  0.00    -0.246 OA
BRANCH  34  36
ATOM     36  C   UNL A   1      40.261  24.760  26.682  1.00  0.00     0.060 A 
ATOM     37  C   UNL A   1      41.004  25.816  26.142  1.00  0.00     0.016 A 
ATOM     38  C   UNL A   1      39.283  25.042  27.626  1.00  0.00     0.016 A 
ATOM     39  C   UNL A   1      40.908  27.106  26.696  1.00  0.00     0.010 A 
ATOM     40  C   UNL A   1      39.187  26.314  28.169  1.00  0.00     0.010 A 
ATOM     41  C   UNL A   1      40.066  27.336  27.786  1.00  0.00    -0.014 A 
BRANCH  41  42
ATOM     42  C   UNL A   1      40.238  28.432  28.775  1.00  0.00     0.031 A 
ATOM     43  C   UNL A   1      39.246  29.526  28.880  1.00  0.00     0.074 A 
ATOM     44  C   UNL A   1      41.107  28.259  29.809  1.00  0.00     0.049 A 
ATOM     45  N   UNL A   1      39.285  30.449  29.769  1.00  0.00    -0.248 NA
ATOM     46  C   UNL A   1      38.123  29.705  27.973  1.00  0.00     0.031 C 
ATOM     47  C   UNL A   1      41.137  28.923  31.121  1.00  0.00     0.029 A 
ATOM     48  N   UNL A   1      42.154  27.355  29.910  1.00  0.00    -0.354 N 
ATOM     49  C   UNL A   1      38.131  31.184  29.738  1.00  0.00     0.074 A 
ATOM     50  C   UNL A   1      37.462  30.716  28.554  1.00  0.00     0.031 C 
ATOM     51  C   UNL A   1      42.243  28.570  31.800  1.00  0.00     0.029 A 
ATOM     52  C   UNL A   1      43.047  27.758  30.914  1.00  0.00     0.049 A 
ATOM     53  H   UNL A   1      42.256  26.547  29.358  1.00  0.00     0.167 HD
ATOM     54  C   UNL A   1      37.913  32.059  30.765  1.00  0.00     0.034 A 
ATOM     55  C   UNL A   1      44.308  28.066  30.501  1.00  0.00     0.034 A 
ATOM     56  C   UNL A   1      39.183  32.289  31.487  1.00  0.00     0.049 A 
ATOM     57  C   UNL A   1      44.382  29.597  30.378  1.00  0.00     0.074 A 
ATOM     58  C   UNL A   1      39.685  31.990  32.742  1.00  0.00     0.029 A 
ATOM     59  N   UNL A   1      40.297  32.662  30.720  1.00  0.00    -0.354 N 
ATOM     60  N   UNL A   1      43.325  30.379  30.355  1.00  0.00    -0.248 NA
ATOM     61  C   UNL A   1      45.612  30.376  30.466  1.00  0.00     0.031 C 
ATOM     62  C   UNL A   1      41.120  32.047  32.659  1.00  0.00     0.029 A 
ATOM     63  C   UNL A   1      41.491  32.414  31.371  1.00  0.00     0.049 A 
ATOM     64  H   UNL A   1      40.235  33.055  29.820  1.00  0.00     0.167 HD
ATOM     65  C   UNL A   1      43.675  31.682  30.546  1.00  0.00     0.074 A 
ATOM     66  C   UNL A   1      45.132  31.632  30.558  1.00  0.00     0.031 C 
ATOM     67  C   UNL A   1      42.774  32.705  30.716  1.00  0.00     0.034 A 
BRANCH  54  68
ATOM     68  C   UNL A   1      36.566  32.641  31.186  1.00  0.00     0.023 A 
ATOM     69  C   UNL A   1      35.846  33.479  30.300  1.00  0.00     0.031 A 
ATOM     70  C   UNL A   1      35.971  32.497  32.460  1.00  0.00     0.131 A 
ATOM     71  C   UNL A   1      34.642  34.117  30.692  1.00  0.00     0.055 A 
ATOM     72  C   UNL A   1      34.782  33.131  32.850  1.00  0.00     0.041 A 
ATOM     73  F   UNL A   1      36.501  31.738  33.419  1.00  0.00    -0.206 F 
ATOM     74  C   UNL A   1      34.111  33.951  31.967  1.00  0.00     0.022 A 
BRANCH  71  75
ATOM     75  S   UNL A   1      33.752  35.181  29.518  1.00  0.00     0.124 S 
ATOM     76  O   UNL A   1      33.480  36.372  30.316  1.00  0.00    -0.237 OA
ATOM     77  O   UNL A   1      34.722  35.331  28.438  1.00  0.00    -0.237 OA
ATOM     78  O   UNL A   1      32.569  34.392  29.170  1.00  0.00    -0.744 OA
ENDBRANCH  71  75
ENDBRANCH  54  68
BRANCH  55  79
ATOM     79  C   UNL A   1      44.775  26.934  29.608  1.00  0.00     0.023 A 
ATOM     80  C   UNL A   1      44.675  27.172  28.196  1.00  0.00     0.031 A 
ATOM     81  C   UNL A   1      45.733  25.996  30.018  1.00  0.00     0.131 A 
ATOM     82  C   UNL A   1      45.609  26.628  27.291  1.00  0.00     0.055 A 
ATOM     83  C   UNL A   1      46.637  25.425  29.099  1.00  0.00     0.041 A 
ATOM     84  F   UNL A   1      45.932  25.746  31.319  1.00  0.00    -0.206 F 
ATOM     85  C   UNL A   1      46.615  25.779  27.748  1.00  0.00     0.022 A 
BRANCH  82  86
ATOM     86  S   UNL A   1      45.661  27.197  25.554  1.00  0.00     0.124 S 
ATOM     87  O   UNL A   1      45.816  25.942  24.829  1.00  0.00    -0.237 OA
ATOM     88  O   UNL A   1      44.382  27.872  25.379  1.00  0.00    -0.237 OA
ATOM     89  O   UNL A   1      46.816  28.094  25.523  1.00  0.00    -0.744 OA
ENDBRANCH  82  86
ENDBRANCH  55  79
BRANCH  67  90
ATOM     90  C   UNL A   1      43.090  34.125  30.296  1.00  0.00     0.023 A 
ATOM     91  C   UNL A   1      42.961  34.539  28.964  1.00  0.00     0.031 A 
ATOM     92  C   UNL A   1      43.399  35.151  31.221  1.00  0.00     0.131 A 
ATOM     93  C   UNL A   1      43.259  35.849  28.571  1.00  0.00     0.055 A 
ATOM     94  C   UNL A   1      43.576  36.486  30.843  1.00  0.00     0.041 A 
ATOM     95  F   UNL A   1      43.521  34.915  32.534  1.00  0.00    -0.206 F 
ATOM     96  C   UNL A   1      43.536  36.840  29.504  1.00  0.00     0.022 A 
BRANCH  93  97
ATOM     97  S   UNL A   1      43.387  36.167  26.797  1.00  0.00     0.124 S 
ATOM     98  O   UNL A   1      44.723  36.752  26.698  1.00  0.00    -0.237 OA
ATOM     99  O   UNL A   1      43.238  34.834  26.225  1.00  0.00    -0.237 OA
ATOM    100  O   UNL A   1      42.285  37.089  26.534  1.00  0.00    -0.744 OA
ENDBRANCH  93  97
ENDBRANCH  67  90
ENDBRANCH  41  42
ENDBRANCH  34  36
ENDBRANCH  33  34
ENDBRANCH  32  33
ENDBRANCH   1  32
TORSDOF 20
ENDMDL
MODEL 2
REMARK VINA RESULT:     -12.0      2.144      3.802
REMARK SMILES COc1ccc(-c2cc(Cl)cc3c2O[C@@H](C(F)(F)F)C(C(=O)OCCOCCOC(=O)c2ccc(-c4c5nc(c(-c6cc(S(=O)(=O)[O-])ccc6F)c6ccc([nH]6)c(-c6cc(S(=O)(=O)[O-])ccc6F)c6nc(c(-c7cc(S(=O)(=O)[O-])ccc7F)c7ccc4[nH]7)C=C6)C=C5)cc2)=C3)cc1C
REMARK SMILES IDX 27 1 26 2 25 3 24 4 23 5 21 6 22 7 20 8 7 9 8 10 13 11 9 12
REMARK SMILES IDX 12 13 14 14 10 15 11 16 95 17 15 18 6 19 3 20 4 21 97 22
REMARK SMILES IDX 5 23 96 24 98 25 2 26 1 27 16 28 17 29 18 30 19 31 28 32
REMARK SMILES IDX 29 33 30 34 31 35 32 36 33 37 94 38 34 39 93 40 35 41 36 42
REMARK SMILES IDX 37 43 87 44 38 45 92 46 86 47 88 48 39 49 91 50 85 51 84 52
REMARK SMILES IDX 40 54 72 55 52 56 71 57 53 58 56 59 70 60 89 61 54 62 55 63
REMARK SMILES IDX 69 65 90 66 57 67 41 68 42 69 50 70 43 71 49 72 51 73 48 74
REMARK SMILES IDX 44 75 45 76 46 77 47 78 73 79 74 80 82 81 75 82 81 83 83 84
REMARK SMILES IDX 80 85 76 86 77 87 78 88 79 89 58 90 59 91 67 92 60 93 66 94
REMARK SMILES IDX 68 95 65 96 61 97 62 98 63 99 64 100
REMARK H PARENT 88 53 56 64
REMARK Flexibility Score: inf
ROOT
ATOM      1  C   UNL A   1      36.699  23.179  25.345  1.00  0.00     0.202 C 
ENDROOT
BRANCH   1   2
ATOM      2  O   UNL A   1      36.179  23.742  24.146  1.00  0.00    -0.374 OA
BRANCH   2   3
ATOM      3  C   UNL A   1      34.878  23.274  23.791  1.00  0.00     0.202 C 
BRANCH   3   4
ATOM      4  C   UNL A   1      34.244  24.311  22.847  1.00  0.00     0.261 C 
BRANCH   4   5
ATOM      5  O   UNL A   1      33.985  25.590  23.447  1.00  0.00    -0.460 OA
BRANCH   5   6
ATOM      6  C   UNL A   1      32.865  25.721  24.201  1.00  0.00     0.338 C 
ATOM      7  O   UNL A   1      31.711  25.790  23.798  1.00  0.00    -0.246 OA
BRANCH   6   8
ATOM      8  C   UNL A   1      33.242  25.417  25.643  1.00  0.00     0.087 C 
ATOM      9  C   UNL A   1      31.625  29.026  25.528  1.00  0.00     0.026 A 
ATOM     10  C   UNL A   1      32.344  30.116  26.077  1.00  0.00     0.033 A 
ATOM     11  C   UNL A   1      32.021  27.742  26.001  1.00  0.00     0.135 A 
ATOM     12  C   UNL A   1      33.504  29.941  26.828  1.00  0.00     0.042 A 
ATOM     13  C   UNL A   1      33.361  27.594  26.462  1.00  0.00     0.019 A 
ATOM     14  O   UNL A   1      31.194  26.584  26.087  1.00  0.00    -0.475 OA
ATOM     15  Cl  UNL A   1      34.321  31.314  27.459  1.00  0.00    -0.084 Cl
ATOM     16  C   UNL A   1      34.068  28.683  26.950  1.00  0.00     0.032 A 
ATOM     17  C   UNL A   1      34.052  26.276  26.296  1.00  0.00     0.027 C 
ATOM     18  C   UNL A   1      31.952  25.318  26.432  1.00  0.00     0.316 C 
BRANCH   9  19
ATOM     19  C   UNL A   1      30.922  29.436  24.239  1.00  0.00    -0.014 A 
ATOM     20  C   UNL A   1      29.025  29.936  22.105  1.00  0.00     0.121 A 
ATOM     21  C   UNL A   1      29.991  28.931  22.018  1.00  0.00     0.047 A 
ATOM     22  C   UNL A   1      28.930  30.657  23.293  1.00  0.00    -0.008 A 
ATOM     23  C   UNL A   1      30.911  28.673  23.069  1.00  0.00     0.013 A 
ATOM     24  C   UNL A   1      29.925  30.462  24.296  1.00  0.00     0.016 A 
ATOM     25  C   UNL A   1      27.706  31.476  23.599  1.00  0.00     0.048 C 
BRANCH  20  26
ATOM     26  O   UNL A   1      28.108  30.022  21.086  1.00  0.00    -0.496 OA
ATOM     27  C   UNL A   1      28.036  31.311  20.470  1.00  0.00     0.278 C 
ENDBRANCH  20  26
ENDBRANCH   9  19
BRANCH  18  28
ATOM     28  C   UNL A   1      31.389  23.851  26.341  1.00  0.00     0.430 C 
ATOM     29  F   UNL A   1      31.702  23.193  27.501  1.00  0.00    -0.167 F 
ATOM     30  F   UNL A   1      30.034  23.872  26.288  1.00  0.00    -0.167 F 
ATOM     31  F   UNL A   1      31.836  23.074  25.350  1.00  0.00    -0.167 F 
ENDBRANCH  18  28
ENDBRANCH   6   8
ENDBRANCH   5   6
ENDBRANCH   4   5
ENDBRANCH   3   4
ENDBRANCH   2   3
ENDBRANCH   1   2
BRANCH   1  32
ATOM     32  C   UNL A   1      38.110  22.612  25.165  1.00  0.00     0.261 C 
BRANCH  32  33
ATOM     33  O   UNL A   1      38.777  22.589  26.445  1.00  0.00    -0.460 OA
BRANCH  33  34
ATOM     34  C   UNL A   1      39.983  23.223  26.451  1.00  0.00     0.338 C 
ATOM     35  O   UNL A   1      41.063  22.666  26.355  1.00  0.00    -0.246 OA
BRANCH  34  36
ATOM     36  C   UNL A   1      39.801  24.687  26.666  1.00  0.00     0.060 A 
ATOM     37  C   UNL A   1      40.761  25.599  26.214  1.00  0.00     0.016 A 
ATOM     38  C   UNL A   1      38.774  25.142  27.481  1.00  0.00     0.016 A 
ATOM     39  C   UNL A   1      40.805  26.903  26.744  1.00  0.00     0.010 A 
ATOM     40  C   UNL A   1      38.816  26.428  28.000  1.00  0.00     0.010 A 
ATOM     41  C   UNL A   1      39.886  27.289  27.721  1.00  0.00    -0.014 A 
BRANCH  41  42
ATOM     42  C   UNL A   1      40.109  28.370  28.716  1.00  0.00     0.031 A 
ATOM     43  C   UNL A   1      39.149  29.489  28.853  1.00  0.00     0.074 A 
ATOM     44  C   UNL A   1      40.994  28.164  29.729  1.00  0.00     0.049 A 
ATOM     45  N   UNL A   1      39.233  30.402  29.750  1.00  0.00    -0.248 NA
ATOM     46  C   UNL A   1      38.012  29.708  27.973  1.00  0.00     0.031 C 
ATOM     47  C   UNL A   1      41.072  28.813  31.046  1.00  0.00     0.029 A 
ATOM     48  N   UNL A   1      42.019  27.231  29.798  1.00  0.00    -0.354 N 
ATOM     49  C   UNL A   1      38.099  31.168  29.751  1.00  0.00     0.074 A 
ATOM     50  C   UNL A   1      37.392  30.730  28.578  1.00  0.00     0.031 C 
ATOM     51  C   UNL A   1      42.182  28.424  31.698  1.00  0.00     0.029 A 
ATOM     52  C   UNL A   1      42.944  27.600  30.786  1.00  0.00     0.049 A 
ATOM     53  H   UNL A   1      42.086  26.426  29.236  1.00  0.00     0.167 HD
ATOM     54  C   UNL A   1      37.927  32.038  30.791  1.00  0.00     0.034 A 
ATOM     55  C   UNL A   1      44.204  27.877  30.348  1.00  0.00     0.034 A 
ATOM     56  C   UNL A   1      39.219  32.227  31.487  1.00  0.00     0.049 A 
ATOM     57  C   UNL A   1      44.316  29.407  30.238  1.00  0.00     0.074 A 
ATOM     58  C   UNL A   1      39.739  31.902  32.727  1.00  0.00     0.029 A 
ATOM     59  N   UNL A   1      40.325  32.577  30.699  1.00  0.00    -0.354 N 
ATOM     60  N   UNL A   1      43.281  30.217  30.246  1.00  0.00    -0.248 NA
ATOM     61  C   UNL A   1      45.569  30.151  30.306  1.00  0.00     0.031 C 
ATOM     62  C   UNL A   1      41.173  31.921  32.614  1.00  0.00     0.029 A 
ATOM     63  C   UNL A   1      41.526  32.291  31.321  1.00  0.00     0.049 A 
ATOM     64  H   UNL A   1      40.254  32.981  29.804  1.00  0.00     0.167 HD
ATOM     65  C   UNL A   1      43.671  31.508  30.441  1.00  0.00     0.074 A 
ATOM     66  C   UNL A   1      45.126  31.419  30.421  1.00  0.00     0.031 C 
ATOM     67  C   UNL A   1      42.802  32.554  30.641  1.00  0.00     0.034 A 
BRANCH  54  68
ATOM     68  C   UNL A   1      36.606  32.653  31.247  1.00  0.00     0.023 A 
ATOM     69  C   UNL A   1      35.858  33.467  30.362  1.00  0.00     0.031 A 
ATOM     70  C   UNL A   1      36.065  32.563  32.550  1.00  0.00     0.131 A 
ATOM     71  C   UNL A   1      34.679  34.134  30.781  1.00  0.00     0.055 A 
ATOM     72  C   UNL A   1      34.901  33.225  32.966  1.00  0.00     0.041 A 
ATOM     73  F   UNL A   1      36.627  31.833  33.512  1.00  0.00    -0.206 F 
ATOM     74  C   UNL A   1      34.202  34.021  32.083  1.00  0.00     0.022 A 
BRANCH  71  75
ATOM     75  S   UNL A   1      33.752  35.166  29.607  1.00  0.00     0.124 S 
ATOM     76  O   UNL A   1      32.632  34.303  29.247  1.00  0.00    -0.237 OA
ATOM     77  O   UNL A   1      33.434  36.341  30.411  1.00  0.00    -0.237 OA
ATOM     78  O   UNL A   1      34.712  35.405  28.529  1.00  0.00    -0.744 OA
ENDBRANCH  71  75
ENDBRANCH  54  68
BRANCH  55  79
ATOM     79  C   UNL A   1      44.620  26.742  29.434  1.00  0.00     0.023 A 
ATOM     80  C   UNL A   1      44.621  27.040  28.030  1.00  0.00     0.031 A 
ATOM     81  C   UNL A   1      45.468  25.708  29.854  1.00  0.00     0.131 A 
ATOM     82  C   UNL A   1      45.554  26.449  27.154  1.00  0.00     0.055 A 
ATOM     83  C   UNL A   1      46.369  25.092  28.962  1.00  0.00     0.041 A 
ATOM     84  F   UNL A   1      45.571  25.392  31.153  1.00  0.00    -0.206 F 
ATOM     85  C   UNL A   1      46.455  25.498  27.627  1.00  0.00     0.022 A 
BRANCH  82  86
ATOM     86  S   UNL A   1      45.753  27.075  25.447  1.00  0.00     0.124 S 
ATOM     87  O   UNL A   1      45.941  25.842  24.693  1.00  0.00    -0.237 OA
ATOM     88  O   UNL A   1      44.505  27.783  25.197  1.00  0.00    -0.237 OA
ATOM     89  O   UNL A   1      46.924  27.947  25.538  1.00  0.00    -0.744 OA
ENDBRANCH  82  86
ENDBRANCH  55  79
BRANCH  67  90
ATOM     90  C   UNL A   1      43.147  33.969  30.227  1.00  0.00     0.023 A 
ATOM     91  C   UNL A   1      43.055  34.383  28.892  1.00  0.00     0.031 A 
ATOM     92  C   UNL A   1      43.448  34.991  31.159  1.00  0.00     0.131 A 
ATOM     93  C   UNL A   1      43.380  35.689  28.505  1.00  0.00     0.055 A 
ATOM     94  C   UNL A   1      43.652  36.323  30.784  1.00  0.00     0.041 A 
ATOM     95  F   UNL A   1      43.536  34.755  32.475  1.00  0.00    -0.206 F 
ATOM     96  C   UNL A   1      43.649  36.676  29.444  1.00  0.00     0.022 A 
BRANCH  93  97
ATOM     97  S   UNL A   1      43.555  36.003  26.735  1.00  0.00     0.124 S 
ATOM     98  O   UNL A   1      44.935  36.479  26.654  1.00  0.00    -0.237 OA
ATOM     99  O   UNL A   1      43.307  34.688  26.154  1.00  0.00    -0.237 OA
ATOM    100  O   UNL A   1      42.534  37.011  26.463  1.00  0.00    -0.744 OA
ENDBRANCH  93  97
ENDBRANCH  67  90
ENDBRANCH  41  42
ENDBRANCH  34  36
ENDBRANCH  33  34
ENDBRANCH  32  33
ENDBRANCH   1  32
TORSDOF 20
ENDMDL
MODEL 3
REMARK VINA RESULT:     -11.9      1.683      2.198
REMARK SMILES COc1ccc(-c2cc(Cl)cc3c2O[C@@H](C(F)(F)F)C(C(=O)OCCOCCOC(=O)c2ccc(-c4c5nc(c(-c6cc(S(=O)(=O)[O-])ccc6F)c6ccc([nH]6)c(-c6cc(S(=O)(=O)[O-])ccc6F)c6nc(c(-c7cc(S(=O)(=O)[O-])ccc7F)c7ccc4[nH]7)C=C6)C=C5)cc2)=C3)cc1C
REMARK SMILES IDX 27 1 26 2 25 3 24 4 23 5 21 6 22 7 20 8 7 9 8 10 13 11 9 12
REMARK SMILES IDX 12 13 14 14 10 15 11 16 95 17 15 18 6 19 3 20 4 21 97 22
REMARK SMILES IDX 5 23 96 24 98 25 2 26 1 27 16 28 17 29 18 30 19 31 28 32
REMARK SMILES IDX 29 33 30 34 31 35 32 36 33 37 94 38 34 39 93 40 35 41 36 42
REMARK SMILES IDX 37 43 87 44 38 45 92 46 86 47 88 48 39 49 91 50 85 51 84 52
REMARK SMILES IDX 40 54 72 55 52 56 71 57 53 58 56 59 70 60 89 61 54 62 55 63
REMARK SMILES IDX 69 65 90 66 57 67 41 68 42 69 50 70 43 71 49 72 51 73 48 74
REMARK SMILES IDX 44 75 45 76 46 77 47 78 73 79 74 80 82 81 75 82 81 83 83 84
REMARK SMILES IDX 80 85 76 86 77 87 78 88 79 89 58 90 59 91 67 92 60 93 66 94
REMARK SMILES IDX 68 95 65 96 61 97 62 98 63 99 64 100
REMARK H PARENT 88 53 56 64
REMARK Flexibility Score: inf
ROOT
ATOM      1  C   UNL A   1      38.234  22.501  25.908  1.00  0.00     0.202 C 
ENDROOT
BRANCH   1   2
ATOM      2  O   UNL A   1      36.929  22.508  25.340  1.00  0.00    -0.374 OA
BRANCH   2   3
ATOM      3  C   UNL A   1      36.589  23.716  24.660  1.00  0.00     0.202 C 
BRANCH   3   4
ATOM      4  C   UNL A   1      35.196  24.154  25.145  1.00  0.00     0.261 C 
BRANCH   4   5
ATOM      5  O   UNL A   1      35.007  25.575  25.225  1.00  0.00    -0.460 OA
BRANCH   5   6
ATOM      6  C   UNL A   1      33.866  26.032  25.799  1.00  0.00     0.338 C 
ATOM      7  O   UNL A   1      33.315  25.588  26.798  1.00  0.00    -0.246 OA
BRANCH   6   8
ATOM      8  C   UNL A   1      33.568  27.401  25.206  1.00  0.00     0.087 C 
ATOM      9  C   UNL A   1      31.697  24.682  23.024  1.00  0.00     0.026 A 
ATOM     10  C   UNL A   1      31.916  24.659  21.625  1.00  0.00     0.033 A 
ATOM     11  C   UNL A   1      32.005  25.919  23.662  1.00  0.00     0.135 A 
ATOM     12  C   UNL A   1      32.607  25.671  20.961  1.00  0.00     0.042 A 
ATOM     13  C   UNL A   1      32.985  26.752  23.047  1.00  0.00     0.019 A 
ATOM     14  O   UNL A   1      31.407  26.424  24.853  1.00  0.00    -0.475 OA
ATOM     15  Cl  UNL A   1      32.834  25.568  19.261  1.00  0.00    -0.084 Cl
ATOM     16  C   UNL A   1      33.221  26.679  21.682  1.00  0.00     0.032 A 
ATOM     17  C   UNL A   1      33.852  27.619  23.905  1.00  0.00     0.027 C 
ATOM     18  C   UNL A   1      32.088  27.662  25.399  1.00  0.00     0.316 C 
BRANCH   9  19
ATOM     19  C   UNL A   1      31.623  23.267  23.584  1.00  0.00    -0.014 A 
ATOM     20  C   UNL A   1      32.144  20.710  24.846  1.00  0.00     0.121 A 
ATOM     21  C   UNL A   1      32.091  20.855  23.458  1.00  0.00     0.047 A 
ATOM     22  C   UNL A   1      32.023  21.853  25.633  1.00  0.00    -0.008 A 
ATOM     23  C   UNL A   1      31.853  22.110  22.837  1.00  0.00     0.013 A 
ATOM     24  C   UNL A   1      31.678  23.085  25.004  1.00  0.00     0.016 A 
ATOM     25  C   UNL A   1      32.435  21.838  27.079  1.00  0.00     0.048 C 
BRANCH  20  26
ATOM     26  O   UNL A   1      32.501  19.479  25.340  1.00  0.00    -0.496 OA
ATOM     27  C   UNL A   1      33.641  18.898  24.699  1.00  0.00     0.278 C 
ENDBRANCH  20  26
ENDBRANCH   9  19
BRANCH  18  28
ATOM     28  C   UNL A   1      31.847  28.299  26.819  1.00  0.00     0.430 C 
ATOM     29  F   UNL A   1      33.046  28.359  27.478  1.00  0.00    -0.167 F 
ATOM     30  F   UNL A   1      31.437  29.585  26.691  1.00  0.00    -0.167 F 
ATOM     31  F   UNL A   1      31.007  27.671  27.647  1.00  0.00    -0.167 F 
ENDBRANCH  18  28
ENDBRANCH   6   8
ENDBRANCH   5   6
ENDBRANCH   4   5
ENDBRANCH   3   4
ENDBRANCH   2   3
ENDBRANCH   1   2
BRANCH   1  32
ATOM     32  C   UNL A   1      38.647  23.871  26.453  1.00  0.00     0.261 C 
BRANCH  32  33
ATOM     33  O   UNL A   1      39.567  23.686  27.550  1.00  0.00    -0.460 OA
BRANCH  33  34
ATOM     34  C   UNL A   1      40.582  24.594  27.579  1.00  0.00     0.338 C 
ATOM     35  O   UNL A   1      41.767  24.317  27.514  1.00  0.00    -0.246 OA
BRANCH  34  36
ATOM     36  C   UNL A   1      40.044  25.971  27.777  1.00  0.00     0.060 A 
ATOM     37  C   UNL A   1      40.363  26.997  26.882  1.00  0.00     0.016 A 
ATOM     38  C   UNL A   1      39.379  26.289  28.953  1.00  0.00     0.016 A 
ATOM     39  C   UNL A   1      40.201  28.344  27.260  1.00  0.00     0.010 A 
ATOM     40  C   UNL A   1      39.218  27.615  29.325  1.00  0.00     0.010 A 
ATOM     41  C   UNL A   1      39.720  28.657  28.533  1.00  0.00    -0.014 A 
BRANCH  41  42
ATOM     42  C   UNL A   1      39.981  29.932  29.249  1.00  0.00     0.031 A 
ATOM     43  C   UNL A   1      38.920  30.953  29.401  1.00  0.00     0.074 A 
ATOM     44  C   UNL A   1      41.073  30.024  30.058  1.00  0.00     0.049 A 
ATOM     45  N   UNL A   1      39.051  32.030  30.085  1.00  0.00    -0.248 NA
ATOM     46  C   UNL A   1      37.610  30.874  28.774  1.00  0.00     0.031 C 
ATOM     47  C   UNL A   1      41.319  30.927  31.191  1.00  0.00     0.029 A 
ATOM     48  N   UNL A   1      42.212  29.233  30.057  1.00  0.00    -0.354 N 
ATOM     49  C   UNL A   1      37.843  32.662  30.207  1.00  0.00     0.074 A 
ATOM     50  C   UNL A   1      36.985  31.928  29.316  1.00  0.00     0.031 C 
ATOM     51  C   UNL A   1      42.582  30.791  31.635  1.00  0.00     0.029 A 
ATOM     52  C   UNL A   1      43.254  29.883  30.733  1.00  0.00     0.049 A 
ATOM     53  H   UNL A   1      42.279  28.343  29.643  1.00  0.00     0.167 HD
ATOM     54  C   UNL A   1      37.761  33.700  31.092  1.00  0.00     0.034 A 
ATOM     55  C   UNL A   1      44.349  30.195  29.983  1.00  0.00     0.034 A 
ATOM     56  C   UNL A   1      39.126  34.154  31.437  1.00  0.00     0.049 A 
ATOM     57  C   UNL A   1      44.218  31.674  29.587  1.00  0.00     0.074 A 
ATOM     58  C   UNL A   1      39.925  34.139  32.566  1.00  0.00     0.029 A 
ATOM     59  N   UNL A   1      39.990  34.450  30.373  1.00  0.00    -0.354 N 
ATOM     60  N   UNL A   1      43.101  32.360  29.686  1.00  0.00    -0.248 NA
ATOM     61  C   UNL A   1      45.340  32.540  29.243  1.00  0.00     0.031 C 
ATOM     62  C   UNL A   1      41.290  34.280  32.133  1.00  0.00     0.029 A 
ATOM     63  C   UNL A   1      41.320  34.418  30.750  1.00  0.00     0.049 A 
ATOM     64  H   UNL A   1      39.685  34.658  29.461  1.00  0.00     0.167 HD
ATOM     65  C   UNL A   1      43.334  33.697  29.562  1.00  0.00     0.074 A 
ATOM     66  C   UNL A   1      44.753  33.754  29.232  1.00  0.00     0.031 C 
ATOM     67  C   UNL A   1      42.383  34.668  29.767  1.00  0.00     0.034 A 
BRANCH  54  68
ATOM     68  C   UNL A   1      36.485  34.255  31.718  1.00  0.00     0.023 A 
ATOM     69  C   UNL A   1      35.431  34.719  30.893  1.00  0.00     0.031 A 
ATOM     70  C   UNL A   1      36.265  34.446  33.101  1.00  0.00     0.131 A 
ATOM     71  C   UNL A   1      34.275  35.332  31.436  1.00  0.00     0.055 A 
ATOM     72  C   UNL A   1      35.122  35.056  33.639  1.00  0.00     0.041 A 
ATOM     73  F   UNL A   1      37.142  34.062  34.028  1.00  0.00    -0.206 F 
ATOM     74  C   UNL A   1      34.119  35.508  32.808  1.00  0.00     0.022 A 
BRANCH  71  75
ATOM     75  S   UNL A   1      32.948  35.908  30.336  1.00  0.00     0.124 S 
ATOM     76  O   UNL A   1      32.560  34.684  29.644  1.00  0.00    -0.237 OA
ATOM     77  O   UNL A   1      31.979  36.456  31.279  1.00  0.00    -0.237 OA
ATOM     78  O   UNL A   1      33.610  36.905  29.494  1.00  0.00    -0.744 OA
ENDBRANCH  71  75
ENDBRANCH  54  68
BRANCH  55  79
ATOM     79  C   UNL A   1      44.730  28.948  29.210  1.00  0.00     0.023 A 
ATOM     80  C   UNL A   1      44.998  29.137  27.813  1.00  0.00     0.031 A 
ATOM     81  C   UNL A   1      45.337  27.840  29.818  1.00  0.00     0.131 A 
ATOM     82  C   UNL A   1      45.959  28.360  27.137  1.00  0.00     0.055 A 
ATOM     83  C   UNL A   1      46.265  27.040  29.122  1.00  0.00     0.041 A 
ATOM     84  F   UNL A   1      45.183  27.610  31.130  1.00  0.00    -0.206 F 
ATOM     85  C   UNL A   1      46.621  27.330  27.802  1.00  0.00     0.022 A 
BRANCH  82  86
ATOM     86  S   UNL A   1      46.518  28.823  25.459  1.00  0.00     0.124 S 
ATOM     87  O   UNL A   1      46.224  30.251  25.424  1.00  0.00    -0.237 OA
ATOM     88  O   UNL A   1      47.932  28.471  25.462  1.00  0.00    -0.237 OA
ATOM     89  O   UNL A   1      45.699  27.986  24.583  1.00  0.00    -0.744 OA
ENDBRANCH  82  86
ENDBRANCH  55  79
BRANCH  67  90
ATOM     90  C   UNL A   1      42.433  35.999  29.047  1.00  0.00     0.023 A 
ATOM     91  C   UNL A   1      43.203  37.063  29.532  1.00  0.00     0.031 A 
ATOM     92  C   UNL A   1      41.826  36.216  27.786  1.00  0.00     0.131 A 
ATOM     93  C   UNL A   1      43.246  38.298  28.873  1.00  0.00     0.055 A 
ATOM     94  C   UNL A   1      41.971  37.408  27.069  1.00  0.00     0.041 A 
ATOM     95  F   UNL A   1      41.087  35.277  27.179  1.00  0.00    -0.206 F 
ATOM     96  C   UNL A   1      42.661  38.473  27.626  1.00  0.00     0.022 A 
BRANCH  93  97
ATOM     97  S   UNL A   1      43.986  39.683  29.767  1.00  0.00     0.124 S 
ATOM     98  O   UNL A   1      43.279  40.822  29.184  1.00  0.00    -0.237 OA
ATOM     99  O   UNL A   1      43.654  39.377  31.154  1.00  0.00    -0.237 OA
ATOM    100  O   UNL A   1      45.403  39.591  29.427  1.00  0.00    -0.744 OA
ENDBRANCH  93  97
ENDBRANCH  67  90
ENDBRANCH  41  42
ENDBRANCH  34  36
ENDBRANCH  33  34
ENDBRANCH  32  33
ENDBRANCH   1  32
TORSDOF 20
ENDMDL
