MODEL 1
REMARK VINA RESULT:     -10.6      0.000      0.000
REMARK SMILES CCN(CCC(=O)OCCOCCOC(=O)c1ccc(-c2c3nc(c(-c4cc(S(=O)(=O)[O-])ccc4F)c4ccc([nH]4)c(-c4cc(S(=O)(=O)[O-])ccc4F)c4nc(c(-c5cc(S(=O)(=O)[O-])ccc5F)c5ccc2[nH]5)C=C4)C=C3)cc1)C(=O)c1cc(Cl)ccc1F
REMARK SMILES IDX 10 1 9 2 8 3 6 4 7 5 5 6 4 7 3 8 2 9 1 10 80 11 81 12 82 13
REMARK SMILES IDX 83 14 88 15 84 16 87 17 89 18 85 19 86 20 11 21 12 22 13 23
REMARK SMILES IDX 14 24 15 25 16 26 17 27 18 28 79 29 19 30 78 31 20 32 21 33
REMARK SMILES IDX 22 34 72 35 23 36 77 37 71 38 73 39 24 40 76 41 70 42 69 43
REMARK SMILES IDX 25 45 57 46 37 47 56 48 38 49 41 50 55 51 74 52 39 53 40 54
REMARK SMILES IDX 54 56 75 57 42 58 26 59 27 60 35 61 28 62 34 63 36 64 33 65
REMARK SMILES IDX 29 66 30 67 31 68 32 69 58 70 59 71 67 72 60 73 66 74 68 75
REMARK SMILES IDX 65 76 61 77 62 78 63 79 64 80 43 81 44 82 52 83 45 84 51 85
REMARK SMILES IDX 53 86 50 87 46 88 47 89 48 90 49 91
REMARK H PARENT 73 44 41 55
REMARK Flexibility Score: inf
ROOT
ATOM      1  C   UNL A   1      36.667  22.606  25.280  1.00  0.00     0.202 C 
ENDROOT
BRANCH   1   2
ATOM      2  C   UNL A   1      35.269  21.719  25.686  1.00  0.00     0.261 C 
BRANCH   2   3
ATOM      3  O   UNL A   1      34.582  21.120  24.563  1.00  0.00    -0.463 OA
BRANCH   3   4
ATOM      4  C   UNL A   1      33.270  21.125  24.241  1.00  0.00     0.307 C 
ATOM      5  O   UNL A   1      32.521  20.413  24.918  1.00  0.00    -0.252 OA
BRANCH   4   6
ATOM      6  C   UNL A   1      32.682  21.900  23.056  1.00  0.00     0.144 C 
BRANCH   6   7
ATOM      7  C   UNL A   1      33.216  23.202  22.412  1.00  0.00     0.131 C 
BRANCH   7   8
ATOM      8  N   UNL A   1      32.705  24.454  22.963  1.00  0.00    -0.338 N 
BRANCH   8   9
ATOM      9  C   UNL A   1      31.682  24.354  24.019  1.00  0.00     0.116 C 
ATOM     10  C   UNL A   1      30.248  24.467  23.496  1.00  0.00     0.027 C 
ENDBRANCH   8   9
BRANCH   8  11
ATOM     11  C   UNL A   1      33.107  25.734  22.609  1.00  0.00     0.256 C 
ATOM     12  O   UNL A   1      33.887  25.923  21.674  1.00  0.00    -0.269 OA
BRANCH  11  13
ATOM     13  C   UNL A   1      32.717  26.945  23.353  1.00  0.00     0.077 A 
ATOM     14  C   UNL A   1      33.784  27.282  24.786  1.00  0.00     0.037 A 
ATOM     15  C   UNL A   1      31.263  28.028  23.086  1.00  0.00     0.136 A 
ATOM     16  C   UNL A   1      33.416  28.679  25.863  1.00  0.00     0.042 A 
ATOM     17  C   UNL A   1      30.910  29.394  24.195  1.00  0.00     0.041 A 
ATOM     18  F   UNL A   1      30.505  28.030  21.987  1.00  0.00    -0.206 F 
ATOM     19  Cl  UNL A   1      34.400  29.052  27.220  1.00  0.00    -0.084 Cl
ATOM     20  C   UNL A   1      32.001  29.723  25.567  1.00  0.00     0.023 A 
ENDBRANCH  11  13
ENDBRANCH   8  11
ENDBRANCH   7   8
ENDBRANCH   6   7
ENDBRANCH   4   6
ENDBRANCH   3   4
ENDBRANCH   2   3
ENDBRANCH   1   2
BRANCH   1  21
ATOM     21  O   UNL A   1      38.557  22.473  25.932  1.00  0.00    -0.374 OA
BRANCH  21  22
ATOM     22  C   UNL A   1      39.682  21.637  26.605  1.00  0.00     0.202 C 
BRANCH  22  23
ATOM     23  C   UNL A   1      40.092  20.299  25.932  1.00  0.00     0.261 C 
BRANCH  23  24
ATOM     24  O   UNL A   1      41.253  19.669  26.468  1.00  0.00    -0.460 OA
BRANCH  24  25
ATOM     25  C   UNL A   1      42.397  19.892  25.763  1.00  0.00     0.338 C 
ATOM     26  O   UNL A   1      42.906  19.153  24.950  1.00  0.00    -0.246 OA
BRANCH  25  27
ATOM     27  C   UNL A   1      42.815  21.294  25.992  1.00  0.00     0.060 A 
ATOM     28  C   UNL A   1      43.102  21.661  27.310  1.00  0.00     0.016 A 
ATOM     29  C   UNL A   1      43.041  22.190  24.943  1.00  0.00     0.016 A 
ATOM     30  C   UNL A   1      43.682  22.901  27.582  1.00  0.00     0.010 A 
ATOM     31  C   UNL A   1      43.565  23.458  25.222  1.00  0.00     0.010 A 
ATOM     32  C   UNL A   1      43.885  23.821  26.543  1.00  0.00    -0.014 A 
BRANCH  32  33
ATOM     33  C   UNL A   1      44.072  25.251  26.897  1.00  0.00     0.031 A 
ATOM     34  C   UNL A   1      45.463  25.796  26.711  1.00  0.00     0.074 A 
ATOM     35  C   UNL A   1      43.078  26.051  27.325  1.00  0.00     0.049 A 
ATOM     36  N   UNL A   1      45.930  26.995  26.933  1.00  0.00    -0.248 NA
ATOM     37  C   UNL A   1      46.465  24.842  26.202  1.00  0.00     0.031 C 
ATOM     38  C   UNL A   1      41.681  25.657  27.499  1.00  0.00     0.029 A 
ATOM     39  N   UNL A   1      43.100  27.375  27.696  1.00  0.00    -0.354 N 
ATOM     40  C   UNL A   1      47.273  26.940  26.577  1.00  0.00     0.074 A 
ATOM     41  C   UNL A   1      47.555  25.584  26.168  1.00  0.00     0.031 C 
ATOM     42  C   UNL A   1      40.983  26.719  27.951  1.00  0.00     0.029 A 
ATOM     43  C   UNL A   1      41.887  27.857  28.131  1.00  0.00     0.049 A 
ATOM     44  H   UNL A   1      43.913  27.930  27.652  1.00  0.00     0.167 HD
ATOM     45  C   UNL A   1      48.195  27.931  26.585  1.00  0.00     0.034 A 
ATOM     46  C   UNL A   1      41.559  29.068  28.638  1.00  0.00     0.034 A 
ATOM     47  C   UNL A   1      47.922  29.263  27.052  1.00  0.00     0.049 A 
ATOM     48  C   UNL A   1      42.638  30.128  28.758  1.00  0.00     0.074 A 
ATOM     49  C   UNL A   1      48.786  30.339  27.132  1.00  0.00     0.029 A 
ATOM     50  N   UNL A   1      46.698  29.693  27.547  1.00  0.00    -0.354 N 
ATOM     51  N   UNL A   1      43.903  30.070  28.404  1.00  0.00    -0.248 NA
ATOM     52  C   UNL A   1      42.244  31.416  29.347  1.00  0.00     0.031 C 
ATOM     53  C   UNL A   1      48.109  31.392  27.754  1.00  0.00     0.029 A 
ATOM     54  C   UNL A   1      46.794  31.008  27.970  1.00  0.00     0.049 A 
ATOM     55  H   UNL A   1      45.882  29.143  27.590  1.00  0.00     0.167 HD
ATOM     56  C   UNL A   1      44.440  31.327  28.691  1.00  0.00     0.074 A 
ATOM     57  C   UNL A   1      43.360  32.121  29.237  1.00  0.00     0.031 C 
ATOM     58  C   UNL A   1      45.705  31.787  28.514  1.00  0.00     0.034 A 
BRANCH  45  59
ATOM     59  C   UNL A   1      49.589  27.562  26.150  1.00  0.00     0.023 A 
ATOM     60  C   UNL A   1      50.631  27.389  27.080  1.00  0.00     0.031 A 
ATOM     61  C   UNL A   1      49.900  27.467  24.783  1.00  0.00     0.131 A 
ATOM     62  C   UNL A   1      51.947  27.218  26.627  1.00  0.00     0.055 A 
ATOM     63  C   UNL A   1      51.197  27.203  24.342  1.00  0.00     0.041 A 
ATOM     64  F   UNL A   1      48.953  27.660  23.851  1.00  0.00    -0.206 F 
ATOM     65  C   UNL A   1      52.234  27.095  25.266  1.00  0.00     0.022 A 
BRANCH  62  66
ATOM     66  S   UNL A   1      53.299  27.334  27.832  1.00  0.00     0.124 S 
ATOM     67  O   UNL A   1      54.314  28.053  27.066  1.00  0.00    -0.237 OA
ATOM     68  O   UNL A   1      52.682  28.072  28.928  1.00  0.00    -0.237 OA
ATOM     69  O   UNL A   1      53.620  25.938  28.120  1.00  0.00    -0.744 OA
ENDBRANCH  62  66
ENDBRANCH  45  59
BRANCH  46  70
ATOM     70  C   UNL A   1      40.173  29.353  29.132  1.00  0.00     0.023 A 
ATOM     71  C   UNL A   1      39.849  29.282  30.499  1.00  0.00     0.031 A 
ATOM     72  C   UNL A   1      39.126  29.600  28.226  1.00  0.00     0.131 A 
ATOM     73  C   UNL A   1      38.510  29.401  30.913  1.00  0.00     0.055 A 
ATOM     74  C   UNL A   1      37.805  29.777  28.649  1.00  0.00     0.041 A 
ATOM     75  F   UNL A   1      39.367  29.661  26.908  1.00  0.00    -0.206 F 
ATOM     76  C   UNL A   1      37.489  29.664  29.997  1.00  0.00     0.022 A 
BRANCH  73  77
ATOM     77  S   UNL A   1      38.099  29.103  32.657  1.00  0.00     0.124 S 
ATOM     78  O   UNL A   1      36.652  29.284  32.656  1.00  0.00    -0.237 OA
ATOM     79  O   UNL A   1      38.576  27.737  32.851  1.00  0.00    -0.237 OA
ATOM     80  O   UNL A   1      38.856  30.131  33.367  1.00  0.00    -0.744 OA
ENDBRANCH  73  77
ENDBRANCH  46  70
BRANCH  58  81
ATOM     81  C   UNL A   1      45.983  33.233  28.855  1.00  0.00     0.023 A 
ATOM     82  C   UNL A   1      45.883  34.260  27.901  1.00  0.00     0.031 A 
ATOM     83  C   UNL A   1      46.333  33.588  30.171  1.00  0.00     0.131 A 
ATOM     84  C   UNL A   1      46.178  35.583  28.265  1.00  0.00     0.055 A 
ATOM     85  C   UNL A   1      46.558  34.914  30.543  1.00  0.00     0.041 A 
ATOM     86  F   UNL A   1      46.446  32.651  31.126  1.00  0.00    -0.206 F 
ATOM     87  C   UNL A   1      46.493  35.919  29.583  1.00  0.00     0.022 A 
BRANCH  84  88
ATOM     88  S   UNL A   1      46.238  36.852  26.969  1.00  0.00     0.124 S 
ATOM     89  O   UNL A   1      47.252  37.765  27.485  1.00  0.00    -0.237 OA
ATOM     90  O   UNL A   1      46.617  36.079  25.791  1.00  0.00    -0.237 OA
ATOM     91  O   UNL A   1      44.876  37.385  26.948  1.00  0.00    -0.744 OA
ENDBRANCH  84  88
ENDBRANCH  58  81
ENDBRANCH  32  33
ENDBRANCH  25  27
ENDBRANCH  24  25
ENDBRANCH  23  24
ENDBRANCH  22  23
ENDBRANCH  21  22
ENDBRANCH   1  21
TORSDOF 22
ENDMDL
MODEL 2
REMARK VINA RESULT:     -10.5      2.307      2.766
REMARK SMILES CCN(CCC(=O)OCCOCCOC(=O)c1ccc(-c2c3nc(c(-c4cc(S(=O)(=O)[O-])ccc4F)c4ccc([nH]4)c(-c4cc(S(=O)(=O)[O-])ccc4F)c4nc(c(-c5cc(S(=O)(=O)[O-])ccc5F)c5ccc2[nH]5)C=C4)C=C3)cc1)C(=O)c1cc(Cl)ccc1F
REMARK SMILES IDX 10 1 9 2 8 3 6 4 7 5 5 6 4 7 3 8 2 9 1 10 80 11 81 12 82 13
REMARK SMILES IDX 83 14 88 15 84 16 87 17 89 18 85 19 86 20 11 21 12 22 13 23
REMARK SMILES IDX 14 24 15 25 16 26 17 27 18 28 79 29 19 30 78 31 20 32 21 33
REMARK SMILES IDX 22 34 72 35 23 36 77 37 71 38 73 39 24 40 76 41 70 42 69 43
REMARK SMILES IDX 25 45 57 46 37 47 56 48 38 49 41 50 55 51 74 52 39 53 40 54
REMARK SMILES IDX 54 56 75 57 42 58 26 59 27 60 35 61 28 62 34 63 36 64 33 65
REMARK SMILES IDX 29 66 30 67 31 68 32 69 58 70 59 71 67 72 60 73 66 74 68 75
REMARK SMILES IDX 65 76 61 77 62 78 63 79 64 80 43 81 44 82 52 83 45 84 51 85
REMARK SMILES IDX 53 86 50 87 46 88 47 89 48 90 49 91
REMARK H PARENT 73 44 41 55
REMARK Flexibility Score: inf
ROOT
ATOM      1  C   UNL A   1      36.376  21.492  24.827  1.00  0.00     0.202 C 
ENDROOT
BRANCH   1   2
ATOM      2  C   UNL A   1      34.990  21.073  25.727  1.00  0.00     0.261 C 
BRANCH   2   3
ATOM      3  O   UNL A   1      34.117  20.114  25.086  1.00  0.00    -0.463 OA
BRANCH   3   4
ATOM      4  C   UNL A   1      32.807  20.206  24.768  1.00  0.00     0.307 C 
ATOM      5  O   UNL A   1      32.116  19.195  24.931  1.00  0.00    -0.252 OA
BRANCH   4   6
ATOM      6  C   UNL A   1      32.160  21.455  24.160  1.00  0.00     0.144 C 
BRANCH   6   7
ATOM      7  C   UNL A   1      32.672  22.914  24.215  1.00  0.00     0.131 C 
BRANCH   7   8
ATOM      8  N   UNL A   1      31.785  23.890  24.844  1.00  0.00    -0.338 N 
BRANCH   8   9
ATOM      9  C   UNL A   1      31.626  23.805  26.307  1.00  0.00     0.116 C 
ATOM     10  C   UNL A   1      30.317  23.145  26.744  1.00  0.00     0.027 C 
ENDBRANCH   8   9
BRANCH   8  11
ATOM     11  C   UNL A   1      31.096  24.909  24.203  1.00  0.00     0.256 C 
ATOM     12  O   UNL A   1      30.249  24.666  23.344  1.00  0.00    -0.269 OA
BRANCH  11  13
ATOM     13  C   UNL A   1      31.368  26.340  24.426  1.00  0.00     0.077 A 
ATOM     14  C   UNL A   1      32.863  26.642  25.415  1.00  0.00     0.037 A 
ATOM     15  C   UNL A   1      30.342  27.783  23.950  1.00  0.00     0.136 A 
ATOM     16  C   UNL A   1      33.315  28.330  25.856  1.00  0.00     0.042 A 
ATOM     17  C   UNL A   1      30.807  29.449  24.430  1.00  0.00     0.041 A 
ATOM     18  F   UNL A   1      29.334  27.748  23.075  1.00  0.00    -0.206 F 
ATOM     19  Cl  UNL A   1      34.725  28.672  26.773  1.00  0.00    -0.084 Cl
ATOM     20  C   UNL A   1      32.303  29.713  25.365  1.00  0.00     0.023 A 
ENDBRANCH  11  13
ENDBRANCH   8  11
ENDBRANCH   7   8
ENDBRANCH   6   7
ENDBRANCH   4   6
ENDBRANCH   3   4
ENDBRANCH   2   3
ENDBRANCH   1   2
BRANCH   1  21
ATOM     21  O   UNL A   1      38.328  21.345  25.252  1.00  0.00    -0.374 OA
BRANCH  21  22
ATOM     22  C   UNL A   1      39.452  20.895  26.227  1.00  0.00     0.202 C 
BRANCH  22  23
ATOM     23  C   UNL A   1      40.222  19.588  25.893  1.00  0.00     0.261 C 
BRANCH  23  24
ATOM     24  O   UNL A   1      41.452  19.401  26.589  1.00  0.00    -0.460 OA
BRANCH  24  25
ATOM     25  C   UNL A   1      42.522  20.028  26.026  1.00  0.00     0.338 C 
ATOM     26  O   UNL A   1      43.253  19.588  25.167  1.00  0.00    -0.246 OA
BRANCH  25  27
ATOM     27  C   UNL A   1      42.529  21.435  26.486  1.00  0.00     0.060 A 
ATOM     28  C   UNL A   1      42.441  22.423  25.500  1.00  0.00     0.016 A 
ATOM     29  C   UNL A   1      42.494  21.782  27.839  1.00  0.00     0.016 A 
ATOM     30  C   UNL A   1      42.250  23.757  25.859  1.00  0.00     0.010 A 
ATOM     31  C   UNL A   1      42.364  23.128  28.202  1.00  0.00     0.010 A 
ATOM     32  C   UNL A   1      42.245  24.123  27.213  1.00  0.00    -0.014 A 
BRANCH  32  33
ATOM     33  C   UNL A   1      42.488  25.547  27.558  1.00  0.00     0.031 A 
ATOM     34  C   UNL A   1      43.862  26.075  27.238  1.00  0.00     0.074 A 
ATOM     35  C   UNL A   1      41.554  26.356  28.092  1.00  0.00     0.049 A 
ATOM     36  N   UNL A   1      44.366  27.265  27.422  1.00  0.00    -0.248 NA
ATOM     37  C   UNL A   1      44.793  25.112  26.623  1.00  0.00     0.031 C 
ATOM     38  C   UNL A   1      40.176  25.980  28.402  1.00  0.00     0.029 A 
ATOM     39  N   UNL A   1      41.633  27.676  28.470  1.00  0.00    -0.354 N 
ATOM     40  C   UNL A   1      45.665  27.195  26.933  1.00  0.00     0.074 A 
ATOM     41  C   UNL A   1      45.885  25.839  26.486  1.00  0.00     0.031 C 
ATOM     42  C   UNL A   1      39.543  27.046  28.932  1.00  0.00     0.029 A 
ATOM     43  C   UNL A   1      40.477  28.170  29.030  1.00  0.00     0.049 A 
ATOM     44  H   UNL A   1      42.446  28.220  28.350  1.00  0.00     0.167 HD
ATOM     45  C   UNL A   1      46.598  28.173  26.857  1.00  0.00     0.034 A 
ATOM     46  C   UNL A   1      40.219  29.380  29.578  1.00  0.00     0.034 A 
ATOM     47  C   UNL A   1      46.393  29.503  27.361  1.00  0.00     0.049 A 
ATOM     48  C   UNL A   1      41.321  30.424  29.598  1.00  0.00     0.074 A 
ATOM     49  C   UNL A   1      47.277  30.566  27.363  1.00  0.00     0.029 A 
ATOM     50  N   UNL A   1      45.231  29.945  27.980  1.00  0.00    -0.354 N 
ATOM     51  N   UNL A   1      42.543  30.352  29.118  1.00  0.00    -0.248 NA
ATOM     52  C   UNL A   1      41.007  31.711  30.235  1.00  0.00     0.031 C 
ATOM     53  C   UNL A   1      46.681  31.623  28.059  1.00  0.00     0.029 A 
ATOM     54  C   UNL A   1      45.389  31.254  28.403  1.00  0.00     0.049 A 
ATOM     55  H   UNL A   1      44.416  29.406  28.101  1.00  0.00     0.167 HD
ATOM     56  C   UNL A   1      43.124  31.599  29.360  1.00  0.00     0.074 A 
ATOM     57  C   UNL A   1      42.117  32.402  30.020  1.00  0.00     0.031 C 
ATOM     58  C   UNL A   1      44.373  32.042  29.061  1.00  0.00     0.034 A 
BRANCH  45  59
ATOM     59  C   UNL A   1      47.936  27.789  26.281  1.00  0.00     0.023 A 
ATOM     60  C   UNL A   1      48.210  27.910  24.906  1.00  0.00     0.031 A 
ATOM     61  C   UNL A   1      48.920  27.212  27.102  1.00  0.00     0.131 A 
ATOM     62  C   UNL A   1      49.398  27.382  24.383  1.00  0.00     0.055 A 
ATOM     63  C   UNL A   1      50.140  26.774  26.588  1.00  0.00     0.041 A 
ATOM     64  F   UNL A   1      48.698  27.037  28.415  1.00  0.00    -0.206 F 
ATOM     65  C   UNL A   1      50.378  26.841  25.218  1.00  0.00     0.022 A 
BRANCH  62  66
ATOM     66  S   UNL A   1      49.570  27.254  22.581  1.00  0.00     0.124 S 
ATOM     67  O   UNL A   1      51.002  27.005  22.439  1.00  0.00    -0.237 OA
ATOM     68  O   UNL A   1      48.691  26.136  22.259  1.00  0.00    -0.237 OA
ATOM     69  O   UNL A   1      49.121  28.560  22.102  1.00  0.00    -0.744 OA
ENDBRANCH  62  66
ENDBRANCH  45  59
BRANCH  46  70
ATOM     70  C   UNL A   1      38.895  29.679  30.211  1.00  0.00     0.023 A 
ATOM     71  C   UNL A   1      37.976  30.561  29.616  1.00  0.00     0.031 A 
ATOM     72  C   UNL A   1      38.574  29.162  31.480  1.00  0.00     0.131 A 
ATOM     73  C   UNL A   1      36.812  30.941  30.310  1.00  0.00     0.055 A 
ATOM     74  C   UNL A   1      37.388  29.496  32.139  1.00  0.00     0.041 A 
ATOM     75  F   UNL A   1      39.418  28.329  32.109  1.00  0.00    -0.206 F 
ATOM     76  C   UNL A   1      36.506  30.401  31.560  1.00  0.00     0.022 A 
BRANCH  73  77
ATOM     77  S   UNL A   1      35.751  32.235  29.604  1.00  0.00     0.124 S 
ATOM     78  O   UNL A   1      35.438  33.037  30.781  1.00  0.00    -0.237 OA
ATOM     79  O   UNL A   1      36.637  32.852  28.622  1.00  0.00    -0.237 OA
ATOM     80  O   UNL A   1      34.629  31.487  29.042  1.00  0.00    -0.744 OA
ENDBRANCH  73  77
ENDBRANCH  46  70
BRANCH  58  81
ATOM     81  C   UNL A   1      44.705  33.481  29.385  1.00  0.00     0.023 A 
ATOM     82  C   UNL A   1      44.535  34.517  28.451  1.00  0.00     0.031 A 
ATOM     83  C   UNL A   1      45.180  33.820  30.666  1.00  0.00     0.131 A 
ATOM     84  C   UNL A   1      44.884  35.832  28.795  1.00  0.00     0.055 A 
ATOM     85  C   UNL A   1      45.459  35.139  31.025  1.00  0.00     0.041 A 
ATOM     86  F   UNL A   1      45.363  32.873  31.600  1.00  0.00    -0.206 F 
ATOM     87  C   UNL A   1      45.324  36.152  30.082  1.00  0.00     0.022 A 
BRANCH  84  88
ATOM     88  S   UNL A   1      44.846  37.111  27.509  1.00  0.00     0.124 S 
ATOM     89  O   UNL A   1      43.596  36.809  26.818  1.00  0.00    -0.237 OA
ATOM     90  O   UNL A   1      44.861  38.342  28.290  1.00  0.00    -0.237 OA
ATOM     91  O   UNL A   1      46.059  36.854  26.734  1.00  0.00    -0.744 OA
ENDBRANCH  84  88
ENDBRANCH  58  81
ENDBRANCH  32  33
ENDBRANCH  25  27
ENDBRANCH  24  25
ENDBRANCH  23  24
ENDBRANCH  22  23
ENDBRANCH  21  22
ENDBRANCH   1  21
TORSDOF 22
ENDMDL
MODEL 3
REMARK VINA RESULT:      -9.8      2.504      2.872
REMARK SMILES CCN(CCC(=O)OCCOCCOC(=O)c1ccc(-c2c3nc(c(-c4cc(S(=O)(=O)[O-])ccc4F)c4ccc([nH]4)c(-c4cc(S(=O)(=O)[O-])ccc4F)c4nc(c(-c5cc(S(=O)(=O)[O-])ccc5F)c5ccc2[nH]5)C=C4)C=C3)cc1)C(=O)c1cc(Cl)ccc1F
REMARK SMILES IDX 10 1 9 2 8 3 6 4 7 5 5 6 4 7 3 8 2 9 1 10 80 11 81 12 82 13
REMARK SMILES IDX 83 14 88 15 84 16 87 17 89 18 85 19 86 20 11 21 12 22 13 23
REMARK SMILES IDX 14 24 15 25 16 26 17 27 18 28 79 29 19 30 78 31 20 32 21 33
REMARK SMILES IDX 22 34 72 35 23 36 77 37 71 38 73 39 24 40 76 41 70 42 69 43
REMARK SMILES IDX 25 45 57 46 37 47 56 48 38 49 41 50 55 51 74 52 39 53 40 54
REMARK SMILES IDX 54 56 75 57 42 58 26 59 27 60 35 61 28 62 34 63 36 64 33 65
REMARK SMILES IDX 29 66 30 67 31 68 32 69 58 70 59 71 67 72 60 73 66 74 68 75
REMARK SMILES IDX 65 76 61 77 62 78 63 79 64 80 43 81 44 82 52 83 45 84 51 85
REMARK SMILES IDX 53 86 50 87 46 88 47 89 48 90 49 91
REMARK H PARENT 73 44 41 55
REMARK Flexibility Score: inf
ROOT
ATOM      1  C   UNL A   1      36.892  22.551  25.552  1.00  0.00     0.202 C 
ENDROOT
BRANCH   1   2
ATOM      2  C   UNL A   1      35.614  21.444  25.772  1.00  0.00     0.261 C 
BRANCH   2   3
ATOM      3  O   UNL A   1      34.937  21.050  24.556  1.00  0.00    -0.463 OA
BRANCH   3   4
ATOM      4  C   UNL A   1      33.616  20.958  24.285  1.00  0.00     0.307 C 
ATOM      5  O   UNL A   1      32.968  20.121  24.922  1.00  0.00    -0.252 OA
BRANCH   4   6
ATOM      6  C   UNL A   1      32.906  21.775  23.199  1.00  0.00     0.144 C 
BRANCH   6   7
ATOM      7  C   UNL A   1      33.385  23.085  22.529  1.00  0.00     0.131 C 
BRANCH   7   8
ATOM      8  N   UNL A   1      32.675  24.304  22.908  1.00  0.00    -0.338 N 
BRANCH   8   9
ATOM      9  C   UNL A   1      31.551  24.160  23.851  1.00  0.00     0.116 C 
ATOM     10  C   UNL A   1      30.185  24.450  23.227  1.00  0.00     0.027 C 
ENDBRANCH   8   9
BRANCH   8  11
ATOM     11  C   UNL A   1      32.970  25.593  22.488  1.00  0.00     0.256 C 
ATOM     12  O   UNL A   1      33.585  25.799  21.442  1.00  0.00    -0.269 OA
BRANCH  11  13
ATOM     13  C   UNL A   1      32.658  26.798  23.277  1.00  0.00     0.077 A 
ATOM     14  C   UNL A   1      33.794  27.057  24.673  1.00  0.00     0.037 A 
ATOM     15  C   UNL A   1      31.237  27.942  23.098  1.00  0.00     0.136 A 
ATOM     16  C   UNL A   1      33.524  28.438  25.799  1.00  0.00     0.042 A 
ATOM     17  C   UNL A   1      30.983  29.291  24.254  1.00  0.00     0.041 A 
ATOM     18  F   UNL A   1      30.436  28.002  22.032  1.00  0.00    -0.206 F 
ATOM     19  Cl  UNL A   1      34.576  28.737  27.122  1.00  0.00    -0.084 Cl
ATOM     20  C   UNL A   1      32.141  29.541  25.587  1.00  0.00     0.023 A 
ENDBRANCH  11  13
ENDBRANCH   8  11
ENDBRANCH   7   8
ENDBRANCH   6   7
ENDBRANCH   4   6
ENDBRANCH   3   4
ENDBRANCH   2   3
ENDBRANCH   1   2
BRANCH   1  21
ATOM     21  O   UNL A   1      38.749  22.599  26.302  1.00  0.00    -0.374 OA
BRANCH  21  22
ATOM     22  C   UNL A   1      39.938  21.854  26.971  1.00  0.00     0.202 C 
BRANCH  22  23
ATOM     23  C   UNL A   1      40.433  20.538  26.312  1.00  0.00     0.261 C 
BRANCH  23  24
ATOM     24  O   UNL A   1      41.695  20.056  26.766  1.00  0.00    -0.460 OA
BRANCH  24  25
ATOM     25  C   UNL A   1      42.763  20.491  26.043  1.00  0.00     0.338 C 
ATOM     26  O   UNL A   1      43.312  19.909  25.134  1.00  0.00    -0.246 OA
BRANCH  25  27
ATOM     27  C   UNL A   1      43.023  21.903  26.406  1.00  0.00     0.060 A 
ATOM     28  C   UNL A   1      43.319  22.168  27.747  1.00  0.00     0.016 A 
ATOM     29  C   UNL A   1      43.099  22.921  25.451  1.00  0.00     0.016 A 
ATOM     30  C   UNL A   1      43.760  23.434  28.130  1.00  0.00     0.010 A 
ATOM     31  C   UNL A   1      43.483  24.208  25.846  1.00  0.00     0.010 A 
ATOM     32  C   UNL A   1      43.811  24.472  27.189  1.00  0.00    -0.014 A 
BRANCH  32  33
ATOM     33  C   UNL A   1      43.844  25.871  27.685  1.00  0.00     0.031 A 
ATOM     34  C   UNL A   1      45.194  26.538  27.681  1.00  0.00     0.074 A 
ATOM     35  C   UNL A   1      42.751  26.546  28.088  1.00  0.00     0.049 A 
ATOM     36  N   UNL A   1      45.535  27.742  28.053  1.00  0.00    -0.248 NA
ATOM     37  C   UNL A   1      46.314  25.718  27.186  1.00  0.00     0.031 C 
ATOM     38  C   UNL A   1      41.383  26.032  28.093  1.00  0.00     0.029 A 
ATOM     39  N   UNL A   1      42.628  27.827  28.575  1.00  0.00    -0.354 N 
ATOM     40  C   UNL A   1      46.903  27.826  27.822  1.00  0.00     0.074 A 
ATOM     41  C   UNL A   1      47.336  26.542  27.322  1.00  0.00     0.031 C 
ATOM     42  C   UNL A   1      40.560  26.987  28.570  1.00  0.00     0.029 A 
ATOM     43  C   UNL A   1      41.344  28.169  28.936  1.00  0.00     0.049 A 
ATOM     44  H   UNL A   1      43.391  28.444  28.659  1.00  0.00     0.167 HD
ATOM     45  C   UNL A   1      47.733  28.879  28.006  1.00  0.00     0.034 A 
ATOM     46  C   UNL A   1      40.870  29.295  29.515  1.00  0.00     0.034 A 
ATOM     47  C   UNL A   1      47.307  30.135  28.562  1.00  0.00     0.049 A 
ATOM     48  C   UNL A   1      41.841  30.419  29.832  1.00  0.00     0.074 A 
ATOM     49  C   UNL A   1      48.065  31.261  28.820  1.00  0.00     0.029 A 
ATOM     50  N   UNL A   1      46.012  30.418  28.976  1.00  0.00    -0.354 N 
ATOM     51  N   UNL A   1      43.131  30.494  29.595  1.00  0.00    -0.248 NA
ATOM     52  C   UNL A   1      41.287  31.610  30.494  1.00  0.00     0.031 C 
ATOM     53  C   UNL A   1      47.249  32.194  29.467  1.00  0.00     0.029 A 
ATOM     54  C   UNL A   1      45.958  31.690  29.522  1.00  0.00     0.049 A 
ATOM     55  H   UNL A   1      45.246  29.806  28.892  1.00  0.00     0.167 HD
ATOM     56  C   UNL A   1      43.532  31.755  30.043  1.00  0.00     0.074 A 
ATOM     57  C   UNL A   1      42.345  32.407  30.554  1.00  0.00     0.031 C 
ATOM     58  C   UNL A   1      44.764  32.326  30.029  1.00  0.00     0.034 A 
BRANCH  45  59
ATOM     59  C   UNL A   1      49.186  28.663  27.674  1.00  0.00     0.023 A 
ATOM     60  C   UNL A   1      49.669  28.789  26.358  1.00  0.00     0.031 A 
ATOM     61  C   UNL A   1      50.083  28.240  28.669  1.00  0.00     0.131 A 
ATOM     62  C   UNL A   1      50.986  28.411  26.060  1.00  0.00     0.055 A 
ATOM     63  C   UNL A   1      51.418  27.955  28.382  1.00  0.00     0.041 A 
ATOM     64  F   UNL A   1      49.668  28.067  29.935  1.00  0.00    -0.206 F 
ATOM     65  C   UNL A   1      51.873  28.023  27.067  1.00  0.00     0.022 A 
BRANCH  62  66
ATOM     66  S   UNL A   1      51.472  28.267  24.319  1.00  0.00     0.124 S 
ATOM     67  O   UNL A   1      52.788  27.643  24.431  1.00  0.00    -0.237 OA
ATOM     68  O   UNL A   1      50.414  27.431  23.763  1.00  0.00    -0.237 OA
ATOM     69  O   UNL A   1      51.485  29.652  23.851  1.00  0.00    -0.744 OA
ENDBRANCH  62  66
ENDBRANCH  45  59
BRANCH  46  70
ATOM     70  C   UNL A   1      39.428  29.423  29.900  1.00  0.00     0.023 A 
ATOM     71  C   UNL A   1      38.574  30.343  29.264  1.00  0.00     0.031 A 
ATOM     72  C   UNL A   1      38.908  28.696  30.985  1.00  0.00     0.131 A 
ATOM     73  C   UNL A   1      37.271  30.549  29.751  1.00  0.00     0.055 A 
ATOM     74  C   UNL A   1      37.592  28.861  31.428  1.00  0.00     0.041 A 
ATOM     75  F   UNL A   1      39.677  27.816  31.645  1.00  0.00    -0.206 F 
ATOM     76  C   UNL A   1      36.770  29.802  30.819  1.00  0.00     0.022 A 
BRANCH  73  77
ATOM     77  S   UNL A   1      36.267  31.885  29.039  1.00  0.00     0.124 S 
ATOM     78  O   UNL A   1      35.002  31.712  29.744  1.00  0.00    -0.237 OA
ATOM     79  O   UNL A   1      37.043  33.069  29.393  1.00  0.00    -0.237 OA
ATOM     80  O   UNL A   1      36.236  31.566  27.614  1.00  0.00    -0.744 OA
ENDBRANCH  73  77
ENDBRANCH  46  70
BRANCH  58  81
ATOM     81  C   UNL A   1      44.886  33.750  30.522  1.00  0.00     0.023 A 
ATOM     82  C   UNL A   1      45.171  34.055  31.864  1.00  0.00     0.031 A 
ATOM     83  C   UNL A   1      44.734  34.819  29.620  1.00  0.00     0.131 A 
ATOM     84  C   UNL A   1      45.247  35.395  32.275  1.00  0.00     0.055 A 
ATOM     85  C   UNL A   1      44.880  36.148  30.020  1.00  0.00     0.041 A 
ATOM     86  F   UNL A   1      44.459  34.590  28.327  1.00  0.00    -0.206 F 
ATOM     87  C   UNL A   1      45.125  36.442  31.358  1.00  0.00     0.022 A 
BRANCH  84  88
ATOM     88  S   UNL A   1      45.415  35.758  34.044  1.00  0.00     0.124 S 
ATOM     89  O   UNL A   1      46.575  36.642  34.064  1.00  0.00    -0.237 OA
ATOM     90  O   UNL A   1      44.134  36.380  34.359  1.00  0.00    -0.237 OA
ATOM     91  O   UNL A   1      45.628  34.442  34.645  1.00  0.00    -0.744 OA
ENDBRANCH  84  88
ENDBRANCH  58  81
ENDBRANCH  32  33
ENDBRANCH  25  27
ENDBRANCH  24  25
ENDBRANCH  23  24
ENDBRANCH  22  23
ENDBRANCH  21  22
ENDBRANCH   1  21
TORSDOF 22
ENDMDL
