MODEL 1
REMARK VINA RESULT:     -11.1      0.000      0.000
REMARK SMILES C=CC[N@H+](CC(=O)OCCOCCOC(=O)c1ccc(-c2c3nc(c(-c4cc(S(=O)(=O)[O-])ccc4F)c4ccc([nH]4)c(-c4cc(S(=O)(=O)[O-])ccc4F)c4nc(c(-c5cc(S(=O)(=O)[O-])ccc5F)c5ccc2[nH]5)C=C4)C=C3)cc1)[C@H]1CC(=O)N(c2ccccc2)C1=O
REMARK SMILES IDX 11 1 10 2 9 3 8 4 6 5 7 6 5 7 4 8 3 10 2 11 1 12 80 13 81 14
REMARK SMILES IDX 91 15 82 16 84 17 92 18 83 19 85 20 86 21 90 22 87 23 89 24
REMARK SMILES IDX 88 25 12 26 13 27 14 28 15 29 16 30 17 31 18 32 79 33 19 34
REMARK SMILES IDX 78 35 20 36 21 37 22 38 72 39 23 40 77 41 71 42 73 43 24 44
REMARK SMILES IDX 76 45 70 46 69 47 25 49 57 50 37 51 56 52 38 53 41 54 55 55
REMARK SMILES IDX 74 56 39 57 40 58 54 60 75 61 42 62 26 63 27 64 35 65 28 66
REMARK SMILES IDX 34 67 36 68 33 69 29 70 30 71 31 72 32 73 58 74 59 75 67 76
REMARK SMILES IDX 60 77 66 78 68 79 65 80 61 81 62 82 63 83 64 84 43 85 44 86
REMARK SMILES IDX 52 87 45 88 51 89 53 90 50 91 46 92 47 93 48 94 49 95
REMARK H PARENT 4 9 73 48 41 59
REMARK Flexibility Score: inf
ROOT
ATOM      1  O   UNL A   1      35.778  21.247  26.302  1.00  0.00    -0.374 OA
ENDROOT
BRANCH   1   2
ATOM      2  C   UNL A   1      35.054  22.476  26.233  1.00  0.00     0.202 C 
BRANCH   2   3
ATOM      3  C   UNL A   1      33.876  22.606  27.200  1.00  0.00     0.261 C 
BRANCH   3   4
ATOM      4  O   UNL A   1      32.982  23.654  26.781  1.00  0.00    -0.459 OA
BRANCH   4   5
ATOM      5  C   UNL A   1      31.681  23.306  26.634  1.00  0.00     0.361 C 
ATOM      6  O   UNL A   1      30.877  23.214  27.557  1.00  0.00    -0.245 OA
BRANCH   5   7
ATOM      7  C   UNL A   1      31.305  22.929  25.203  1.00  0.00     0.387 C 
BRANCH   7   8
ATOM      8  N   UNL A   1      32.321  23.173  24.125  1.00  0.00    -0.312 N 
ATOM      9  H   UNL A   1      33.229  23.307  24.568  1.00  0.00     0.349 HD
BRANCH   8  10
ATOM     10  C   UNL A   1      32.424  21.990  23.232  1.00  0.00     0.291 C 
BRANCH  10  11
ATOM     11  C   UNL A   1      32.153  20.650  23.871  1.00  0.00     0.025 C 
ATOM     12  C   UNL A   1      33.070  19.693  24.049  1.00  0.00     0.010 C 
ENDBRANCH  10  11
ENDBRANCH   8  10
BRANCH   8  13
ATOM     13  C   UNL A   1      32.036  24.429  23.364  1.00  0.00     0.285 C 
ATOM     14  C   UNL A   1      30.565  24.745  23.141  1.00  0.00     0.176 C 
ATOM     15  C   UNL A   1      32.572  25.681  24.049  1.00  0.00     0.292 C 
ATOM     16  C   UNL A   1      30.291  25.867  24.093  1.00  0.00     0.240 C 
ATOM     17  N   UNL A   1      31.488  26.417  24.487  1.00  0.00    -0.245 N 
ATOM     18  O   UNL A   1      33.761  25.916  24.217  1.00  0.00    -0.267 OA
ATOM     19  O   UNL A   1      29.154  26.230  24.365  1.00  0.00    -0.274 OA
BRANCH  17  20
ATOM     20  C   UNL A   1      31.596  27.581  25.284  1.00  0.00     0.052 A 
ATOM     21  C   UNL A   1      31.559  28.855  24.701  1.00  0.00     0.027 A 
ATOM     22  C   UNL A   1      31.736  27.482  26.675  1.00  0.00     0.027 A 
ATOM     23  C   UNL A   1      31.631  30.003  25.496  1.00  0.00     0.002 A 
ATOM     24  C   UNL A   1      31.851  28.628  27.464  1.00  0.00     0.002 A 
ATOM     25  C   UNL A   1      31.787  29.888  26.875  1.00  0.00     0.000 A 
ENDBRANCH  17  20
ENDBRANCH   8  13
ENDBRANCH   7   8
ENDBRANCH   5   7
ENDBRANCH   4   5
ENDBRANCH   3   4
ENDBRANCH   2   3
ENDBRANCH   1   2
BRANCH   1  26
ATOM     26  C   UNL A   1      36.122  20.631  25.060  1.00  0.00     0.202 C 
BRANCH  26  27
ATOM     27  C   UNL A   1      37.566  20.131  24.924  1.00  0.00     0.261 C 
BRANCH  27  28
ATOM     28  O   UNL A   1      38.533  21.188  25.061  1.00  0.00    -0.460 OA
BRANCH  28  29
ATOM     29  C   UNL A   1      39.498  20.975  25.990  1.00  0.00     0.338 C 
ATOM     30  O   UNL A   1      40.071  19.921  26.227  1.00  0.00    -0.246 OA
BRANCH  29  31
ATOM     31  C   UNL A   1      39.913  22.267  26.569  1.00  0.00     0.060 A 
ATOM     32  C   UNL A   1      39.232  23.420  26.161  1.00  0.00     0.016 A 
ATOM     33  C   UNL A   1      40.978  22.360  27.467  1.00  0.00     0.016 A 
ATOM     34  C   UNL A   1      39.637  24.673  26.624  1.00  0.00     0.010 A 
ATOM     35  C   UNL A   1      41.364  23.613  27.955  1.00  0.00     0.010 A 
ATOM     36  C   UNL A   1      40.725  24.781  27.503  1.00  0.00    -0.014 A 
BRANCH  36  37
ATOM     37  C   UNL A   1      41.305  26.118  27.804  1.00  0.00     0.031 A 
ATOM     38  C   UNL A   1      42.687  26.437  27.294  1.00  0.00     0.074 A 
ATOM     39  C   UNL A   1      40.611  27.041  28.495  1.00  0.00     0.049 A 
ATOM     40  N   UNL A   1      43.416  27.509  27.474  1.00  0.00    -0.248 NA
ATOM     41  C   UNL A   1      43.342  25.396  26.484  1.00  0.00     0.031 C 
ATOM     42  C   UNL A   1      39.258  26.865  29.020  1.00  0.00     0.029 A 
ATOM     43  N   UNL A   1      40.953  28.316  28.878  1.00  0.00    -0.354 N 
ATOM     44  C   UNL A   1      44.618  27.264  26.817  1.00  0.00     0.074 A 
ATOM     45  C   UNL A   1      44.537  25.925  26.277  1.00  0.00     0.031 C 
ATOM     46  C   UNL A   1      38.884  27.989  29.655  1.00  0.00     0.029 A 
ATOM     47  C   UNL A   1      39.983  28.951  29.619  1.00  0.00     0.049 A 
ATOM     48  H   UNL A   1      41.812  28.736  28.644  1.00  0.00     0.167 HD
ATOM     49  C   UNL A   1      45.685  28.086  26.664  1.00  0.00     0.034 A 
ATOM     50  C   UNL A   1      39.990  30.160  30.219  1.00  0.00     0.034 A 
ATOM     51  C   UNL A   1      45.746  29.428  27.192  1.00  0.00     0.049 A 
ATOM     52  C   UNL A   1      41.211  31.041  30.077  1.00  0.00     0.074 A 
ATOM     53  C   UNL A   1      46.761  30.359  27.061  1.00  0.00     0.029 A 
ATOM     54  N   UNL A   1      44.754  30.027  27.957  1.00  0.00    -0.354 N 
ATOM     55  N   UNL A   1      42.333  30.805  29.436  1.00  0.00    -0.248 NA
ATOM     56  C   UNL A   1      41.161  32.356  30.731  1.00  0.00     0.031 C 
ATOM     57  C   UNL A   1      46.416  31.490  27.807  1.00  0.00     0.029 A 
ATOM     58  C   UNL A   1      45.149  31.301  28.334  1.00  0.00     0.049 A 
ATOM     59  H   UNL A   1      43.895  29.608  28.196  1.00  0.00     0.167 HD
ATOM     60  C   UNL A   1      43.106  31.955  29.582  1.00  0.00     0.074 A 
ATOM     61  C   UNL A   1      42.315  32.887  30.358  1.00  0.00     0.031 C 
ATOM     62  C   UNL A   1      44.353  32.220  29.114  1.00  0.00     0.034 A 
BRANCH  49  63
ATOM     63  C   UNL A   1      46.889  27.537  25.935  1.00  0.00     0.023 A 
ATOM     64  C   UNL A   1      47.189  27.902  24.611  1.00  0.00     0.031 A 
ATOM     65  C   UNL A   1      47.734  26.609  26.569  1.00  0.00     0.131 A 
ATOM     66  C   UNL A   1      48.260  27.291  23.942  1.00  0.00     0.055 A 
ATOM     67  C   UNL A   1      48.848  26.067  25.925  1.00  0.00     0.041 A 
ATOM     68  F   UNL A   1      47.485  26.202  27.824  1.00  0.00    -0.206 F 
ATOM     69  C   UNL A   1      49.107  26.395  24.598  1.00  0.00     0.022 A 
BRANCH  66  70
ATOM     70  S   UNL A   1      48.442  27.573  22.159  1.00  0.00     0.124 S 
ATOM     71  O   UNL A   1      48.647  26.213  21.666  1.00  0.00    -0.237 OA
ATOM     72  O   UNL A   1      47.172  28.196  21.807  1.00  0.00    -0.237 OA
ATOM     73  O   UNL A   1      49.613  28.444  22.068  1.00  0.00    -0.744 OA
ENDBRANCH  66  70
ENDBRANCH  49  63
BRANCH  50  74
ATOM     74  C   UNL A   1      38.829  30.606  31.043  1.00  0.00     0.023 A 
ATOM     75  C   UNL A   1      37.721  31.241  30.460  1.00  0.00     0.031 A 
ATOM     76  C   UNL A   1      38.842  30.460  32.442  1.00  0.00     0.131 A 
ATOM     77  C   UNL A   1      36.697  31.753  31.274  1.00  0.00     0.055 A 
ATOM     78  C   UNL A   1      37.794  30.920  33.243  1.00  0.00     0.041 A 
ATOM     79  F   UNL A   1      39.877  29.862  33.053  1.00  0.00    -0.206 F 
ATOM     80  C   UNL A   1      36.720  31.584  32.661  1.00  0.00     0.022 A 
BRANCH  77  81
ATOM     81  S   UNL A   1      35.377  32.730  30.503  1.00  0.00     0.124 S 
ATOM     82  O   UNL A   1      35.118  31.971  29.285  1.00  0.00    -0.237 OA
ATOM     83  O   UNL A   1      34.334  32.684  31.522  1.00  0.00    -0.237 OA
ATOM     84  O   UNL A   1      35.994  34.039  30.305  1.00  0.00    -0.744 OA
ENDBRANCH  77  81
ENDBRANCH  50  74
BRANCH  62  85
ATOM     85  C   UNL A   1      44.916  33.595  29.389  1.00  0.00     0.023 A 
ATOM     86  C   UNL A   1      44.842  34.631  28.442  1.00  0.00     0.031 A 
ATOM     87  C   UNL A   1      45.545  33.868  30.618  1.00  0.00     0.131 A 
ATOM     88  C   UNL A   1      45.438  35.873  28.715  1.00  0.00     0.055 A 
ATOM     89  C   UNL A   1      46.078  35.123  30.910  1.00  0.00     0.041 A 
ATOM     90  F   UNL A   1      45.646  32.915  31.559  1.00  0.00    -0.206 F 
ATOM     91  C   UNL A   1      46.039  36.131  29.951  1.00  0.00     0.022 A 
BRANCH  88  92
ATOM     92  S   UNL A   1      45.505  37.116  27.398  1.00  0.00     0.124 S 
ATOM     93  O   UNL A   1      45.735  36.293  26.215  1.00  0.00    -0.237 OA
ATOM     94  O   UNL A   1      44.191  37.743  27.492  1.00  0.00    -0.237 OA
ATOM     95  O   UNL A   1      46.628  37.969  27.786  1.00  0.00    -0.744 OA
ENDBRANCH  88  92
ENDBRANCH  62  85
ENDBRANCH  36  37
ENDBRANCH  29  31
ENDBRANCH  28  29
ENDBRANCH  27  28
ENDBRANCH  26  27
ENDBRANCH   1  26
TORSDOF 22
ENDMDL
MODEL 2
REMARK VINA RESULT:     -11.0      1.458      2.685
REMARK SMILES C=CC[N@H+](CC(=O)OCCOCCOC(=O)c1ccc(-c2c3nc(c(-c4cc(S(=O)(=O)[O-])ccc4F)c4ccc([nH]4)c(-c4cc(S(=O)(=O)[O-])ccc4F)c4nc(c(-c5cc(S(=O)(=O)[O-])ccc5F)c5ccc2[nH]5)C=C4)C=C3)cc1)[C@H]1CC(=O)N(c2ccccc2)C1=O
REMARK SMILES IDX 11 1 10 2 9 3 8 4 6 5 7 6 5 7 4 8 3 10 2 11 1 12 80 13 81 14
REMARK SMILES IDX 91 15 82 16 84 17 92 18 83 19 85 20 86 21 90 22 87 23 89 24
REMARK SMILES IDX 88 25 12 26 13 27 14 28 15 29 16 30 17 31 18 32 79 33 19 34
REMARK SMILES IDX 78 35 20 36 21 37 22 38 72 39 23 40 77 41 71 42 73 43 24 44
REMARK SMILES IDX 76 45 70 46 69 47 25 49 57 50 37 51 56 52 38 53 41 54 55 55
REMARK SMILES IDX 74 56 39 57 40 58 54 60 75 61 42 62 26 63 27 64 35 65 28 66
REMARK SMILES IDX 34 67 36 68 33 69 29 70 30 71 31 72 32 73 58 74 59 75 67 76
REMARK SMILES IDX 60 77 66 78 68 79 65 80 61 81 62 82 63 83 64 84 43 85 44 86
REMARK SMILES IDX 52 87 45 88 51 89 53 90 50 91 46 92 47 93 48 94 49 95
REMARK H PARENT 4 9 73 48 41 59
REMARK Flexibility Score: inf
ROOT
ATOM      1  O   UNL A   1      35.310  21.363  26.245  1.00  0.00    -0.374 OA
ENDROOT
BRANCH   1   2
ATOM      2  C   UNL A   1      34.910  22.733  26.207  1.00  0.00     0.202 C 
BRANCH   2   3
ATOM      3  C   UNL A   1      33.419  22.993  26.435  1.00  0.00     0.261 C 
BRANCH   3   4
ATOM      4  O   UNL A   1      33.172  24.393  26.659  1.00  0.00    -0.459 OA
BRANCH   4   5
ATOM      5  C   UNL A   1      33.219  25.191  25.564  1.00  0.00     0.361 C 
ATOM      6  O   UNL A   1      32.739  24.902  24.472  1.00  0.00    -0.245 OA
BRANCH   5   7
ATOM      7  C   UNL A   1      34.026  26.470  25.771  1.00  0.00     0.387 C 
BRANCH   7   8
ATOM      8  N   UNL A   1      33.271  27.736  26.061  1.00  0.00    -0.312 N 
ATOM      9  H   UNL A   1      32.292  27.494  26.212  1.00  0.00     0.349 HD
BRANCH   8  10
ATOM     10  C   UNL A   1      33.778  28.368  27.305  1.00  0.00     0.291 C 
BRANCH  10  11
ATOM     11  C   UNL A   1      34.795  29.468  27.124  1.00  0.00     0.025 C 
ATOM     12  C   UNL A   1      36.031  29.454  27.638  1.00  0.00     0.010 C 
ENDBRANCH  10  11
ENDBRANCH   8  10
BRANCH   8  13
ATOM     13  C   UNL A   1      33.296  28.678  24.899  1.00  0.00     0.285 C 
ATOM     14  C   UNL A   1      33.667  28.062  23.559  1.00  0.00     0.176 C 
ATOM     15  C   UNL A   1      31.947  29.336  24.630  1.00  0.00     0.292 C 
ATOM     16  C   UNL A   1      32.366  27.998  22.821  1.00  0.00     0.240 C 
ATOM     17  N   UNL A   1      31.465  28.834  23.438  1.00  0.00    -0.245 N 
ATOM     18  O   UNL A   1      31.398  30.115  25.399  1.00  0.00    -0.267 OA
ATOM     19  O   UNL A   1      32.228  27.345  21.796  1.00  0.00    -0.274 OA
BRANCH  17  20
ATOM     20  C   UNL A   1      30.175  29.115  22.928  1.00  0.00     0.052 A 
ATOM     21  C   UNL A   1      29.061  28.379  23.352  1.00  0.00     0.027 A 
ATOM     22  C   UNL A   1      29.986  30.141  21.992  1.00  0.00     0.027 A 
ATOM     23  C   UNL A   1      27.783  28.682  22.872  1.00  0.00     0.002 A 
ATOM     24  C   UNL A   1      28.716  30.414  21.480  1.00  0.00     0.002 A 
ATOM     25  C   UNL A   1      27.614  29.693  21.929  1.00  0.00     0.000 A 
ENDBRANCH  17  20
ENDBRANCH   8  13
ENDBRANCH   7   8
ENDBRANCH   5   7
ENDBRANCH   4   5
ENDBRANCH   3   4
ENDBRANCH   2   3
ENDBRANCH   1   2
BRANCH   1  26
ATOM     26  C   UNL A   1      35.757  20.787  25.016  1.00  0.00     0.202 C 
BRANCH  26  27
ATOM     27  C   UNL A   1      37.185  20.227  25.004  1.00  0.00     0.261 C 
BRANCH  27  28
ATOM     28  O   UNL A   1      38.186  21.260  25.059  1.00  0.00    -0.460 OA
BRANCH  28  29
ATOM     29  C   UNL A   1      39.203  21.039  25.927  1.00  0.00     0.338 C 
ATOM     30  O   UNL A   1      39.790  19.983  26.118  1.00  0.00    -0.246 OA
BRANCH  29  31
ATOM     31  C   UNL A   1      39.651  22.324  26.495  1.00  0.00     0.060 A 
ATOM     32  C   UNL A   1      38.967  23.485  26.115  1.00  0.00     0.016 A 
ATOM     33  C   UNL A   1      40.748  22.405  27.354  1.00  0.00     0.016 A 
ATOM     34  C   UNL A   1      39.401  24.732  26.568  1.00  0.00     0.010 A 
ATOM     35  C   UNL A   1      41.163  23.652  27.832  1.00  0.00     0.010 A 
ATOM     36  C   UNL A   1      40.520  24.828  27.407  1.00  0.00    -0.014 A 
BRANCH  36  37
ATOM     37  C   UNL A   1      41.123  26.158  27.691  1.00  0.00     0.031 A 
ATOM     38  C   UNL A   1      42.480  26.474  27.117  1.00  0.00     0.074 A 
ATOM     39  C   UNL A   1      40.470  27.079  28.425  1.00  0.00     0.049 A 
ATOM     40  N   UNL A   1      43.224  27.539  27.270  1.00  0.00    -0.248 NA
ATOM     41  C   UNL A   1      43.087  25.436  26.265  1.00  0.00     0.031 C 
ATOM     42  C   UNL A   1      39.143  26.906  29.014  1.00  0.00     0.029 A 
ATOM     43  N   UNL A   1      40.840  28.348  28.802  1.00  0.00    -0.354 N 
ATOM     44  C   UNL A   1      44.390  27.293  26.552  1.00  0.00     0.074 A 
ATOM     45  C   UNL A   1      44.274  25.959  26.005  1.00  0.00     0.031 C 
ATOM     46  C   UNL A   1      38.810  28.026  29.678  1.00  0.00     0.029 A 
ATOM     47  C   UNL A   1      39.912  28.982  29.596  1.00  0.00     0.049 A 
ATOM     48  H   UNL A   1      41.688  28.764  28.529  1.00  0.00     0.167 HD
ATOM     49  C   UNL A   1      45.455  28.110  26.354  1.00  0.00     0.034 A 
ATOM     50  C   UNL A   1      39.957  30.185  30.206  1.00  0.00     0.034 A 
ATOM     51  C   UNL A   1      45.550  29.446  26.891  1.00  0.00     0.049 A 
ATOM     52  C   UNL A   1      41.175  31.059  30.012  1.00  0.00     0.074 A 
ATOM     53  C   UNL A   1      46.563  30.372  26.718  1.00  0.00     0.029 A 
ATOM     54  N   UNL A   1      44.601  30.044  27.710  1.00  0.00    -0.354 N 
ATOM     55  N   UNL A   1      42.262  30.822  29.314  1.00  0.00    -0.248 NA
ATOM     56  C   UNL A   1      41.165  32.368  30.680  1.00  0.00     0.031 C 
ATOM     57  C   UNL A   1      46.264  31.498  27.491  1.00  0.00     0.029 A 
ATOM     58  C   UNL A   1      45.023  31.312  28.078  1.00  0.00     0.049 A 
ATOM     59  H   UNL A   1      43.753  29.628  27.987  1.00  0.00     0.167 HD
ATOM     60  C   UNL A   1      43.048  31.966  29.432  1.00  0.00     0.074 A 
ATOM     61  C   UNL A   1      42.304  32.896  30.255  1.00  0.00     0.031 C 
ATOM     62  C   UNL A   1      44.273  32.228  28.906  1.00  0.00     0.034 A 
BRANCH  49  63
ATOM     63  C   UNL A   1      46.617  27.560  25.561  1.00  0.00     0.023 A 
ATOM     64  C   UNL A   1      46.914  28.013  24.264  1.00  0.00     0.031 A 
ATOM     65  C   UNL A   1      47.423  26.544  26.104  1.00  0.00     0.131 A 
ATOM     66  C   UNL A   1      47.942  27.403  23.529  1.00  0.00     0.055 A 
ATOM     67  C   UNL A   1      48.498  25.999  25.398  1.00  0.00     0.041 A 
ATOM     68  F   UNL A   1      47.173  26.053  27.328  1.00  0.00    -0.206 F 
ATOM     69  C   UNL A   1      48.752  26.418  24.096  1.00  0.00     0.022 A 
BRANCH  66  70
ATOM     70  S   UNL A   1      48.111  27.815  21.769  1.00  0.00     0.124 S 
ATOM     71  O   UNL A   1      49.324  28.629  21.773  1.00  0.00    -0.237 OA
ATOM     72  O   UNL A   1      48.223  26.502  21.147  1.00  0.00    -0.237 OA
ATOM     73  O   UNL A   1      46.880  28.546  21.470  1.00  0.00    -0.744 OA
ENDBRANCH  66  70
ENDBRANCH  49  63
BRANCH  50  74
ATOM     74  C   UNL A   1      38.840  30.630  31.091  1.00  0.00     0.023 A 
ATOM     75  C   UNL A   1      37.725  31.308  30.574  1.00  0.00     0.031 A 
ATOM     76  C   UNL A   1      38.907  30.439  32.483  1.00  0.00     0.131 A 
ATOM     77  C   UNL A   1      36.748  31.816  31.446  1.00  0.00     0.055 A 
ATOM     78  C   UNL A   1      37.904  30.896  33.341  1.00  0.00     0.041 A 
ATOM     79  F   UNL A   1      39.951  29.799  33.032  1.00  0.00    -0.206 F 
ATOM     80  C   UNL A   1      36.823  31.603  32.824  1.00  0.00     0.022 A 
BRANCH  77  81
ATOM     81  S   UNL A   1      35.421  32.847  30.761  1.00  0.00     0.124 S 
ATOM     82  O   UNL A   1      34.268  32.400  31.534  1.00  0.00    -0.237 OA
ATOM     83  O   UNL A   1      35.906  34.192  31.049  1.00  0.00    -0.237 OA
ATOM     84  O   UNL A   1      35.404  32.484  29.346  1.00  0.00    -0.744 OA
ENDBRANCH  77  81
ENDBRANCH  50  74
BRANCH  62  85
ATOM     85  C   UNL A   1      44.858  33.597  29.165  1.00  0.00     0.023 A 
ATOM     86  C   UNL A   1      44.683  34.663  28.265  1.00  0.00     0.031 A 
ATOM     87  C   UNL A   1      45.612  33.833  30.329  1.00  0.00     0.131 A 
ATOM     88  C   UNL A   1      45.301  35.899  28.516  1.00  0.00     0.055 A 
ATOM     89  C   UNL A   1      46.169  35.082  30.606  1.00  0.00     0.041 A 
ATOM     90  F   UNL A   1      45.813  32.851  31.223  1.00  0.00    -0.206 F 
ATOM     91  C   UNL A   1      46.027  36.120  29.689  1.00  0.00     0.022 A 
BRANCH  88  92
ATOM     92  S   UNL A   1      45.226  37.184  27.240  1.00  0.00     0.124 S 
ATOM     93  O   UNL A   1      46.076  36.625  26.194  1.00  0.00    -0.237 OA
ATOM     94  O   UNL A   1      43.799  37.243  26.938  1.00  0.00    -0.237 OA
ATOM     95  O   UNL A   1      45.766  38.366  27.911  1.00  0.00    -0.744 OA
ENDBRANCH  88  92
ENDBRANCH  62  85
ENDBRANCH  36  37
ENDBRANCH  29  31
ENDBRANCH  28  29
ENDBRANCH  27  28
ENDBRANCH  26  27
ENDBRANCH   1  26
TORSDOF 22
ENDMDL
MODEL 3
REMARK VINA RESULT:     -10.9      0.812      3.015
REMARK SMILES C=CC[N@H+](CC(=O)OCCOCCOC(=O)c1ccc(-c2c3nc(c(-c4cc(S(=O)(=O)[O-])ccc4F)c4ccc([nH]4)c(-c4cc(S(=O)(=O)[O-])ccc4F)c4nc(c(-c5cc(S(=O)(=O)[O-])ccc5F)c5ccc2[nH]5)C=C4)C=C3)cc1)[C@H]1CC(=O)N(c2ccccc2)C1=O
REMARK SMILES IDX 11 1 10 2 9 3 8 4 6 5 7 6 5 7 4 8 3 10 2 11 1 12 80 13 81 14
REMARK SMILES IDX 91 15 82 16 84 17 92 18 83 19 85 20 86 21 90 22 87 23 89 24
REMARK SMILES IDX 88 25 12 26 13 27 14 28 15 29 16 30 17 31 18 32 79 33 19 34
REMARK SMILES IDX 78 35 20 36 21 37 22 38 72 39 23 40 77 41 71 42 73 43 24 44
REMARK SMILES IDX 76 45 70 46 69 47 25 49 57 50 37 51 56 52 38 53 41 54 55 55
REMARK SMILES IDX 74 56 39 57 40 58 54 60 75 61 42 62 26 63 27 64 35 65 28 66
REMARK SMILES IDX 34 67 36 68 33 69 29 70 30 71 31 72 32 73 58 74 59 75 67 76
REMARK SMILES IDX 60 77 66 78 68 79 65 80 61 81 62 82 63 83 64 84 43 85 44 86
REMARK SMILES IDX 52 87 45 88 51 89 53 90 50 91 46 92 47 93 48 94 49 95
REMARK H PARENT 4 9 73 48 41 59
REMARK Flexibility Score: inf
ROOT
ATOM      1  O   UNL A   1      35.829  21.714  25.808  1.00  0.00    -0.374 OA
ENDROOT
BRANCH   1   2
ATOM      2  C   UNL A   1      34.765  21.713  26.760  1.00  0.00     0.202 C 
BRANCH   2   3
ATOM      3  C   UNL A   1      34.130  23.076  27.044  1.00  0.00     0.261 C 
BRANCH   3   4
ATOM      4  O   UNL A   1      32.711  22.948  27.248  1.00  0.00    -0.459 OA
BRANCH   4   5
ATOM      5  C   UNL A   1      31.955  24.007  26.866  1.00  0.00     0.361 C 
ATOM      6  O   UNL A   1      30.749  24.111  27.072  1.00  0.00    -0.245 OA
BRANCH   5   7
ATOM      7  C   UNL A   1      32.720  25.044  26.048  1.00  0.00     0.387 C 
BRANCH   7   8
ATOM      8  N   UNL A   1      31.933  25.918  25.114  1.00  0.00    -0.312 N 
ATOM      9  H   UNL A   1      30.948  25.848  25.368  1.00  0.00     0.349 HD
BRANCH   8  10
ATOM     10  C   UNL A   1      32.341  27.338  25.265  1.00  0.00     0.291 C 
BRANCH  10  11
ATOM     11  C   UNL A   1      32.605  27.806  26.675  1.00  0.00     0.025 C 
ATOM     12  C   UNL A   1      32.632  29.088  27.058  1.00  0.00     0.010 C 
ENDBRANCH  10  11
ENDBRANCH   8  10
BRANCH   8  13
ATOM     13  C   UNL A   1      32.034  25.452  23.696  1.00  0.00     0.285 C 
ATOM     14  C   UNL A   1      33.442  25.363  23.130  1.00  0.00     0.176 C 
ATOM     15  C   UNL A   1      31.473  24.050  23.483  1.00  0.00     0.292 C 
ATOM     16  C   UNL A   1      33.723  23.893  23.094  1.00  0.00     0.240 C 
ATOM     17  N   UNL A   1      32.533  23.212  23.199  1.00  0.00    -0.245 N 
ATOM     18  O   UNL A   1      30.292  23.755  23.618  1.00  0.00    -0.267 OA
ATOM     19  O   UNL A   1      34.848  23.447  22.917  1.00  0.00    -0.274 OA
BRANCH  17  20
ATOM     20  C   UNL A   1      32.416  21.808  23.071  1.00  0.00     0.052 A 
ATOM     21  C   UNL A   1      32.043  21.228  21.851  1.00  0.00     0.027 A 
ATOM     22  C   UNL A   1      32.676  20.968  24.162  1.00  0.00     0.027 A 
ATOM     23  C   UNL A   1      31.961  19.838  21.719  1.00  0.00     0.002 A 
ATOM     24  C   UNL A   1      32.552  19.582  24.041  1.00  0.00     0.002 A 
ATOM     25  C   UNL A   1      32.207  19.018  22.817  1.00  0.00     0.000 A 
ENDBRANCH  17  20
ENDBRANCH   8  13
ENDBRANCH   7   8
ENDBRANCH   5   7
ENDBRANCH   4   5
ENDBRANCH   3   4
ENDBRANCH   2   3
ENDBRANCH   1   2
BRANCH   1  26
ATOM     26  C   UNL A   1      36.099  20.479  25.143  1.00  0.00     0.202 C 
BRANCH  26  27
ATOM     27  C   UNL A   1      37.577  20.097  24.988  1.00  0.00     0.261 C 
BRANCH  27  28
ATOM     28  O   UNL A   1      38.460  21.219  25.167  1.00  0.00    -0.460 OA
BRANCH  28  29
ATOM     29  C   UNL A   1      39.458  21.036  26.066  1.00  0.00     0.338 C 
ATOM     30  O   UNL A   1      40.059  19.995  26.296  1.00  0.00    -0.246 OA
BRANCH  29  31
ATOM     31  C   UNL A   1      39.865  22.341  26.619  1.00  0.00     0.060 A 
ATOM     32  C   UNL A   1      39.224  23.489  26.136  1.00  0.00     0.016 A 
ATOM     33  C   UNL A   1      40.886  22.452  27.565  1.00  0.00     0.016 A 
ATOM     34  C   UNL A   1      39.627  24.751  26.574  1.00  0.00     0.010 A 
ATOM     35  C   UNL A   1      41.268  23.716  28.026  1.00  0.00     0.010 A 
ATOM     36  C   UNL A   1      40.672  24.876  27.501  1.00  0.00    -0.014 A 
BRANCH  36  37
ATOM     37  C   UNL A   1      41.259  26.214  27.782  1.00  0.00     0.031 A 
ATOM     38  C   UNL A   1      42.624  26.535  27.230  1.00  0.00     0.074 A 
ATOM     39  C   UNL A   1      40.585  27.137  28.493  1.00  0.00     0.049 A 
ATOM     40  N   UNL A   1      43.356  27.608  27.385  1.00  0.00    -0.248 NA
ATOM     41  C   UNL A   1      43.255  25.494  26.400  1.00  0.00     0.031 C 
ATOM     42  C   UNL A   1      39.249  26.959  29.060  1.00  0.00     0.029 A 
ATOM     43  N   UNL A   1      40.936  28.413  28.864  1.00  0.00    -0.354 N 
ATOM     44  C   UNL A   1      44.537  27.365  26.692  1.00  0.00     0.074 A 
ATOM     45  C   UNL A   1      44.442  26.025  26.156  1.00  0.00     0.031 C 
ATOM     46  C   UNL A   1      38.893  28.083  29.706  1.00  0.00     0.029 A 
ATOM     47  C   UNL A   1      39.989  29.047  29.634  1.00  0.00     0.049 A 
ATOM     48  H   UNL A   1      41.787  28.834  28.603  1.00  0.00     0.167 HD
ATOM     49  C   UNL A   1      45.598  28.189  26.505  1.00  0.00     0.034 A 
ATOM     50  C   UNL A   1      40.012  30.257  30.232  1.00  0.00     0.034 A 
ATOM     51  C   UNL A   1      45.672  29.531  27.029  1.00  0.00     0.049 A 
ATOM     52  C   UNL A   1      41.227  31.140  30.052  1.00  0.00     0.074 A 
ATOM     53  C   UNL A   1      46.681  30.464  26.865  1.00  0.00     0.029 A 
ATOM     54  N   UNL A   1      44.703  30.129  27.824  1.00  0.00    -0.354 N 
ATOM     55  N   UNL A   1      42.329  30.905  29.376  1.00  0.00    -0.248 NA
ATOM     56  C   UNL A   1      41.194  32.455  30.705  1.00  0.00     0.031 C 
ATOM     57  C   UNL A   1      46.358  31.595  27.621  1.00  0.00     0.029 A 
ATOM     58  C   UNL A   1      45.108  31.405  28.187  1.00  0.00     0.049 A 
ATOM     59  H   UNL A   1      43.854  29.710  28.090  1.00  0.00     0.167 HD
ATOM     60  C   UNL A   1      43.103  32.056  29.497  1.00  0.00     0.074 A 
ATOM     61  C   UNL A   1      42.336  32.988  30.296  1.00  0.00     0.031 C 
ATOM     62  C   UNL A   1      44.335  32.323  28.991  1.00  0.00     0.034 A 
BRANCH  49  63
ATOM     63  C   UNL A   1      46.779  27.641  25.739  1.00  0.00     0.023 A 
ATOM     64  C   UNL A   1      47.054  28.027  24.416  1.00  0.00     0.031 A 
ATOM     65  C   UNL A   1      47.629  26.693  26.337  1.00  0.00     0.131 A 
ATOM     66  C   UNL A   1      48.104  27.417  23.712  1.00  0.00     0.055 A 
ATOM     67  C   UNL A   1      48.723  26.151  25.659  1.00  0.00     0.041 A 
ATOM     68  F   UNL A   1      47.404  26.266  27.590  1.00  0.00    -0.206 F 
ATOM     69  C   UNL A   1      48.956  26.501  24.333  1.00  0.00     0.022 A 
BRANCH  66  70
ATOM     70  S   UNL A   1      48.249  27.729  21.931  1.00  0.00     0.124 S 
ATOM     71  O   UNL A   1      48.521  26.388  21.419  1.00  0.00    -0.237 OA
ATOM     72  O   UNL A   1      46.943  28.287  21.600  1.00  0.00    -0.237 OA
ATOM     73  O   UNL A   1      49.370  28.663  21.837  1.00  0.00    -0.744 OA
ENDBRANCH  66  70
ENDBRANCH  49  63
BRANCH  50  74
ATOM     74  C   UNL A   1      38.876  30.702  31.091  1.00  0.00     0.023 A 
ATOM     75  C   UNL A   1      37.870  31.545  30.592  1.00  0.00     0.031 A 
ATOM     76  C   UNL A   1      38.817  30.340  32.449  1.00  0.00     0.131 A 
ATOM     77  C   UNL A   1      36.878  32.039  31.456  1.00  0.00     0.055 A 
ATOM     78  C   UNL A   1      37.797  30.789  33.291  1.00  0.00     0.041 A 
ATOM     79  F   UNL A   1      39.754  29.538  32.980  1.00  0.00    -0.206 F 
ATOM     80  C   UNL A   1      36.827  31.656  32.798  1.00  0.00     0.022 A 
BRANCH  77  81
ATOM     81  S   UNL A   1      35.707  33.271  30.822  1.00  0.00     0.124 S 
ATOM     82  O   UNL A   1      36.335  33.657  29.563  1.00  0.00    -0.237 OA
ATOM     83  O   UNL A   1      34.479  32.492  30.714  1.00  0.00    -0.237 OA
ATOM     84  O   UNL A   1      35.701  34.300  31.858  1.00  0.00    -0.744 OA
ENDBRANCH  77  81
ENDBRANCH  50  74
BRANCH  62  85
ATOM     85  C   UNL A   1      44.904  33.700  29.246  1.00  0.00     0.023 A 
ATOM     86  C   UNL A   1      44.514  34.817  28.488  1.00  0.00     0.031 A 
ATOM     87  C   UNL A   1      45.859  33.891  30.261  1.00  0.00     0.131 A 
ATOM     88  C   UNL A   1      45.119  36.064  28.717  1.00  0.00     0.055 A 
ATOM     89  C   UNL A   1      46.409  35.145  30.529  1.00  0.00     0.041 A 
ATOM     90  F   UNL A   1      46.270  32.858  31.015  1.00  0.00    -0.206 F 
ATOM     91  C   UNL A   1      46.051  36.238  29.745  1.00  0.00     0.022 A 
BRANCH  88  92
ATOM     92  S   UNL A   1      44.746  37.434  27.590  1.00  0.00     0.124 S 
ATOM     93  O   UNL A   1      46.008  37.589  26.873  1.00  0.00    -0.237 OA
ATOM     94  O   UNL A   1      43.632  36.904  26.811  1.00  0.00    -0.237 OA
ATOM     95  O   UNL A   1      44.405  38.535  28.490  1.00  0.00    -0.744 OA
ENDBRANCH  88  92
ENDBRANCH  62  85
ENDBRANCH  36  37
ENDBRANCH  29  31
ENDBRANCH  28  29
ENDBRANCH  27  28
ENDBRANCH  26  27
ENDBRANCH   1  26
TORSDOF 22
ENDMDL
