MODEL 1
REMARK VINA RESULT:     -10.5      0.000      0.000
REMARK SMILES C[NH+]1CCC([N@@H+](CC(=O)OCCOCCOC(=O)c2ccc(-c3c4nc(c(-c5cc(S(=O)(=O)[O-])ccc5F)c5ccc([nH]5)c(-c5cc(S(=O)(=O)[O-])ccc5F)c5nc(c(-c6cc(S(=O)(=O)[O-])ccc6F)c6ccc3[nH]6)C=C5)C=C4)cc2)C(C)(C)C)CC1
REMARK SMILES IDX 14 1 13 2 12 3 11 4 10 5 8 6 9 7 7 8 6 9 5 11 1 12 2 13 3 14
REMARK SMILES IDX 87 15 4 17 86 18 82 19 83 20 84 21 85 22 15 23 16 24 17 25
REMARK SMILES IDX 18 26 19 27 20 28 81 29 21 30 80 31 22 32 23 33 24 34 74 35
REMARK SMILES IDX 25 36 79 37 73 38 75 39 26 40 78 41 72 42 71 43 27 45 59 46
REMARK SMILES IDX 39 47 58 48 40 49 43 50 57 51 76 52 41 53 42 54 56 56 77 57
REMARK SMILES IDX 44 58 28 59 29 60 37 61 30 62 36 63 38 64 35 65 31 66 32 67
REMARK SMILES IDX 33 68 34 69 60 70 61 71 69 72 62 73 68 74 70 75 67 76 63 77
REMARK SMILES IDX 64 78 65 79 66 80 45 81 46 82 54 83 47 84 53 85 55 86 52 87
REMARK SMILES IDX 48 88 49 89 50 90 51 91
REMARK H PARENT 6 10 2 16 75 44 43 55
REMARK Flexibility Score: inf
ROOT
ATOM      1  C   UNL A   1      31.613  29.584  25.282  1.00  0.00     0.202 C 
ENDROOT
BRANCH   1   2
ATOM      2  O   UNL A   1      30.611  29.723  24.278  1.00  0.00    -0.374 OA
BRANCH   2   3
ATOM      3  C   UNL A   1      30.878  29.043  23.048  1.00  0.00     0.202 C 
BRANCH   3   4
ATOM      4  C   UNL A   1      32.135  28.175  23.088  1.00  0.00     0.261 C 
BRANCH   4   5
ATOM      5  O   UNL A   1      31.945  26.987  22.291  1.00  0.00    -0.459 OA
BRANCH   5   6
ATOM      6  C   UNL A   1      32.830  25.968  22.351  1.00  0.00     0.361 C 
ATOM      7  O   UNL A   1      33.896  25.952  21.744  1.00  0.00    -0.245 OA
BRANCH   6   8
ATOM      8  C   UNL A   1      32.296  24.765  23.152  1.00  0.00     0.387 C 
BRANCH   8   9
ATOM      9  N   UNL A   1      32.593  24.674  24.609  1.00  0.00    -0.319 N 
ATOM     10  H   UNL A   1      33.066  25.532  24.889  1.00  0.00     0.349 HD
BRANCH   9  11
ATOM     11  C   UNL A   1      33.713  23.743  24.956  1.00  0.00     0.196 C 
ATOM     12  C   UNL A   1      37.610  21.800  24.813  1.00  0.00     0.332 C 
ATOM     13  N   UNL A   1      36.421  22.621  24.574  1.00  0.00    -0.337 N 
ATOM     14  C   UNL A   1      36.186  23.514  25.704  1.00  0.00     0.268 C 
ATOM     15  C   UNL A   1      35.243  21.781  24.355  1.00  0.00     0.268 C 
ATOM     16  H   UNL A   1      36.584  23.177  23.736  1.00  0.00     0.347 HD
ATOM     17  C   UNL A   1      34.997  24.437  25.454  1.00  0.00     0.126 C 
ATOM     18  C   UNL A   1      34.070  22.659  23.922  1.00  0.00     0.126 C 
ENDBRANCH   9  11
BRANCH   9  19
ATOM     19  C   UNL A   1      31.536  25.071  25.578  1.00  0.00     0.090 C 
ATOM     20  C   UNL A   1      31.944  26.336  26.337  1.00  0.00     0.078 C 
ATOM     21  C   UNL A   1      30.161  25.325  24.905  1.00  0.00     0.078 C 
ATOM     22  C   UNL A   1      31.223  23.972  26.636  1.00  0.00     0.078 C 
ENDBRANCH   9  19
ENDBRANCH   8   9
ENDBRANCH   6   8
ENDBRANCH   5   6
ENDBRANCH   4   5
ENDBRANCH   3   4
ENDBRANCH   2   3
ENDBRANCH   1   2
BRANCH   1  23
ATOM     23  C   UNL A   1      31.784  30.826  26.175  1.00  0.00     0.261 C 
BRANCH  23  24
ATOM     24  O   UNL A   1      32.771  30.633  27.212  1.00  0.00    -0.460 OA
BRANCH  24  25
ATOM     25  C   UNL A   1      33.495  31.737  27.520  1.00  0.00     0.338 C 
ATOM     26  O   UNL A   1      33.068  32.875  27.618  1.00  0.00    -0.246 OA
BRANCH  25  27
ATOM     27  C   UNL A   1      34.881  31.387  27.913  1.00  0.00     0.060 A 
ATOM     28  C   UNL A   1      35.102  30.061  28.303  1.00  0.00     0.016 A 
ATOM     29  C   UNL A   1      35.914  32.320  28.015  1.00  0.00     0.016 A 
ATOM     30  C   UNL A   1      36.321  29.682  28.871  1.00  0.00     0.010 A 
ATOM     31  C   UNL A   1      37.143  31.930  28.581  1.00  0.00     0.010 A 
ATOM     32  C   UNL A   1      37.348  30.618  29.056  1.00  0.00    -0.014 A 
BRANCH  32  33
ATOM     33  C   UNL A   1      38.548  30.227  29.867  1.00  0.00     0.031 A 
ATOM     34  C   UNL A   1      38.686  30.719  31.290  1.00  0.00     0.074 A 
ATOM     35  C   UNL A   1      39.471  29.366  29.390  1.00  0.00     0.049 A 
ATOM     36  N   UNL A   1      39.599  30.433  32.186  1.00  0.00    -0.248 NA
ATOM     37  C   UNL A   1      37.667  31.666  31.758  1.00  0.00     0.031 C 
ATOM     38  C   UNL A   1      39.475  28.792  28.045  1.00  0.00     0.029 A 
ATOM     39  N   UNL A   1      40.578  28.808  29.990  1.00  0.00    -0.354 N 
ATOM     40  C   UNL A   1      39.267  31.169  33.321  1.00  0.00     0.074 A 
ATOM     41  C   UNL A   1      38.108  31.964  32.970  1.00  0.00     0.031 C 
ATOM     42  C   UNL A   1      40.511  27.945  27.932  1.00  0.00     0.029 A 
ATOM     43  C   UNL A   1      41.273  27.936  29.181  1.00  0.00     0.049 A 
ATOM     44  H   UNL A   1      40.848  29.012  30.915  1.00  0.00     0.167 HD
ATOM     45  C   UNL A   1      39.845  31.168  34.550  1.00  0.00     0.034 A 
ATOM     46  C   UNL A   1      42.394  27.216  29.407  1.00  0.00     0.034 A 
ATOM     47  C   UNL A   1      40.996  30.373  34.908  1.00  0.00     0.049 A 
ATOM     48  C   UNL A   1      43.067  27.279  30.760  1.00  0.00     0.074 A 
ATOM     49  C   UNL A   1      41.626  30.275  36.138  1.00  0.00     0.029 A 
ATOM     50  N   UNL A   1      41.702  29.551  34.039  1.00  0.00    -0.354 N 
ATOM     51  N   UNL A   1      42.712  27.950  31.830  1.00  0.00    -0.248 NA
ATOM     52  C   UNL A   1      44.286  26.475  30.936  1.00  0.00     0.031 C 
ATOM     53  C   UNL A   1      42.760  29.470  35.991  1.00  0.00     0.029 A 
ATOM     54  C   UNL A   1      42.787  28.981  34.695  1.00  0.00     0.049 A 
ATOM     55  H   UNL A   1      41.469  29.394  33.096  1.00  0.00     0.167 HD
ATOM     56  C   UNL A   1      43.647  27.625  32.813  1.00  0.00     0.074 A 
ATOM     57  C   UNL A   1      44.574  26.689  32.211  1.00  0.00     0.031 C 
ATOM     58  C   UNL A   1      43.725  28.058  34.098  1.00  0.00     0.034 A 
BRANCH  45  59
ATOM     59  C   UNL A   1      39.258  32.100  35.588  1.00  0.00     0.023 A 
ATOM     60  C   UNL A   1      39.644  33.450  35.673  1.00  0.00     0.031 A 
ATOM     61  C   UNL A   1      38.340  31.621  36.539  1.00  0.00     0.131 A 
ATOM     62  C   UNL A   1      39.201  34.240  36.745  1.00  0.00     0.055 A 
ATOM     63  C   UNL A   1      37.824  32.440  37.544  1.00  0.00     0.041 A 
ATOM     64  F   UNL A   1      37.943  30.338  36.523  1.00  0.00    -0.206 F 
ATOM     65  C   UNL A   1      38.272  33.753  37.666  1.00  0.00     0.022 A 
BRANCH  62  66
ATOM     66  S   UNL A   1      40.007  35.841  37.028  1.00  0.00     0.124 S 
ATOM     67  O   UNL A   1      39.658  36.565  35.807  1.00  0.00    -0.237 OA
ATOM     68  O   UNL A   1      39.367  36.303  38.253  1.00  0.00    -0.237 OA
ATOM     69  O   UNL A   1      41.422  35.494  37.153  1.00  0.00    -0.744 OA
ENDBRANCH  62  66
ENDBRANCH  45  59
BRANCH  46  70
ATOM     70  C   UNL A   1      42.990  26.390  28.313  1.00  0.00     0.023 A 
ATOM     71  C   UNL A   1      44.063  26.857  27.536  1.00  0.00     0.031 A 
ATOM     72  C   UNL A   1      42.447  25.131  27.995  1.00  0.00     0.131 A 
ATOM     73  C   UNL A   1      44.534  26.089  26.458  1.00  0.00     0.055 A 
ATOM     74  C   UNL A   1      42.953  24.348  26.957  1.00  0.00     0.041 A 
ATOM     75  F   UNL A   1      41.416  24.638  28.701  1.00  0.00    -0.206 F 
ATOM     76  C   UNL A   1      43.996  24.831  26.174  1.00  0.00     0.022 A 
BRANCH  73  77
ATOM     77  S   UNL A   1      45.813  26.788  25.376  1.00  0.00     0.124 S 
ATOM     78  O   UNL A   1      46.853  27.139  26.335  1.00  0.00    -0.237 OA
ATOM     79  O   UNL A   1      46.106  25.665  24.491  1.00  0.00    -0.237 OA
ATOM     80  O   UNL A   1      45.139  27.919  24.741  1.00  0.00    -0.744 OA
ENDBRANCH  73  77
ENDBRANCH  46  70
BRANCH  58  81
ATOM     81  C   UNL A   1      44.827  27.490  34.966  1.00  0.00     0.023 A 
ATOM     82  C   UNL A   1      44.693  26.264  35.640  1.00  0.00     0.031 A 
ATOM     83  C   UNL A   1      46.039  28.191  35.115  1.00  0.00     0.131 A 
ATOM     84  C   UNL A   1      45.728  25.801  36.470  1.00  0.00     0.055 A 
ATOM     85  C   UNL A   1      47.090  27.694  35.889  1.00  0.00     0.041 A 
ATOM     86  F   UNL A   1      46.227  29.371  34.503  1.00  0.00    -0.206 F 
ATOM     87  C   UNL A   1      46.933  26.499  36.583  1.00  0.00     0.022 A 
BRANCH  84  88
ATOM     88  S   UNL A   1      45.446  24.319  37.479  1.00  0.00     0.124 S 
ATOM     89  O   UNL A   1      44.533  24.818  38.502  1.00  0.00    -0.237 OA
ATOM     90  O   UNL A   1      44.873  23.387  36.513  1.00  0.00    -0.237 OA
ATOM     91  O   UNL A   1      46.783  23.970  37.958  1.00  0.00    -0.744 OA
ENDBRANCH  84  88
ENDBRANCH  58  81
ENDBRANCH  32  33
ENDBRANCH  25  27
ENDBRANCH  24  25
ENDBRANCH  23  24
ENDBRANCH   1  23
TORSDOF 20
ENDMDL
MODEL 2
REMARK VINA RESULT:     -10.4      1.809      2.293
REMARK SMILES C[NH+]1CCC([N@@H+](CC(=O)OCCOCCOC(=O)c2ccc(-c3c4nc(c(-c5cc(S(=O)(=O)[O-])ccc5F)c5ccc([nH]5)c(-c5cc(S(=O)(=O)[O-])ccc5F)c5nc(c(-c6cc(S(=O)(=O)[O-])ccc6F)c6ccc3[nH]6)C=C5)C=C4)cc2)C(C)(C)C)CC1
REMARK SMILES IDX 14 1 13 2 12 3 11 4 10 5 8 6 9 7 7 8 6 9 5 11 1 12 2 13 3 14
REMARK SMILES IDX 87 15 4 17 86 18 82 19 83 20 84 21 85 22 15 23 16 24 17 25
REMARK SMILES IDX 18 26 19 27 20 28 81 29 21 30 80 31 22 32 23 33 24 34 74 35
REMARK SMILES IDX 25 36 79 37 73 38 75 39 26 40 78 41 72 42 71 43 27 45 59 46
REMARK SMILES IDX 39 47 58 48 40 49 43 50 57 51 76 52 41 53 42 54 56 56 77 57
REMARK SMILES IDX 44 58 28 59 29 60 37 61 30 62 36 63 38 64 35 65 31 66 32 67
REMARK SMILES IDX 33 68 34 69 60 70 61 71 69 72 62 73 68 74 70 75 67 76 63 77
REMARK SMILES IDX 64 78 65 79 66 80 45 81 46 82 54 83 47 84 53 85 55 86 52 87
REMARK SMILES IDX 48 88 49 89 50 90 51 91
REMARK H PARENT 6 10 2 16 75 44 43 55
REMARK Flexibility Score: inf
ROOT
ATOM      1  C   UNL A   1      32.213  30.062  25.557  1.00  0.00     0.202 C 
ENDROOT
BRANCH   1   2
ATOM      2  O   UNL A   1      31.396  28.900  25.669  1.00  0.00    -0.374 OA
BRANCH   2   3
ATOM      3  C   UNL A   1      31.565  28.147  26.873  1.00  0.00     0.202 C 
BRANCH   3   4
ATOM      4  C   UNL A   1      32.407  26.885  26.694  1.00  0.00     0.261 C 
BRANCH   4   5
ATOM      5  O   UNL A   1      31.588  25.710  26.876  1.00  0.00    -0.459 OA
BRANCH   5   6
ATOM      6  C   UNL A   1      32.092  24.477  26.649  1.00  0.00     0.361 C 
ATOM      7  O   UNL A   1      31.723  23.468  27.242  1.00  0.00    -0.245 OA
BRANCH   6   8
ATOM      8  C   UNL A   1      33.279  24.493  25.667  1.00  0.00     0.387 C 
BRANCH   8   9
ATOM      9  N   UNL A   1      33.187  23.706  24.405  1.00  0.00    -0.319 N 
ATOM     10  H   UNL A   1      32.444  23.017  24.516  1.00  0.00     0.349 HD
BRANCH   9  11
ATOM     11  C   UNL A   1      34.298  22.724  24.205  1.00  0.00     0.196 C 
ATOM     12  C   UNL A   1      37.791  20.267  25.067  1.00  0.00     0.332 C 
ATOM     13  N   UNL A   1      36.680  21.219  25.102  1.00  0.00    -0.337 N 
ATOM     14  C   UNL A   1      35.406  20.515  24.994  1.00  0.00     0.268 C 
ATOM     15  C   UNL A   1      36.796  22.198  24.019  1.00  0.00     0.268 C 
ATOM     16  H   UNL A   1      36.715  21.715  25.992  1.00  0.00     0.347 HD
ATOM     17  C   UNL A   1      34.223  21.472  25.102  1.00  0.00     0.126 C 
ATOM     18  C   UNL A   1      35.734  23.281  24.201  1.00  0.00     0.126 C 
ENDBRANCH   9  11
BRANCH   9  19
ATOM     19  C   UNL A   1      32.368  24.247  23.287  1.00  0.00     0.090 C 
ATOM     20  C   UNL A   1      32.383  25.777  23.295  1.00  0.00     0.078 C 
ATOM     21  C   UNL A   1      32.848  23.760  21.894  1.00  0.00     0.078 C 
ATOM     22  C   UNL A   1      30.880  23.794  23.335  1.00  0.00     0.078 C 
ENDBRANCH   9  19
ENDBRANCH   8   9
ENDBRANCH   6   8
ENDBRANCH   5   6
ENDBRANCH   4   5
ENDBRANCH   3   4
ENDBRANCH   2   3
ENDBRANCH   1   2
BRANCH   1  23
ATOM     23  C   UNL A   1      31.614  31.317  26.215  1.00  0.00     0.261 C 
BRANCH  23  24
ATOM     24  O   UNL A   1      32.144  31.558  27.538  1.00  0.00    -0.460 OA
BRANCH  24  25
ATOM     25  C   UNL A   1      33.003  32.604  27.623  1.00  0.00     0.338 C 
ATOM     26  O   UNL A   1      32.703  33.786  27.615  1.00  0.00    -0.246 OA
BRANCH  25  27
ATOM     27  C   UNL A   1      34.384  32.152  27.915  1.00  0.00     0.060 A 
ATOM     28  C   UNL A   1      34.549  30.790  28.192  1.00  0.00     0.016 A 
ATOM     29  C   UNL A   1      35.472  33.018  28.033  1.00  0.00     0.016 A 
ATOM     30  C   UNL A   1      35.770  30.304  28.664  1.00  0.00     0.010 A 
ATOM     31  C   UNL A   1      36.703  32.521  28.503  1.00  0.00     0.010 A 
ATOM     32  C   UNL A   1      36.856  31.166  28.865  1.00  0.00    -0.014 A 
BRANCH  32  33
ATOM     33  C   UNL A   1      38.070  30.651  29.581  1.00  0.00     0.031 A 
ATOM     34  C   UNL A   1      38.314  31.037  31.021  1.00  0.00     0.074 A 
ATOM     35  C   UNL A   1      38.910  29.770  28.998  1.00  0.00     0.049 A 
ATOM     36  N   UNL A   1      39.253  30.637  31.844  1.00  0.00    -0.248 NA
ATOM     37  C   UNL A   1      37.384  32.010  31.606  1.00  0.00     0.031 C 
ATOM     38  C   UNL A   1      38.807  29.288  27.621  1.00  0.00     0.029 A 
ATOM     39  N   UNL A   1      40.009  29.106  29.497  1.00  0.00    -0.354 N 
ATOM     40  C   UNL A   1      39.029  31.313  33.041  1.00  0.00     0.074 A 
ATOM     41  C   UNL A   1      37.907  32.199  32.807  1.00  0.00     0.031 C 
ATOM     42  C   UNL A   1      39.779  28.389  27.395  1.00  0.00     0.029 A 
ATOM     43  C   UNL A   1      40.603  28.251  28.596  1.00  0.00     0.049 A 
ATOM     44  H   UNL A   1      40.340  29.232  30.416  1.00  0.00     0.167 HD
ATOM     45  C   UNL A   1      39.670  31.195  34.232  1.00  0.00     0.034 A 
ATOM     46  C   UNL A   1      41.687  27.451  28.711  1.00  0.00     0.034 A 
ATOM     47  C   UNL A   1      40.785  30.310  34.473  1.00  0.00     0.049 A 
ATOM     48  C   UNL A   1      42.433  27.382  30.025  1.00  0.00     0.074 A 
ATOM     49  C   UNL A   1      41.473  30.093  35.656  1.00  0.00     0.029 A 
ATOM     50  N   UNL A   1      41.391  29.507  33.515  1.00  0.00    -0.354 N 
ATOM     51  N   UNL A   1      42.179  28.001  31.154  1.00  0.00    -0.248 NA
ATOM     52  C   UNL A   1      43.605  26.497  30.079  1.00  0.00     0.031 C 
ATOM     53  C   UNL A   1      42.543  29.232  35.394  1.00  0.00     0.029 A 
ATOM     54  C   UNL A   1      42.470  28.831  34.070  1.00  0.00     0.049 A 
ATOM     55  H   UNL A   1      41.098  29.429  32.578  1.00  0.00     0.167 HD
ATOM     56  C   UNL A   1      43.142  27.555  32.059  1.00  0.00     0.074 A 
ATOM     57  C   UNL A   1      43.973  26.607  31.348  1.00  0.00     0.031 C 
ATOM     58  C   UNL A   1      43.314  27.895  33.363  1.00  0.00     0.034 A 
BRANCH  45  59
ATOM     59  C   UNL A   1      39.200  32.090  35.359  1.00  0.00     0.023 A 
ATOM     60  C   UNL A   1      39.623  33.426  35.469  1.00  0.00     0.031 A 
ATOM     61  C   UNL A   1      38.359  31.584  36.367  1.00  0.00     0.131 A 
ATOM     62  C   UNL A   1      39.295  34.174  36.611  1.00  0.00     0.055 A 
ATOM     63  C   UNL A   1      37.954  32.366  37.450  1.00  0.00     0.041 A 
ATOM     64  F   UNL A   1      37.933  30.312  36.329  1.00  0.00    -0.206 F 
ATOM     65  C   UNL A   1      38.441  33.662  37.589  1.00  0.00     0.022 A 
BRANCH  62  66
ATOM     66  S   UNL A   1      40.161  35.744  36.891  1.00  0.00     0.124 S 
ATOM     67  O   UNL A   1      39.653  36.560  35.790  1.00  0.00    -0.237 OA
ATOM     68  O   UNL A   1      39.710  36.117  38.226  1.00  0.00    -0.237 OA
ATOM     69  O   UNL A   1      41.573  35.380  36.786  1.00  0.00    -0.744 OA
ENDBRANCH  62  66
ENDBRANCH  45  59
BRANCH  46  70
ATOM     70  C   UNL A   1      42.170  26.666  27.534  1.00  0.00     0.023 A 
ATOM     71  C   UNL A   1      41.861  25.305  27.379  1.00  0.00     0.031 A 
ATOM     72  C   UNL A   1      43.001  27.266  26.570  1.00  0.00     0.131 A 
ATOM     73  C   UNL A   1      42.410  24.579  26.309  1.00  0.00     0.055 A 
ATOM     74  C   UNL A   1      43.500  26.555  25.479  1.00  0.00     0.041 A 
ATOM     75  F   UNL A   1      43.333  28.563  26.673  1.00  0.00    -0.206 F 
ATOM     76  C   UNL A   1      43.214  25.200  25.349  1.00  0.00     0.022 A 
BRANCH  73  77
ATOM     77  S   UNL A   1      42.124  22.789  26.224  1.00  0.00     0.124 S 
ATOM     78  O   UNL A   1      40.668  22.722  26.200  1.00  0.00    -0.237 OA
ATOM     79  O   UNL A   1      42.805  22.433  24.983  1.00  0.00    -0.237 OA
ATOM     80  O   UNL A   1      42.755  22.286  27.443  1.00  0.00    -0.744 OA
ENDBRANCH  73  77
ENDBRANCH  46  70
BRANCH  58  81
ATOM     81  C   UNL A   1      44.423  27.205  34.129  1.00  0.00     0.023 A 
ATOM     82  C   UNL A   1      44.283  25.901  34.637  1.00  0.00     0.031 A 
ATOM     83  C   UNL A   1      45.646  27.866  34.348  1.00  0.00     0.131 A 
ATOM     84  C   UNL A   1      45.325  25.321  35.381  1.00  0.00     0.055 A 
ATOM     85  C   UNL A   1      46.702  27.260  35.031  1.00  0.00     0.041 A 
ATOM     86  F   UNL A   1      45.841  29.114  33.894  1.00  0.00    -0.206 F 
ATOM     87  C   UNL A   1      46.541  25.984  35.564  1.00  0.00     0.022 A 
BRANCH  84  88
ATOM     88  S   UNL A   1      45.038  23.722  36.190  1.00  0.00     0.124 S 
ATOM     89  O   UNL A   1      44.876  24.114  37.586  1.00  0.00    -0.237 OA
ATOM     90  O   UNL A   1      43.835  23.243  35.518  1.00  0.00    -0.237 OA
ATOM     91  O   UNL A   1      46.255  22.965  35.895  1.00  0.00    -0.744 OA
ENDBRANCH  84  88
ENDBRANCH  58  81
ENDBRANCH  32  33
ENDBRANCH  25  27
ENDBRANCH  24  25
ENDBRANCH  23  24
ENDBRANCH   1  23
TORSDOF 20
ENDMDL
MODEL 3
REMARK VINA RESULT:     -10.4      5.023     10.232
REMARK SMILES C[NH+]1CCC([N@@H+](CC(=O)OCCOCCOC(=O)c2ccc(-c3c4nc(c(-c5cc(S(=O)(=O)[O-])ccc5F)c5ccc([nH]5)c(-c5cc(S(=O)(=O)[O-])ccc5F)c5nc(c(-c6cc(S(=O)(=O)[O-])ccc6F)c6ccc3[nH]6)C=C5)C=C4)cc2)C(C)(C)C)CC1
REMARK SMILES IDX 14 1 13 2 12 3 11 4 10 5 8 6 9 7 7 8 6 9 5 11 1 12 2 13 3 14
REMARK SMILES IDX 87 15 4 17 86 18 82 19 83 20 84 21 85 22 15 23 16 24 17 25
REMARK SMILES IDX 18 26 19 27 20 28 81 29 21 30 80 31 22 32 23 33 24 34 74 35
REMARK SMILES IDX 25 36 79 37 73 38 75 39 26 40 78 41 72 42 71 43 27 45 59 46
REMARK SMILES IDX 39 47 58 48 40 49 43 50 57 51 76 52 41 53 42 54 56 56 77 57
REMARK SMILES IDX 44 58 28 59 29 60 37 61 30 62 36 63 38 64 35 65 31 66 32 67
REMARK SMILES IDX 33 68 34 69 60 70 61 71 69 72 62 73 68 74 70 75 67 76 63 77
REMARK SMILES IDX 64 78 65 79 66 80 45 81 46 82 54 83 47 84 53 85 55 86 52 87
REMARK SMILES IDX 48 88 49 89 50 90 51 91
REMARK H PARENT 6 10 2 16 75 44 43 55
REMARK Flexibility Score: inf
ROOT
ATOM      1  C   UNL A   1      35.979  20.648  24.958  1.00  0.00     0.202 C 
ENDROOT
BRANCH   1   2
ATOM      2  O   UNL A   1      35.175  21.790  25.242  1.00  0.00    -0.374 OA
BRANCH   2   3
ATOM      3  C   UNL A   1      34.644  21.850  26.569  1.00  0.00     0.202 C 
BRANCH   3   4
ATOM      4  C   UNL A   1      33.121  21.963  26.615  1.00  0.00     0.261 C 
BRANCH   4   5
ATOM      5  O   UNL A   1      32.726  23.351  26.676  1.00  0.00    -0.459 OA
BRANCH   5   6
ATOM      6  C   UNL A   1      31.421  23.693  26.745  1.00  0.00     0.361 C 
ATOM      7  O   UNL A   1      30.628  23.203  27.542  1.00  0.00    -0.245 OA
BRANCH   6   8
ATOM      8  C   UNL A   1      31.002  24.662  25.623  1.00  0.00     0.387 C 
BRANCH   8   9
ATOM      9  N   UNL A   1      32.044  25.208  24.709  1.00  0.00    -0.319 N 
ATOM     10  H   UNL A   1      32.938  24.785  24.960  1.00  0.00     0.349 HD
BRANCH   9  11
ATOM     11  C   UNL A   1      32.441  26.623  24.996  1.00  0.00     0.196 C 
ATOM     12  C   UNL A   1      33.254  30.268  27.237  1.00  0.00     0.332 C 
ATOM     13  N   UNL A   1      32.870  28.925  26.799  1.00  0.00    -0.337 N 
ATOM     14  C   UNL A   1      34.034  28.205  26.293  1.00  0.00     0.268 C 
ATOM     15  C   UNL A   1      31.840  28.990  25.761  1.00  0.00     0.268 C 
ATOM     16  H   UNL A   1      32.490  28.427  27.602  1.00  0.00     0.347 HD
ATOM     17  C   UNL A   1      33.683  26.774  25.897  1.00  0.00     0.126 C 
ATOM     18  C   UNL A   1      31.331  27.580  25.466  1.00  0.00     0.126 C 
ENDBRANCH   9  11
BRANCH   9  19
ATOM     19  C   UNL A   1      32.237  24.562  23.382  1.00  0.00     0.090 C 
ATOM     20  C   UNL A   1      31.349  23.323  23.248  1.00  0.00     0.078 C 
ATOM     21  C   UNL A   1      31.934  25.514  22.195  1.00  0.00     0.078 C 
ATOM     22  C   UNL A   1      33.706  24.115  23.121  1.00  0.00     0.078 C 
ENDBRANCH   9  19
ENDBRANCH   8   9
ENDBRANCH   6   8
ENDBRANCH   5   6
ENDBRANCH   4   5
ENDBRANCH   3   4
ENDBRANCH   2   3
ENDBRANCH   1   2
BRANCH   1  23
ATOM     23  C   UNL A   1      37.487  20.945  24.882  1.00  0.00     0.261 C 
BRANCH  23  24
ATOM     24  O   UNL A   1      37.922  21.875  25.899  1.00  0.00    -0.460 OA
BRANCH  24  25
ATOM     25  C   UNL A   1      39.242  21.812  26.199  1.00  0.00     0.338 C 
ATOM     26  O   UNL A   1      40.039  20.989  25.778  1.00  0.00    -0.246 OA
BRANCH  25  27
ATOM     27  C   UNL A   1      39.680  22.991  26.983  1.00  0.00     0.060 A 
ATOM     28  C   UNL A   1      39.007  24.192  26.730  1.00  0.00     0.016 A 
ATOM     29  C   UNL A   1      40.772  22.979  27.851  1.00  0.00     0.016 A 
ATOM     30  C   UNL A   1      39.470  25.393  27.274  1.00  0.00     0.010 A 
ATOM     31  C   UNL A   1      41.230  24.192  28.402  1.00  0.00     0.010 A 
ATOM     32  C   UNL A   1      40.611  25.420  28.087  1.00  0.00    -0.014 A 
BRANCH  32  33
ATOM     33  C   UNL A   1      41.202  26.746  28.463  1.00  0.00     0.031 A 
ATOM     34  C   UNL A   1      42.618  27.081  28.056  1.00  0.00     0.074 A 
ATOM     35  C   UNL A   1      40.468  27.694  29.082  1.00  0.00     0.049 A 
ATOM     36  N   UNL A   1      43.289  28.198  28.209  1.00  0.00    -0.248 NA
ATOM     37  C   UNL A   1      43.383  26.012  27.401  1.00  0.00     0.031 C 
ATOM     38  C   UNL A   1      39.085  27.534  29.529  1.00  0.00     0.029 A 
ATOM     39  N   UNL A   1      40.776  28.992  29.426  1.00  0.00    -0.354 N 
ATOM     40  C   UNL A   1      44.553  27.963  27.674  1.00  0.00     0.074 A 
ATOM     41  C   UNL A   1      44.572  26.576  27.259  1.00  0.00     0.031 C 
ATOM     42  C   UNL A   1      38.657  28.691  30.059  1.00  0.00     0.029 A 
ATOM     43  C   UNL A   1      39.741  29.673  30.027  1.00  0.00     0.049 A 
ATOM     44  H   UNL A   1      41.658  29.398  29.256  1.00  0.00     0.167 HD
ATOM     45  C   UNL A   1      45.594  28.820  27.513  1.00  0.00     0.034 A 
ATOM     46  C   UNL A   1      39.666  30.935  30.506  1.00  0.00     0.034 A 
ATOM     47  C   UNL A   1      45.579  30.206  27.919  1.00  0.00     0.049 A 
ATOM     48  C   UNL A   1      40.859  31.857  30.381  1.00  0.00     0.074 A 
ATOM     49  C   UNL A   1      46.570  31.160  27.761  1.00  0.00     0.029 A 
ATOM     50  N   UNL A   1      44.531  30.835  28.579  1.00  0.00    -0.354 N 
ATOM     51  N   UNL A   1      42.030  31.626  29.836  1.00  0.00    -0.248 NA
ATOM     52  C   UNL A   1      40.711  33.213  30.927  1.00  0.00     0.031 C 
ATOM     53  C   UNL A   1      46.160  32.335  28.400  1.00  0.00     0.029 A 
ATOM     54  C   UNL A   1      44.872  32.149  28.874  1.00  0.00     0.049 A 
ATOM     55  H   UNL A   1      43.672  30.412  28.805  1.00  0.00     0.167 HD
ATOM     56  C   UNL A   1      42.745  32.818  29.948  1.00  0.00     0.074 A 
ATOM     57  C   UNL A   1      41.869  33.768  30.601  1.00  0.00     0.031 C 
ATOM     58  C   UNL A   1      44.010  33.099  29.539  1.00  0.00     0.034 A 
BRANCH  45  59
ATOM     59  C   UNL A   1      46.861  28.258  26.905  1.00  0.00     0.023 A 
ATOM     60  C   UNL A   1      47.114  28.326  25.524  1.00  0.00     0.031 A 
ATOM     61  C   UNL A   1      47.806  27.598  27.711  1.00  0.00     0.131 A 
ATOM     62  C   UNL A   1      48.219  27.655  24.979  1.00  0.00     0.055 A 
ATOM     63  C   UNL A   1      48.957  27.019  27.175  1.00  0.00     0.041 A 
ATOM     64  F   UNL A   1      47.616  27.484  29.036  1.00  0.00    -0.206 F 
ATOM     65  C   UNL A   1      49.158  27.024  25.798  1.00  0.00     0.022 A 
BRANCH  62  66
ATOM     66  S   UNL A   1      48.302  27.450  23.178  1.00  0.00     0.124 S 
ATOM     67  O   UNL A   1      47.141  28.222  22.741  1.00  0.00    -0.237 OA
ATOM     68  O   UNL A   1      49.606  28.017  22.857  1.00  0.00    -0.237 OA
ATOM     69  O   UNL A   1      48.185  26.005  22.992  1.00  0.00    -0.744 OA
ENDBRANCH  62  66
ENDBRANCH  45  59
BRANCH  46  70
ATOM     70  C   UNL A   1      38.423  31.407  31.189  1.00  0.00     0.023 A 
ATOM     71  C   UNL A   1      37.420  32.104  30.497  1.00  0.00     0.031 A 
ATOM     72  C   UNL A   1      38.253  31.210  32.572  1.00  0.00     0.131 A 
ATOM     73  C   UNL A   1      36.311  32.611  31.194  1.00  0.00     0.055 A 
ATOM     74  C   UNL A   1      37.123  31.669  33.251  1.00  0.00     0.041 A 
ATOM     75  F   UNL A   1      39.184  30.556  33.285  1.00  0.00    -0.206 F 
ATOM     76  C   UNL A   1      36.149  32.384  32.562  1.00  0.00     0.022 A 
BRANCH  73  77
ATOM     77  S   UNL A   1      35.112  33.642  30.303  1.00  0.00     0.124 S 
ATOM     78  O   UNL A   1      34.747  34.620  31.321  1.00  0.00    -0.237 OA
ATOM     79  O   UNL A   1      35.911  34.141  29.189  1.00  0.00    -0.237 OA
ATOM     80  O   UNL A   1      34.058  32.698  29.936  1.00  0.00    -0.744 OA
ENDBRANCH  73  77
ENDBRANCH  46  70
BRANCH  58  81
ATOM     81  C   UNL A   1      44.516  34.511  29.743  1.00  0.00     0.023 A 
ATOM     82  C   UNL A   1      44.346  35.515  28.774  1.00  0.00     0.031 A 
ATOM     83  C   UNL A   1      45.178  34.858  30.936  1.00  0.00     0.131 A 
ATOM     84  C   UNL A   1      44.875  36.799  28.991  1.00  0.00     0.055 A 
ATOM     85  C   UNL A   1      45.644  36.152  31.175  1.00  0.00     0.041 A 
ATOM     86  F   UNL A   1      45.377  33.943  31.898  1.00  0.00    -0.206 F 
ATOM     87  C   UNL A   1      45.505  37.129  30.194  1.00  0.00     0.022 A 
BRANCH  84  88
ATOM     88  S   UNL A   1      44.814  38.012  27.643  1.00  0.00     0.124 S 
ATOM     89  O   UNL A   1      46.064  37.745  26.939  1.00  0.00    -0.237 OA
ATOM     90  O   UNL A   1      43.593  37.636  26.939  1.00  0.00    -0.237 OA
ATOM     91  O   UNL A   1      44.757  39.297  28.339  1.00  0.00    -0.744 OA
ENDBRANCH  84  88
ENDBRANCH  58  81
ENDBRANCH  32  33
ENDBRANCH  25  27
ENDBRANCH  24  25
ENDBRANCH  23  24
ENDBRANCH   1  23
TORSDOF 20
ENDMDL
