MODEL 1
REMARK VINA RESULT:     -12.4      0.000      0.000
REMARK SMILES O=C(OCCOCCOC(=O)c1ccc(-c2c3nc(c(-c4cc(S(=O)(=O)[O-])ccc4F)c4ccc([nH]4)c(-c4cc(S(=O)(=O)[O-])ccc4F)c4nc(c(-c5cc(S(=O)(=O)[O-])ccc5F)c5ccc2[nH]5)C=C4)C=C3)cc1)C1=Cc2c(Cl)cc(Cl)cc2O[C@@H]1C(F)(F)F
REMARK SMILES IDX 7 1 6 2 5 3 4 4 3 5 2 6 1 7 75 8 76 9 86 10 77 11 85 12
REMARK SMILES IDX 78 13 84 14 79 15 80 16 83 17 81 18 82 19 87 20 88 21 89 22
REMARK SMILES IDX 90 23 8 24 9 25 10 26 11 27 12 28 13 29 74 30 14 31 73 32
REMARK SMILES IDX 15 33 16 34 17 35 67 36 18 37 72 38 66 39 68 40 19 41 71 42
REMARK SMILES IDX 65 43 64 44 20 46 52 47 32 48 51 49 33 50 36 51 50 52 69 53
REMARK SMILES IDX 34 54 35 55 49 57 70 58 37 59 21 60 22 61 30 62 23 63 29 64
REMARK SMILES IDX 31 65 28 66 24 67 25 68 26 69 27 70 53 71 54 72 62 73 55 74
REMARK SMILES IDX 61 75 63 76 60 77 56 78 57 79 58 80 59 81 38 82 39 83 47 84
REMARK SMILES IDX 40 85 46 86 48 87 45 88 41 89 42 90 43 91 44 92
REMARK H PARENT 68 45 36 56
REMARK Flexibility Score: inf
ROOT
ATOM      1  C   UNL A   1      35.588  20.855  24.517  1.00  0.00     0.202 C 
ENDROOT
BRANCH   1   2
ATOM      2  O   UNL A   1      34.362  20.302  25.039  1.00  0.00    -0.374 OA
BRANCH   2   3
ATOM      3  C   UNL A   1      32.805  20.597  24.690  1.00  0.00     0.202 C 
BRANCH   3   4
ATOM      4  C   UNL A   1      31.399  21.994  25.612  1.00  0.00     0.261 C 
BRANCH   4   5
ATOM      5  O   UNL A   1      30.862  23.288  24.984  1.00  0.00    -0.460 OA
BRANCH   5   6
ATOM      6  C   UNL A   1      31.055  24.358  25.758  1.00  0.00     0.338 C 
ATOM      7  O   UNL A   1      30.434  24.733  26.720  1.00  0.00    -0.246 OA
BRANCH   6   8
ATOM      8  C   UNL A   1      31.940  25.046  24.844  1.00  0.00     0.087 C 
ATOM      9  C   UNL A   1      31.241  26.124  24.114  1.00  0.00     0.029 C 
ATOM     10  C   UNL A   1      33.370  25.324  26.117  1.00  0.00     0.316 C 
ATOM     11  C   UNL A   1      31.441  27.896  24.479  1.00  0.00     0.036 A 
ATOM     12  O   UNL A   1      33.567  27.191  26.574  1.00  0.00    -0.475 OA
ATOM     13  C   UNL A   1      30.605  28.829  23.916  1.00  0.00     0.053 A 
ATOM     14  C   UNL A   1      32.522  28.436  25.732  1.00  0.00     0.130 A 
ATOM     15  Cl  UNL A   1      29.503  28.475  22.654  1.00  0.00    -0.083 Cl
ATOM     16  C   UNL A   1      30.650  30.111  24.480  1.00  0.00     0.042 A 
ATOM     17  C   UNL A   1      32.426  29.682  26.283  1.00  0.00     0.067 A 
ATOM     18  C   UNL A   1      31.469  30.492  25.617  1.00  0.00     0.046 A 
ATOM     19  Cl  UNL A   1      31.133  32.078  26.229  1.00  0.00    -0.084 Cl
BRANCH  10  20
ATOM     20  C   UNL A   1      34.395  24.270  25.493  1.00  0.00     0.430 C 
ATOM     21  F   UNL A   1      35.683  24.655  25.457  1.00  0.00    -0.167 F 
ATOM     22  F   UNL A   1      34.387  23.172  26.309  1.00  0.00    -0.167 F 
ATOM     23  F   UNL A   1      34.055  23.789  24.276  1.00  0.00    -0.167 F 
ENDBRANCH  10  20
ENDBRANCH   6   8
ENDBRANCH   5   6
ENDBRANCH   4   5
ENDBRANCH   3   4
ENDBRANCH   2   3
ENDBRANCH   1   2
BRANCH   1  24
ATOM     24  C   UNL A   1      36.877  20.400  25.195  1.00  0.00     0.261 C 
BRANCH  24  25
ATOM     25  O   UNL A   1      37.582  21.482  25.779  1.00  0.00    -0.460 OA
BRANCH  25  26
ATOM     26  C   UNL A   1      38.883  21.202  26.020  1.00  0.00     0.338 C 
ATOM     27  O   UNL A   1      39.454  20.137  25.867  1.00  0.00    -0.246 OA
BRANCH  26  28
ATOM     28  C   UNL A   1      39.536  22.428  26.503  1.00  0.00     0.060 A 
ATOM     29  C   UNL A   1      39.033  23.648  26.048  1.00  0.00     0.016 A 
ATOM     30  C   UNL A   1      40.615  22.382  27.400  1.00  0.00     0.016 A 
ATOM     31  C   UNL A   1      39.590  24.829  26.510  1.00  0.00     0.010 A 
ATOM     32  C   UNL A   1      41.181  23.565  27.854  1.00  0.00     0.010 A 
ATOM     33  C   UNL A   1      40.668  24.788  27.402  1.00  0.00    -0.014 A 
BRANCH  33  34
ATOM     34  C   UNL A   1      41.420  26.027  27.647  1.00  0.00     0.031 A 
ATOM     35  C   UNL A   1      40.731  27.078  28.459  1.00  0.00     0.074 A 
ATOM     36  C   UNL A   1      42.673  26.178  27.194  1.00  0.00     0.049 A 
ATOM     37  N   UNL A   1      41.152  28.260  28.811  1.00  0.00    -0.248 NA
ATOM     38  C   UNL A   1      39.378  26.744  28.938  1.00  0.00     0.031 C 
ATOM     39  C   UNL A   1      43.430  25.173  26.450  1.00  0.00     0.029 A 
ATOM     40  N   UNL A   1      43.533  27.238  27.301  1.00  0.00    -0.354 N 
ATOM     41  C   UNL A   1      40.123  28.806  29.565  1.00  0.00     0.074 A 
ATOM     42  C   UNL A   1      39.043  27.846  29.584  1.00  0.00     0.031 C 
ATOM     43  C   UNL A   1      44.650  25.665  26.173  1.00  0.00     0.029 A 
ATOM     44  C   UNL A   1      44.736  27.037  26.667  1.00  0.00     0.049 A 
ATOM     45  H   UNL A   1      43.310  28.065  27.784  1.00  0.00     0.167 HD
ATOM     46  C   UNL A   1      40.091  30.007  30.184  1.00  0.00     0.034 A 
ATOM     47  C   UNL A   1      45.766  27.887  26.489  1.00  0.00     0.034 A 
ATOM     48  C   UNL A   1      41.164  30.961  30.090  1.00  0.00     0.049 A 
ATOM     49  C   UNL A   1      45.651  29.276  27.075  1.00  0.00     0.074 A 
ATOM     50  C   UNL A   1      41.241  32.226  30.638  1.00  0.00     0.029 A 
ATOM     51  N   UNL A   1      42.340  30.761  29.375  1.00  0.00    -0.354 N 
ATOM     52  N   UNL A   1      44.671  29.797  27.782  1.00  0.00    -0.248 NA
ATOM     53  C   UNL A   1      46.775  30.189  26.843  1.00  0.00     0.031 C 
ATOM     54  C   UNL A   1      42.416  32.825  30.176  1.00  0.00     0.029 A 
ATOM     55  C   UNL A   1      43.130  31.896  29.433  1.00  0.00     0.049 A 
ATOM     56  H   UNL A   1      42.576  29.933  28.898  1.00  0.00     0.167 HD
ATOM     57  C   UNL A   1      45.083  31.086  28.113  1.00  0.00     0.074 A 
ATOM     58  C   UNL A   1      46.399  31.257  27.533  1.00  0.00     0.031 C 
ATOM     59  C   UNL A   1      44.439  32.039  28.838  1.00  0.00     0.034 A 
BRANCH  46  60
ATOM     60  C   UNL A   1      38.825  30.363  30.919  1.00  0.00     0.023 A 
ATOM     61  C   UNL A   1      37.786  31.080  30.300  1.00  0.00     0.031 A 
ATOM     62  C   UNL A   1      38.692  30.053  32.283  1.00  0.00     0.131 A 
ATOM     63  C   UNL A   1      36.702  31.536  31.064  1.00  0.00     0.055 A 
ATOM     64  C   UNL A   1      37.564  30.427  33.015  1.00  0.00     0.041 A 
ATOM     65  F   UNL A   1      39.671  29.410  32.938  1.00  0.00    -0.206 F 
ATOM     66  C   UNL A   1      36.568  31.188  32.410  1.00  0.00     0.022 A 
BRANCH  63  67
ATOM     67  S   UNL A   1      35.569  32.743  30.322  1.00  0.00     0.124 S 
ATOM     68  O   UNL A   1      34.352  32.523  31.101  1.00  0.00    -0.237 OA
ATOM     69  O   UNL A   1      36.255  34.008  30.555  1.00  0.00    -0.237 OA
ATOM     70  O   UNL A   1      35.490  32.324  28.924  1.00  0.00    -0.744 OA
ENDBRANCH  63  67
ENDBRANCH  46  60
BRANCH  47  71
ATOM     71  C   UNL A   1      46.959  27.484  25.687  1.00  0.00     0.023 A 
ATOM     72  C   UNL A   1      47.109  27.881  24.349  1.00  0.00     0.031 A 
ATOM     73  C   UNL A   1      47.943  26.639  26.234  1.00  0.00     0.131 A 
ATOM     74  C   UNL A   1      48.187  27.395  23.590  1.00  0.00     0.055 A 
ATOM     75  C   UNL A   1      49.047  26.210  25.494  1.00  0.00     0.041 A 
ATOM     76  F   UNL A   1      47.847  26.218  27.505  1.00  0.00    -0.206 F 
ATOM     77  C   UNL A   1      49.165  26.577  24.159  1.00  0.00     0.022 A 
BRANCH  74  78
ATOM     78  S   UNL A   1      48.235  27.760  21.813  1.00  0.00     0.124 S 
ATOM     79  O   UNL A   1      49.376  28.665  21.728  1.00  0.00    -0.237 OA
ATOM     80  O   UNL A   1      48.424  26.432  21.236  1.00  0.00    -0.237 OA
ATOM     81  O   UNL A   1      46.932  28.369  21.556  1.00  0.00    -0.744 OA
ENDBRANCH  74  78
ENDBRANCH  47  71
BRANCH  59  82
ATOM     82  C   UNL A   1      45.181  33.327  29.099  1.00  0.00     0.023 A 
ATOM     83  C   UNL A   1      45.097  34.429  28.231  1.00  0.00     0.031 A 
ATOM     84  C   UNL A   1      45.974  33.456  30.255  1.00  0.00     0.131 A 
ATOM     85  C   UNL A   1      45.838  35.587  28.503  1.00  0.00     0.055 A 
ATOM     86  C   UNL A   1      46.645  34.639  30.561  1.00  0.00     0.041 A 
ATOM     87  F   UNL A   1      46.096  32.433  31.117  1.00  0.00    -0.206 F 
ATOM     88  C   UNL A   1      46.590  35.710  29.674  1.00  0.00     0.022 A 
BRANCH  85  89
ATOM     89  S   UNL A   1      45.898  36.894  27.247  1.00  0.00     0.124 S 
ATOM     90  O   UNL A   1      46.870  37.819  27.821  1.00  0.00    -0.237 OA
ATOM     91  O   UNL A   1      46.334  36.169  26.059  1.00  0.00    -0.237 OA
ATOM     92  O   UNL A   1      44.523  37.390  27.203  1.00  0.00    -0.744 OA
ENDBRANCH  85  89
ENDBRANCH  59  82
ENDBRANCH  33  34
ENDBRANCH  26  28
ENDBRANCH  25  26
ENDBRANCH  24  25
ENDBRANCH   1  24
TORSDOF 18
ENDMDL
MODEL 2
REMARK VINA RESULT:     -12.4      5.106      8.522
REMARK SMILES O=C(OCCOCCOC(=O)c1ccc(-c2c3nc(c(-c4cc(S(=O)(=O)[O-])ccc4F)c4ccc([nH]4)c(-c4cc(S(=O)(=O)[O-])ccc4F)c4nc(c(-c5cc(S(=O)(=O)[O-])ccc5F)c5ccc2[nH]5)C=C4)C=C3)cc1)C1=Cc2c(Cl)cc(Cl)cc2O[C@@H]1C(F)(F)F
REMARK SMILES IDX 7 1 6 2 5 3 4 4 3 5 2 6 1 7 75 8 76 9 86 10 77 11 85 12
REMARK SMILES IDX 78 13 84 14 79 15 80 16 83 17 81 18 82 19 87 20 88 21 89 22
REMARK SMILES IDX 90 23 8 24 9 25 10 26 11 27 12 28 13 29 74 30 14 31 73 32
REMARK SMILES IDX 15 33 16 34 17 35 67 36 18 37 72 38 66 39 68 40 19 41 71 42
REMARK SMILES IDX 65 43 64 44 20 46 52 47 32 48 51 49 33 50 36 51 50 52 69 53
REMARK SMILES IDX 34 54 35 55 49 57 70 58 37 59 21 60 22 61 30 62 23 63 29 64
REMARK SMILES IDX 31 65 28 66 24 67 25 68 26 69 27 70 53 71 54 72 62 73 55 74
REMARK SMILES IDX 61 75 63 76 60 77 56 78 57 79 58 80 59 81 38 82 39 83 47 84
REMARK SMILES IDX 40 85 46 86 48 87 45 88 41 89 42 90 43 91 44 92
REMARK H PARENT 68 45 36 56
REMARK Flexibility Score: inf
ROOT
ATOM      1  C   UNL A   1      31.267  31.938  26.605  1.00  0.00     0.202 C 
ENDROOT
BRANCH   1   2
ATOM      2  O   UNL A   1      32.092  30.761  26.490  1.00  0.00    -0.374 OA
BRANCH   2   3
ATOM      3  C   UNL A   1      32.030  29.487  25.485  1.00  0.00     0.202 C 
BRANCH   3   4
ATOM      4  C   UNL A   1      33.628  28.175  24.780  1.00  0.00     0.261 C 
BRANCH   4   5
ATOM      5  O   UNL A   1      34.019  26.817  25.380  1.00  0.00    -0.460 OA
BRANCH   5   6
ATOM      6  C   UNL A   1      33.086  25.880  25.194  1.00  0.00     0.338 C 
ATOM      7  O   UNL A   1      32.222  25.498  25.941  1.00  0.00    -0.246 OA
BRANCH   6   8
ATOM      8  C   UNL A   1      33.710  25.274  24.039  1.00  0.00     0.087 C 
ATOM      9  C   UNL A   1      34.684  24.233  24.427  1.00  0.00     0.029 C 
ATOM     10  C   UNL A   1      32.067  24.943  23.072  1.00  0.00     0.316 C 
ATOM     11  C   UNL A   1      34.376  22.445  24.279  1.00  0.00     0.036 A 
ATOM     12  O   UNL A   1      31.678  23.053  22.952  1.00  0.00    -0.475 OA
ATOM     13  C   UNL A   1      35.226  21.534  24.856  1.00  0.00     0.053 A 
ATOM     14  C   UNL A   1      32.877  21.845  23.627  1.00  0.00     0.130 A 
ATOM     15  Cl  UNL A   1      36.750  21.949  25.518  1.00  0.00    -0.083 Cl
ATOM     16  C   UNL A   1      34.751  20.219  24.937  1.00  0.00     0.042 A 
ATOM     17  C   UNL A   1      32.457  20.563  23.839  1.00  0.00     0.067 A 
ATOM     18  C   UNL A   1      33.437  19.780  24.503  1.00  0.00     0.046 A 
ATOM     19  Cl  UNL A   1      33.053  18.150  24.948  1.00  0.00    -0.084 Cl
BRANCH  10  20
ATOM     20  C   UNL A   1      32.273  26.057  21.948  1.00  0.00     0.430 C 
ATOM     21  F   UNL A   1      31.692  25.808  20.761  1.00  0.00    -0.167 F 
ATOM     22  F   UNL A   1      31.663  27.197  22.397  1.00  0.00    -0.167 F 
ATOM     23  F   UNL A   1      33.556  26.424  21.730  1.00  0.00    -0.167 F 
ENDBRANCH  10  20
ENDBRANCH   6   8
ENDBRANCH   5   6
ENDBRANCH   4   5
ENDBRANCH   3   4
ENDBRANCH   2   3
ENDBRANCH   1   2
BRANCH   1  24
ATOM     24  C   UNL A   1      32.002  33.264  26.783  1.00  0.00     0.261 C 
BRANCH  24  25
ATOM     25  O   UNL A   1      32.507  33.420  28.099  1.00  0.00    -0.460 OA
BRANCH  25  26
ATOM     26  C   UNL A   1      33.576  34.243  28.165  1.00  0.00     0.338 C 
ATOM     27  O   UNL A   1      33.608  35.439  27.932  1.00  0.00    -0.246 OA
BRANCH  26  28
ATOM     28  C   UNL A   1      34.742  33.453  28.587  1.00  0.00     0.060 A 
ATOM     29  C   UNL A   1      34.498  32.210  29.174  1.00  0.00     0.016 A 
ATOM     30  C   UNL A   1      36.053  33.917  28.398  1.00  0.00     0.016 A 
ATOM     31  C   UNL A   1      35.567  31.412  29.548  1.00  0.00     0.010 A 
ATOM     32  C   UNL A   1      37.124  33.123  28.785  1.00  0.00     0.010 A 
ATOM     33  C   UNL A   1      36.877  31.872  29.364  1.00  0.00    -0.014 A 
BRANCH  33  34
ATOM     34  C   UNL A   1      37.971  31.148  30.026  1.00  0.00     0.031 A 
ATOM     35  C   UNL A   1      38.220  31.480  31.464  1.00  0.00     0.074 A 
ATOM     36  C   UNL A   1      38.678  30.212  29.374  1.00  0.00     0.049 A 
ATOM     37  N   UNL A   1      39.119  31.007  32.279  1.00  0.00    -0.248 NA
ATOM     38  C   UNL A   1      37.324  32.486  32.060  1.00  0.00     0.031 C 
ATOM     39  C   UNL A   1      38.451  29.791  27.993  1.00  0.00     0.029 A 
ATOM     40  N   UNL A   1      39.727  29.441  29.795  1.00  0.00    -0.354 N 
ATOM     41  C   UNL A   1      38.891  31.648  33.489  1.00  0.00     0.074 A 
ATOM     42  C   UNL A   1      37.796  32.570  33.290  1.00  0.00     0.031 C 
ATOM     43  C   UNL A   1      39.336  28.829  27.681  1.00  0.00     0.029 A 
ATOM     44  C   UNL A   1      40.225  28.609  28.820  1.00  0.00     0.049 A 
ATOM     45  H   UNL A   1      40.091  29.479  30.708  1.00  0.00     0.167 HD
ATOM     46  C   UNL A   1      39.544  31.474  34.659  1.00  0.00     0.034 A 
ATOM     47  C   UNL A   1      41.297  27.793  28.850  1.00  0.00     0.034 A 
ATOM     48  C   UNL A   1      40.669  30.589  34.800  1.00  0.00     0.049 A 
ATOM     49  C   UNL A   1      42.096  27.719  30.132  1.00  0.00     0.074 A 
ATOM     50  C   UNL A   1      41.441  30.350  35.919  1.00  0.00     0.029 A 
ATOM     51  N   UNL A   1      41.201  29.817  33.772  1.00  0.00    -0.354 N 
ATOM     52  N   UNL A   1      41.884  28.332  31.277  1.00  0.00    -0.248 NA
ATOM     53  C   UNL A   1      43.272  26.843  30.129  1.00  0.00     0.031 C 
ATOM     54  C   UNL A   1      42.494  29.511  35.546  1.00  0.00     0.029 A 
ATOM     55  C   UNL A   1      42.317  29.133  34.223  1.00  0.00     0.049 A 
ATOM     56  H   UNL A   1      40.837  29.764  32.860  1.00  0.00     0.167 HD
ATOM     57  C   UNL A   1      42.880  27.882  32.141  1.00  0.00     0.074 A 
ATOM     58  C   UNL A   1      43.684  26.944  31.385  1.00  0.00     0.031 C 
ATOM     59  C   UNL A   1      43.105  28.205  33.442  1.00  0.00     0.034 A 
BRANCH  46  60
ATOM     60  C   UNL A   1      39.102  32.327  35.820  1.00  0.00     0.023 A 
ATOM     61  C   UNL A   1      39.546  33.652  35.975  1.00  0.00     0.031 A 
ATOM     62  C   UNL A   1      38.294  31.779  36.830  1.00  0.00     0.131 A 
ATOM     63  C   UNL A   1      39.249  34.353  37.154  1.00  0.00     0.055 A 
ATOM     64  C   UNL A   1      37.921  32.516  37.954  1.00  0.00     0.041 A 
ATOM     65  F   UNL A   1      37.877  30.505  36.757  1.00  0.00    -0.206 F 
ATOM     66  C   UNL A   1      38.414  33.806  38.130  1.00  0.00     0.022 A 
BRANCH  63  67
ATOM     67  S   UNL A   1      40.119  35.912  37.474  1.00  0.00     0.124 S 
ATOM     68  O   UNL A   1      39.977  36.599  36.192  1.00  0.00    -0.237 OA
ATOM     69  O   UNL A   1      39.363  36.475  38.586  1.00  0.00    -0.237 OA
ATOM     70  O   UNL A   1      41.479  35.485  37.796  1.00  0.00    -0.744 OA
ENDBRANCH  63  67
ENDBRANCH  46  60
BRANCH  47  71
ATOM     71  C   UNL A   1      41.713  27.033  27.636  1.00  0.00     0.023 A 
ATOM     72  C   UNL A   1      41.513  25.647  27.537  1.00  0.00     0.031 A 
ATOM     73  C   UNL A   1      42.375  27.677  26.574  1.00  0.00     0.131 A 
ATOM     74  C   UNL A   1      42.014  24.943  26.429  1.00  0.00     0.055 A 
ATOM     75  C   UNL A   1      42.815  26.983  25.445  1.00  0.00     0.041 A 
ATOM     76  F   UNL A   1      42.604  28.999  26.617  1.00  0.00    -0.206 F 
ATOM     77  C   UNL A   1      42.648  25.604  25.375  1.00  0.00     0.022 A 
BRANCH  74  78
ATOM     78  S   UNL A   1      41.923  23.131  26.434  1.00  0.00     0.124 S 
ATOM     79  O   UNL A   1      42.705  22.799  27.620  1.00  0.00    -0.237 OA
ATOM     80  O   UNL A   1      40.485  22.900  26.528  1.00  0.00    -0.237 OA
ATOM     81  O   UNL A   1      42.531  22.757  25.159  1.00  0.00    -0.744 OA
ENDBRANCH  74  78
ENDBRANCH  47  71
BRANCH  59  82
ATOM     82  C   UNL A   1      44.228  27.487  34.148  1.00  0.00     0.023 A 
ATOM     83  C   UNL A   1      44.059  26.215  34.722  1.00  0.00     0.031 A 
ATOM     84  C   UNL A   1      45.499  28.085  34.230  1.00  0.00     0.131 A 
ATOM     85  C   UNL A   1      45.128  25.611  35.400  1.00  0.00     0.055 A 
ATOM     86  C   UNL A   1      46.579  27.444  34.836  1.00  0.00     0.041 A 
ATOM     87  F   UNL A   1      45.716  29.302  33.705  1.00  0.00    -0.206 F 
ATOM     88  C   UNL A   1      46.392  26.204  35.439  1.00  0.00     0.022 A 
BRANCH  85  89
ATOM     89  S   UNL A   1      44.814  24.087  36.332  1.00  0.00     0.124 S 
ATOM     90  O   UNL A   1      46.110  23.419  36.262  1.00  0.00    -0.237 OA
ATOM     91  O   UNL A   1      44.430  24.595  37.644  1.00  0.00    -0.237 OA
ATOM     92  O   UNL A   1      43.741  23.439  35.578  1.00  0.00    -0.744 OA
ENDBRANCH  85  89
ENDBRANCH  59  82
ENDBRANCH  33  34
ENDBRANCH  26  28
ENDBRANCH  25  26
ENDBRANCH  24  25
ENDBRANCH   1  24
TORSDOF 18
ENDMDL
MODEL 3
REMARK VINA RESULT:     -12.3      1.392      7.729
REMARK SMILES O=C(OCCOCCOC(=O)c1ccc(-c2c3nc(c(-c4cc(S(=O)(=O)[O-])ccc4F)c4ccc([nH]4)c(-c4cc(S(=O)(=O)[O-])ccc4F)c4nc(c(-c5cc(S(=O)(=O)[O-])ccc5F)c5ccc2[nH]5)C=C4)C=C3)cc1)C1=Cc2c(Cl)cc(Cl)cc2O[C@@H]1C(F)(F)F
REMARK SMILES IDX 7 1 6 2 5 3 4 4 3 5 2 6 1 7 75 8 76 9 86 10 77 11 85 12
REMARK SMILES IDX 78 13 84 14 79 15 80 16 83 17 81 18 82 19 87 20 88 21 89 22
REMARK SMILES IDX 90 23 8 24 9 25 10 26 11 27 12 28 13 29 74 30 14 31 73 32
REMARK SMILES IDX 15 33 16 34 17 35 67 36 18 37 72 38 66 39 68 40 19 41 71 42
REMARK SMILES IDX 65 43 64 44 20 46 52 47 32 48 51 49 33 50 36 51 50 52 69 53
REMARK SMILES IDX 34 54 35 55 49 57 70 58 37 59 21 60 22 61 30 62 23 63 29 64
REMARK SMILES IDX 31 65 28 66 24 67 25 68 26 69 27 70 53 71 54 72 62 73 55 74
REMARK SMILES IDX 61 75 63 76 60 77 56 78 57 79 58 80 59 81 38 82 39 83 47 84
REMARK SMILES IDX 40 85 46 86 48 87 45 88 41 89 42 90 43 91 44 92
REMARK H PARENT 68 45 36 56
REMARK Flexibility Score: inf
ROOT
ATOM      1  C   UNL A   1      37.844  19.682  24.626  1.00  0.00     0.202 C 
ENDROOT
BRANCH   1   2
ATOM      2  O   UNL A   1      36.548  20.117  25.085  1.00  0.00    -0.374 OA
BRANCH   2   3
ATOM      3  C   UNL A   1      35.677  21.450  24.770  1.00  0.00     0.202 C 
BRANCH   3   4
ATOM      4  C   UNL A   1      35.742  23.425  25.704  1.00  0.00     0.261 C 
BRANCH   4   5
ATOM      5  O   UNL A   1      34.535  24.242  26.186  1.00  0.00    -0.460 OA
BRANCH   5   6
ATOM      6  C   UNL A   1      33.877  24.832  25.185  1.00  0.00     0.338 C 
ATOM      7  O   UNL A   1      34.282  25.206  24.114  1.00  0.00    -0.246 OA
BRANCH   6   8
ATOM      8  C   UNL A   1      32.713  25.192  25.964  1.00  0.00     0.087 C 
ATOM      9  C   UNL A   1      32.582  26.658  26.106  1.00  0.00     0.029 C 
ATOM     10  C   UNL A   1      31.470  24.062  25.006  1.00  0.00     0.316 C 
ATOM     11  C   UNL A   1      31.371  27.664  25.193  1.00  0.00     0.036 A 
ATOM     12  O   UNL A   1      30.207  25.101  23.975  1.00  0.00    -0.475 OA
ATOM     13  C   UNL A   1      31.445  29.035  25.204  1.00  0.00     0.053 A 
ATOM     14  C   UNL A   1      30.246  26.928  24.087  1.00  0.00     0.130 A 
ATOM     15  Cl  UNL A   1      32.473  29.920  26.248  1.00  0.00    -0.083 Cl
ATOM     16  C   UNL A   1      30.662  29.698  24.249  1.00  0.00     0.042 A 
ATOM     17  C   UNL A   1      29.596  27.650  23.127  1.00  0.00     0.067 A 
ATOM     18  C   UNL A   1      29.836  29.044  23.250  1.00  0.00     0.046 A 
ATOM     19  Cl  UNL A   1      29.174  30.121  22.065  1.00  0.00    -0.084 Cl
BRANCH  10  20
ATOM     20  C   UNL A   1      31.261  22.979  26.159  1.00  0.00     0.430 C 
ATOM     21  F   UNL A   1      30.123  22.264  26.095  1.00  0.00    -0.167 F 
ATOM     22  F   UNL A   1      32.257  22.051  26.024  1.00  0.00    -0.167 F 
ATOM     23  F   UNL A   1      31.404  23.446  27.420  1.00  0.00    -0.167 F 
ENDBRANCH  10  20
ENDBRANCH   6   8
ENDBRANCH   5   6
ENDBRANCH   4   5
ENDBRANCH   3   4
ENDBRANCH   2   3
ENDBRANCH   1   2
BRANCH   1  24
ATOM     24  C   UNL A   1      38.952  19.638  25.675  1.00  0.00     0.261 C 
BRANCH  24  25
ATOM     25  O   UNL A   1      39.402  20.936  26.028  1.00  0.00    -0.460 OA
BRANCH  25  26
ATOM     26  C   UNL A   1      40.484  20.922  26.838  1.00  0.00     0.338 C 
ATOM     27  O   UNL A   1      41.158  19.960  27.160  1.00  0.00    -0.246 OA
BRANCH  26  28
ATOM     28  C   UNL A   1      40.745  22.299  27.281  1.00  0.00     0.060 A 
ATOM     29  C   UNL A   1      40.038  23.324  26.650  1.00  0.00     0.016 A 
ATOM     30  C   UNL A   1      41.657  22.580  28.310  1.00  0.00     0.016 A 
ATOM     31  C   UNL A   1      40.220  24.633  27.065  1.00  0.00     0.010 A 
ATOM     32  C   UNL A   1      41.849  23.893  28.718  1.00  0.00     0.010 A 
ATOM     33  C   UNL A   1      41.131  24.919  28.089  1.00  0.00    -0.014 A 
BRANCH  33  34
ATOM     34  C   UNL A   1      41.519  26.319  28.309  1.00  0.00     0.031 A 
ATOM     35  C   UNL A   1      42.901  26.705  27.886  1.00  0.00     0.074 A 
ATOM     36  C   UNL A   1      40.655  27.205  28.828  1.00  0.00     0.049 A 
ATOM     37  N   UNL A   1      43.502  27.857  27.974  1.00  0.00    -0.248 NA
ATOM     38  C   UNL A   1      43.714  25.636  27.277  1.00  0.00     0.031 C 
ATOM     39  C   UNL A   1      39.272  26.916  29.205  1.00  0.00     0.029 A 
ATOM     40  N   UNL A   1      40.815  28.532  29.120  1.00  0.00    -0.354 N 
ATOM     41  C   UNL A   1      44.759  27.657  27.421  1.00  0.00     0.074 A 
ATOM     42  C   UNL A   1      44.849  26.267  27.038  1.00  0.00     0.031 C 
ATOM     43  C   UNL A   1      38.706  28.041  29.675  1.00  0.00     0.029 A 
ATOM     44  C   UNL A   1      39.703  29.109  29.685  1.00  0.00     0.049 A 
ATOM     45  H   UNL A   1      41.647  29.026  28.942  1.00  0.00     0.167 HD
ATOM     46  C   UNL A   1      45.748  28.564  27.251  1.00  0.00     0.034 A 
ATOM     47  C   UNL A   1      39.535  30.352  30.178  1.00  0.00     0.034 A 
ATOM     48  C   UNL A   1      45.642  29.926  27.702  1.00  0.00     0.049 A 
ATOM     49  C   UNL A   1      40.703  31.309  30.101  1.00  0.00     0.074 A 
ATOM     50  C   UNL A   1      46.583  30.933  27.625  1.00  0.00     0.029 A 
ATOM     51  N   UNL A   1      44.530  30.462  28.343  1.00  0.00    -0.354 N 
ATOM     52  N   UNL A   1      41.898  31.118  29.584  1.00  0.00    -0.248 NA
ATOM     53  C   UNL A   1      40.502  32.647  30.669  1.00  0.00     0.031 C 
ATOM     54  C   UNL A   1      46.079  32.047  28.303  1.00  0.00     0.029 A 
ATOM     55  C   UNL A   1      44.779  31.775  28.704  1.00  0.00     0.049 A 
ATOM     56  H   UNL A   1      43.690  29.979  28.515  1.00  0.00     0.167 HD
ATOM     57  C   UNL A   1      42.575  32.327  29.729  1.00  0.00     0.074 A 
ATOM     58  C   UNL A   1      41.652  33.238  30.376  1.00  0.00     0.031 C 
ATOM     59  C   UNL A   1      43.839  32.659  29.355  1.00  0.00     0.034 A 
BRANCH  46  60
ATOM     60  C   UNL A   1      47.033  28.067  26.641  1.00  0.00     0.023 A 
ATOM     61  C   UNL A   1      47.277  28.149  25.259  1.00  0.00     0.031 A 
ATOM     62  C   UNL A   1      47.991  27.425  27.444  1.00  0.00     0.131 A 
ATOM     63  C   UNL A   1      48.407  27.524  24.712  1.00  0.00     0.055 A 
ATOM     64  C   UNL A   1      49.161  26.890  26.905  1.00  0.00     0.041 A 
ATOM     65  F   UNL A   1      47.791  27.278  28.763  1.00  0.00    -0.206 F 
ATOM     66  C   UNL A   1      49.366  26.922  25.528  1.00  0.00     0.022 A 
BRANCH  63  67
ATOM     67  S   UNL A   1      48.509  27.346  22.909  1.00  0.00     0.124 S 
ATOM     68  O   UNL A   1      47.423  28.219  22.465  1.00  0.00    -0.237 OA
ATOM     69  O   UNL A   1      49.860  27.812  22.621  1.00  0.00    -0.237 OA
ATOM     70  O   UNL A   1      48.280  25.920  22.692  1.00  0.00    -0.744 OA
ENDBRANCH  63  67
ENDBRANCH  46  60
BRANCH  47  71
ATOM     71  C   UNL A   1      38.254  30.749  30.831  1.00  0.00     0.023 A 
ATOM     72  C   UNL A   1      37.247  31.419  30.119  1.00  0.00     0.031 A 
ATOM     73  C   UNL A   1      38.041  30.515  32.203  1.00  0.00     0.131 A 
ATOM     74  C   UNL A   1      36.099  31.876  30.789  1.00  0.00     0.055 A 
ATOM     75  C   UNL A   1      36.871  30.914  32.851  1.00  0.00     0.041 A 
ATOM     76  F   UNL A   1      38.973  29.887  32.938  1.00  0.00    -0.206 F 
ATOM     77  C   UNL A   1      35.897  31.612  32.146  1.00  0.00     0.022 A 
BRANCH  74  78
ATOM     78  S   UNL A   1      34.920  32.917  29.886  1.00  0.00     0.124 S 
ATOM     79  O   UNL A   1      34.355  31.967  28.934  1.00  0.00    -0.237 OA
ATOM     80  O   UNL A   1      34.029  33.363  30.953  1.00  0.00    -0.237 OA
ATOM     81  O   UNL A   1      35.763  33.959  29.304  1.00  0.00    -0.744 OA
ENDBRANCH  74  78
ENDBRANCH  47  71
BRANCH  59  82
ATOM     82  C   UNL A   1      44.272  34.088  29.577  1.00  0.00     0.023 A 
ATOM     83  C   UNL A   1      43.982  35.110  28.656  1.00  0.00     0.031 A 
ATOM     84  C   UNL A   1      44.975  34.433  30.746  1.00  0.00     0.131 A 
ATOM     85  C   UNL A   1      44.443  36.412  28.894  1.00  0.00     0.055 A 
ATOM     86  C   UNL A   1      45.360  35.745  31.015  1.00  0.00     0.041 A 
ATOM     87  F   UNL A   1      45.285  33.496  31.658  1.00  0.00    -0.206 F 
ATOM     88  C   UNL A   1      45.107  36.742  30.079  1.00  0.00     0.022 A 
BRANCH  85  89
ATOM     89  S   UNL A   1      44.263  37.651  27.582  1.00  0.00     0.124 S 
ATOM     90  O   UNL A   1      44.073  38.877  28.350  1.00  0.00    -0.237 OA
ATOM     91  O   UNL A   1      45.530  37.537  26.868  1.00  0.00    -0.237 OA
ATOM     92  O   UNL A   1      43.088  37.195  26.840  1.00  0.00    -0.744 OA
ENDBRANCH  85  89
ENDBRANCH  59  82
ENDBRANCH  33  34
ENDBRANCH  26  28
ENDBRANCH  25  26
ENDBRANCH  24  25
ENDBRANCH   1  24
TORSDOF 18
ENDMDL
