MODEL 1
REMARK VINA RESULT:     -11.4      0.000      0.000
REMARK SMILES Cc1cccc(-c2cccnc2C(=O)OCCOCCOC(=O)c2ccc(-c3c4nc(c(-c5cc(S(=O)(=O)[O-])ccc5F)c5ccc([nH]5)c(-c5cc(S(=O)(=O)[O-])ccc5F)c5nc(c(-c6cc(S(=O)(=O)[O-])ccc6F)c6ccc3[nH]6)C=C5)C=C4)cc2)c1
REMARK SMILES IDX 19 1 18 2 17 3 16 4 15 5 13 6 14 7 12 8 7 9 8 10 9 11 11 12
REMARK SMILES IDX 10 13 6 14 1 15 2 16 3 17 87 18 4 19 5 20 20 21 21 22 22 23
REMARK SMILES IDX 23 24 24 25 25 26 86 27 26 28 85 29 27 30 28 31 29 32 79 33
REMARK SMILES IDX 30 34 84 35 78 36 80 37 31 38 83 39 77 40 76 41 32 43 64 44
REMARK SMILES IDX 44 45 63 46 45 47 48 48 62 49 81 50 46 51 47 52 61 54 82 55
REMARK SMILES IDX 49 56 33 57 34 58 42 59 35 60 41 61 43 62 40 63 36 64 37 65
REMARK SMILES IDX 38 66 39 67 65 68 66 69 74 70 67 71 73 72 75 73 72 74 68 75
REMARK SMILES IDX 69 76 70 77 71 78 50 79 51 80 59 81 52 82 58 83 60 84 57 85
REMARK SMILES IDX 53 86 54 87 55 88 56 89
REMARK H PARENT 80 42 48 53
REMARK Flexibility Score: inf
ROOT
ATOM      1  C   UNL A   1      32.671  30.106  26.143  1.00  0.00     0.202 C 
ENDROOT
BRANCH   1   2
ATOM      2  O   UNL A   1      31.843  29.219  26.854  1.00  0.00    -0.374 OA
BRANCH   2   3
ATOM      3  C   UNL A   1      31.431  28.049  26.152  1.00  0.00     0.202 C 
BRANCH   3   4
ATOM      4  C   UNL A   1      32.032  26.934  26.942  1.00  0.00     0.261 C 
BRANCH   4   5
ATOM      5  O   UNL A   1      32.862  26.163  26.084  1.00  0.00    -0.458 OA
BRANCH   5   6
ATOM      6  C   UNL A   1      32.547  24.880  25.795  1.00  0.00     0.357 C 
ATOM      7  O   UNL A   1      32.170  24.024  26.555  1.00  0.00    -0.244 OA
BRANCH   6   8
ATOM      8  C   UNL A   1      32.593  24.772  24.292  1.00  0.00     0.156 A 
ATOM      9  C   UNL A   1      33.610  24.086  23.587  1.00  0.00     0.015 A 
ATOM     10  C   UNL A   1      33.617  24.254  22.195  1.00  0.00     0.013 A 
ATOM     11  C   UNL A   1      32.636  25.017  21.565  1.00  0.00     0.021 A 
ATOM     12  N   UNL A   1      31.618  25.510  23.679  1.00  0.00    -0.249 NA
ATOM     13  C   UNL A   1      31.654  25.601  22.340  1.00  0.00     0.112 A 
BRANCH   9  14
ATOM     14  C   UNL A   1      34.630  23.215  24.210  1.00  0.00    -0.016 A 
ATOM     15  C   UNL A   1      38.046  23.483  25.930  1.00  0.00     0.044 C 
ATOM     16  C   UNL A   1      36.772  22.926  25.364  1.00  0.00    -0.051 A 
ATOM     17  C   UNL A   1      36.436  21.596  25.633  1.00  0.00     0.003 A 
ATOM     18  C   UNL A   1      35.862  23.730  24.662  1.00  0.00     0.012 A 
ATOM     19  C   UNL A   1      35.233  21.064  25.178  1.00  0.00     0.001 A 
ATOM     20  C   UNL A   1      34.343  21.861  24.462  1.00  0.00     0.009 A 
ENDBRANCH   9  14
ENDBRANCH   6   8
ENDBRANCH   5   6
ENDBRANCH   4   5
ENDBRANCH   3   4
ENDBRANCH   2   3
ENDBRANCH   1   2
BRANCH   1  21
ATOM     21  C   UNL A   1      33.058  31.336  26.968  1.00  0.00     0.261 C 
BRANCH  21  22
ATOM     22  O   UNL A   1      33.973  30.961  28.022  1.00  0.00    -0.460 OA
BRANCH  22  23
ATOM     23  C   UNL A   1      35.239  31.455  27.904  1.00  0.00     0.338 C 
ATOM     24  O   UNL A   1      35.507  32.588  27.543  1.00  0.00    -0.246 OA
BRANCH  23  25
ATOM     25  C   UNL A   1      36.243  30.376  28.144  1.00  0.00     0.060 A 
ATOM     26  C   UNL A   1      36.332  29.749  29.401  1.00  0.00     0.016 A 
ATOM     27  C   UNL A   1      37.261  30.206  27.213  1.00  0.00     0.016 A 
ATOM     28  C   UNL A   1      37.511  29.086  29.776  1.00  0.00     0.010 A 
ATOM     29  C   UNL A   1      38.460  29.678  27.638  1.00  0.00     0.010 A 
ATOM     30  C   UNL A   1      38.608  29.132  28.925  1.00  0.00    -0.014 A 
BRANCH  30  31
ATOM     31  C   UNL A   1      39.979  28.698  29.215  1.00  0.00     0.031 A 
ATOM     32  C   UNL A   1      40.282  27.266  28.994  1.00  0.00     0.074 A 
ATOM     33  C   UNL A   1      40.991  29.596  29.304  1.00  0.00     0.049 A 
ATOM     34  N   UNL A   1      41.438  26.732  29.150  1.00  0.00    -0.248 NA
ATOM     35  C   UNL A   1      39.265  26.290  28.607  1.00  0.00     0.031 C 
ATOM     36  C   UNL A   1      42.388  29.424  28.901  1.00  0.00     0.029 A 
ATOM     37  N   UNL A   1      40.979  30.875  29.860  1.00  0.00    -0.354 N 
ATOM     38  C   UNL A   1      41.408  25.473  28.596  1.00  0.00     0.074 A 
ATOM     39  C   UNL A   1      40.012  25.211  28.362  1.00  0.00     0.031 C 
ATOM     40  C   UNL A   1      43.127  30.429  29.406  1.00  0.00     0.029 A 
ATOM     41  C   UNL A   1      42.273  31.170  30.319  1.00  0.00     0.049 A 
ATOM     42  H   UNL A   1      40.197  31.470  29.920  1.00  0.00     0.167 HD
ATOM     43  C   UNL A   1      42.596  24.870  28.315  1.00  0.00     0.034 A 
ATOM     44  C   UNL A   1      42.479  31.442  31.639  1.00  0.00     0.034 A 
ATOM     45  C   UNL A   1      43.715  25.691  28.811  1.00  0.00     0.049 A 
ATOM     46  C   UNL A   1      43.368  30.358  32.232  1.00  0.00     0.074 A 
ATOM     47  C   UNL A   1      44.661  26.523  28.237  1.00  0.00     0.029 A 
ATOM     48  N   UNL A   1      43.769  25.950  30.169  1.00  0.00    -0.354 N 
ATOM     49  N   UNL A   1      43.746  29.299  31.564  1.00  0.00    -0.248 NA
ATOM     50  C   UNL A   1      43.867  30.339  33.601  1.00  0.00     0.031 C 
ATOM     51  C   UNL A   1      45.262  27.295  29.287  1.00  0.00     0.029 A 
ATOM     52  C   UNL A   1      44.709  26.901  30.495  1.00  0.00     0.049 A 
ATOM     53  H   UNL A   1      43.195  25.502  30.832  1.00  0.00     0.167 HD
ATOM     54  C   UNL A   1      44.444  28.447  32.360  1.00  0.00     0.074 A 
ATOM     55  C   UNL A   1      44.478  29.139  33.644  1.00  0.00     0.031 C 
ATOM     56  C   UNL A   1      44.892  27.236  31.904  1.00  0.00     0.034 A 
BRANCH  43  57
ATOM     57  C   UNL A   1      42.807  23.619  27.487  1.00  0.00     0.023 A 
ATOM     58  C   UNL A   1      43.773  23.663  26.459  1.00  0.00     0.031 A 
ATOM     59  C   UNL A   1      42.124  22.389  27.599  1.00  0.00     0.131 A 
ATOM     60  C   UNL A   1      43.993  22.572  25.597  1.00  0.00     0.055 A 
ATOM     61  C   UNL A   1      42.332  21.306  26.733  1.00  0.00     0.041 A 
ATOM     62  F   UNL A   1      41.236  22.133  28.560  1.00  0.00    -0.206 F 
ATOM     63  C   UNL A   1      43.268  21.393  25.721  1.00  0.00     0.022 A 
BRANCH  60  64
ATOM     64  S   UNL A   1      45.252  22.717  24.304  1.00  0.00     0.124 S 
ATOM     65  O   UNL A   1      44.545  22.220  23.128  1.00  0.00    -0.237 OA
ATOM     66  O   UNL A   1      45.553  24.144  24.324  1.00  0.00    -0.237 OA
ATOM     67  O   UNL A   1      46.330  21.855  24.785  1.00  0.00    -0.744 OA
ENDBRANCH  60  64
ENDBRANCH  43  57
BRANCH  44  68
ATOM     68  C   UNL A   1      41.234  32.058  32.248  1.00  0.00     0.023 A 
ATOM     69  C   UNL A   1      40.329  31.221  32.971  1.00  0.00     0.031 A 
ATOM     70  C   UNL A   1      41.255  33.418  32.590  1.00  0.00     0.131 A 
ATOM     71  C   UNL A   1      39.671  31.705  34.123  1.00  0.00     0.055 A 
ATOM     72  C   UNL A   1      40.565  33.899  33.709  1.00  0.00     0.041 A 
ATOM     73  F   UNL A   1      42.066  34.269  31.946  1.00  0.00    -0.206 F 
ATOM     74  C   UNL A   1      39.822  33.034  34.512  1.00  0.00     0.022 A 
BRANCH  71  75
ATOM     75  S   UNL A   1      38.635  30.616  35.166  1.00  0.00     0.124 S 
ATOM     76  O   UNL A   1      38.041  29.702  34.197  1.00  0.00    -0.237 OA
ATOM     77  O   UNL A   1      39.598  30.024  36.089  1.00  0.00    -0.237 OA
ATOM     78  O   UNL A   1      37.697  31.545  35.791  1.00  0.00    -0.744 OA
ENDBRANCH  71  75
ENDBRANCH  44  68
BRANCH  56  79
ATOM     79  C   UNL A   1      45.489  26.218  32.831  1.00  0.00     0.023 A 
ATOM     80  C   UNL A   1      44.676  25.448  33.661  1.00  0.00     0.031 A 
ATOM     81  C   UNL A   1      46.878  25.960  32.890  1.00  0.00     0.131 A 
ATOM     82  C   UNL A   1      45.212  24.354  34.350  1.00  0.00     0.055 A 
ATOM     83  C   UNL A   1      47.426  24.963  33.694  1.00  0.00     0.041 A 
ATOM     84  F   UNL A   1      47.764  26.605  32.118  1.00  0.00    -0.206 F 
ATOM     85  C   UNL A   1      46.585  24.120  34.400  1.00  0.00     0.022 A 
BRANCH  82  86
ATOM     86  S   UNL A   1      44.050  23.138  35.007  1.00  0.00     0.124 S 
ATOM     87  O   UNL A   1      44.930  22.171  35.656  1.00  0.00    -0.237 OA
ATOM     88  O   UNL A   1      43.248  23.963  35.908  1.00  0.00    -0.237 OA
ATOM     89  O   UNL A   1      43.352  22.653  33.820  1.00  0.00    -0.744 OA
ENDBRANCH  82  86
ENDBRANCH  56  79
ENDBRANCH  30  31
ENDBRANCH  23  25
ENDBRANCH  22  23
ENDBRANCH  21  22
ENDBRANCH   1  21
TORSDOF 18
ENDMDL
MODEL 2
REMARK VINA RESULT:     -11.3      1.592      2.372
REMARK SMILES Cc1cccc(-c2cccnc2C(=O)OCCOCCOC(=O)c2ccc(-c3c4nc(c(-c5cc(S(=O)(=O)[O-])ccc5F)c5ccc([nH]5)c(-c5cc(S(=O)(=O)[O-])ccc5F)c5nc(c(-c6cc(S(=O)(=O)[O-])ccc6F)c6ccc3[nH]6)C=C5)C=C4)cc2)c1
REMARK SMILES IDX 19 1 18 2 17 3 16 4 15 5 13 6 14 7 12 8 7 9 8 10 9 11 11 12
REMARK SMILES IDX 10 13 6 14 1 15 2 16 3 17 87 18 4 19 5 20 20 21 21 22 22 23
REMARK SMILES IDX 23 24 24 25 25 26 86 27 26 28 85 29 27 30 28 31 29 32 79 33
REMARK SMILES IDX 30 34 84 35 78 36 80 37 31 38 83 39 77 40 76 41 32 43 64 44
REMARK SMILES IDX 44 45 63 46 45 47 48 48 62 49 81 50 46 51 47 52 61 54 82 55
REMARK SMILES IDX 49 56 33 57 34 58 42 59 35 60 41 61 43 62 40 63 36 64 37 65
REMARK SMILES IDX 38 66 39 67 65 68 66 69 74 70 67 71 73 72 75 73 72 74 68 75
REMARK SMILES IDX 69 76 70 77 71 78 50 79 51 80 59 81 52 82 58 83 60 84 57 85
REMARK SMILES IDX 53 86 54 87 55 88 56 89
REMARK H PARENT 80 42 48 53
REMARK Flexibility Score: inf
ROOT
ATOM      1  C   UNL A   1      32.466  29.653  26.129  1.00  0.00     0.202 C 
ENDROOT
BRANCH   1   2
ATOM      2  O   UNL A   1      32.778  28.293  26.306  1.00  0.00    -0.374 OA
BRANCH   2   3
ATOM      3  C   UNL A   1      34.016  27.857  25.750  1.00  0.00     0.202 C 
BRANCH   3   4
ATOM      4  C   UNL A   1      33.602  26.967  24.624  1.00  0.00     0.261 C 
BRANCH   4   5
ATOM      5  O   UNL A   1      33.328  27.771  23.485  1.00  0.00    -0.458 OA
BRANCH   5   6
ATOM      6  C   UNL A   1      32.547  27.303  22.486  1.00  0.00     0.357 C 
ATOM      7  O   UNL A   1      32.851  26.528  21.614  1.00  0.00    -0.244 OA
BRANCH   6   8
ATOM      8  C   UNL A   1      31.156  27.807  22.778  1.00  0.00     0.156 A 
ATOM      9  C   UNL A   1      30.151  27.024  23.392  1.00  0.00     0.015 A 
ATOM     10  C   UNL A   1      28.861  27.573  23.405  1.00  0.00     0.013 A 
ATOM     11  C   UNL A   1      28.623  28.841  22.881  1.00  0.00     0.021 A 
ATOM     12  N   UNL A   1      30.933  29.061  22.276  1.00  0.00    -0.249 NA
ATOM     13  C   UNL A   1      29.685  29.549  22.353  1.00  0.00     0.112 A 
BRANCH   9  14
ATOM     14  C   UNL A   1      30.375  25.702  24.017  1.00  0.00    -0.016 A 
ATOM     15  C   UNL A   1      31.717  22.227  23.105  1.00  0.00     0.044 C 
ATOM     16  C   UNL A   1      31.154  23.382  23.882  1.00  0.00    -0.051 A 
ATOM     17  C   UNL A   1      31.052  23.278  25.272  1.00  0.00     0.003 A 
ATOM     18  C   UNL A   1      30.823  24.597  23.263  1.00  0.00     0.012 A 
ATOM     19  C   UNL A   1      30.593  24.351  26.030  1.00  0.00     0.001 A 
ATOM     20  C   UNL A   1      30.245  25.547  25.409  1.00  0.00     0.009 A 
ENDBRANCH   9  14
ENDBRANCH   6   8
ENDBRANCH   5   6
ENDBRANCH   4   5
ENDBRANCH   3   4
ENDBRANCH   2   3
ENDBRANCH   1   2
BRANCH   1  21
ATOM     21  C   UNL A   1      32.950  30.522  27.292  1.00  0.00     0.261 C 
BRANCH  21  22
ATOM     22  O   UNL A   1      34.285  31.008  27.028  1.00  0.00    -0.460 OA
BRANCH  22  23
ATOM     23  C   UNL A   1      35.028  31.313  28.131  1.00  0.00     0.338 C 
ATOM     24  O   UNL A   1      34.935  32.352  28.761  1.00  0.00    -0.246 OA
BRANCH  23  25
ATOM     25  C   UNL A   1      36.058  30.260  28.371  1.00  0.00     0.060 A 
ATOM     26  C   UNL A   1      36.203  29.677  29.644  1.00  0.00     0.016 A 
ATOM     27  C   UNL A   1      37.047  30.076  27.410  1.00  0.00     0.016 A 
ATOM     28  C   UNL A   1      37.406  29.046  29.998  1.00  0.00     0.010 A 
ATOM     29  C   UNL A   1      38.268  29.582  27.809  1.00  0.00     0.010 A 
ATOM     30  C   UNL A   1      38.472  29.082  29.108  1.00  0.00    -0.014 A 
BRANCH  30  31
ATOM     31  C   UNL A   1      39.859  28.681  29.362  1.00  0.00     0.031 A 
ATOM     32  C   UNL A   1      40.193  27.259  29.121  1.00  0.00     0.074 A 
ATOM     33  C   UNL A   1      40.850  29.604  29.436  1.00  0.00     0.049 A 
ATOM     34  N   UNL A   1      41.366  26.754  29.245  1.00  0.00    -0.248 NA
ATOM     35  C   UNL A   1      39.194  26.261  28.748  1.00  0.00     0.031 C 
ATOM     36  C   UNL A   1      42.241  29.471  29.000  1.00  0.00     0.029 A 
ATOM     37  N   UNL A   1      40.818  30.877  30.004  1.00  0.00    -0.354 N 
ATOM     38  C   UNL A   1      41.355  25.500  28.681  1.00  0.00     0.074 A 
ATOM     39  C   UNL A   1      39.962  25.204  28.476  1.00  0.00     0.031 C 
ATOM     40  C   UNL A   1      42.966  30.490  29.498  1.00  0.00     0.029 A 
ATOM     41  C   UNL A   1      42.114  31.201  30.436  1.00  0.00     0.049 A 
ATOM     42  H   UNL A   1      40.023  31.452  30.087  1.00  0.00     0.167 HD
ATOM     43  C   UNL A   1      42.552  24.930  28.368  1.00  0.00     0.034 A 
ATOM     44  C   UNL A   1      42.343  31.467  31.754  1.00  0.00     0.034 A 
ATOM     45  C   UNL A   1      43.661  25.774  28.845  1.00  0.00     0.049 A 
ATOM     46  C   UNL A   1      43.273  30.401  32.317  1.00  0.00     0.074 A 
ATOM     47  C   UNL A   1      44.572  26.636  28.258  1.00  0.00     0.029 A 
ATOM     48  N   UNL A   1      43.739  26.023  30.204  1.00  0.00    -0.354 N 
ATOM     49  N   UNL A   1      43.663  29.358  31.631  1.00  0.00    -0.248 NA
ATOM     50  C   UNL A   1      43.804  30.383  33.674  1.00  0.00     0.031 C 
ATOM     51  C   UNL A   1      45.177  27.413  29.301  1.00  0.00     0.029 A 
ATOM     52  C   UNL A   1      44.662  26.995  30.518  1.00  0.00     0.049 A 
ATOM     53  H   UNL A   1      43.193  25.554  30.876  1.00  0.00     0.167 HD
ATOM     54  C   UNL A   1      44.400  28.517  32.403  1.00  0.00     0.074 A 
ATOM     55  C   UNL A   1      44.446  29.199  33.692  1.00  0.00     0.031 C 
ATOM     56  C   UNL A   1      44.869  27.322  31.926  1.00  0.00     0.034 A 
BRANCH  43  57
ATOM     57  C   UNL A   1      42.776  23.691  27.523  1.00  0.00     0.023 A 
ATOM     58  C   UNL A   1      43.751  23.754  26.505  1.00  0.00     0.031 A 
ATOM     59  C   UNL A   1      42.096  22.458  27.611  1.00  0.00     0.131 A 
ATOM     60  C   UNL A   1      43.983  22.677  25.629  1.00  0.00     0.055 A 
ATOM     61  C   UNL A   1      42.317  21.388  26.731  1.00  0.00     0.041 A 
ATOM     62  F   UNL A   1      41.200  22.184  28.559  1.00  0.00    -0.206 F 
ATOM     63  C   UNL A   1      43.262  21.494  25.729  1.00  0.00     0.022 A 
BRANCH  60  64
ATOM     64  S   UNL A   1      45.254  22.846  24.351  1.00  0.00     0.124 S 
ATOM     65  O   UNL A   1      46.341  22.032  24.886  1.00  0.00    -0.237 OA
ATOM     66  O   UNL A   1      44.576  22.326  23.169  1.00  0.00    -0.237 OA
ATOM     67  O   UNL A   1      45.517  24.285  24.325  1.00  0.00    -0.744 OA
ENDBRANCH  60  64
ENDBRANCH  43  57
BRANCH  44  68
ATOM     68  C   UNL A   1      41.098  32.045  32.397  1.00  0.00     0.023 A 
ATOM     69  C   UNL A   1      40.463  31.322  33.454  1.00  0.00     0.031 A 
ATOM     70  C   UNL A   1      40.915  33.436  32.377  1.00  0.00     0.131 A 
ATOM     71  C   UNL A   1      39.885  32.009  34.544  1.00  0.00     0.055 A 
ATOM     72  C   UNL A   1      40.300  34.106  33.443  1.00  0.00     0.041 A 
ATOM     73  F   UNL A   1      41.465  34.181  31.409  1.00  0.00    -0.206 F 
ATOM     74  C   UNL A   1      39.840  33.401  34.555  1.00  0.00     0.022 A 
BRANCH  71  75
ATOM     75  S   UNL A   1      39.211  31.115  35.992  1.00  0.00     0.124 S 
ATOM     76  O   UNL A   1      39.780  29.780  35.846  1.00  0.00    -0.237 OA
ATOM     77  O   UNL A   1      39.703  31.894  37.123  1.00  0.00    -0.237 OA
ATOM     78  O   UNL A   1      37.766  31.195  35.791  1.00  0.00    -0.744 OA
ENDBRANCH  71  75
ENDBRANCH  44  68
BRANCH  56  79
ATOM     79  C   UNL A   1      45.513  26.312  32.829  1.00  0.00     0.023 A 
ATOM     80  C   UNL A   1      44.748  25.578  33.735  1.00  0.00     0.031 A 
ATOM     81  C   UNL A   1      46.897  26.024  32.791  1.00  0.00     0.131 A 
ATOM     82  C   UNL A   1      45.311  24.488  34.407  1.00  0.00     0.055 A 
ATOM     83  C   UNL A   1      47.482  25.033  33.575  1.00  0.00     0.041 A 
ATOM     84  F   UNL A   1      47.735  26.632  31.940  1.00  0.00    -0.206 F 
ATOM     85  C   UNL A   1      46.680  24.225  34.361  1.00  0.00     0.022 A 
BRANCH  82  86
ATOM     86  S   UNL A   1      44.178  23.313  35.178  1.00  0.00     0.124 S 
ATOM     87  O   UNL A   1      44.316  22.131  34.333  1.00  0.00    -0.237 OA
ATOM     88  O   UNL A   1      44.747  23.199  36.519  1.00  0.00    -0.237 OA
ATOM     89  O   UNL A   1      42.884  23.987  35.106  1.00  0.00    -0.744 OA
ENDBRANCH  82  86
ENDBRANCH  56  79
ENDBRANCH  30  31
ENDBRANCH  23  25
ENDBRANCH  22  23
ENDBRANCH  21  22
ENDBRANCH   1  21
TORSDOF 18
ENDMDL
MODEL 3
REMARK VINA RESULT:     -11.2      2.835      4.380
REMARK SMILES Cc1cccc(-c2cccnc2C(=O)OCCOCCOC(=O)c2ccc(-c3c4nc(c(-c5cc(S(=O)(=O)[O-])ccc5F)c5ccc([nH]5)c(-c5cc(S(=O)(=O)[O-])ccc5F)c5nc(c(-c6cc(S(=O)(=O)[O-])ccc6F)c6ccc3[nH]6)C=C5)C=C4)cc2)c1
REMARK SMILES IDX 19 1 18 2 17 3 16 4 15 5 13 6 14 7 12 8 7 9 8 10 9 11 11 12
REMARK SMILES IDX 10 13 6 14 1 15 2 16 3 17 87 18 4 19 5 20 20 21 21 22 22 23
REMARK SMILES IDX 23 24 24 25 25 26 86 27 26 28 85 29 27 30 28 31 29 32 79 33
REMARK SMILES IDX 30 34 84 35 78 36 80 37 31 38 83 39 77 40 76 41 32 43 64 44
REMARK SMILES IDX 44 45 63 46 45 47 48 48 62 49 81 50 46 51 47 52 61 54 82 55
REMARK SMILES IDX 49 56 33 57 34 58 42 59 35 60 41 61 43 62 40 63 36 64 37 65
REMARK SMILES IDX 38 66 39 67 65 68 66 69 74 70 67 71 73 72 75 73 72 74 68 75
REMARK SMILES IDX 69 76 70 77 71 78 50 79 51 80 59 81 52 82 58 83 60 84 57 85
REMARK SMILES IDX 53 86 54 87 55 88 56 89
REMARK H PARENT 80 42 48 53
REMARK Flexibility Score: inf
ROOT
ATOM      1  C   UNL A   1      34.176  31.532  27.788  1.00  0.00     0.202 C 
ENDROOT
BRANCH   1   2
ATOM      2  O   UNL A   1      33.377  30.539  27.194  1.00  0.00    -0.374 OA
BRANCH   2   3
ATOM      3  C   UNL A   1      34.003  29.275  26.983  1.00  0.00     0.202 C 
BRANCH   3   4
ATOM      4  C   UNL A   1      33.316  28.740  25.770  1.00  0.00     0.261 C 
BRANCH   4   5
ATOM      5  O   UNL A   1      33.096  27.348  25.948  1.00  0.00    -0.458 OA
BRANCH   5   6
ATOM      6  C   UNL A   1      31.860  26.878  26.230  1.00  0.00     0.357 C 
ATOM      7  O   UNL A   1      31.028  27.375  26.947  1.00  0.00    -0.244 OA
BRANCH   6   8
ATOM      8  C   UNL A   1      31.655  25.687  25.329  1.00  0.00     0.156 A 
ATOM      9  C   UNL A   1      30.931  25.740  24.115  1.00  0.00     0.015 A 
ATOM     10  C   UNL A   1      30.662  24.507  23.503  1.00  0.00     0.013 A 
ATOM     11  C   UNL A   1      31.136  23.320  24.055  1.00  0.00     0.021 A 
ATOM     12  N   UNL A   1      32.139  24.526  25.868  1.00  0.00    -0.249 NA
ATOM     13  C   UNL A   1      31.883  23.382  25.215  1.00  0.00     0.112 A 
BRANCH   9  14
ATOM     14  C   UNL A   1      30.464  26.982  23.462  1.00  0.00    -0.016 A 
ATOM     15  C   UNL A   1      27.278  29.089  23.126  1.00  0.00     0.044 C 
ATOM     16  C   UNL A   1      28.697  28.617  23.000  1.00  0.00    -0.051 A 
ATOM     17  C   UNL A   1      29.652  29.478  22.451  1.00  0.00     0.003 A 
ATOM     18  C   UNL A   1      29.111  27.377  23.511  1.00  0.00     0.012 A 
ATOM     19  C   UNL A   1      30.988  29.097  22.376  1.00  0.00     0.001 A 
ATOM     20  C   UNL A   1      31.390  27.856  22.864  1.00  0.00     0.009 A 
ENDBRANCH   9  14
ENDBRANCH   6   8
ENDBRANCH   5   6
ENDBRANCH   4   5
ENDBRANCH   3   4
ENDBRANCH   2   3
ENDBRANCH   1   2
BRANCH   1  21
ATOM     21  C   UNL A   1      33.419  32.844  28.001  1.00  0.00     0.261 C 
BRANCH  21  22
ATOM     22  O   UNL A   1      34.314  33.858  28.512  1.00  0.00    -0.460 OA
BRANCH  22  23
ATOM     23  C   UNL A   1      34.409  33.924  29.872  1.00  0.00     0.338 C 
ATOM     24  O   UNL A   1      33.493  34.231  30.615  1.00  0.00    -0.246 OA
BRANCH  23  25
ATOM     25  C   UNL A   1      35.821  33.704  30.305  1.00  0.00     0.060 A 
ATOM     26  C   UNL A   1      36.879  33.834  29.386  1.00  0.00     0.016 A 
ATOM     27  C   UNL A   1      36.044  33.097  31.535  1.00  0.00     0.016 A 
ATOM     28  C   UNL A   1      38.114  33.216  29.641  1.00  0.00     0.010 A 
ATOM     29  C   UNL A   1      37.206  32.378  31.713  1.00  0.00     0.010 A 
ATOM     30  C   UNL A   1      38.243  32.410  30.765  1.00  0.00    -0.014 A 
BRANCH  30  31
ATOM     31  C   UNL A   1      39.358  31.516  31.097  1.00  0.00     0.031 A 
ATOM     32  C   UNL A   1      39.368  30.194  30.431  1.00  0.00     0.074 A 
ATOM     33  C   UNL A   1      40.494  31.997  31.661  1.00  0.00     0.049 A 
ATOM     34  N   UNL A   1      40.292  29.315  30.569  1.00  0.00    -0.248 NA
ATOM     35  C   UNL A   1      38.287  29.734  29.563  1.00  0.00     0.031 C 
ATOM     36  C   UNL A   1      41.868  31.539  31.453  1.00  0.00     0.029 A 
ATOM     37  N   UNL A   1      40.636  32.993  32.627  1.00  0.00    -0.354 N 
ATOM     38  C   UNL A   1      40.114  28.350  29.606  1.00  0.00     0.074 A 
ATOM     39  C   UNL A   1      38.802  28.604  29.073  1.00  0.00     0.031 C 
ATOM     40  C   UNL A   1      42.667  32.074  32.395  1.00  0.00     0.029 A 
ATOM     41  C   UNL A   1      41.804  32.731  33.362  1.00  0.00     0.049 A 
ATOM     42  H   UNL A   1      40.023  33.750  32.769  1.00  0.00     0.167 HD
ATOM     43  C   UNL A   1      41.163  27.528  29.323  1.00  0.00     0.034 A 
ATOM     44  C   UNL A   1      41.726  32.522  34.707  1.00  0.00     0.034 A 
ATOM     45  C   UNL A   1      42.278  27.785  30.251  1.00  0.00     0.049 A 
ATOM     46  C   UNL A   1      42.161  31.095  35.010  1.00  0.00     0.074 A 
ATOM     47  C   UNL A   1      43.504  28.423  30.172  1.00  0.00     0.029 A 
ATOM     48  N   UNL A   1      42.044  27.598  31.602  1.00  0.00    -0.354 N 
ATOM     49  N   UNL A   1      42.442  30.221  34.078  1.00  0.00    -0.248 NA
ATOM     50  C   UNL A   1      42.280  30.518  36.342  1.00  0.00     0.031 C 
ATOM     51  C   UNL A   1      43.981  28.627  31.510  1.00  0.00     0.029 A 
ATOM     52  C   UNL A   1      43.065  28.078  32.393  1.00  0.00     0.049 A 
ATOM     53  H   UNL A   1      41.234  27.168  31.961  1.00  0.00     0.167 HD
ATOM     54  C   UNL A   1      42.699  29.001  34.618  1.00  0.00     0.074 A 
ATOM     55  C   UNL A   1      42.566  29.234  36.052  1.00  0.00     0.031 C 
ATOM     56  C   UNL A   1      42.957  27.905  33.838  1.00  0.00     0.034 A 
BRANCH  43  57
ATOM     57  C   UNL A   1      41.282  26.578  28.148  1.00  0.00     0.023 A 
ATOM     58  C   UNL A   1      41.591  25.228  28.420  1.00  0.00     0.031 A 
ATOM     59  C   UNL A   1      41.146  26.885  26.778  1.00  0.00     0.131 A 
ATOM     60  C   UNL A   1      41.785  24.287  27.391  1.00  0.00     0.055 A 
ATOM     61  C   UNL A   1      41.353  25.953  25.751  1.00  0.00     0.041 A 
ATOM     62  F   UNL A   1      40.779  28.087  26.333  1.00  0.00    -0.206 F 
ATOM     63  C   UNL A   1      41.679  24.644  26.053  1.00  0.00     0.022 A 
BRANCH  60  64
ATOM     64  S   UNL A   1      42.180  22.576  27.833  1.00  0.00     0.124 S 
ATOM     65  O   UNL A   1      42.927  22.120  26.665  1.00  0.00    -0.237 OA
ATOM     66  O   UNL A   1      42.941  22.742  29.065  1.00  0.00    -0.237 OA
ATOM     67  O   UNL A   1      40.864  21.959  28.001  1.00  0.00    -0.744 OA
ENDBRANCH  60  64
ENDBRANCH  43  57
BRANCH  44  68
ATOM     68  C   UNL A   1      40.544  33.274  35.288  1.00  0.00     0.023 A 
ATOM     69  C   UNL A   1      39.513  32.540  35.952  1.00  0.00     0.031 A 
ATOM     70  C   UNL A   1      40.721  34.612  35.671  1.00  0.00     0.131 A 
ATOM     71  C   UNL A   1      38.875  33.075  37.093  1.00  0.00     0.055 A 
ATOM     72  C   UNL A   1      40.051  35.148  36.778  1.00  0.00     0.041 A 
ATOM     73  F   UNL A   1      41.657  35.370  35.082  1.00  0.00    -0.206 F 
ATOM     74  C   UNL A   1      39.174  34.364  37.527  1.00  0.00     0.022 A 
BRANCH  71  75
ATOM     75  S   UNL A   1      37.670  32.098  38.064  1.00  0.00     0.124 S 
ATOM     76  O   UNL A   1      37.625  30.828  37.348  1.00  0.00    -0.237 OA
ATOM     77  O   UNL A   1      38.270  32.056  39.394  1.00  0.00    -0.237 OA
ATOM     78  O   UNL A   1      36.449  32.896  37.980  1.00  0.00    -0.744 OA
ENDBRANCH  71  75
ENDBRANCH  44  68
BRANCH  56  79
ATOM     79  C   UNL A   1      43.049  26.527  34.424  1.00  0.00     0.023 A 
ATOM     80  C   UNL A   1      44.283  25.893  34.561  1.00  0.00     0.031 A 
ATOM     81  C   UNL A   1      41.919  25.819  34.896  1.00  0.00     0.131 A 
ATOM     82  C   UNL A   1      44.389  24.715  35.309  1.00  0.00     0.055 A 
ATOM     83  C   UNL A   1      42.013  24.573  35.510  1.00  0.00     0.041 A 
ATOM     84  F   UNL A   1      40.681  26.331  34.857  1.00  0.00    -0.206 F 
ATOM     85  C   UNL A   1      43.262  24.030  35.760  1.00  0.00     0.022 A 
BRANCH  82  86
ATOM     86  S   UNL A   1      46.040  24.217  35.842  1.00  0.00     0.124 S 
ATOM     87  O   UNL A   1      45.763  23.389  37.012  1.00  0.00    -0.237 OA
ATOM     88  O   UNL A   1      46.520  23.500  34.663  1.00  0.00    -0.237 OA
ATOM     89  O   UNL A   1      46.710  25.485  36.116  1.00  0.00    -0.744 OA
ENDBRANCH  82  86
ENDBRANCH  56  79
ENDBRANCH  30  31
ENDBRANCH  23  25
ENDBRANCH  22  23
ENDBRANCH  21  22
ENDBRANCH   1  21
TORSDOF 18
ENDMDL
