MODEL 1
REMARK VINA RESULT:     -12.0      0.000      0.000
REMARK SMILES O=C(C[C@H](NC(=O)[C@]12C[C@H]3C[C@H](C[C@H](C3)C1)C2)c1cccc([N+](=O)[O-])c1)OCCOCCOC(=O)c1ccc(-c2c3nc(c(-c4cc(S(=O)(=O)[O-])ccc4F)c4ccc([nH]4)c(-c4cc(S(=O)(=O)[O-])ccc4F)c4nc(c(-c5cc(S(=O)(=O)[O-])ccc5F)c5ccc2[nH]5)C=C4)C=C3)cc1
REMARK SMILES IDX 30 1 29 2 28 3 27 4 2 5 1 6 3 7 4 8 18 9 19 10 26 11 20 12
REMARK SMILES IDX 22 13 21 14 23 15 24 16 25 17 5 18 6 19 7 21 8 22 9 23 16 24
REMARK SMILES IDX 17 25 10 26 14 27 12 28 11 29 15 30 13 31 31 32 32 33 33 34
REMARK SMILES IDX 34 35 35 36 36 37 37 38 98 39 38 40 97 41 39 42 40 43 41 44
REMARK SMILES IDX 91 45 42 46 96 47 90 48 92 49 43 50 95 51 89 52 88 53 44 55
REMARK SMILES IDX 76 56 56 57 75 58 57 59 60 60 74 61 93 62 58 63 59 64 73 66
REMARK SMILES IDX 94 67 61 68 45 69 46 70 54 71 47 72 53 73 55 74 52 75 48 76
REMARK SMILES IDX 49 77 50 78 51 79 77 80 78 81 86 82 79 83 85 84 87 85 84 86
REMARK SMILES IDX 80 87 81 88 82 89 83 90 62 91 63 92 71 93 64 94 70 95 72 96
REMARK SMILES IDX 69 97 65 98 66 99 67 100 68 101
REMARK H PARENT 5 20 92 54 60 65
REMARK Flexibility Score: inf
ROOT
ATOM      1  O   UNL A   1      37.964  21.398  25.712  1.00  0.00    -0.374 OA
ENDROOT
BRANCH   1   2
ATOM      2  C   UNL A   1      36.661  21.975  25.766  1.00  0.00     0.202 C 
BRANCH   2   3
ATOM      3  C   UNL A   1      36.597  23.436  25.348  1.00  0.00     0.261 C 
BRANCH   3   4
ATOM      4  O   UNL A   1      35.469  23.724  24.530  1.00  0.00    -0.463 OA
BRANCH   4   5
ATOM      5  C   UNL A   1      35.229  23.156  23.342  1.00  0.00     0.308 C 
ATOM      6  O   UNL A   1      36.189  22.935  22.603  1.00  0.00    -0.252 OA
BRANCH   5   7
ATOM      7  C   UNL A   1      33.818  22.904  22.861  1.00  0.00     0.152 C 
BRANCH   7   8
ATOM      8  C   UNL A   1      32.674  22.705  23.848  1.00  0.00     0.123 C 
BRANCH   8   9
ATOM      9  C   UNL A   1      32.600  21.205  24.238  1.00  0.00    -0.018 A 
ATOM     10  C   UNL A   1      32.693  20.805  25.591  1.00  0.00     0.006 A 
ATOM     11  C   UNL A   1      32.573  20.193  23.262  1.00  0.00     0.091 A 
ATOM     12  C   UNL A   1      32.897  19.467  25.952  1.00  0.00     0.007 A 
ATOM     13  C   UNL A   1      32.756  18.844  23.636  1.00  0.00     0.269 A 
ATOM     14  C   UNL A   1      32.945  18.481  24.974  1.00  0.00     0.085 A 
BRANCH  13  15
ATOM     15  N   UNL A   1      32.799  17.801  22.603  1.00  0.00     0.062 N 
ATOM     16  O   UNL A   1      33.571  16.848  22.775  1.00  0.00    -0.258 OA
ATOM     17  O   UNL A   1      32.053  17.939  21.622  1.00  0.00    -0.258 OA
ENDBRANCH  13  15
ENDBRANCH   8   9
BRANCH   8  18
ATOM     18  N   UNL A   1      32.708  23.494  25.113  1.00  0.00    -0.348 N 
ATOM     19  C   UNL A   1      32.296  24.710  25.586  1.00  0.00     0.226 C 
ATOM     20  H   UNL A   1      33.165  22.987  25.822  1.00  0.00     0.164 HD
ATOM     21  O   UNL A   1      32.209  24.798  26.816  1.00  0.00    -0.274 OA
BRANCH  19  22
ATOM     22  C   UNL A   1      32.051  25.957  24.713  1.00  0.00     0.050 C 
ATOM     23  C   UNL A   1      33.300  26.328  23.884  1.00  0.00     0.020 C 
ATOM     24  C   UNL A   1      31.447  27.068  25.623  1.00  0.00     0.020 C 
ATOM     25  C   UNL A   1      30.965  25.753  23.602  1.00  0.00     0.020 C 
ATOM     26  C   UNL A   1      33.137  27.714  23.243  1.00  0.00    -0.010 C 
ATOM     27  C   UNL A   1      31.309  28.388  24.863  1.00  0.00    -0.010 C 
ATOM     28  C   UNL A   1      30.750  27.075  22.798  1.00  0.00    -0.010 C 
ATOM     29  C   UNL A   1      32.066  27.557  22.153  1.00  0.00     0.007 C 
ATOM     30  C   UNL A   1      32.663  28.779  24.252  1.00  0.00     0.007 C 
ATOM     31  C   UNL A   1      30.272  28.185  23.749  1.00  0.00     0.007 C 
ENDBRANCH  19  22
ENDBRANCH   8  18
ENDBRANCH   7   8
ENDBRANCH   5   7
ENDBRANCH   4   5
ENDBRANCH   3   4
ENDBRANCH   2   3
ENDBRANCH   1   2
BRANCH   1  32
ATOM     32  C   UNL A   1      38.061  20.123  25.070  1.00  0.00     0.202 C 
BRANCH  32  33
ATOM     33  C   UNL A   1      39.322  19.364  25.481  1.00  0.00     0.261 C 
BRANCH  33  34
ATOM     34  O   UNL A   1      39.848  19.916  26.689  1.00  0.00    -0.460 OA
BRANCH  34  35
ATOM     35  C   UNL A   1      41.190  20.151  26.673  1.00  0.00     0.338 C 
ATOM     36  O   UNL A   1      42.060  19.404  26.273  1.00  0.00    -0.246 OA
BRANCH  35  37
ATOM     37  C   UNL A   1      41.383  21.597  26.956  1.00  0.00     0.060 A 
ATOM     38  C   UNL A   1      40.860  22.524  26.039  1.00  0.00     0.016 A 
ATOM     39  C   UNL A   1      41.902  22.029  28.182  1.00  0.00     0.016 A 
ATOM     40  C   UNL A   1      40.827  23.879  26.359  1.00  0.00     0.010 A 
ATOM     41  C   UNL A   1      41.901  23.385  28.488  1.00  0.00     0.010 A 
ATOM     42  C   UNL A   1      41.385  24.311  27.568  1.00  0.00    -0.014 A 
BRANCH  42  43
ATOM     43  C   UNL A   1      41.727  25.735  27.747  1.00  0.00     0.031 A 
ATOM     44  C   UNL A   1      43.065  26.166  27.222  1.00  0.00     0.074 A 
ATOM     45  C   UNL A   1      40.903  26.587  28.378  1.00  0.00     0.049 A 
ATOM     46  N   UNL A   1      43.683  27.306  27.352  1.00  0.00    -0.248 NA
ATOM     47  C   UNL A   1      43.818  25.152  26.463  1.00  0.00     0.031 C 
ATOM     48  C   UNL A   1      39.570  26.263  28.884  1.00  0.00     0.029 A 
ATOM     49  N   UNL A   1      41.082  27.903  28.715  1.00  0.00    -0.354 N 
ATOM     50  C   UNL A   1      44.898  27.144  26.698  1.00  0.00     0.074 A 
ATOM     51  C   UNL A   1      44.951  25.784  26.216  1.00  0.00     0.031 C 
ATOM     52  C   UNL A   1      39.058  27.353  29.484  1.00  0.00     0.029 A 
ATOM     53  C   UNL A   1      40.043  28.433  29.442  1.00  0.00     0.049 A 
ATOM     54  H   UNL A   1      41.881  28.420  28.461  1.00  0.00     0.167 HD
ATOM     55  C   UNL A   1      45.880  28.057  26.513  1.00  0.00     0.034 A 
ATOM     56  C   UNL A   1      39.929  29.642  30.028  1.00  0.00     0.034 A 
ATOM     57  C   UNL A   1      45.808  29.397  27.033  1.00  0.00     0.049 A 
ATOM     58  C   UNL A   1      41.076  30.618  29.884  1.00  0.00     0.074 A 
ATOM     59  C   UNL A   1      46.730  30.418  26.917  1.00  0.00     0.029 A 
ATOM     60  N   UNL A   1      44.749  29.896  27.784  1.00  0.00    -0.354 N 
ATOM     61  N   UNL A   1      42.221  30.465  29.257  1.00  0.00    -0.248 NA
ATOM     62  C   UNL A   1      40.913  31.930  30.522  1.00  0.00     0.031 C 
ATOM     63  C   UNL A   1      46.268  31.507  27.663  1.00  0.00     0.029 A 
ATOM     64  C   UNL A   1      45.012  31.199  28.167  1.00  0.00     0.049 A 
ATOM     65  H   UNL A   1      43.932  29.395  28.011  1.00  0.00     0.167 HD
ATOM     66  C   UNL A   1      42.897  31.676  29.392  1.00  0.00     0.074 A 
ATOM     67  C   UNL A   1      42.024  32.549  30.152  1.00  0.00     0.031 C 
ATOM     68  C   UNL A   1      44.121  32.043  28.930  1.00  0.00     0.034 A 
BRANCH  55  69
ATOM     69  C   UNL A   1      47.116  27.602  25.780  1.00  0.00     0.023 A 
ATOM     70  C   UNL A   1      47.335  27.921  24.428  1.00  0.00     0.031 A 
ATOM     71  C   UNL A   1      48.061  26.783  26.423  1.00  0.00     0.131 A 
ATOM     72  C   UNL A   1      48.426  27.366  23.744  1.00  0.00     0.055 A 
ATOM     73  C   UNL A   1      49.192  26.305  25.760  1.00  0.00     0.041 A 
ATOM     74  F   UNL A   1      47.886  26.412  27.701  1.00  0.00    -0.206 F 
ATOM     75  C   UNL A   1      49.372  26.583  24.409  1.00  0.00     0.022 A 
BRANCH  72  76
ATOM     76  S   UNL A   1      48.504  27.547  21.940  1.00  0.00     0.124 S 
ATOM     77  O   UNL A   1      49.596  28.506  21.788  1.00  0.00    -0.237 OA
ATOM     78  O   UNL A   1      48.782  26.186  21.498  1.00  0.00    -0.237 OA
ATOM     79  O   UNL A   1      47.181  28.060  21.591  1.00  0.00    -0.744 OA
ENDBRANCH  72  76
ENDBRANCH  55  69
BRANCH  56  80
ATOM     80  C   UNL A   1      38.718  29.994  30.827  1.00  0.00     0.023 A 
ATOM     81  C   UNL A   1      37.682  30.762  30.274  1.00  0.00     0.031 A 
ATOM     82  C   UNL A   1      38.606  29.615  32.178  1.00  0.00     0.131 A 
ATOM     83  C   UNL A   1      36.606  31.171  31.078  1.00  0.00     0.055 A 
ATOM     84  C   UNL A   1      37.503  29.974  32.957  1.00  0.00     0.041 A 
ATOM     85  F   UNL A   1      39.568  28.882  32.761  1.00  0.00    -0.206 F 
ATOM     86  C   UNL A   1      36.501  30.769  32.410  1.00  0.00     0.022 A 
BRANCH  83  87
ATOM     87  S   UNL A   1      35.388  32.320  30.378  1.00  0.00     0.124 S 
ATOM     88  O   UNL A   1      34.440  32.450  31.478  1.00  0.00    -0.237 OA
ATOM     89  O   UNL A   1      36.208  33.493  30.094  1.00  0.00    -0.237 OA
ATOM     90  O   UNL A   1      34.888  31.610  29.203  1.00  0.00    -0.744 OA
ENDBRANCH  83  87
ENDBRANCH  56  80
BRANCH  68  91
ATOM     91  C   UNL A   1      44.556  33.465  29.185  1.00  0.00     0.023 A 
ATOM     92  C   UNL A   1      44.143  34.526  28.363  1.00  0.00     0.031 A 
ATOM     93  C   UNL A   1      45.391  33.759  30.278  1.00  0.00     0.131 A 
ATOM     94  C   UNL A   1      44.616  35.823  28.611  1.00  0.00     0.055 A 
ATOM     95  C   UNL A   1      45.800  35.061  30.562  1.00  0.00     0.041 A 
ATOM     96  F   UNL A   1      45.815  32.781  31.096  1.00  0.00    -0.206 F 
ATOM     97  C   UNL A   1      45.425  36.100  29.717  1.00  0.00     0.022 A 
BRANCH  94  98
ATOM     98  S   UNL A   1      44.243  37.129  27.410  1.00  0.00     0.124 S 
ATOM     99  O   UNL A   1      45.526  37.293  26.733  1.00  0.00    -0.237 OA
ATOM    100  O   UNL A   1      43.177  36.527  26.616  1.00  0.00    -0.237 OA
ATOM    101  O   UNL A   1      43.833  38.256  28.245  1.00  0.00    -0.744 OA
ENDBRANCH  94  98
ENDBRANCH  68  91
ENDBRANCH  42  43
ENDBRANCH  35  37
ENDBRANCH  34  35
ENDBRANCH  33  34
ENDBRANCH  32  33
ENDBRANCH   1  32
TORSDOF 22
ENDMDL
MODEL 2
REMARK VINA RESULT:     -11.7      2.547      9.038
REMARK SMILES O=C(C[C@H](NC(=O)[C@]12C[C@H]3C[C@H](C[C@H](C3)C1)C2)c1cccc([N+](=O)[O-])c1)OCCOCCOC(=O)c1ccc(-c2c3nc(c(-c4cc(S(=O)(=O)[O-])ccc4F)c4ccc([nH]4)c(-c4cc(S(=O)(=O)[O-])ccc4F)c4nc(c(-c5cc(S(=O)(=O)[O-])ccc5F)c5ccc2[nH]5)C=C4)C=C3)cc1
REMARK SMILES IDX 30 1 29 2 28 3 27 4 2 5 1 6 3 7 4 8 18 9 19 10 26 11 20 12
REMARK SMILES IDX 22 13 21 14 23 15 24 16 25 17 5 18 6 19 7 21 8 22 9 23 16 24
REMARK SMILES IDX 17 25 10 26 14 27 12 28 11 29 15 30 13 31 31 32 32 33 33 34
REMARK SMILES IDX 34 35 35 36 36 37 37 38 98 39 38 40 97 41 39 42 40 43 41 44
REMARK SMILES IDX 91 45 42 46 96 47 90 48 92 49 43 50 95 51 89 52 88 53 44 55
REMARK SMILES IDX 76 56 56 57 75 58 57 59 60 60 74 61 93 62 58 63 59 64 73 66
REMARK SMILES IDX 94 67 61 68 45 69 46 70 54 71 47 72 53 73 55 74 52 75 48 76
REMARK SMILES IDX 49 77 50 78 51 79 77 80 78 81 86 82 79 83 85 84 87 85 84 86
REMARK SMILES IDX 80 87 81 88 82 89 83 90 62 91 63 92 71 93 64 94 70 95 72 96
REMARK SMILES IDX 69 97 65 98 66 99 67 100 68 101
REMARK H PARENT 5 20 92 54 60 65
REMARK Flexibility Score: inf
ROOT
ATOM      1  O   UNL A   1      34.480  31.945  29.374  1.00  0.00    -0.374 OA
ENDROOT
BRANCH   1   2
ATOM      2  C   UNL A   1      34.624  31.892  27.957  1.00  0.00     0.202 C 
BRANCH   2   3
ATOM      3  C   UNL A   1      34.956  30.515  27.404  1.00  0.00     0.261 C 
BRANCH   3   4
ATOM      4  O   UNL A   1      33.860  29.611  27.485  1.00  0.00    -0.463 OA
BRANCH   4   5
ATOM      5  C   UNL A   1      32.813  29.612  26.650  1.00  0.00     0.308 C 
ATOM      6  O   UNL A   1      31.702  29.865  27.118  1.00  0.00    -0.252 OA
BRANCH   5   7
ATOM      7  C   UNL A   1      32.959  29.195  25.204  1.00  0.00     0.152 C 
BRANCH   7   8
ATOM      8  C   UNL A   1      32.536  27.806  24.739  1.00  0.00     0.123 C 
BRANCH   8   9
ATOM      9  C   UNL A   1      31.029  27.834  24.375  1.00  0.00    -0.018 A 
ATOM     10  C   UNL A   1      30.200  26.720  24.645  1.00  0.00     0.006 A 
ATOM     11  C   UNL A   1      30.469  28.900  23.650  1.00  0.00     0.091 A 
ATOM     12  C   UNL A   1      28.916  26.607  24.097  1.00  0.00     0.007 A 
ATOM     13  C   UNL A   1      29.164  28.788  23.120  1.00  0.00     0.269 A 
ATOM     14  C   UNL A   1      28.398  27.634  23.317  1.00  0.00     0.085 A 
BRANCH  13  15
ATOM     15  N   UNL A   1      28.614  29.877  22.303  1.00  0.00     0.062 N 
ATOM     16  O   UNL A   1      29.092  30.051  21.173  1.00  0.00    -0.258 OA
ATOM     17  O   UNL A   1      27.700  30.553  22.796  1.00  0.00    -0.258 OA
ENDBRANCH  13  15
ENDBRANCH   8   9
BRANCH   8  18
ATOM     18  N   UNL A   1      33.266  27.214  23.581  1.00  0.00    -0.348 N 
ATOM     19  C   UNL A   1      33.664  25.988  23.126  1.00  0.00     0.226 C 
ATOM     20  H   UNL A   1      33.546  27.920  22.955  1.00  0.00     0.164 HD
ATOM     21  O   UNL A   1      33.925  25.929  21.918  1.00  0.00    -0.274 OA
BRANCH  19  22
ATOM     22  C   UNL A   1      33.903  24.752  24.017  1.00  0.00     0.050 C 
ATOM     23  C   UNL A   1      34.903  25.055  25.155  1.00  0.00     0.020 C 
ATOM     24  C   UNL A   1      34.228  23.546  23.088  1.00  0.00     0.020 C 
ATOM     25  C   UNL A   1      32.634  24.283  24.808  1.00  0.00     0.020 C 
ATOM     26  C   UNL A   1      35.340  23.759  25.855  1.00  0.00    -0.010 C 
ATOM     27  C   UNL A   1      34.621  22.312  23.902  1.00  0.00    -0.010 C 
ATOM     28  C   UNL A   1      32.953  23.005  25.646  1.00  0.00    -0.010 C 
ATOM     29  C   UNL A   1      34.113  23.259  26.632  1.00  0.00     0.007 C 
ATOM     30  C   UNL A   1      35.772  22.666  24.857  1.00  0.00     0.007 C 
ATOM     31  C   UNL A   1      33.391  21.868  24.707  1.00  0.00     0.007 C 
ENDBRANCH  19  22
ENDBRANCH   8  18
ENDBRANCH   7   8
ENDBRANCH   5   7
ENDBRANCH   4   5
ENDBRANCH   3   4
ENDBRANCH   2   3
ENDBRANCH   1   2
BRANCH   1  32
ATOM     32  C   UNL A   1      34.345  33.250  29.945  1.00  0.00     0.202 C 
BRANCH  32  33
ATOM     33  C   UNL A   1      34.481  33.230  31.468  1.00  0.00     0.261 C 
BRANCH  33  34
ATOM     34  O   UNL A   1      35.842  33.453  31.836  1.00  0.00    -0.460 OA
BRANCH  34  35
ATOM     35  C   UNL A   1      36.371  32.512  32.670  1.00  0.00     0.338 C 
ATOM     36  O   UNL A   1      35.917  32.136  33.731  1.00  0.00    -0.246 OA
BRANCH  35  37
ATOM     37  C   UNL A   1      37.443  31.814  31.916  1.00  0.00     0.060 A 
ATOM     38  C   UNL A   1      38.278  30.931  32.621  1.00  0.00     0.016 A 
ATOM     39  C   UNL A   1      37.507  31.885  30.519  1.00  0.00     0.016 A 
ATOM     40  C   UNL A   1      39.154  30.097  31.931  1.00  0.00     0.010 A 
ATOM     41  C   UNL A   1      38.406  31.078  29.831  1.00  0.00     0.010 A 
ATOM     42  C   UNL A   1      39.245  30.201  30.538  1.00  0.00    -0.014 A 
BRANCH  42  43
ATOM     43  C   UNL A   1      40.417  29.645  29.838  1.00  0.00     0.031 A 
ATOM     44  C   UNL A   1      41.588  30.569  29.670  1.00  0.00     0.074 A 
ATOM     45  C   UNL A   1      40.423  28.395  29.347  1.00  0.00     0.049 A 
ATOM     46  N   UNL A   1      42.689  30.403  28.992  1.00  0.00    -0.248 NA
ATOM     47  C   UNL A   1      41.484  31.873  30.348  1.00  0.00     0.031 C 
ATOM     48  C   UNL A   1      39.346  27.418  29.499  1.00  0.00     0.029 A 
ATOM     49  N   UNL A   1      41.369  27.743  28.601  1.00  0.00    -0.354 N 
ATOM     50  C   UNL A   1      43.405  31.584  29.156  1.00  0.00     0.074 A 
ATOM     51  C   UNL A   1      42.593  32.473  29.954  1.00  0.00     0.031 C 
ATOM     52  C   UNL A   1      39.688  26.291  28.848  1.00  0.00     0.029 A 
ATOM     53  C   UNL A   1      40.984  26.486  28.200  1.00  0.00     0.049 A 
ATOM     54  H   UNL A   1      42.242  28.138  28.374  1.00  0.00     0.167 HD
ATOM     55  C   UNL A   1      44.634  31.892  28.683  1.00  0.00     0.034 A 
ATOM     56  C   UNL A   1      41.604  25.615  27.377  1.00  0.00     0.034 A 
ATOM     57  C   UNL A   1      45.404  30.993  27.864  1.00  0.00     0.049 A 
ATOM     58  C   UNL A   1      42.939  26.015  26.788  1.00  0.00     0.074 A 
ATOM     59  C   UNL A   1      46.660  31.181  27.321  1.00  0.00     0.029 A 
ATOM     60  N   UNL A   1      44.976  29.734  27.458  1.00  0.00    -0.354 N 
ATOM     61  N   UNL A   1      43.618  27.129  26.951  1.00  0.00    -0.248 NA
ATOM     62  C   UNL A   1      43.594  25.040  25.907  1.00  0.00     0.031 C 
ATOM     63  C   UNL A   1      46.958  30.073  26.525  1.00  0.00     0.029 A 
ATOM     64  C   UNL A   1      45.930  29.149  26.644  1.00  0.00     0.049 A 
ATOM     65  H   UNL A   1      44.120  29.319  27.712  1.00  0.00     0.167 HD
ATOM     66  C   UNL A   1      44.797  26.970  26.226  1.00  0.00     0.074 A 
ATOM     67  C   UNL A   1      44.737  25.648  25.634  1.00  0.00     0.031 C 
ATOM     68  C   UNL A   1      45.838  27.828  26.065  1.00  0.00     0.034 A 
BRANCH  55  69
ATOM     69  C   UNL A   1      45.167  33.268  28.994  1.00  0.00     0.023 A 
ATOM     70  C   UNL A   1      44.843  34.384  28.203  1.00  0.00     0.031 A 
ATOM     71  C   UNL A   1      46.063  33.456  30.061  1.00  0.00     0.131 A 
ATOM     72  C   UNL A   1      45.465  35.618  28.442  1.00  0.00     0.055 A 
ATOM     73  C   UNL A   1      46.613  34.707  30.348  1.00  0.00     0.041 A 
ATOM     74  F   UNL A   1      46.441  32.421  30.827  1.00  0.00    -0.206 F 
ATOM     75  C   UNL A   1      46.326  35.794  29.528  1.00  0.00     0.022 A 
BRANCH  72  76
ATOM     76  S   UNL A   1      45.261  36.944  27.222  1.00  0.00     0.124 S 
ATOM     77  O   UNL A   1      45.550  38.130  28.024  1.00  0.00    -0.237 OA
ATOM     78  O   UNL A   1      46.254  36.599  26.211  1.00  0.00    -0.237 OA
ATOM     79  O   UNL A   1      43.868  36.810  26.801  1.00  0.00    -0.744 OA
ENDBRANCH  72  76
ENDBRANCH  55  69
BRANCH  56  80
ATOM     80  C   UNL A   1      40.973  24.309  27.029  1.00  0.00     0.023 A 
ATOM     81  C   UNL A   1      41.713  23.116  27.053  1.00  0.00     0.031 A 
ATOM     82  C   UNL A   1      39.632  24.240  26.610  1.00  0.00     0.131 A 
ATOM     83  C   UNL A   1      41.127  21.917  26.618  1.00  0.00     0.055 A 
ATOM     84  C   UNL A   1      39.035  23.034  26.234  1.00  0.00     0.041 A 
ATOM     85  F   UNL A   1      38.876  25.349  26.564  1.00  0.00    -0.206 F 
ATOM     86  C   UNL A   1      39.789  21.864  26.224  1.00  0.00     0.022 A 
BRANCH  83  87
ATOM     87  S   UNL A   1      42.171  20.440  26.482  1.00  0.00     0.124 S 
ATOM     88  O   UNL A   1      41.456  19.665  25.475  1.00  0.00    -0.237 OA
ATOM     89  O   UNL A   1      43.449  21.009  26.067  1.00  0.00    -0.237 OA
ATOM     90  O   UNL A   1      42.147  19.882  27.833  1.00  0.00    -0.744 OA
ENDBRANCH  83  87
ENDBRANCH  56  80
BRANCH  68  91
ATOM     91  C   UNL A   1      47.018  27.335  25.263  1.00  0.00     0.023 A 
ATOM     92  C   UNL A   1      47.211  27.706  23.923  1.00  0.00     0.031 A 
ATOM     93  C   UNL A   1      47.967  26.486  25.860  1.00  0.00     0.131 A 
ATOM     94  C   UNL A   1      48.296  27.180  23.205  1.00  0.00     0.055 A 
ATOM     95  C   UNL A   1      49.082  26.023  25.162  1.00  0.00     0.041 A 
ATOM     96  F   UNL A   1      47.830  26.100  27.140  1.00  0.00    -0.206 F 
ATOM     97  C   UNL A   1      49.243  26.358  23.822  1.00  0.00     0.022 A 
BRANCH  94  98
ATOM     98  S   UNL A   1      48.397  27.503  21.423  1.00  0.00     0.124 S 
ATOM     99  O   UNL A   1      49.568  28.368  21.338  1.00  0.00    -0.237 OA
ATOM    100  O   UNL A   1      48.554  26.161  20.872  1.00  0.00    -0.237 OA
ATOM    101  O   UNL A   1      47.122  28.151  21.120  1.00  0.00    -0.744 OA
ENDBRANCH  94  98
ENDBRANCH  68  91
ENDBRANCH  42  43
ENDBRANCH  35  37
ENDBRANCH  34  35
ENDBRANCH  33  34
ENDBRANCH  32  33
ENDBRANCH   1  32
TORSDOF 22
ENDMDL
MODEL 3
REMARK VINA RESULT:     -11.5      2.101      2.511
REMARK SMILES O=C(C[C@H](NC(=O)[C@]12C[C@H]3C[C@H](C[C@H](C3)C1)C2)c1cccc([N+](=O)[O-])c1)OCCOCCOC(=O)c1ccc(-c2c3nc(c(-c4cc(S(=O)(=O)[O-])ccc4F)c4ccc([nH]4)c(-c4cc(S(=O)(=O)[O-])ccc4F)c4nc(c(-c5cc(S(=O)(=O)[O-])ccc5F)c5ccc2[nH]5)C=C4)C=C3)cc1
REMARK SMILES IDX 30 1 29 2 28 3 27 4 2 5 1 6 3 7 4 8 18 9 19 10 26 11 20 12
REMARK SMILES IDX 22 13 21 14 23 15 24 16 25 17 5 18 6 19 7 21 8 22 9 23 16 24
REMARK SMILES IDX 17 25 10 26 14 27 12 28 11 29 15 30 13 31 31 32 32 33 33 34
REMARK SMILES IDX 34 35 35 36 36 37 37 38 98 39 38 40 97 41 39 42 40 43 41 44
REMARK SMILES IDX 91 45 42 46 96 47 90 48 92 49 43 50 95 51 89 52 88 53 44 55
REMARK SMILES IDX 76 56 56 57 75 58 57 59 60 60 74 61 93 62 58 63 59 64 73 66
REMARK SMILES IDX 94 67 61 68 45 69 46 70 54 71 47 72 53 73 55 74 52 75 48 76
REMARK SMILES IDX 49 77 50 78 51 79 77 80 78 81 86 82 79 83 85 84 87 85 84 86
REMARK SMILES IDX 80 87 81 88 82 89 83 90 62 91 63 92 71 93 64 94 70 95 72 96
REMARK SMILES IDX 69 97 65 98 66 99 67 100 68 101
REMARK H PARENT 5 20 92 54 60 65
REMARK Flexibility Score: inf
ROOT
ATOM      1  O   UNL A   1      37.307  21.122  25.429  1.00  0.00    -0.374 OA
ENDROOT
BRANCH   1   2
ATOM      2  C   UNL A   1      35.933  21.369  25.719  1.00  0.00     0.202 C 
BRANCH   2   3
ATOM      3  C   UNL A   1      35.582  22.833  25.931  1.00  0.00     0.261 C 
BRANCH   3   4
ATOM      4  O   UNL A   1      36.079  23.672  24.894  1.00  0.00    -0.463 OA
BRANCH   4   5
ATOM      5  C   UNL A   1      35.606  23.692  23.642  1.00  0.00     0.308 C 
ATOM      6  O   UNL A   1      36.218  23.055  22.783  1.00  0.00    -0.252 OA
BRANCH   5   7
ATOM      7  C   UNL A   1      34.432  24.564  23.257  1.00  0.00     0.152 C 
BRANCH   7   8
ATOM      8  C   UNL A   1      33.192  23.970  22.600  1.00  0.00     0.123 C 
BRANCH   8   9
ATOM      9  C   UNL A   1      32.577  22.909  23.550  1.00  0.00    -0.018 A 
ATOM     10  C   UNL A   1      32.140  23.268  24.846  1.00  0.00     0.006 A 
ATOM     11  C   UNL A   1      32.556  21.545  23.211  1.00  0.00     0.091 A 
ATOM     12  C   UNL A   1      31.832  22.303  25.813  1.00  0.00     0.007 A 
ATOM     13  C   UNL A   1      32.221  20.579  24.186  1.00  0.00     0.269 A 
ATOM     14  C   UNL A   1      31.887  20.952  25.493  1.00  0.00     0.085 A 
BRANCH  13  15
ATOM     15  N   UNL A   1      32.271  19.152  23.844  1.00  0.00     0.062 N 
ATOM     16  O   UNL A   1      32.315  18.335  24.774  1.00  0.00    -0.258 OA
ATOM     17  O   UNL A   1      32.261  18.853  22.641  1.00  0.00    -0.258 OA
ENDBRANCH  13  15
ENDBRANCH   8   9
BRANCH   8  18
ATOM     18  N   UNL A   1      32.101  24.908  22.210  1.00  0.00    -0.348 N 
ATOM     19  C   UNL A   1      31.715  26.200  22.440  1.00  0.00     0.226 C 
ATOM     20  H   UNL A   1      31.466  24.463  21.604  1.00  0.00     0.164 HD
ATOM     21  O   UNL A   1      30.935  26.677  21.606  1.00  0.00    -0.274 OA
BRANCH  19  22
ATOM     22  C   UNL A   1      32.094  27.024  23.687  1.00  0.00     0.050 C 
ATOM     23  C   UNL A   1      33.555  27.522  23.618  1.00  0.00     0.020 C 
ATOM     24  C   UNL A   1      31.681  26.206  24.946  1.00  0.00     0.020 C 
ATOM     25  C   UNL A   1      31.294  28.364  23.832  1.00  0.00     0.020 C 
ATOM     26  C   UNL A   1      34.000  28.094  24.973  1.00  0.00    -0.010 C 
ATOM     27  C   UNL A   1      32.155  26.891  26.228  1.00  0.00    -0.010 C 
ATOM     28  C   UNL A   1      31.709  29.109  25.140  1.00  0.00    -0.010 C 
ATOM     29  C   UNL A   1      33.223  29.406  25.158  1.00  0.00     0.007 C 
ATOM     30  C   UNL A   1      33.668  27.152  26.149  1.00  0.00     0.007 C 
ATOM     31  C   UNL A   1      31.401  28.222  26.359  1.00  0.00     0.007 C 
ENDBRANCH  19  22
ENDBRANCH   8  18
ENDBRANCH   7   8
ENDBRANCH   5   7
ENDBRANCH   4   5
ENDBRANCH   3   4
ENDBRANCH   2   3
ENDBRANCH   1   2
BRANCH   1  32
ATOM     32  C   UNL A   1      37.625  19.812  24.950  1.00  0.00     0.202 C 
BRANCH  32  33
ATOM     33  C   UNL A   1      38.940  19.290  25.527  1.00  0.00     0.261 C 
BRANCH  33  34
ATOM     34  O   UNL A   1      39.852  20.373  25.712  1.00  0.00    -0.460 OA
BRANCH  34  35
ATOM     35  C   UNL A   1      40.444  20.419  26.939  1.00  0.00     0.338 C 
ATOM     36  O   UNL A   1      40.857  19.481  27.588  1.00  0.00    -0.246 OA
BRANCH  35  37
ATOM     37  C   UNL A   1      40.765  21.843  27.215  1.00  0.00     0.060 A 
ATOM     38  C   UNL A   1      39.990  22.830  26.583  1.00  0.00     0.016 A 
ATOM     39  C   UNL A   1      41.681  22.196  28.213  1.00  0.00     0.016 A 
ATOM     40  C   UNL A   1      40.107  24.163  26.966  1.00  0.00     0.010 A 
ATOM     41  C   UNL A   1      41.825  23.531  28.573  1.00  0.00     0.010 A 
ATOM     42  C   UNL A   1      41.055  24.516  27.934  1.00  0.00    -0.014 A 
BRANCH  42  43
ATOM     43  C   UNL A   1      41.479  25.923  28.062  1.00  0.00     0.031 A 
ATOM     44  C   UNL A   1      42.850  26.250  27.545  1.00  0.00     0.074 A 
ATOM     45  C   UNL A   1      40.699  26.848  28.642  1.00  0.00     0.049 A 
ATOM     46  N   UNL A   1      43.534  27.356  27.640  1.00  0.00    -0.248 NA
ATOM     47  C   UNL A   1      43.552  25.162  26.842  1.00  0.00     0.031 C 
ATOM     48  C   UNL A   1      39.341  26.626  29.136  1.00  0.00     0.029 A 
ATOM     49  N   UNL A   1      40.953  28.164  28.929  1.00  0.00    -0.354 N 
ATOM     50  C   UNL A   1      44.747  27.094  27.016  1.00  0.00     0.074 A 
ATOM     51  C   UNL A   1      44.726  25.714  26.591  1.00  0.00     0.031 C 
ATOM     52  C   UNL A   1      38.886  27.769  29.682  1.00  0.00     0.029 A 
ATOM     53  C   UNL A   1      39.936  28.785  29.614  1.00  0.00     0.049 A 
ATOM     54  H   UNL A   1      41.785  28.621  28.669  1.00  0.00     0.167 HD
ATOM     55  C   UNL A   1      45.785  27.938  26.813  1.00  0.00     0.034 A 
ATOM     56  C   UNL A   1      39.885  30.022  30.149  1.00  0.00     0.034 A 
ATOM     57  C   UNL A   1      45.787  29.301  27.277  1.00  0.00     0.049 A 
ATOM     58  C   UNL A   1      41.092  30.921  29.987  1.00  0.00     0.074 A 
ATOM     59  C   UNL A   1      46.771  30.258  27.137  1.00  0.00     0.029 A 
ATOM     60  N   UNL A   1      44.749  29.892  27.987  1.00  0.00    -0.354 N 
ATOM     61  N   UNL A   1      42.236  30.673  29.388  1.00  0.00    -0.248 NA
ATOM     62  C   UNL A   1      40.999  32.266  30.568  1.00  0.00     0.031 C 
ATOM     63  C   UNL A   1      46.364  31.403  27.829  1.00  0.00     0.029 A 
ATOM     64  C   UNL A   1      45.084  31.193  28.322  1.00  0.00     0.049 A 
ATOM     65  H   UNL A   1      43.899  29.452  28.219  1.00  0.00     0.167 HD
ATOM     66  C   UNL A   1      42.982  31.846  29.487  1.00  0.00     0.074 A 
ATOM     67  C   UNL A   1      42.151  32.801  30.194  1.00  0.00     0.031 C 
ATOM     68  C   UNL A   1      44.233  32.119  29.033  1.00  0.00     0.034 A 
BRANCH  55  69
ATOM     69  C   UNL A   1      47.003  27.379  26.122  1.00  0.00     0.023 A 
ATOM     70  C   UNL A   1      48.008  26.695  26.829  1.00  0.00     0.031 A 
ATOM     71  C   UNL A   1      47.194  27.585  24.744  1.00  0.00     0.131 A 
ATOM     72  C   UNL A   1      49.188  26.310  26.176  1.00  0.00     0.055 A 
ATOM     73  C   UNL A   1      48.332  27.122  24.081  1.00  0.00     0.041 A 
ATOM     74  F   UNL A   1      46.289  28.265  24.024  1.00  0.00    -0.206 F 
ATOM     75  C   UNL A   1      49.344  26.494  24.800  1.00  0.00     0.022 A 
BRANCH  72  76
ATOM     76  S   UNL A   1      50.579  25.715  27.176  1.00  0.00     0.124 S 
ATOM     77  O   UNL A   1      50.662  26.746  28.208  1.00  0.00    -0.237 OA
ATOM     78  O   UNL A   1      50.113  24.406  27.617  1.00  0.00    -0.237 OA
ATOM     79  O   UNL A   1      51.695  25.696  26.234  1.00  0.00    -0.744 OA
ENDBRANCH  72  76
ENDBRANCH  55  69
BRANCH  56  80
ATOM     80  C   UNL A   1      38.686  30.479  30.910  1.00  0.00     0.023 A 
ATOM     81  C   UNL A   1      37.615  31.114  30.263  1.00  0.00     0.031 A 
ATOM     82  C   UNL A   1      38.618  30.339  32.309  1.00  0.00     0.131 A 
ATOM     83  C   UNL A   1      36.548  31.631  31.015  1.00  0.00     0.055 A 
ATOM     84  C   UNL A   1      37.526  30.802  33.046  1.00  0.00     0.041 A 
ATOM     85  F   UNL A   1      39.615  29.742  32.981  1.00  0.00    -0.206 F 
ATOM     86  C   UNL A   1      36.487  31.465  32.400  1.00  0.00     0.022 A 
BRANCH  83  87
ATOM     87  S   UNL A   1      35.281  32.612  30.163  1.00  0.00     0.124 S 
ATOM     88  O   UNL A   1      36.054  33.762  29.710  1.00  0.00    -0.237 OA
ATOM     89  O   UNL A   1      34.832  31.690  29.125  1.00  0.00    -0.237 OA
ATOM     90  O   UNL A   1      34.304  32.890  31.214  1.00  0.00    -0.744 OA
ENDBRANCH  83  87
ENDBRANCH  56  80
BRANCH  68  91
ATOM     91  C   UNL A   1      44.749  33.522  29.239  1.00  0.00     0.023 A 
ATOM     92  C   UNL A   1      45.502  33.877  30.370  1.00  0.00     0.031 A 
ATOM     93  C   UNL A   1      44.486  34.515  28.278  1.00  0.00     0.131 A 
ATOM     94  C   UNL A   1      45.916  35.207  30.541  1.00  0.00     0.055 A 
ATOM     95  C   UNL A   1      44.961  35.818  28.419  1.00  0.00     0.041 A 
ATOM     96  F   UNL A   1      43.771  34.229  27.178  1.00  0.00    -0.206 F 
ATOM     97  C   UNL A   1      45.668  36.174  29.563  1.00  0.00     0.022 A 
BRANCH  94  98
ATOM     98  S   UNL A   1      46.695  35.679  32.108  1.00  0.00     0.124 S 
ATOM     99  O   UNL A   1      47.059  37.070  31.858  1.00  0.00    -0.237 OA
ATOM    100  O   UNL A   1      45.617  35.466  33.069  1.00  0.00    -0.237 OA
ATOM    101  O   UNL A   1      47.821  34.754  32.224  1.00  0.00    -0.744 OA
ENDBRANCH  94  98
ENDBRANCH  68  91
ENDBRANCH  42  43
ENDBRANCH  35  37
ENDBRANCH  34  35
ENDBRANCH  33  34
ENDBRANCH  32  33
ENDBRANCH   1  32
TORSDOF 22
ENDMDL
